REMARK  4 active torsions:
REMARK  status: ('A' for Active; 'I' for Inactive)
REMARK    1  A    between atoms: C_4  and  C_5 
REMARK    2  A    between atoms: C_7  and  C_8 
REMARK    3  A    between atoms: C_8  and  N_9 
REMARK    4  A    between atoms: N_12  and  C_13 
ROOT
ATOM      1  N   UNL d   1       9.217   6.028 -10.850  0.00  0.00     0.141 N 
ATOM      2  C   UNL d   1       9.792   7.381 -10.820  0.00  0.00     0.274 C 
ATOM      3  C   UNL d   1      11.016   7.437  -9.886  0.00  0.00     0.137 C 
ATOM      4  N   UNL d   1      10.640   6.986  -8.547  0.00  0.00    -0.344 N 
ATOM      5  C   UNL d   1       9.956   5.693  -8.515  0.00  0.00     0.137 C 
ATOM      6  C   UNL d   1       8.770   5.682  -9.494  0.00  0.00     0.274 C 
ENDROOT
BRANCH   1   7
ATOM      7  C   UNL d   1       8.067   6.009 -11.750  0.00  0.00     0.251 C 
BRANCH   7   8
ATOM      8  C   UNL d   1       7.787   4.606 -12.256  0.00  0.00     0.038 A 
ATOM      9  C   UNL d   1       7.732   4.306 -13.738  0.00  0.00     0.024 A 
ATOM     10  C   UNL d   1       6.459   4.310 -12.924  0.00  0.00     0.007 A 
BRANCH   9  11
ATOM     11  C   UNL d   1       8.300   3.034 -14.286  0.00  0.00    -0.022 A 
ATOM     12  C   UNL d   1       9.697   2.835 -14.357  0.00  0.00    -0.004 A 
ATOM     13  C   UNL d   1      10.218   1.618 -14.845  0.00  0.00    -0.000 A 
ATOM     14  C   UNL d   1       9.343   0.593 -15.256  0.00  0.00    -0.000 A 
ATOM     15  C   UNL d   1       7.949   0.792 -15.204  0.00  0.00    -0.000 A 
ATOM     16  C   UNL d   1       7.436   2.011 -14.727  0.00  0.00    -0.004 A 
ENDBRANCH   9  11
ENDBRANCH   7   8
ENDBRANCH   1   7
BRANCH   4  17
ATOM     17  C   UNL d   1      10.918   7.723  -7.377  0.00  0.00     0.056 A 
ATOM     18  C   UNL d   1      11.062   7.070  -6.127  0.00  0.00     0.017 A 
ATOM     19  C   UNL d   1      11.325   7.798  -4.954  0.00  0.00     0.002 A 
ATOM     20  C   UNL d   1      11.445   9.200  -4.996  0.00  0.00     0.000 A 
ATOM     21  C   UNL d   1      11.314   9.865  -6.230  0.00  0.00     0.002 A 
ATOM     22  C   UNL d   1      11.053   9.133  -7.405  0.00  0.00     0.017 A 
ENDBRANCH   4  17
TORSDOF 4
