REMARK  8 active torsions:
REMARK  status: ('A' for Active; 'I' for Inactive)
REMARK    1  A    between atoms: O_2  and  C_3 
REMARK    2  A    between atoms: C_8  and  N_9 
REMARK    3  A    between atoms: N_13  and  C_14 
REMARK    4  A    between atoms: C_14  and  C_15 
REMARK    5  A    between atoms: C_15  and  C_16 
REMARK    6  A    between atoms: C_16  and  C_17 
REMARK    7  A    between atoms: C_17  and  N_18 
REMARK       I    between atoms: N_18  and  C_19 
REMARK    8  A    between atoms: C_19  and  C_21 
ROOT
ATOM      1  N   UNL d   1       9.637   2.691 -16.724  0.00  0.00    -0.345 N 
ATOM      2  C   UNL d   1       9.903   4.029 -17.258  0.00  0.00     0.104 C 
ATOM      3  C   UNL d   1       9.715   5.146 -16.215  0.00  0.00     0.059 C 
ATOM      4  C   UNL d   1      10.388   4.890 -14.854  0.00  0.00     0.252 C 
ATOM      5  N   UNL d   1       9.515   4.163 -13.921  0.00  0.00     0.139 N 
ATOM      6  C   UNL d   1       9.422   2.744 -14.267  0.00  0.00     0.274 C 
ATOM      7  C   UNL d   1       8.715   2.507 -15.606  0.00  0.00     0.137 C 
ENDROOT
BRANCH   5   8
ATOM      8  C   UNL d   1      10.056   4.263 -12.562  0.00  0.00     0.250 C 
BRANCH   8   9
ATOM      9  C   UNL d   1       9.146   5.088 -11.628  0.00  0.00     0.037 C 
BRANCH   9  10
ATOM     10  C   UNL d   1       9.827   5.460 -10.299  0.00  0.00     0.029 C 
BRANCH  10  11
ATOM     11  C   UNL d   1       8.976   6.335  -9.387  0.00  0.00     0.129 C 
BRANCH  11  12
ATOM     12  N   UNL d   1       9.718   6.764  -8.202  0.00  0.00    -0.234 NA
ATOM     13  C   UNL d   1      10.395   7.916  -8.051  0.00  0.00     0.281 C 
ATOM     14  O   UNL d   1      10.537   8.745  -8.948  0.00  0.00    -0.265 OA
BRANCH  13  15
ATOM     15  C   UNL d   1      10.940   8.190  -6.701  0.00  0.00     0.087 A 
ATOM     16  S   UNL d   1      11.063   6.848  -5.580  0.00  0.00    -0.075 SA
ATOM     17  C   UNL d   1      11.754   7.891  -4.390  0.00  0.00     0.064 A 
ATOM     18  C   UNL d   1      11.876   9.189  -4.800  0.00  0.00     0.014 A 
ATOM     19 BR   UNL d   1      12.260   7.249  -2.678  0.00  0.00    -0.042 Br
ATOM     20  C   UNL d   1      11.413   9.356  -6.143  0.00  0.00     0.012 A 
ENDBRANCH  13  15
ENDBRANCH  11  12
ENDBRANCH  10  11
ENDBRANCH   9  10
ENDBRANCH   8   9
ENDBRANCH   5   8
BRANCH   1  21
ATOM     21  C   UNL d   1      10.277   1.563 -17.284  0.00  0.00     0.079 A 
ATOM     22  C   UNL d   1      11.674   1.540 -17.534  0.00  0.00     0.110 A 
ATOM     23  C   UNL d   1      12.252   0.397 -18.137  0.00  0.00     0.026 A 
ATOM     24  C   UNL d   1      11.470  -0.728 -18.450  0.00  0.00     0.002 A 
ATOM     25  C   UNL d   1      10.090  -0.716 -18.188  0.00  0.00     0.002 A 
ATOM     26  C   UNL d   1       9.500   0.429 -17.619  0.00  0.00     0.019 A 
BRANCH  22  27
ATOM     27  O   UNL d   1      12.460   2.602 -17.129  0.00  0.00    -0.327 OA
ATOM     28  C   UNL d   1      13.512   3.000 -17.998  0.00  0.00     0.181 C 
ENDBRANCH  22  27
ENDBRANCH   1  21
TORSDOF 8
