REMARK  8 active torsions:
REMARK  status: ('A' for Active; 'I' for Inactive)
REMARK    1  A    between atoms: C_2  and  C_3 
REMARK    2  A    between atoms: C_7  and  N_8 
REMARK    3  A    between atoms: N_11  and  C_12 
REMARK    4  A    between atoms: C_12  and  C_13 
REMARK    5  A    between atoms: C_13  and  C_14 
REMARK    6  A    between atoms: C_14  and  C_15 
REMARK    7  A    between atoms: C_14  and  C_22 
REMARK    8  A    between atoms: C_26  and  O_27 
ROOT
ATOM      1  C   UNL d   1      10.122   5.307 -13.491  0.00  0.00     0.044 C 
ENDROOT
BRANCH   1   2
ATOM      2  C   UNL d   1       9.626   4.859 -14.899  0.00  0.00     0.251 C 
BRANCH   2   3
ATOM      3  N   UNL d   1      10.350   3.684 -15.332  0.00  0.00     0.141 N 
ATOM      4  C   UNL d   1      11.700   4.116 -15.735  0.00  0.00     0.274 C 
ATOM      5  C   UNL d   1      12.509   2.925 -16.236  0.00  0.00     0.137 C 
ATOM      6  N   UNL d   1      11.789   2.267 -17.305  0.00  0.00    -0.344 N 
ATOM      7  C   UNL d   1      10.412   1.905 -17.022  0.00  0.00     0.137 C 
ATOM      8  C   UNL d   1       9.656   3.131 -16.500  0.00  0.00     0.274 C 
BRANCH   6   9
ATOM      9  C   UNL d   1      12.407   2.014 -18.549  0.00  0.00     0.067 A 
ATOM     10  C   UNL d   1      13.138   3.051 -19.160  0.00  0.00     0.018 A 
ATOM     11  C   UNL d   1      13.767   2.832 -20.409  0.00  0.00     0.001 A 
ATOM     12  C   UNL d   1      13.665   1.579 -21.022  0.00  0.00    -0.003 A 
ATOM     13  C   UNL d   1      12.948   0.534 -20.419  0.00  0.00    -0.010 A 
ATOM     14  C   UNL d   1      12.310   0.747 -19.164  0.00  0.00     0.069 A 
ATOM     15 CL   UNL d   1      11.481  -0.586 -18.428  0.00  0.00    -0.081 Cl
BRANCH  13  16
ATOM     16  C   UNL d   1      12.866  -0.815 -21.102  0.00  0.00     0.027 C 
ATOM     17  C   UNL d   1      13.863  -1.829 -20.524  0.00  0.00     0.005 C 
ENDBRANCH  13  16
ENDBRANCH   6   9
ENDBRANCH   2   3
ENDBRANCH   1   2
BRANCH   1  18
ATOM     18  C   UNL d   1       9.360   4.850 -12.207  0.00  0.00     0.047 C 
BRANCH  18  19
ATOM     19  C   UNL d   1       9.463   5.861 -11.041  0.00  0.00    -0.016 A 
ATOM     20  C   UNL d   1       9.122   5.444  -9.729  0.00  0.00     0.023 A 
ATOM     21  C   UNL d   1       9.114   6.374  -8.664  0.00  0.00     0.131 A 
ATOM     22  C   UNL d   1       9.512   7.712  -8.884  0.00  0.00     0.027 A 
ATOM     23  O   UNL d   1       8.673   5.988  -7.433  0.00  0.00    -0.190 OA
ATOM     24  C   UNL d   1       9.873   8.125 -10.173  0.00  0.00     0.002 A 
ATOM     25  C   UNL d   1       9.827   7.215 -11.232  0.00  0.00    -0.004 A 
ENDBRANCH  18  19
BRANCH  18  26
ATOM     26  C   UNL d   1       7.928   4.366 -12.451  0.00  0.00    -0.016 A 
ATOM     27  C   UNL d   1       7.700   3.313 -13.369  0.00  0.00     0.020 A 
ATOM     28  C   UNL d   1       6.413   2.889 -13.727  0.00  0.00     0.094 A 
ATOM     29  C   UNL d   1       5.308   3.442 -13.045  0.00  0.00     0.024 A 
ATOM     30  C   UNL d   1       5.536   4.412 -12.045  0.00  0.00     0.002 A 
ATOM     31  C   UNL d   1       6.806   4.885 -11.770  0.00  0.00    -0.004 A 
BRANCH  28  32
ATOM     32  O   UNL d   1       6.250   1.963 -14.734  0.00  0.00    -0.328 OA
ATOM     33  C   UNL d   1       7.202   0.903 -14.831  0.00  0.00     0.181 C 
ENDBRANCH  28  32
ENDBRANCH  18  26
ENDBRANCH   1  18
TORSDOF 8
