REMARK  7 active torsions:
REMARK  status: ('A' for Active; 'I' for Inactive)
REMARK    1  A    between atoms: C_6  and  N_7 
REMARK    2  A    between atoms: N_10  and  C_11 
REMARK    3  A    between atoms: C_11  and  C_12 
REMARK    4  A    between atoms: C_12  and  C_13 
REMARK    5  A    between atoms: C_13  and  C_14 
REMARK    6  A    between atoms: C_14  and  N_15 
REMARK    7  A    between atoms: N_15  and  C_16 
ROOT
ATOM      1  C   UNL d   1       8.138   5.447 -10.841  0.00  0.00     0.251 C 
ENDROOT
BRANCH   1   2
ATOM      2  N   UNL d   1       7.706   5.007 -12.159  0.00  0.00     0.141 N 
ATOM      3  C   UNL d   1       6.398   4.360 -12.029  0.00  0.00     0.274 C 
ATOM      4  C   UNL d   1       5.892   3.899 -13.406  0.00  0.00     0.137 C 
ATOM      5  N   UNL d   1       6.892   3.047 -14.036  0.00  0.00    -0.344 N 
ATOM      6  C   UNL d   1       8.238   3.595 -14.086  0.00  0.00     0.137 C 
ATOM      7  C   UNL d   1       8.679   4.054 -12.697  0.00  0.00     0.274 C 
BRANCH   5   8
ATOM      8  C   UNL d   1       6.582   1.770 -14.556  0.00  0.00     0.068 A 
ATOM      9  C   UNL d   1       5.709   0.925 -13.825  0.00  0.00     0.018 A 
ATOM     10  C   UNL d   1       5.356  -0.347 -14.321  0.00  0.00     0.002 A 
ATOM     11  C   UNL d   1       5.866  -0.784 -15.553  0.00  0.00     0.012 A 
ATOM     12  C   UNL d   1       6.731   0.046 -16.290  0.00  0.00     0.070 A 
ATOM     13 CL   UNL d   1       7.359  -0.507 -17.803  0.00  0.00    -0.081 Cl
ATOM     14  C   UNL d   1       7.091   1.321 -15.805  0.00  0.00     0.084 A 
ATOM     15 CL   UNL d   1       8.107   2.282 -16.839  0.00  0.00    -0.080 Cl
ENDBRANCH   5   8
ENDBRANCH   1   2
BRANCH   1  16
ATOM     16  C   UNL d   1       9.361   6.383 -10.971  0.00  0.00     0.037 C 
BRANCH  16  17
ATOM     17  C   UNL d   1       9.590   7.150  -9.672  0.00  0.00     0.028 C 
BRANCH  17  18
ATOM     18  C   UNL d   1      10.567   8.345  -9.784  0.00  0.00     0.127 C 
BRANCH  18  19
ATOM     19  N   UNL d   1      10.654   9.181  -8.558  0.00  0.00    -0.253 NA
BRANCH  19  20
ATOM     20  C   UNL d   1      11.014   8.610  -7.329  0.00  0.00     0.158 C 
ATOM     21  N   UNL d   1      11.051   9.437  -6.255  0.00  0.00    -0.227 NA
ATOM     22  C   UNL d   1      11.370   8.913  -5.043  0.00  0.00     0.083 A 
ATOM     23  C   UNL d   1      11.547   7.516  -4.843  0.00  0.00     0.018 A 
ATOM     24  C   UNL d   1      11.523   9.731  -3.913  0.00  0.00     0.019 A 
ATOM     25  C   UNL d   1      11.442   6.665  -5.951  0.00  0.00     0.005 C 
ATOM     26  C   UNL d   1      11.898   6.960  -3.601  0.00  0.00     0.002 A 
ATOM     27  C   UNL d   1      11.304   7.223  -7.211  0.00  0.00     0.038 C 
ATOM     28  C   UNL d   1      12.057   7.805  -2.501  0.00  0.00     0.000 A 
ATOM     29  C   UNL d   1      11.866   9.185  -2.658  0.00  0.00     0.002 A 
ENDBRANCH  19  20
ENDBRANCH  18  19
ENDBRANCH  17  18
ENDBRANCH  16  17
ENDBRANCH   1  16
TORSDOF 7
