REMARK  10 active torsions:
REMARK  status: ('A' for Active; 'I' for Inactive)
REMARK    1  A    between atoms: O_2  and  C_3 
REMARK    2  A    between atoms: C_9  and  C_10 
REMARK    3  A    between atoms: C_12  and  C_13 
REMARK    4  A    between atoms: C_13  and  N_14 
REMARK    5  A    between atoms: N_14  and  C_16 
REMARK    6  A    between atoms: C_16  and  C_17 
REMARK    7  A    between atoms: C_17  and  C_18 
REMARK    8  A    between atoms: C_18  and  S_19 
REMARK    9  A    between atoms: S_19  and  C_20 
REMARK   10  A    between atoms: C_23  and  C_24 
ROOT
ATOM      1  C   UNL d   1      10.514   4.139 -15.209  0.00  0.00     0.251 C 
ENDROOT
BRANCH   1   2
ATOM      2  N   UNL d   1      11.931   3.764 -15.171  0.00  0.00     0.139 N 
ATOM      3  C   UNL d   1      12.668   4.542 -14.193  0.00  0.00     0.285 C 
BRANCH   2   4
ATOM      4  C   UNL d   1      12.584   4.007 -16.460  0.00  0.00     0.251 C 
BRANCH   4   5
ATOM      5  C   UNL d   1      12.343   2.866 -17.438  0.00  0.00     0.038 A 
ATOM      6  C   UNL d   1      13.080   2.843 -18.771  0.00  0.00     0.026 A 
ATOM      7  C   UNL d   1      11.598   3.140 -18.735  0.00  0.00     0.007 A 
BRANCH   6   8
ATOM      8  C   UNL d   1      13.630   1.541 -19.366  0.00  0.00     0.002 A 
ATOM      9  C   UNL d   1      12.956   0.307 -19.228  0.00  0.00     0.090 A 
ATOM     10  C   UNL d   1      13.498  -0.868 -19.808  0.00  0.00     0.026 A 
ATOM     11  C   UNL d   1      14.701  -0.824 -20.529  0.00  0.00     0.032 A 
ATOM     12  C   UNL d   1      15.383   0.398 -20.673  0.00  0.00     0.140 A 
ATOM     13  F   UNL d   1      16.554   0.448 -21.364  0.00  0.00    -0.204 F 
ATOM     14  C   UNL d   1      14.850   1.572 -20.099  0.00  0.00     0.027 A 
BRANCH   9  15
ATOM     15  O   UNL d   1      11.783   0.322 -18.502  0.00  0.00    -0.328 OA
ATOM     16  C   UNL d   1      10.958  -0.837 -18.480  0.00  0.00     0.181 C 
ENDBRANCH   9  15
ENDBRANCH   6   8
ENDBRANCH   4   5
ENDBRANCH   2   4
ENDBRANCH   1   2
BRANCH   1  17
ATOM     17  C   UNL d   1       9.803   4.016 -13.841  0.00  0.00     0.047 C 
BRANCH  17  18
ATOM     18  C   UNL d   1       8.355   4.535 -13.840  0.00  0.00     0.067 C 
BRANCH  18  19
ATOM     19  S   UNL d   1       7.665   4.625 -12.150  0.00  0.00    -0.075 SA
BRANCH  19  20
ATOM     20  C   UNL d   1       8.617   5.957 -11.477  0.00  0.00     0.193 A 
ATOM     21  N   UNL d   1       9.039   5.985 -10.193  0.00  0.00    -0.289 N 
ATOM     22  C   UNL d   1       9.651   7.188 -10.117  0.00  0.00     0.167 A 
ATOM     23  C   UNL d   1       8.850   4.999  -9.149  0.00  0.00     0.134 C 
ATOM     24  N   UNL d   1       9.643   7.844 -11.281  0.00  0.00    -0.128 NA
ATOM     25  N   UNL d   1       8.982   7.034 -12.172  0.00  0.00    -0.122 NA
BRANCH  22  26
ATOM     26  C   UNL d   1      10.260   7.753  -8.920  0.00  0.00     0.036 A 
ATOM     27  C   UNL d   1       9.534   7.835  -7.712  0.00  0.00     0.003 A 
ATOM     28  C   UNL d   1      10.132   8.380  -6.561  0.00  0.00     0.000 A 
ATOM     29  C   UNL d   1      11.459   8.860  -6.615  0.00  0.00     0.000 A 
ATOM     30  C   UNL d   1      12.184   8.781  -7.819  0.00  0.00     0.000 A 
ATOM     31  C   UNL d   1      11.584   8.241  -8.972  0.00  0.00     0.003 A 
ENDBRANCH  22  26
ENDBRANCH  19  20
ENDBRANCH  18  19
ENDBRANCH  17  18
ENDBRANCH   1  17
TORSDOF 10
