REMARK  9 active torsions:
REMARK  status: ('A' for Active; 'I' for Inactive)
REMARK    1  A    between atoms: N_2  and  C_3 
REMARK    2  A    between atoms: N_2  and  C_19 
REMARK    3  A    between atoms: C_3  and  C_4 
REMARK    4  A    between atoms: C_4  and  C_5 
REMARK    5  A    between atoms: C_5  and  C_6 
REMARK    6  A    between atoms: C_6  and  O_7 
REMARK    7  A    between atoms: O_7  and  C_8 
REMARK    8  A    between atoms: C_19  and  C_20 
REMARK    9  A    between atoms: C_22  and  C_23 
ROOT
ATOM      1  C   UNL d   1       8.679   6.526 -10.885  0.00  0.00     0.250 C 
ENDROOT
BRANCH   1   2
ATOM      2  N   UNL d   1       8.895   5.301 -11.647  0.00  0.00     0.139 N 
ATOM      3  C   UNL d   1       7.665   4.514 -11.585  0.00  0.00     0.285 C 
BRANCH   2   4
ATOM      4  C   UNL d   1       9.187   5.652 -13.035  0.00  0.00     0.251 C 
BRANCH   4   5
ATOM      5  C   UNL d   1       9.616   4.446 -13.832  0.00  0.00     0.038 A 
ATOM      6  C   UNL d   1       9.518   4.476 -15.340  0.00  0.00     0.025 A 
ATOM      7  C   UNL d   1       8.601   3.583 -14.540  0.00  0.00     0.007 A 
BRANCH   6   8
ATOM      8  C   UNL d   1      10.611   3.893 -16.182  0.00  0.00    -0.011 A 
ATOM      9  C   UNL d   1      11.815   4.599 -16.419  0.00  0.00     0.064 A 
ATOM     10  C   UNL d   1      12.838   3.996 -17.178  0.00  0.00     0.068 A 
ATOM     11 CL   UNL d   1      12.048   6.183 -15.759  0.00  0.00    -0.082 Cl
ATOM     12  C   UNL d   1      12.659   2.704 -17.701  0.00  0.00     0.012 A 
ATOM     13 CL   UNL d   1      14.321   4.826 -17.483  0.00  0.00    -0.082 Cl
ATOM     14  C   UNL d   1      11.462   2.006 -17.477  0.00  0.00     0.001 A 
ATOM     15  C   UNL d   1      10.440   2.607 -16.735  0.00  0.00    -0.003 A 
ENDBRANCH   6   8
ENDBRANCH   4   5
ENDBRANCH   2   4
ENDBRANCH   1   2
BRANCH   1  16
ATOM     16  C   UNL d   1       9.957   7.360 -10.719  0.00  0.00     0.038 C 
BRANCH  16  17
ATOM     17  C   UNL d   1       9.757   8.489  -9.671  0.00  0.00     0.035 C 
BRANCH  17  18
ATOM     18  C   UNL d   1      11.164   9.102  -9.375  0.00  0.00     0.149 C 
BRANCH  18  19
ATOM     19  O   UNL d   1      11.200   9.648  -8.070  0.00  0.00    -0.331 OA
BRANCH  19  20
ATOM     20  C   UNL d   1      11.320   8.836  -6.984  0.00  0.00     0.096 A 
ATOM     21  C   UNL d   1      11.852   9.424  -5.789  0.00  0.00     0.043 A 
ATOM     22  C   UNL d   1      11.956   8.623  -4.643  0.00  0.00     0.082 A 
ATOM     23  C   UNL d   1      11.512   7.286  -4.681  0.00  0.00    -0.004 A 
ATOM     24  N   UNL d   1      12.576   9.077  -3.461  0.00  0.00    -0.212 NA
ATOM     25  C   UNL d   1      10.956   6.763  -5.862  0.00  0.00    -0.001 A 
ATOM     26  C   UNL d   1      11.735   6.388  -3.523  0.00  0.00     0.038 C 
ATOM     27  C   UNL d   1      10.908   7.487  -7.044  0.00  0.00     0.024 A 
ATOM     28  C   UNL d   1      11.678   7.145  -2.225  0.00  0.00     0.095 C 
ATOM     29  C   UNL d   1      12.516   8.403  -2.302  0.00  0.00     0.256 C 
ATOM     30  O   UNL d   1      13.092   8.763  -1.284  0.00  0.00    -0.270 OA
ENDBRANCH  19  20
ENDBRANCH  18  19
ENDBRANCH  17  18
ENDBRANCH  16  17
ENDBRANCH   1  16
TORSDOF 9
