REMARK  11 active torsions:
REMARK  status: ('A' for Active; 'I' for Inactive)
REMARK       I    between atoms: C_2  and  N_3 
REMARK    1  A    between atoms: C_2  and  C_24 
REMARK    2  A    between atoms: N_3  and  C_4 
REMARK    3  A    between atoms: C_4  and  C_5 
REMARK    4  A    between atoms: C_5  and  C_6 
REMARK    5  A    between atoms: C_6  and  C_7 
REMARK    6  A    between atoms: C_7  and  N_8 
REMARK    7  A    between atoms: N_11  and  C_12 
REMARK    8  A    between atoms: C_17  and  O_18 
REMARK    9  A    between atoms: O_18  and  C_19 
REMARK   10  A    between atoms: C_19  and  C_20 
REMARK   11  A    between atoms: C_27  and  C_28 
ROOT
ATOM      1  C   UNL d   1       9.266   3.279 -13.320  0.00  0.00     0.037 C 
ENDROOT
BRANCH   1   2
ATOM      2  C   UNL d   1       8.354   4.295 -12.607  0.00  0.00     0.029 C 
BRANCH   2   3
ATOM      3  C   UNL d   1       8.931   5.717 -12.597  0.00  0.00     0.129 C 
BRANCH   3   4
ATOM      4  N   UNL d   1       9.369   6.093 -11.259  0.00  0.00    -0.234 NA
ATOM      5  C   UNL d   1       9.594   7.355 -10.864  0.00  0.00     0.275 C 
ATOM      6  O   UNL d   1       9.462   8.332 -11.603  0.00  0.00    -0.266 OA
BRANCH   5   7
ATOM      7  C   UNL d   1      10.074   7.499  -9.450  0.00  0.00     0.058 A 
ATOM      8  C   UNL d   1      11.117   8.397  -9.144  0.00  0.00     0.005 A 
ATOM      9  C   UNL d   1      11.558   8.547  -7.812  0.00  0.00     0.000 A 
ATOM     10  C   UNL d   1      10.948   7.817  -6.767  0.00  0.00     0.001 A 
ATOM     11  C   UNL d   1       9.899   6.926  -7.080  0.00  0.00     0.000 A 
ATOM     12  C   UNL d   1       9.463   6.767  -8.408  0.00  0.00     0.005 A 
BRANCH  10  13
ATOM     13  C   UNL d   1      11.403   7.975  -5.378  0.00  0.00     0.007 A 
ATOM     14  C   UNL d   1      11.464   6.996  -4.420  0.00  0.00     0.035 A 
ATOM     15  S   UNL d   1      12.105   7.581  -2.904  0.00  0.00    -0.086 SA
ATOM     16  C   UNL d   1      12.260   9.184  -3.563  0.00  0.00     0.035 A 
ATOM     17  C   UNL d   1      11.862   9.234  -4.873  0.00  0.00     0.007 A 
ENDBRANCH  10  13
ENDBRANCH   5   7
ENDBRANCH   3   4
ENDBRANCH   2   3
ENDBRANCH   1   2
BRANCH   1  18
ATOM     18  C   UNL d   1       9.462   3.599 -14.815  0.00  0.00     0.251 C 
BRANCH  18  19
ATOM     19  N   UNL d   1       9.285   2.418 -15.659  0.00  0.00     0.141 N 
ATOM     20  C   UNL d   1       7.878   1.982 -15.644  0.00  0.00     0.274 C 
ATOM     21  C   UNL d   1       7.698   0.742 -16.522  0.00  0.00     0.137 C 
ATOM     22  N   UNL d   1       8.152   1.012 -17.885  0.00  0.00    -0.343 N 
ATOM     23  C   UNL d   1       9.512   1.548 -17.957  0.00  0.00     0.137 C 
ATOM     24  C   UNL d   1       9.656   2.772 -17.033  0.00  0.00     0.274 C 
BRANCH  22  25
ATOM     25  C   UNL d   1       7.382   0.748 -19.028  0.00  0.00     0.079 A 
ATOM     26  C   UNL d   1       6.492  -0.361 -19.084  0.00  0.00     0.110 A 
ATOM     27  C   UNL d   1       5.696  -0.562 -20.242  0.00  0.00     0.026 A 
ATOM     28  C   UNL d   1       5.772   0.336 -21.321  0.00  0.00     0.002 A 
ATOM     29  C   UNL d   1       6.667   1.423 -21.274  0.00  0.00     0.002 A 
ATOM     30  C   UNL d   1       7.468   1.619 -20.140  0.00  0.00     0.019 A 
BRANCH  26  31
ATOM     31  O   UNL d   1       6.444  -1.227 -18.011  0.00  0.00    -0.326 OA
BRANCH  31  32
ATOM     32  C   UNL d   1       5.432  -2.224 -17.947  0.00  0.00     0.187 C 
BRANCH  32  33
ATOM     33  C   UNL d   1       4.032  -1.648 -17.667  0.00  0.00     0.226 C 
ATOM     34  F   UNL d   1       3.599  -0.921 -18.701  0.00  0.00    -0.232 F 
ENDBRANCH  32  33
ENDBRANCH  31  32
ENDBRANCH  26  31
ENDBRANCH  22  25
ENDBRANCH  18  19
ENDBRANCH   1  18
TORSDOF 11
