REMARK  3 active torsions:
REMARK  status: ('A' for Active; 'I' for Inactive)
REMARK    1  A    between atoms: C_2  and  C_4 
REMARK    2  A    between atoms: N_6  and  C_7 
REMARK    3  A    between atoms: C_12  and  N_13 
ROOT
ATOM      1  C   UNL d   1      10.273   1.002 -17.691  0.00  0.00     0.120 A 
ATOM      2  C   UNL d   1       9.296   0.333 -17.027  0.00  0.00     0.085 A 
ATOM      3  N   UNL d   1       8.602   0.769 -15.906  0.00  0.00    -0.328 N 
ATOM      4  C   UNL d   1       8.941   2.001 -15.316  0.00  0.00     0.064 A 
ATOM      5  C   UNL d   1       8.327   2.510 -14.149  0.00  0.00     0.031 A 
ATOM      6  C   UNL d   1       8.697   3.785 -13.609  0.00  0.00     0.066 A 
ATOM      7  C   UNL d   1       9.706   4.482 -14.299  0.00  0.00     0.150 A 
ATOM      8  F   UNL d   1      10.204   5.655 -13.917  0.00  0.00    -0.203 F 
ATOM      9  C   UNL d   1      10.298   4.009 -15.425  0.00  0.00     0.035 A 
ATOM     10  C   UNL d   1       9.936   2.753 -15.963  0.00  0.00     0.057 A 
ATOM     11  C   UNL d   1      10.653   2.331 -17.182  0.00  0.00     0.204 A 
ATOM     12  O   UNL d   1      11.499   3.072 -17.690  0.00  0.00    -0.286 OA
ENDROOT
BRANCH   6  13
ATOM     13  N   UNL d   1       8.059   4.236 -12.445  0.00  0.00    -0.247 NA
ATOM     14  C   UNL d   1       8.917   4.424 -11.258  0.00  0.00     0.102 C 
ATOM     15  C   UNL d   1       9.701   5.749 -11.290  0.00  0.00     0.138 C 
ATOM     16  N   UNL d   1       8.793   6.864 -11.559  0.00  0.00    -0.293 NA
ATOM     17  C   UNL d   1       7.886   6.698 -12.699  0.00  0.00     0.138 C 
ATOM     18  C   UNL d   1       7.127   5.360 -12.610  0.00  0.00     0.102 C 
ENDBRANCH   6  13
BRANCH   3  19
ATOM     19  C   UNL d   1       7.505   0.025 -15.316  0.00  0.00     0.086 A 
ATOM     20  C   UNL d   1       6.139   0.638 -15.173  0.00  0.00     0.025 A 
ATOM     21  C   UNL d   1       6.373  -0.433 -16.208  0.00  0.00     0.025 A 
ENDBRANCH   3  19
BRANCH   1  22
ATOM     22  C   UNL d   1      10.921   0.418 -18.860  0.00  0.00     0.215 C 
ATOM     23  O   UNL d   1      11.815   0.935 -19.525  0.00  0.00    -0.644 OA
ATOM     24  O   UNL d   1      10.441  -0.814 -19.181  0.00  0.00    -0.644 OA
ENDBRANCH   1  22
TORSDOF 3
