REMARK  8 active torsions:
REMARK  status: ('A' for Active; 'I' for Inactive)
REMARK    1  A    between atoms: N_7  and  C_8 
REMARK    2  A    between atoms: C_8  and  C_9 
REMARK    3  A    between atoms: C_9  and  C_10 
REMARK    4  A    between atoms: C_10  and  C_11 
REMARK    5  A    between atoms: C_11  and  N_12 
REMARK    6  A    between atoms: N_15  and  C_16 
REMARK    7  A    between atoms: C_18  and  C_19 
REMARK    8  A    between atoms: C_24  and  C_25 
ROOT
ATOM      1  N   UNL d   1       9.225   3.741 -14.362  0.00  0.00     0.141 N 
ATOM      2  C   UNL d   1       9.598   4.251 -15.683  0.00  0.00     0.274 C 
ATOM      3  C   UNL d   1       9.845   3.085 -16.666  0.00  0.00     0.138 C 
ATOM      4  N   UNL d   1       8.662   2.196 -16.730  0.00  0.00    -0.330 N 
ATOM      5  C   UNL d   1       8.244   1.730 -15.402  0.00  0.00     0.138 C 
ATOM      6  C   UNL d   1       8.016   2.928 -14.478  0.00  0.00     0.274 C 
ENDROOT
BRANCH   4   7
ATOM      7  C   UNL d   1       8.048   1.824 -17.926  0.00  0.00     0.143 A 
ATOM      8  N   UNL d   1       8.579   2.272 -19.092  0.00  0.00    -0.214 NA
ATOM      9  C   UNL d   1       8.036   1.931 -20.260  0.00  0.00     0.140 A 
ATOM     10  N   UNL d   1       6.896   1.246 -20.377  0.00  0.00    -0.227 NA
ATOM     11  C   UNL d   1       6.319   0.775 -19.251  0.00  0.00     0.157 A 
ATOM     12  C   UNL d   1       6.853   1.049 -17.990  0.00  0.00     0.060 A 
BRANCH   9  13
ATOM     13  C   UNL d   1       8.620   2.564 -21.541  0.00  0.00     0.052 C 
ATOM     14  C   UNL d   1       8.182   1.779 -22.803  0.00  0.00     0.008 C 
ATOM     15  C   UNL d   1      10.168   2.511 -21.506  0.00  0.00     0.008 C 
ATOM     16  C   UNL d   1       8.145   4.017 -21.671  0.00  0.00     0.008 C 
ENDBRANCH   9  13
BRANCH  11  17
ATOM     17  C   UNL d   1       5.043  -0.040 -19.416  0.00  0.00     0.435 C 
ATOM     18  F   UNL d   1       4.542  -0.402 -18.237  0.00  0.00    -0.165 F 
ATOM     19  F   UNL d   1       4.131   0.693 -20.055  0.00  0.00    -0.165 F 
ATOM     20  F   UNL d   1       5.295  -1.143 -20.119  0.00  0.00    -0.165 F 
ENDBRANCH  11  17
ENDBRANCH   4   7
BRANCH   1  21
ATOM     21  C   UNL d   1       8.977   4.856 -13.456  0.00  0.00     0.251 C 
BRANCH  21  22
ATOM     22  C   UNL d   1       9.102   4.392 -12.002  0.00  0.00     0.037 C 
BRANCH  22  23
ATOM     23  C   UNL d   1       9.004   5.589 -11.064  0.00  0.00     0.027 C 
BRANCH  23  24
ATOM     24  C   UNL d   1       9.284   5.205  -9.584  0.00  0.00     0.111 C 
BRANCH  24  25
ATOM     25  N   UNL d   1       9.517   6.313  -8.686  0.00  0.00    -0.280 N 
ATOM     26  C   UNL d   1       8.678   6.600  -7.626  0.00  0.00     0.085 A 
ATOM     27  C   UNL d   1       8.860   7.664  -6.813  0.00  0.00     0.080 A 
ATOM     28  C   UNL d   1      10.030   8.510  -6.938  0.00  0.00     0.266 A 
ATOM     29  N   UNL d   1      10.867   8.182  -8.021  0.00  0.00    -0.247 N 
ATOM     30  O   UNL d   1      10.276   9.425  -6.151  0.00  0.00    -0.267 OA
ATOM     31  C   UNL d   1      12.037   8.976  -8.282  0.00  0.00     0.138 C 
ATOM     32  C   UNL d   1      10.627   7.148  -8.940  0.00  0.00     0.334 A 
ATOM     33  O   UNL d   1      11.359   7.010  -9.921  0.00  0.00    -0.246 OA
ENDBRANCH  24  25
ENDBRANCH  23  24
ENDBRANCH  22  23
ENDBRANCH  21  22
ENDBRANCH   1  21
TORSDOF 8
