REMARK  1 active torsions:
REMARK  status: ('A' for Active; 'I' for Inactive)
REMARK    1  A    between atoms: N_5  and  C_6 
ROOT
ATOM      1  C   UNL d   1       8.883   3.527 -14.337  0.00  0.00     0.061 A 
ATOM      2  C   UNL d   1       7.902   2.630 -14.817  0.00  0.00     0.015 A 
ATOM      3  C   UNL d   1       8.094   1.981 -16.057  0.00  0.00     0.030 A 
ATOM      4  C   UNL d   1       9.265   2.220 -16.808  0.00  0.00     0.151 A 
ATOM      5  O   UNL d   1       9.416   1.625 -18.027  0.00  0.00    -0.189 OA
ATOM      6  C   UNL d   1      10.259   3.091 -16.310  0.00  0.00     0.133 A 
ATOM      7  C   UNL d   1      10.070   3.751 -15.070  0.00  0.00     0.125 A 
ATOM      8  O   UNL d   1      11.019   4.642 -14.624  0.00  0.00    -0.318 OA
ATOM      9  C   UNL d   1      12.362   4.431 -15.065  0.00  0.00     0.238 C 
ATOM     10  C   UNL d   1      12.447   4.069 -16.560  0.00  0.00     0.287 C 
ATOM     11  O   UNL d   1      13.422   4.409 -17.229  0.00  0.00    -0.267 OA
ATOM     12  N   UNL d   1      11.424   3.368 -17.061  0.00  0.00    -0.205 NA
ENDROOT
BRANCH   1  13
ATOM     13  N   UNL d   1       8.675   4.259 -13.020  0.00  0.00    -0.247 NA
ATOM     14  C   UNL d   1       8.625   5.736 -13.157  0.00  0.00     0.112 C 
ATOM     15  C   UNL d   1       8.380   6.416 -11.809  0.00  0.00     0.268 C 
ATOM     16  N   UNL d   1       9.459   6.042 -10.894  0.00  0.00     0.142 N 
ATOM     17  C   UNL d   1       9.250   6.725  -9.624  0.00  0.00     0.285 C 
ATOM     18  C   UNL d   1       9.412   4.599 -10.666  0.00  0.00     0.268 C 
ATOM     19  C   UNL d   1       9.668   3.876 -12.003  0.00  0.00     0.112 C 
ENDBRANCH   1  13
TORSDOF 1
