REMARK  6 active torsions:
REMARK  status: ('A' for Active; 'I' for Inactive)
REMARK    1  A    between atoms: O_2  and  N_3 
REMARK    2  A    between atoms: C_4  and  C_5 
REMARK    3  A    between atoms: C_4  and  C_11 
REMARK    4  A    between atoms: C_11  and  C_13 
REMARK    5  A    between atoms: C_13  and  N_14 
REMARK    6  A    between atoms: N_17  and  C_18 
ROOT
ATOM      1  C   UNL d   1       7.900   4.772 -10.591  0.00  0.00     0.289 C 
ENDROOT
BRANCH   1   2
ATOM      2  C   UNL d   1       7.973   4.246 -12.051  0.00  0.00     0.227 C 
ATOM      3  O   UNL d   1       6.695   3.784 -12.441  0.00  0.00    -0.215 OA
BRANCH   2   4
ATOM      4  C   UNL d   1       8.568   5.166 -13.112  0.00  0.00     0.119 C 
ATOM      5  N   UNL d   1       8.222   6.377 -13.241  0.00  0.00    -0.133 NA
BRANCH   5   6
ATOM      6  O   UNL d   1       7.107   6.736 -12.470  0.00  0.00    -0.234 OA
ATOM      7  C   UNL d   1       6.777   8.061 -12.775  0.00  0.00     0.211 C 
ENDBRANCH   5   6
BRANCH   4   8
ATOM      8  C   UNL d   1       9.562   4.555 -14.060  0.00  0.00     0.037 A 
ATOM      9  C   UNL d   1       9.528   4.853 -15.443  0.00  0.00     0.100 A 
ATOM     10  N   UNL d   1      10.402   4.364 -16.360  0.00  0.00    -0.242 NA
ATOM     11  C   UNL d   1      11.345   3.514 -15.931  0.00  0.00     0.099 A 
ATOM     12  C   UNL d   1      11.465   3.123 -14.588  0.00  0.00     0.021 A 
ATOM     13  C   UNL d   1      10.557   3.655 -13.644  0.00  0.00     0.004 A 
ENDBRANCH   4   8
ENDBRANCH   2   4
ENDBRANCH   1   2
BRANCH   1  14
ATOM     14  N   UNL d   1       9.143   5.212  -9.961  0.00  0.00     0.144 N 
ATOM     15  C   UNL d   1       8.982   5.184  -8.509  0.00  0.00     0.274 C 
ATOM     16  C   UNL d   1      10.257   5.610  -7.786  0.00  0.00     0.138 C 
ATOM     17  N   UNL d   1      10.678   6.936  -8.235  0.00  0.00    -0.330 N 
ATOM     18  C   UNL d   1      10.845   7.050  -9.682  0.00  0.00     0.138 C 
ATOM     19  C   UNL d   1       9.558   6.584 -10.323  0.00  0.00     0.274 C 
BRANCH  17  20
ATOM     20  C   UNL d   1      10.985   7.947  -7.312  0.00  0.00     0.140 A 
ATOM     21  N   UNL d   1      11.115   7.614  -5.998  0.00  0.00    -0.227 NA
ATOM     22  C   UNL d   1      11.376   8.564  -5.085  0.00  0.00     0.101 A 
ATOM     23  C   UNL d   1      11.501   9.917  -5.415  0.00  0.00     0.021 A 
ATOM     24  C   UNL d   1      11.412  10.268  -6.770  0.00  0.00     0.005 A 
ATOM     25  C   UNL d   1      11.133   9.293  -7.723  0.00  0.00     0.037 A 
ENDBRANCH  17  20
ENDBRANCH   1  14
TORSDOF 6
