REMARK  0 active torsions:
REMARK  status: ('A' for Active; 'I' for Inactive)
ROOT
ATOM      1  C   UNL d   1       9.211   5.748  -8.932  0.00  0.00     0.003 A 
ATOM      2  C   UNL d   1       9.777   5.976  -7.667  0.00  0.00     0.011 A 
ATOM      3  C   UNL d   1      10.573   7.067  -7.329  0.00  0.00     0.038 A 
ATOM      4  C   UNL d   1      10.747   7.939  -8.374  0.00  0.00     0.025 A 
ATOM      5  C   UNL d   1      11.448   9.139  -8.400  0.00  0.00     0.001 A 
ATOM      6  C   UNL d   1      11.376   9.626  -9.684  0.00  0.00     0.095 A 
ATOM      7  N   UNL d   1      10.592   8.767 -10.430  0.00  0.00    -0.244 NA
ATOM      8  C   UNL d   1      10.214   7.749  -9.643  0.00  0.00     0.082 A 
ATOM      9  C   UNL d   1       9.445   6.677  -9.945  0.00  0.00     0.019 A 
ATOM     10  C   UNL d   1      12.052   9.471  -7.037  0.00  0.00     0.046 C 
ATOM     11  C   UNL d   1      11.415   8.781  -5.829  0.00  0.00     0.102 C 
ATOM     12  C   UNL d   1      12.290   9.007  -4.561  0.00  0.00     0.307 C 
ATOM     13  N   UNL d   1      11.680   8.385  -3.410  0.00  0.00     0.342 N 
ATOM     14  C   UNL d   1      11.574   6.960  -3.693  0.00  0.00     0.308 C 
ATOM     15  C   UNL d   1      10.729   6.669  -4.957  0.00  0.00     0.115 C 
ATOM     16  N   UNL d   1      11.216   7.364  -6.103  0.00  0.00    -0.249 NA
ENDROOT
TORSDOF 0
