REMARK  6 active torsions:
REMARK  status: ('A' for Active; 'I' for Inactive)
REMARK    1  A    between atoms: C_2  and  C_3 
REMARK    2  A    between atoms: C_2  and  C_19 
REMARK    3  A    between atoms: C_3  and  C_4 
REMARK    4  A    between atoms: C_4  and  C_5 
REMARK    5  A    between atoms: C_5  and  N_6 
REMARK    6  A    between atoms: N_9  and  C_10 
ROOT
ATOM      1  N   UNL d   1       8.598   5.455 -11.642  0.00  0.00     0.141 N 
ATOM      2  C   UNL d   1       9.391   4.472 -12.380  0.00  0.00     0.275 C 
ATOM      3  C   UNL d   1       8.739   4.139 -13.738  0.00  0.00     0.155 C 
ATOM      4  N   UNL d   1       7.367   3.669 -13.553  0.00  0.00    -0.179 N 
ATOM      5  C   UNL d   1       6.560   4.559 -12.717  0.00  0.00     0.155 C 
ATOM      6  C   UNL d   1       7.274   4.880 -11.400  0.00  0.00     0.275 C 
ENDROOT
BRANCH   1   7
ATOM      7  C   UNL d   1       9.229   5.767 -10.361  0.00  0.00     0.251 C 
BRANCH   7   8
ATOM      8  C   UNL d   1       9.834   7.175 -10.397  0.00  0.00     0.038 C 
BRANCH   8   9
ATOM      9  C   UNL d   1      10.577   7.516  -9.089  0.00  0.00     0.040 C 
BRANCH   9  10
ATOM     10  C   UNL d   1       9.670   7.964  -7.934  0.00  0.00     0.174 C 
ATOM     11  O   UNL d   1       9.059   9.166  -8.342  0.00  0.00    -0.219 OA
BRANCH  10  12
ATOM     12  C   UNL d   1      10.449   8.099  -6.630  0.00  0.00     0.008 A 
ATOM     13  C   UNL d   1      10.869   9.349  -6.126  0.00  0.00     0.001 A 
ATOM     14  C   UNL d   1      11.560   9.427  -4.901  0.00  0.00     0.029 A 
ATOM     15  C   UNL d   1      11.860   8.259  -4.175  0.00  0.00     0.140 A 
ATOM     16  C   UNL d   1      11.459   7.006  -4.674  0.00  0.00     0.029 A 
ATOM     17  F   UNL d   1      12.542   8.340  -3.006  0.00  0.00    -0.204 F 
ATOM     18  C   UNL d   1      10.759   6.936  -5.900  0.00  0.00     0.001 A 
ENDBRANCH  10  12
ENDBRANCH   9  10
ENDBRANCH   8   9
ENDBRANCH   7   8
ENDBRANCH   1   7
BRANCH   4  19
ATOM     19  C   UNL d   1       6.896   2.456 -14.063  0.00  0.00     0.728 A 
ATOM     20  N   UNL d   1       5.861   1.899 -13.429  0.00  0.00    -0.057 NA
ATOM     21  C   UNL d   1       5.407   0.718 -13.896  0.00  0.00     0.149 A 
ATOM     22  C   UNL d   1       5.973   0.102 -15.022  0.00  0.00     0.179 A 
ATOM     23  C   UNL d   1       7.062   0.767 -15.616  0.00  0.00     0.149 A 
ATOM     24  F   UNL d   1       5.470  -1.052 -15.527  0.00  0.00    -0.201 F 
ATOM     25  N   UNL d   1       7.520   1.946 -15.130  0.00  0.00    -0.057 NA
ENDBRANCH   4  19
TORSDOF 6
