REMARK  7 active torsions:
REMARK  status: ('A' for Active; 'I' for Inactive)
REMARK    1  A    between atoms: C_2  and  C_3 
REMARK    2  A    between atoms: C_3  and  O_4 
REMARK    3  A    between atoms: O_4  and  C_5 
REMARK    4  A    between atoms: C_10  and  C_11 
REMARK    5  A    between atoms: C_11  and  N_12 
REMARK    6  A    between atoms: N_15  and  C_16 
REMARK    7  A    between atoms: C_16  and  C_17 
ROOT
ATOM      1  N   UNL d   1       9.080   5.311 -12.790  0.00  0.00     0.146 N 
ATOM      2  C   UNL d   1       8.225   6.493 -12.693  0.00  0.00     0.286 C 
ATOM      3  C   UNL d   1       8.975   7.671 -12.021  0.00  0.00     0.286 C 
ATOM      4  N   UNL d   1       9.404   7.312 -10.650  0.00  0.00     0.148 N 
ATOM      5  C   UNL d   1      10.224   6.114 -10.727  0.00  0.00     0.286 C 
ATOM      6  C   UNL d   1       9.502   4.952 -11.446  0.00  0.00     0.286 C 
ENDROOT
BRANCH   1   7
ATOM      7  C   UNL d   1       8.428   4.187 -13.466  0.00  0.00     0.279 C 
BRANCH   7   8
ATOM      8  C   UNL d   1       9.391   3.280 -14.246  0.00  0.00     0.033 A 
ATOM      9  C   UNL d   1      10.280   3.839 -15.202  0.00  0.00     0.092 A 
ATOM     10  C   UNL d   1      11.148   2.945 -15.919  0.00  0.00     0.024 A 
ATOM     11  C   UNL d   1      11.077   1.557 -15.733  0.00  0.00     0.002 A 
ATOM     12  C   UNL d   1      10.168   1.024 -14.814  0.00  0.00    -0.000 A 
ATOM     13  C   UNL d   1       9.330   1.881 -14.075  0.00  0.00    -0.000 A 
BRANCH   9  14
ATOM     14  O   UNL d   1      10.222   5.183 -15.436  0.00  0.00    -0.328 OA
BRANCH  14  15
ATOM     15  C   UNL d   1      10.969   5.751 -16.511  0.00  0.00     0.187 C 
BRANCH  15  16
ATOM     16  C   UNL d   1      12.354   6.228 -16.032  0.00  0.00     0.226 C 
ATOM     17  F   UNL d   1      13.145   5.228 -15.641  0.00  0.00    -0.232 F 
ENDBRANCH  15  16
ENDBRANCH  14  15
ENDBRANCH   9  14
ENDBRANCH   7   8
ENDBRANCH   1   7
BRANCH   4  18
ATOM     18  C   UNL d   1      10.078   8.428  -9.994  0.00  0.00     0.301 C 
BRANCH  18  19
ATOM     19  C   UNL d   1      10.420   8.178  -8.548  0.00  0.00     0.111 A 
ATOM     20  O   UNL d   1      10.915   9.252  -7.852  0.00  0.00    -0.309 OA
ATOM     21  C   UNL d   1      11.185   8.819  -6.567  0.00  0.00     0.100 A 
ATOM     22  C   UNL d   1      10.907   7.438  -6.495  0.00  0.00     0.025 A 
ATOM     23  C   UNL d   1      11.664   9.554  -5.472  0.00  0.00     0.025 A 
ATOM     24  C   UNL d   1      10.341   7.058  -7.740  0.00  0.00     0.024 A 
ATOM     25  C   UNL d   1      11.217   6.778  -5.295  0.00  0.00     0.002 A 
ATOM     26  C   UNL d   1      11.717   7.462  -4.181  0.00  0.00     0.000 A 
ATOM     27  C   UNL d   1      11.920   8.862  -4.259  0.00  0.00     0.002 A 
ENDBRANCH  18  19
ENDBRANCH   4  18
TORSDOF 7
