REMARK  3 active torsions:
REMARK  status: ('A' for Active; 'I' for Inactive)
REMARK    1  A    between atoms: C_4  and  C_5 
REMARK    2  A    between atoms: C_9  and  C_10 
REMARK    3  A    between atoms: C_10  and  N_11 
ROOT
ATOM      1  N   UNL d   1       9.996   1.722 -15.958  0.00  0.00     0.145 N 
ATOM      2  C   UNL d   1       9.463   0.590 -15.200  0.00  0.00     0.275 C 
ATOM      3  C   UNL d   1       7.960   0.374 -15.465  0.00  0.00     0.137 C 
ATOM      4  N   UNL d   1       7.698   0.220 -16.894  0.00  0.00    -0.346 N 
ATOM      5  C   UNL d   1       6.410  -0.203 -17.286  0.00  0.00     0.057 A 
ATOM      6  C   UNL d   1       5.458  -0.850 -16.459  0.00  0.00     0.017 A 
ATOM      7  C   UNL d   1       4.202  -1.230 -16.968  0.00  0.00     0.003 A 
ATOM      8  C   UNL d   1       3.874  -0.952 -18.307  0.00  0.00     0.019 A 
ATOM      9  C   UNL d   1       4.785  -0.316 -19.124  0.00  0.00     0.083 A 
ATOM     10  N   UNL d   1       4.735   0.063 -20.441  0.00  0.00    -0.244 NA
ATOM     11  C   UNL d   1       5.930   0.664 -20.816  0.00  0.00     0.095 A 
ATOM     12  C   UNL d   1       6.707   0.642 -19.687  0.00  0.00     0.002 A 
ATOM     13  C   UNL d   1       6.022   0.039 -18.618  0.00  0.00     0.031 A 
ATOM     14  C   UNL d   1       8.107   1.025 -19.270  0.00  0.00     0.052 C 
ATOM     15  C   UNL d   1       8.289   1.269 -17.742  0.00  0.00     0.119 C 
ATOM     16  C   UNL d   1       9.785   1.471 -17.390  0.00  0.00     0.273 C 
ENDROOT
BRANCH   1  17
ATOM     17  C   UNL d   1       9.479   3.008 -15.484  0.00  0.00     0.277 C 
BRANCH  17  18
ATOM     18  C   UNL d   1      10.285   4.188 -15.992  0.00  0.00     0.011 A 
ATOM     19  C   UNL d   1      11.438   4.595 -15.296  0.00  0.00    -0.002 A 
ATOM     20  C   UNL d   1      12.180   5.696 -15.764  0.00  0.00    -0.000 A 
ATOM     21  C   UNL d   1      11.774   6.385 -16.925  0.00  0.00    -0.000 A 
ATOM     22  C   UNL d   1      10.625   5.986 -17.654  0.00  0.00    -0.000 A 
ATOM     23  C   UNL d   1       9.895   4.873 -17.163  0.00  0.00    -0.002 A 
BRANCH  22  24
ATOM     24  C   UNL d   1      10.191   6.707 -18.880  0.00  0.00    -0.000 A 
ATOM     25  C   UNL d   1       8.836   6.701 -19.298  0.00  0.00    -0.000 A 
ATOM     26  C   UNL d   1       8.423   7.378 -20.462  0.00  0.00    -0.000 A 
ATOM     27  C   UNL d   1       9.356   8.099 -21.229  0.00  0.00     0.000 A 
ATOM     28  C   UNL d   1      10.703   8.129 -20.826  0.00  0.00    -0.000 A 
ATOM     29  C   UNL d   1      11.115   7.436 -19.671  0.00  0.00    -0.000 A 
ENDBRANCH  22  24
ENDBRANCH  17  18
ENDBRANCH   1  17
TORSDOF 3
