REMARK  9 active torsions:
REMARK  status: ('A' for Active; 'I' for Inactive)
REMARK    1  A    between atoms: O_2  and  C_3 
REMARK    2  A    between atoms: C_8  and  N_9 
REMARK    3  A    between atoms: N_12  and  C_13 
REMARK    4  A    between atoms: C_13  and  C_14 
REMARK    5  A    between atoms: C_14  and  C_15 
REMARK    6  A    between atoms: C_15  and  C_16 
REMARK    7  A    between atoms: C_16  and  N_17 
REMARK       I    between atoms: N_17  and  C_18 
REMARK    8  A    between atoms: C_18  and  C_20 
REMARK    9  A    between atoms: C_23  and  C_24 
ROOT
ATOM      1  C   UNL d   1       9.377   3.993 -14.573  0.00  0.00     0.251 C 
ENDROOT
BRANCH   1   2
ATOM      2  N   UNL d   1       9.600   2.700 -15.224  0.00  0.00     0.141 N 
ATOM      3  C   UNL d   1       9.720   2.916 -16.674  0.00  0.00     0.274 C 
ATOM      4  C   UNL d   1      10.027   1.598 -17.411  0.00  0.00     0.137 C 
ATOM      5  N   UNL d   1       9.034   0.580 -17.055  0.00  0.00    -0.343 N 
ATOM      6  C   UNL d   1       8.875   0.382 -15.615  0.00  0.00     0.137 C 
ATOM      7  C   UNL d   1       8.538   1.720 -14.960  0.00  0.00     0.274 C 
BRANCH   5   8
ATOM      8  C   UNL d   1       8.326  -0.139 -18.003  0.00  0.00     0.079 A 
ATOM      9  C   UNL d   1       6.939  -0.472 -17.852  0.00  0.00     0.110 A 
ATOM     10  C   UNL d   1       6.297  -1.229 -18.863  0.00  0.00     0.026 A 
ATOM     11  C   UNL d   1       6.989  -1.631 -20.018  0.00  0.00     0.002 A 
ATOM     12  C   UNL d   1       8.341  -1.304 -20.176  0.00  0.00     0.002 A 
ATOM     13  C   UNL d   1       9.005  -0.574 -19.176  0.00  0.00     0.019 A 
BRANCH   9  14
ATOM     14  O   UNL d   1       6.254   0.006 -16.750  0.00  0.00    -0.327 OA
ATOM     15  C   UNL d   1       5.017  -0.608 -16.395  0.00  0.00     0.181 C 
ENDBRANCH   9  14
ENDBRANCH   5   8
ENDBRANCH   1   2
BRANCH   1  16
ATOM     16  C   UNL d   1       8.800   3.852 -13.159  0.00  0.00     0.037 C 
BRANCH  16  17
ATOM     17  C   UNL d   1       9.190   4.968 -12.200  0.00  0.00     0.029 C 
BRANCH  17  18
ATOM     18  C   UNL d   1       8.127   5.161 -11.109  0.00  0.00     0.129 C 
BRANCH  18  19
ATOM     19  N   UNL d   1       8.648   6.002 -10.046  0.00  0.00    -0.234 NA
ATOM     20  C   UNL d   1       9.450   5.575  -9.057  0.00  0.00     0.275 C 
ATOM     21  O   UNL d   1       9.763   4.395  -8.921  0.00  0.00    -0.266 OA
BRANCH  20  22
ATOM     22  C   UNL d   1       9.975   6.640  -8.131  0.00  0.00     0.058 A 
ATOM     23  C   UNL d   1      11.007   6.331  -7.219  0.00  0.00     0.005 A 
ATOM     24  C   UNL d   1      11.453   7.263  -6.270  0.00  0.00     0.003 A 
ATOM     25  C   UNL d   1      10.947   8.579  -6.276  0.00  0.00     0.035 A 
ATOM     26  C   UNL d   1       9.960   8.906  -7.227  0.00  0.00     0.003 A 
ATOM     27  C   UNL d   1       9.463   7.949  -8.124  0.00  0.00     0.005 A 
BRANCH  25  28
ATOM     28  C   UNL d   1      11.442   9.609  -5.324  0.00  0.00     0.173 C 
ATOM     29  C   UNL d   1      12.491   9.174  -4.311  0.00  0.00     0.077 C 
ATOM     30  O   UNL d   1      11.058  10.777  -5.317  0.00  0.00    -0.291 OA
ENDBRANCH  25  28
ENDBRANCH  20  22
ENDBRANCH  18  19
ENDBRANCH  17  18
ENDBRANCH  16  17
ENDBRANCH   1  16
TORSDOF 9
