REMARK  11 active torsions:
REMARK  status: ('A' for Active; 'I' for Inactive)
REMARK    1  A    between atoms: O_2  and  C_3 
REMARK    2  A    between atoms: C_6  and  C_7 
REMARK    3  A    between atoms: C_12  and  N_13 
REMARK    4  A    between atoms: N_16  and  C_17 
REMARK    5  A    between atoms: C_17  and  C_18 
REMARK    6  A    between atoms: C_18  and  O_19 
REMARK    7  A    between atoms: O_19  and  C_20 
REMARK    8  A    between atoms: C_20  and  C_21 
REMARK    9  A    between atoms: C_21  and  C_22 
REMARK       I    between atoms: C_22  and  N_24 
REMARK   10  A    between atoms: N_24  and  C_25 
REMARK   11  A    between atoms: C_25  and  C_26 
ROOT
ATOM      1  N   UNL d   1      10.219   2.502 -15.508  0.00  0.00    -0.344 N 
ATOM      2  C   UNL d   1      10.405   1.972 -14.152  0.00  0.00     0.137 C 
ATOM      3  C   UNL d   1       9.615   2.843 -13.163  0.00  0.00     0.274 C 
ATOM      4  N   UNL d   1       9.962   4.257 -13.198  0.00  0.00     0.144 N 
ATOM      5  C   UNL d   1       9.676   4.713 -14.545  0.00  0.00     0.274 C 
ATOM      6  C   UNL d   1      10.447   3.953 -15.611  0.00  0.00     0.137 C 
ENDROOT
BRANCH   4   7
ATOM      7  C   UNL d   1       9.236   5.068 -12.214  0.00  0.00     0.282 C 
BRANCH   7   8
ATOM      8  C   UNL d   1       9.502   4.798 -10.723  0.00  0.00     0.178 C 
BRANCH   8   9
ATOM      9  O   UNL d   1       8.623   5.462  -9.870  0.00  0.00    -0.352 OA
BRANCH   9  10
ATOM     10  C   UNL d   1       8.583   4.829  -8.603  0.00  0.00     0.152 C 
BRANCH  10  11
ATOM     11  C   UNL d   1       8.422   5.887  -7.518  0.00  0.00     0.122 C 
BRANCH  11  12
ATOM     12  C   UNL d   1       9.610   6.779  -7.267  0.00  0.00     0.254 C 
ATOM     13  O   UNL d   1      10.736   6.476  -7.611  0.00  0.00    -0.270 OA
ATOM     14  N   UNL d   1       9.340   7.962  -6.698  0.00  0.00    -0.233 NA
BRANCH  14  15
ATOM     15  C   UNL d   1      10.369   8.899  -6.266  0.00  0.00     0.157 C 
BRANCH  15  16
ATOM     16  C   UNL d   1      11.062   8.533  -4.957  0.00  0.00     0.021 A 
ATOM     17  C   UNL d   1      11.414   9.554  -4.039  0.00  0.00     0.097 A 
ATOM     18  N   UNL d   1      11.987   9.300  -2.852  0.00  0.00    -0.243 NA
ATOM     19  C   UNL d   1      12.285   8.030  -2.517  0.00  0.00     0.099 A 
ATOM     20  C   UNL d   1      12.014   6.949  -3.375  0.00  0.00     0.020 A 
ATOM     21  C   UNL d   1      11.410   7.205  -4.613  0.00  0.00     0.001 A 
ENDBRANCH  15  16
ENDBRANCH  14  15
ENDBRANCH  11  12
ENDBRANCH  10  11
ENDBRANCH   9  10
ENDBRANCH   8   9
ENDBRANCH   7   8
ENDBRANCH   4   7
BRANCH   1  22
ATOM     22  C   UNL d   1       9.847   1.720 -16.571  0.00  0.00     0.056 A 
ATOM     23  C   UNL d   1      10.418   1.870 -17.901  0.00  0.00     0.015 A 
ATOM     24  C   UNL d   1       9.920   1.095 -18.945  0.00  0.00     0.001 A 
ATOM     25  C   UNL d   1       8.896   0.152 -18.759  0.00  0.00     0.000 A 
ATOM     26  C   UNL d   1       8.350  -0.023 -17.471  0.00  0.00     0.002 A 
ATOM     27  C   UNL d   1       8.813   0.742 -16.411  0.00  0.00     0.017 A 
BRANCH  23  28
ATOM     28  C   UNL d   1      11.521   2.818 -18.173  0.00  0.00     0.002 A 
ATOM     29  C   UNL d   1      12.677   2.865 -17.364  0.00  0.00     0.002 A 
ATOM     30  C   UNL d   1      13.671   3.834 -17.578  0.00  0.00     0.024 A 
ATOM     31  C   UNL d   1      13.574   4.748 -18.636  0.00  0.00     0.094 A 
ATOM     32  C   UNL d   1      12.433   4.690 -19.477  0.00  0.00     0.024 A 
ATOM     33  C   UNL d   1      11.423   3.744 -19.241  0.00  0.00     0.002 A 
BRANCH  31  34
ATOM     34  O   UNL d   1      14.595   5.660 -18.767  0.00  0.00    -0.328 OA
ATOM     35  C   UNL d   1      14.516   6.595 -19.830  0.00  0.00     0.181 C 
ENDBRANCH  31  34
ENDBRANCH  23  28
ENDBRANCH   1  22
TORSDOF 11
