REMARK  6 active torsions:
REMARK  status: ('A' for Active; 'I' for Inactive)
REMARK    1  A    between atoms: C_4  and  N_5 
REMARK    2  A    between atoms: N_5  and  C_6 
REMARK    3  A    between atoms: C_9  and  C_10 
REMARK    4  A    between atoms: C_10  and  C_11 
REMARK    5  A    between atoms: C_11  and  N_12 
REMARK    6  A    between atoms: N_15  and  C_16 
ROOT
ATOM      1  C   UNL d   1       9.424   6.585 -11.062  0.00  0.00     0.035 C 
ENDROOT
BRANCH   1   2
ATOM      2  C   UNL d   1       9.732   7.437  -9.816  0.00  0.00     0.002 C 
ATOM      3  C   UNL d   1       9.491   6.691  -8.486  0.00  0.00     0.002 C 
ATOM      4  C   UNL d   1       9.784   7.578  -7.277  0.00  0.00     0.025 C 
ATOM      5  C   UNL d   1      11.217   8.127  -7.324  0.00  0.00     0.122 C 
ATOM      6  C   UNL d   1      11.486   8.863  -8.649  0.00  0.00     0.025 C 
ATOM      7  C   UNL d   1      11.171   7.988  -9.867  0.00  0.00     0.002 C 
BRANCH   5   8
ATOM      8  N   UNL d   1      11.462   9.012  -6.190  0.00  0.00    -0.088 NA
BRANCH   8   9
ATOM      9  C   UNL d   1      11.693   8.591  -4.899  0.00  0.00     0.746 A 
ATOM     10  N   UNL d   1      11.848   9.566  -4.009  0.00  0.00    -0.058 NA
ATOM     11  C   UNL d   1      12.134   9.193  -2.747  0.00  0.00     0.120 A 
ATOM     12  C   UNL d   1      12.242   7.841  -2.375  0.00  0.00     0.043 A 
ATOM     13  C   UNL d   1      12.032   6.900  -3.396  0.00  0.00     0.120 A 
ATOM     14  N   UNL d   1      11.766   7.279  -4.660  0.00  0.00    -0.058 NA
ENDBRANCH   8   9
ENDBRANCH   5   8
ENDBRANCH   1   2
BRANCH   1  15
ATOM     15  C   UNL d   1       8.193   5.666 -10.928  0.00  0.00     0.250 C 
BRANCH  15  16
ATOM     16  N   UNL d   1       7.738   5.150 -12.211  0.00  0.00     0.141 N 
ATOM     17  C   UNL d   1       8.699   4.180 -12.749  0.00  0.00     0.274 C 
ATOM     18  C   UNL d   1       8.214   3.656 -14.110  0.00  0.00     0.137 C 
ATOM     19  N   UNL d   1       6.872   3.103 -13.981  0.00  0.00    -0.343 N 
ATOM     20  C   UNL d   1       5.888   3.959 -13.337  0.00  0.00     0.137 C 
ATOM     21  C   UNL d   1       6.443   4.486 -12.001  0.00  0.00     0.274 C 
BRANCH  19  22
ATOM     22  C   UNL d   1       6.561   1.802 -14.410  0.00  0.00     0.076 A 
ATOM     23  C   UNL d   1       5.647   0.981 -13.703  0.00  0.00     0.116 A 
ATOM     24  N   UNL d   1       5.293  -0.258 -14.093  0.00  0.00    -0.241 NA
ATOM     25  C   UNL d   1       5.845  -0.743 -15.225  0.00  0.00     0.099 A 
ATOM     26  C   UNL d   1       6.765  -0.014 -16.002  0.00  0.00     0.022 A 
ATOM     27  C   UNL d   1       7.135   1.273 -15.583  0.00  0.00     0.020 A 
ENDBRANCH  19  22
ENDBRANCH  15  16
ENDBRANCH   1  15
TORSDOF 6
