REMARK  2 active torsions:
REMARK  status: ('A' for Active; 'I' for Inactive)
REMARK    1  A    between atoms: N_2  and  C_4 
REMARK    2  A    between atoms: C_4  and  C_5 
ROOT
ATOM      1  C   UNL d   1       6.939   0.367 -14.652  0.00  0.00     0.173 C 
ATOM      2  C   UNL d   1       7.688   1.696 -14.648  0.00  0.00     0.057 C 
ATOM      3  C   UNL d   1       8.950   1.333 -15.424  0.00  0.00     0.113 C 
ATOM      4  C   UNL d   1       9.864   2.521 -15.781  0.00  0.00    -0.009 A 
ATOM      5  C   UNL d   1       9.887   3.644 -14.921  0.00  0.00    -0.003 A 
ATOM      6  C   UNL d   1      10.736   4.736 -15.176  0.00  0.00    -0.000 A 
ATOM      7  C   UNL d   1      11.591   4.711 -16.291  0.00  0.00    -0.000 A 
ATOM      8  C   UNL d   1      11.592   3.600 -17.151  0.00  0.00    -0.004 A 
ATOM      9  C   UNL d   1      10.740   2.505 -16.900  0.00  0.00    -0.020 A 
ATOM     10  C   UNL d   1      10.741   1.351 -17.881  0.00  0.00     0.053 C 
ATOM     11  C   UNL d   1       9.384   1.278 -18.545  0.00  0.00    -0.005 A 
ATOM     12  C   UNL d   1       9.233   1.650 -19.898  0.00  0.00    -0.003 A 
ATOM     13  C   UNL d   1       7.963   1.605 -20.508  0.00  0.00    -0.000 A 
ATOM     14  C   UNL d   1       6.845   1.177 -19.769  0.00  0.00     0.001 A 
ATOM     15  C   UNL d   1       6.999   0.807 -18.425  0.00  0.00     0.013 A 
ATOM     16  C   UNL d   1       8.261   0.864 -17.790  0.00  0.00     0.058 A 
ATOM     17  N   UNL d   1       8.423   0.455 -16.454  0.00  0.00    -0.142 NA
ATOM     18  O   UNL d   1       7.204  -0.165 -15.936  0.00  0.00    -0.279 OA
ENDROOT
BRANCH   1  19
ATOM     19  C   UNL d   1       5.413   0.478 -14.513  0.00  0.00     0.282 C 
BRANCH  19  20
ATOM     20  N   UNL d   1       4.714  -0.813 -14.417  0.00  0.00     0.144 N 
ATOM     21  C   UNL d   1       4.819  -1.619 -15.632  0.00  0.00     0.286 C 
ATOM     22  C   UNL d   1       3.294  -0.588 -14.186  0.00  0.00     0.286 C 
ENDBRANCH  19  20
ENDBRANCH   1  19
TORSDOF 2
