REMARK  4 active torsions:
REMARK  status: ('A' for Active; 'I' for Inactive)
REMARK    1  A    between atoms: C_7  and  C_8 
REMARK       I    between atoms: C_8  and  N_10 
REMARK    2  A    between atoms: N_13  and  C_14 
REMARK    3  A    between atoms: C_14  and  C_15 
REMARK    4  A    between atoms: C_15  and  C_16 
ROOT
ATOM      1  N   UNL d   1       6.724  -0.309 -16.484  0.00  0.00    -0.191 NA
ATOM      2  C   UNL d   1       7.381   0.475 -15.954  0.00  0.00     0.103 C 
ATOM      3  C   UNL d   1       8.138   1.492 -15.303  0.00  0.00     0.089 A 
ATOM      4  C   UNL d   1       9.468   1.805 -15.378  0.00  0.00     0.109 A 
ATOM      5  N   UNL d   1       9.689   2.928 -14.586  0.00  0.00    -0.243 NA
ATOM      6  C   UNL d   1       8.513   3.367 -13.994  0.00  0.00     0.087 A 
ATOM      7  C   UNL d   1       8.199   4.446 -13.125  0.00  0.00     0.073 A 
ATOM      8  C   UNL d   1       6.844   4.654 -12.761  0.00  0.00     0.006 A 
ATOM      9  C   UNL d   1       5.860   3.730 -13.154  0.00  0.00     0.000 A 
ATOM     10  C   UNL d   1       6.202   2.634 -13.970  0.00  0.00     0.002 A 
ATOM     11  C   UNL d   1       7.521   2.442 -14.433  0.00  0.00     0.029 A 
ENDROOT
BRANCH   7  12
ATOM     12  C   UNL d   1       9.271   5.400 -12.680  0.00  0.00     0.259 C 
ATOM     13  O   UNL d   1      10.242   5.579 -13.422  0.00  0.00    -0.267 OA
ATOM     14  N   UNL d   1       9.123   6.028 -11.488  0.00  0.00    -0.312 N 
ATOM     15  C   UNL d   1       8.447   5.457 -10.316  0.00  0.00     0.140 C 
ATOM     16  C   UNL d   1       9.607   7.389 -11.244  0.00  0.00     0.140 C 
ATOM     17  C   UNL d   1       9.362   5.516  -9.086  0.00  0.00     0.274 C 
ATOM     18  N   UNL d   1       9.761   6.896  -8.813  0.00  0.00     0.141 N 
ATOM     19  C   UNL d   1      10.479   7.435  -9.970  0.00  0.00     0.274 C 
BRANCH  18  20
ATOM     20  C   UNL d   1      10.594   6.964  -7.612  0.00  0.00     0.255 C 
BRANCH  20  21
ATOM     21  C   UNL d   1       9.890   7.778  -6.522  0.00  0.00     0.064 C 
BRANCH  21  22
ATOM     22  C   UNL d   1      10.765   7.949  -5.288  0.00  0.00     0.007 A 
ATOM     23  C   UNL d   1      11.113   9.236  -4.820  0.00  0.00     0.138 A 
ATOM     24  C   UNL d   1      11.870   9.373  -3.640  0.00  0.00     0.059 A 
ATOM     25  F   UNL d   1      10.693  10.350  -5.470  0.00  0.00    -0.204 F 
ATOM     26  C   UNL d   1      12.292   8.238  -2.927  0.00  0.00     0.142 A 
ATOM     27  C   UNL d   1      11.957   6.956  -3.390  0.00  0.00     0.029 A 
ATOM     28  F   UNL d   1      13.012   8.387  -1.792  0.00  0.00    -0.204 F 
ATOM     29  C   UNL d   1      11.198   6.811  -4.567  0.00  0.00     0.000 A 
ENDBRANCH  21  22
ENDBRANCH  20  21
ENDBRANCH  18  20
ENDBRANCH   7  12
TORSDOF 4
