REMARK  7 active torsions:
REMARK  status: ('A' for Active; 'I' for Inactive)
REMARK    1  A    between atoms: C_2  and  O_5 
REMARK    2  A    between atoms: O_5  and  C_6 
REMARK       I    between atoms: C_6  and  N_8 
REMARK    3  A    between atoms: N_8  and  C_9 
REMARK    4  A    between atoms: C_12  and  C_13 
REMARK    5  A    between atoms: C_13  and  C_14 
REMARK    6  A    between atoms: C_14  and  N_15 
REMARK    7  A    between atoms: N_19  and  C_20 
ROOT
ATOM      1  C   UNL d   1       8.639   4.907 -13.186  0.00  0.00     0.250 C 
ENDROOT
BRANCH   1   2
ATOM      2  C   UNL d   1       8.594   4.421 -11.701  0.00  0.00     0.035 C 
BRANCH   2   3
ATOM      3  C   UNL d   1       8.691   5.510 -10.599  0.00  0.00     0.002 C 
ATOM      4  C   UNL d   1       9.095   4.789  -9.268  0.00  0.00     0.002 C 
ATOM      5  C   UNL d   1       9.219   5.796  -8.137  0.00  0.00     0.025 C 
ATOM      6  C   UNL d   1      10.258   6.881  -8.464  0.00  0.00     0.109 C 
ATOM      7  C   UNL d   1       9.984   7.590  -9.784  0.00  0.00     0.025 C 
ATOM      8  C   UNL d   1       9.785   6.582 -10.910  0.00  0.00     0.002 C 
BRANCH   6   9
ATOM      9  N   UNL d   1      10.250   7.902  -7.436  0.00  0.00    -0.214 NA
ATOM     10  C   UNL d   1      10.975   7.714  -6.276  0.00  0.00     0.383 C 
ATOM     11  O   UNL d   1      11.487   6.660  -5.932  0.00  0.00    -0.236 OA
BRANCH  10  12
ATOM     12  O   UNL d   1      11.032   8.889  -5.611  0.00  0.00    -0.289 OA
BRANCH  12  13
ATOM     13  C   UNL d   1      11.886   9.213  -4.490  0.00  0.00     0.103 C 
ATOM     14  C   UNL d   1      13.175   9.860  -5.023  0.00  0.00     0.030 C 
ATOM     15  C   UNL d   1      12.207   8.045  -3.529  0.00  0.00     0.030 C 
ATOM     16  C   UNL d   1      11.146  10.289  -3.726  0.00  0.00     0.030 C 
ENDBRANCH  12  13
ENDBRANCH  10  12
ENDBRANCH   6   9
ENDBRANCH   2   3
ENDBRANCH   1   2
BRANCH   1  17
ATOM     17  N   UNL d   1       9.674   4.280 -14.049  0.00  0.00     0.139 N 
ATOM     18  C   UNL d   1       9.089   4.225 -15.383  0.00  0.00     0.274 C 
ATOM     19  C   UNL d   1       9.986   3.681 -16.529  0.00  0.00     0.137 C 
ATOM     20  N   UNL d   1      10.077   2.223 -16.509  0.00  0.00    -0.345 N 
ATOM     21  C   UNL d   1      10.947   1.536 -15.566  0.00  0.00     0.104 C 
ATOM     22  C   UNL d   1      11.267   2.410 -14.367  0.00  0.00     0.059 C 
ATOM     23  C   UNL d   1      10.059   2.950 -13.617  0.00  0.00     0.252 C 
BRANCH  20  24
ATOM     24  C   UNL d   1       9.229   1.425 -17.288  0.00  0.00     0.068 A 
ATOM     25  C   UNL d   1       8.043   0.834 -16.780  0.00  0.00     0.084 A 
ATOM     26  C   UNL d   1       7.260   0.030 -17.628  0.00  0.00     0.070 A 
ATOM     27 CL   UNL d   1       7.489   1.043 -15.149  0.00  0.00    -0.080 Cl
ATOM     28  C   UNL d   1       7.664  -0.211 -18.959  0.00  0.00     0.012 A 
ATOM     29 CL   UNL d   1       5.790  -0.685 -17.069  0.00  0.00    -0.081 Cl
ATOM     30  C   UNL d   1       8.854   0.372 -19.442  0.00  0.00     0.002 A 
ATOM     31  C   UNL d   1       9.628   1.186 -18.609  0.00  0.00     0.018 A 
ENDBRANCH  20  24
ENDBRANCH   1  17
TORSDOF 7
