REMARK  7 active torsions:
REMARK  status: ('A' for Active; 'I' for Inactive)
REMARK    1  A    between atoms: O_2  and  N_3 
REMARK    2  A    between atoms: C_4  and  C_5 
REMARK    3  A    between atoms: C_4  and  C_20 
REMARK    4  A    between atoms: C_5  and  C_6 
REMARK    5  A    between atoms: C_6  and  C_7 
REMARK    6  A    between atoms: C_7  and  N_8 
REMARK    7  A    between atoms: N_11  and  C_12 
ROOT
ATOM      1  C   UNL d   1       9.438   6.165  -9.933  0.00  0.00     0.042 C 
ENDROOT
BRANCH   1   2
ATOM      2  C   UNL d   1       9.536   6.843  -8.555  0.00  0.00     0.050 C 
BRANCH   2   3
ATOM      3  C   UNL d   1      10.871   7.545  -8.312  0.00  0.00     0.085 C 
ATOM      4  N   UNL d   1      11.682   7.733  -9.277  0.00  0.00    -0.136 NA
BRANCH   4   5
ATOM      5  O   UNL d   1      12.923   8.241  -8.867  0.00  0.00    -0.234 OA
ATOM      6  C   UNL d   1      13.856   7.985  -9.908  0.00  0.00     0.211 C 
ENDBRANCH   4   5
BRANCH   3   7
ATOM      7  C   UNL d   1      11.103   7.980  -6.920  0.00  0.00     0.016 A 
ATOM      8  C   UNL d   1      11.227   7.049  -5.865  0.00  0.00     0.004 A 
ATOM      9  C   UNL d   1      11.457   7.500  -4.551  0.00  0.00     0.030 A 
ATOM     10  C   UNL d   1      11.546   8.881  -4.284  0.00  0.00     0.140 A 
ATOM     11  C   UNL d   1      11.393   9.811  -5.329  0.00  0.00     0.030 A 
ATOM     12  F   UNL d   1      11.775   9.313  -3.022  0.00  0.00    -0.204 F 
ATOM     13  C   UNL d   1      11.186   9.359  -6.643  0.00  0.00     0.004 A 
ENDBRANCH   3   7
ENDBRANCH   2   3
ENDBRANCH   1   2
BRANCH   1  14
ATOM     14  C   UNL d   1       8.143   5.391 -10.167  0.00  0.00     0.251 C 
BRANCH  14  15
ATOM     15  N   UNL d   1       7.891   5.147 -11.586  0.00  0.00     0.141 N 
ATOM     16  C   UNL d   1       8.985   4.404 -12.225  0.00  0.00     0.274 C 
ATOM     17  C   UNL d   1       8.685   4.165 -13.713  0.00  0.00     0.138 C 
ATOM     18  N   UNL d   1       7.393   3.508 -13.866  0.00  0.00    -0.330 N 
ATOM     19  C   UNL d   1       6.282   4.159 -13.178  0.00  0.00     0.138 C 
ATOM     20  C   UNL d   1       6.639   4.390 -11.705  0.00  0.00     0.274 C 
BRANCH  18  21
ATOM     21  C   UNL d   1       7.259   2.295 -14.573  0.00  0.00     0.140 A 
ATOM     22  N   UNL d   1       8.111   2.079 -15.603  0.00  0.00    -0.227 NA
ATOM     23  C   UNL d   1       7.972   0.959 -16.341  0.00  0.00     0.101 A 
ATOM     24  C   UNL d   1       6.984  -0.010 -16.091  0.00  0.00     0.021 A 
ATOM     25  C   UNL d   1       6.118   0.193 -15.007  0.00  0.00     0.005 A 
ATOM     26  C   UNL d   1       6.255   1.355 -14.230  0.00  0.00     0.037 A 
ENDBRANCH  18  21
ENDBRANCH  14  15
ENDBRANCH   1  14
TORSDOF 7
