REMARK  7 active torsions:
REMARK  status: ('A' for Active; 'I' for Inactive)
REMARK    1  A    between atoms: C_7  and  N_8 
REMARK    2  A    between atoms: N_11  and  C_12 
REMARK    3  A    between atoms: C_12  and  C_13 
REMARK    4  A    between atoms: C_13  and  C_14 
REMARK    5  A    between atoms: C_14  and  C_15 
REMARK    6  A    between atoms: C_15  and  N_16 
REMARK       I    between atoms: N_16  and  C_17 
REMARK    7  A    between atoms: C_17  and  C_19 
ROOT
ATOM      1  C   UNL d   1       8.907   5.083 -10.351  0.00  0.00     0.037 C 
ENDROOT
BRANCH   1   2
ATOM      2  C   UNL d   1       8.538   5.559  -8.937  0.00  0.00     0.251 C 
BRANCH   2   3
ATOM      3  N   UNL d   1       9.518   6.540  -8.462  0.00  0.00     0.141 N 
ATOM      4  C   UNL d   1       8.875   7.442  -7.518  0.00  0.00     0.274 C 
ATOM      5  C   UNL d   1       9.858   8.468  -6.974  0.00  0.00     0.137 C 
ATOM      6  N   UNL d   1      10.992   7.810  -6.355  0.00  0.00    -0.344 N 
ATOM      7  C   UNL d   1      11.637   6.811  -7.192  0.00  0.00     0.137 C 
ATOM      8  C   UNL d   1      10.577   5.850  -7.750  0.00  0.00     0.274 C 
BRANCH   6   9
ATOM      9  C   UNL d   1      11.440   8.107  -5.048  0.00  0.00     0.067 A 
ATOM     10  C   UNL d   1      11.505   9.447  -4.593  0.00  0.00     0.073 A 
ATOM     11  C   UNL d   1      11.886   9.723  -3.249  0.00  0.00     0.013 A 
ATOM     12 CL   UNL d   1      11.267  10.789  -5.672  0.00  0.00    -0.081 Cl
ATOM     13  C   UNL d   1      12.304   8.692  -2.415  0.00  0.00    -0.003 A 
ATOM     14  C   UNL d   1      12.264   7.373  -2.869  0.00  0.00    -0.020 A 
ATOM     15  C   UNL d   1      12.666   6.258  -1.964  0.00  0.00     0.031 C 
ATOM     16  C   UNL d   1      11.814   7.076  -4.181  0.00  0.00     0.013 A 
ENDBRANCH   6   9
ENDBRANCH   2   3
ENDBRANCH   1   2
BRANCH   1  17
ATOM     17  C   UNL d   1       7.681   5.028 -11.284  0.00  0.00     0.029 C 
BRANCH  17  18
ATOM     18  C   UNL d   1       8.006   5.396 -12.740  0.00  0.00     0.129 C 
BRANCH  18  19
ATOM     19  N   UNL d   1       8.469   4.241 -13.493  0.00  0.00    -0.234 NA
ATOM     20  C   UNL d   1       9.725   4.022 -13.908  0.00  0.00     0.275 C 
ATOM     21  O   UNL d   1      10.661   4.790 -13.683  0.00  0.00    -0.266 OA
BRANCH  20  22
ATOM     22  C   UNL d   1       9.897   2.804 -14.775  0.00  0.00     0.059 A 
ATOM     23  C   UNL d   1      10.876   2.811 -15.804  0.00  0.00     0.026 A 
ATOM     24  C   UNL d   1      11.013   1.643 -16.572  0.00  0.00     0.110 A 
ATOM     25  C   UNL d   1      10.255   0.515 -16.360  0.00  0.00     0.122 A 
ATOM     26  N   UNL d   1      11.849   1.346 -17.637  0.00  0.00    -0.184 NA
ATOM     27  C   UNL d   1       9.292   0.470 -15.340  0.00  0.00     0.027 A 
ATOM     28  O   UNL d   1      10.618  -0.452 -17.252  0.00  0.00    -0.256 OA
ATOM     29  C   UNL d   1       9.124   1.629 -14.547  0.00  0.00     0.007 A 
ATOM     30  C   UNL d   1      11.620   0.038 -18.048  0.00  0.00     0.392 A 
ATOM     31  O   UNL d   1      12.198  -0.587 -18.932  0.00  0.00    -0.236 OA
ENDBRANCH  20  22
ENDBRANCH  18  19
ENDBRANCH  17  18
ENDBRANCH   1  17
TORSDOF 7
