REMARK  8 active torsions:
REMARK  status: ('A' for Active; 'I' for Inactive)
REMARK    1  A    between atoms: C_5  and  N_6 
REMARK    2  A    between atoms: N_9  and  C_10 
REMARK    3  A    between atoms: C_10  and  C_11 
REMARK    4  A    between atoms: C_11  and  C_12 
REMARK    5  A    between atoms: C_12  and  C_13 
REMARK    6  A    between atoms: C_13  and  N_14 
REMARK       I    between atoms: N_14  and  C_15 
REMARK    7  A    between atoms: C_15  and  C_17 
REMARK    8  A    between atoms: C_29  and  C_30 
ROOT
ATOM      1  N   UNL d   1      13.532   8.006  -9.964  0.00  0.00    -0.191 NA
ATOM      2  C   UNL d   1      12.422   7.755  -9.780  0.00  0.00     0.101 C 
ATOM      3  C   UNL d   1      11.056   7.373  -9.549  0.00  0.00     0.070 A 
ATOM      4  C   UNL d   1      10.249   6.849 -10.589  0.00  0.00     0.027 A 
ATOM      5  C   UNL d   1       9.014   6.248 -10.387  0.00  0.00     0.057 A 
ATOM      6  C   UNL d   1       8.609   6.142  -9.032  0.00  0.00     0.021 A 
ATOM      7  C   UNL d   1       9.387   6.684  -7.993  0.00  0.00     0.074 A 
ATOM      8  C   UNL d   1      10.633   7.262  -8.212  0.00  0.00     0.014 A 
ENDROOT
BRANCH   7   9
ATOM      9  C   UNL d   1       8.848   6.810  -6.622  0.00  0.00     0.419 C 
ATOM     10  F   UNL d   1       8.517   8.085  -6.543  0.00  0.00    -0.166 F 
ATOM     11  F   UNL d   1       7.793   5.992  -6.479  0.00  0.00    -0.166 F 
ATOM     12  F   UNL d   1       9.783   6.524  -5.731  0.00  0.00    -0.166 F 
ENDBRANCH   7   9
BRANCH   5  13
ATOM     13  N   UNL d   1       8.198   5.855 -11.467  0.00  0.00    -0.344 N 
ATOM     14  C   UNL d   1       8.754   5.443 -12.737  0.00  0.00     0.137 C 
ATOM     15  C   UNL d   1       8.212   4.062 -13.090  0.00  0.00     0.274 C 
ATOM     16  N   UNL d   1       6.736   4.054 -13.136  0.00  0.00     0.141 N 
ATOM     17  C   UNL d   1       6.227   4.452 -11.820  0.00  0.00     0.274 C 
ATOM     18  C   UNL d   1       6.738   5.853 -11.443  0.00  0.00     0.137 C 
BRANCH  16  19
ATOM     19  C   UNL d   1       6.205   2.750 -13.492  0.00  0.00     0.251 C 
BRANCH  19  20
ATOM     20  C   UNL d   1       6.654   2.361 -14.896  0.00  0.00     0.037 C 
BRANCH  20  21
ATOM     21  C   UNL d   1       6.147   0.977 -15.329  0.00  0.00     0.029 C 
BRANCH  21  22
ATOM     22  C   UNL d   1       6.416   0.661 -16.814  0.00  0.00     0.129 C 
BRANCH  22  23
ATOM     23  N   UNL d   1       7.842   0.618 -17.126  0.00  0.00    -0.233 NA
ATOM     24  C   UNL d   1       8.531   1.650 -17.656  0.00  0.00     0.294 C 
ATOM     25  O   UNL d   1       8.072   2.777 -17.816  0.00  0.00    -0.264 OA
BRANCH  24  26
ATOM     26  C   UNL d   1       9.929   1.311 -18.035  0.00  0.00     0.158 A 
ATOM     27  N   UNL d   1      10.935   2.257 -18.209  0.00  0.00    -0.222 NA
ATOM     28  C   UNL d   1      11.993   1.586 -18.646  0.00  0.00     0.148 A 
ATOM     29  N   UNL d   1      11.677   0.215 -18.773  0.00  0.00    -0.288 N 
ATOM     30  C   UNL d   1      13.319   1.975 -18.994  0.00  0.00     0.037 A 
ATOM     31  C   UNL d   1      10.361   0.065 -18.386  0.00  0.00     0.106 A 
ATOM     32  C   UNL d   1      12.565  -0.707 -19.210  0.00  0.00     0.082 A 
ATOM     33  C   UNL d   1      13.843  -0.328 -19.540  0.00  0.00     0.019 A 
ATOM     34  C   UNL d   1      14.223   1.028 -19.425  0.00  0.00     0.005 A 
ENDBRANCH  24  26
ENDBRANCH  22  23
ENDBRANCH  21  22
ENDBRANCH  20  21
ENDBRANCH  19  20
ENDBRANCH  16  19
ENDBRANCH   5  13
TORSDOF 8
