REMARK  8 active torsions:
REMARK  status: ('A' for Active; 'I' for Inactive)
REMARK    1  A    between atoms: C_6  and  C_7 
REMARK    2  A    between atoms: C_10  and  S_11 
REMARK    3  A    between atoms: S_11  and  C_12 
REMARK    4  A    between atoms: C_12  and  C_13 
REMARK    5  A    between atoms: C_13  and  C_14 
REMARK    6  A    between atoms: C_14  and  N_15 
REMARK    7  A    between atoms: C_20  and  C_21 
REMARK    8  A    between atoms: C_27  and  C_28 
ROOT
ATOM      1  N   UNL d   1       9.774   2.076 -15.861  0.00  0.00     0.137 N 
ATOM      2  C   UNL d   1       9.467   0.844 -15.139  0.00  0.00     0.250 C 
ATOM      3  C   UNL d   1      10.353  -0.181 -15.801  0.00  0.00     0.038 C 
ATOM      4  C   UNL d   1      10.548   0.317 -17.201  0.00  0.00     0.037 A 
ATOM      5  C   UNL d   1      11.876   0.107 -17.917  0.00  0.00     0.007 A 
ATOM      6  C   UNL d   1      10.646  -0.675 -18.369  0.00  0.00     0.024 A 
ATOM      7  C   UNL d   1       9.851   1.677 -17.258  0.00  0.00     0.251 C 
ENDROOT
BRANCH   1   8
ATOM      8  C   UNL d   1       8.774   3.115 -15.642  0.00  0.00     0.251 C 
BRANCH   8   9
ATOM      9  C   UNL d   1       8.693   3.512 -14.150  0.00  0.00     0.047 C 
BRANCH   9  10
ATOM     10  C   UNL d   1       7.584   4.524 -13.852  0.00  0.00     0.067 C 
BRANCH  10  11
ATOM     11  S   UNL d   1       7.193   4.628 -12.085  0.00  0.00    -0.075 SA
BRANCH  11  12
ATOM     12  C   UNL d   1       8.311   5.883 -11.567  0.00  0.00     0.193 A 
ATOM     13  N   UNL d   1       8.638   6.956 -12.299  0.00  0.00    -0.122 NA
ATOM     14  N   UNL d   1       9.460   7.705 -11.507  0.00  0.00    -0.126 NA
ATOM     15  C   UNL d   1       9.586   7.039 -10.341  0.00  0.00     0.191 A 
ATOM     16  N   UNL d   1       8.886   5.876 -10.348  0.00  0.00    -0.287 N 
ATOM     17  C   UNL d   1       8.735   4.888  -9.274  0.00  0.00     0.134 C 
BRANCH  15  18
ATOM     18  C   UNL d   1      10.437   7.548  -9.277  0.00  0.00     0.151 A 
ATOM     19  C   UNL d   1      10.289   7.726  -7.904  0.00  0.00     0.087 A 
ATOM     20  C   UNL d   1       9.131   7.463  -6.995  0.00  0.00     0.054 C 
ATOM     21  N   UNL d   1      11.469   8.251  -7.410  0.00  0.00    -0.221 NA
ATOM     22  C   UNL d   1      12.270   8.374  -8.464  0.00  0.00     0.225 A 
ATOM     23  O   UNL d   1      11.696   7.967  -9.628  0.00  0.00    -0.282 OA
ENDBRANCH  15  18
ENDBRANCH  11  12
ENDBRANCH  10  11
ENDBRANCH   9  10
ENDBRANCH   8   9
ENDBRANCH   1   8
BRANCH   6  24
ATOM     24  C   UNL d   1      10.007  -0.373 -19.669  0.00  0.00    -0.018 A 
ATOM     25  C   UNL d   1       8.587  -0.417 -19.843  0.00  0.00     0.070 A 
ATOM     26  C   UNL d   1       8.075  -0.056 -21.117  0.00  0.00     0.033 A 
ATOM     27  C   UNL d   1       8.924   0.311 -22.175  0.00  0.00     0.140 A 
ATOM     28  C   UNL d   1      10.319   0.313 -22.011  0.00  0.00     0.029 A 
ATOM     29  F   UNL d   1       8.401   0.656 -23.374  0.00  0.00    -0.204 F 
ATOM     30  C   UNL d   1      10.846  -0.038 -20.753  0.00  0.00    -0.002 A 
BRANCH  25  31
ATOM     31  C   UNL d   1       7.617  -0.906 -18.752  0.00  0.00     0.419 C 
ATOM     32  F   UNL d   1       7.757  -2.246 -18.671  0.00  0.00    -0.166 F 
ATOM     33  F   UNL d   1       7.758  -0.345 -17.573  0.00  0.00    -0.166 F 
ATOM     34  F   UNL d   1       6.350  -0.705 -19.142  0.00  0.00    -0.166 F 
ENDBRANCH  25  31
ENDBRANCH   6  24
TORSDOF 8
