REMARK  0 active torsions:
REMARK  status: ('A' for Active; 'I' for Inactive)
ROOT
ATOM      1  C   UNL d   1       5.217   0.356 -13.851  0.00  0.00     0.039 C 
ATOM      2  C   UNL d   1       5.860   1.693 -13.675  0.00  0.00     0.013 A 
ATOM      3  S   UNL d   1       5.077   2.947 -12.772  0.00  0.00    -0.095 SA
ATOM      4  C   UNL d   1       6.390   4.057 -13.037  0.00  0.00     0.009 A 
ATOM      5  C   UNL d   1       6.231   5.468 -12.577  0.00  0.00     0.038 C 
ATOM      6  C   UNL d   1       7.433   3.455 -13.712  0.00  0.00     0.025 A 
ATOM      7  C   UNL d   1       7.069   2.128 -14.149  0.00  0.00     0.029 A 
ATOM      8  S   UNL d   1       8.197   1.225 -15.168  0.00  0.00    -0.108 SA
ATOM      9  C   UNL d   1       9.127   2.493 -16.084  0.00  0.00     0.091 C 
ATOM     10  C   UNL d   1       9.491   3.591 -15.126  0.00  0.00     0.027 A 
ATOM     11  C   UNL d   1      10.660   4.396 -15.059  0.00  0.00     0.118 A 
ATOM     12  N   UNL d   1      10.660   5.184 -13.996  0.00  0.00    -0.168 NA
ATOM     13  N   UNL d   1       9.506   4.913 -13.345  0.00  0.00    -0.249 N 
ATOM     14  C   UNL d   1       9.299   5.528 -12.046  0.00  0.00     0.154 C 
ATOM     15  C   UNL d   1       8.741   4.007 -14.067  0.00  0.00     0.077 A 
ENDROOT
TORSDOF 0
