REMARK  3 active torsions:
REMARK  status: ('A' for Active; 'I' for Inactive)
REMARK    1  A    between atoms: C_5  and  N_6 
REMARK    2  A    between atoms: N_9  and  C_10 
REMARK    3  A    between atoms: C_10  and  C_11 
ROOT
ATOM      1  N   UNL d   1      10.847   7.186  -8.617  0.00  0.00    -0.344 N 
ATOM      2  C   UNL d   1      11.312   7.816  -9.848  0.00  0.00     0.137 C 
ATOM      3  C   UNL d   1      10.124   7.952 -10.822  0.00  0.00     0.275 C 
ATOM      4  N   UNL d   1       9.515   6.638 -11.078  0.00  0.00     0.145 N 
ATOM      5  C   UNL d   1       8.987   6.117  -9.813  0.00  0.00     0.275 C 
ATOM      6  C   UNL d   1      10.111   5.938  -8.803  0.00  0.00     0.137 C 
ENDROOT
BRANCH   4   7
ATOM      7  C   UNL d   1       8.427   6.814 -12.034  0.00  0.00     0.279 C 
BRANCH   7   8
ATOM      8  C   UNL d   1       7.584   5.644 -12.434  0.00  0.00     0.032 A 
ATOM      9  C   UNL d   1       7.968   4.528 -13.249  0.00  0.00     0.017 A 
ATOM     10  C   UNL d   1       6.853   3.646 -13.356  0.00  0.00     0.081 A 
ATOM     11  C   UNL d   1       9.156   4.160 -13.922  0.00  0.00     0.001 A 
ATOM     12  N   UNL d   1       5.850   4.226 -12.607  0.00  0.00    -0.244 NA
ATOM     13  C   UNL d   1       6.916   2.453 -14.099  0.00  0.00     0.019 A 
ATOM     14  C   UNL d   1       6.286   5.419 -12.051  0.00  0.00     0.097 A 
ATOM     15  C   UNL d   1       8.114   2.113 -14.757  0.00  0.00     0.002 A 
ATOM     16  C   UNL d   1       9.230   2.967 -14.668  0.00  0.00     0.000 A 
ENDBRANCH   7   8
ENDBRANCH   4   7
BRANCH   1  17
ATOM     17  C   UNL d   1      11.110   7.703  -7.331  0.00  0.00     0.056 A 
ATOM     18  C   UNL d   1      11.243   9.092  -7.118  0.00  0.00     0.018 A 
ATOM     19  C   UNL d   1      11.483   9.598  -5.825  0.00  0.00     0.013 A 
ATOM     20  C   UNL d   1      11.591   8.717  -4.730  0.00  0.00     0.058 A 
ATOM     21 CL   UNL d   1      11.879   9.326  -3.152  0.00  0.00    -0.082 Cl
ATOM     22  C   UNL d   1      11.462   7.334  -4.933  0.00  0.00     0.013 A 
ATOM     23  C   UNL d   1      11.240   6.830  -6.225  0.00  0.00     0.018 A 
ENDBRANCH   1  17
TORSDOF 3
