REMARK  9 active torsions:
REMARK  status: ('A' for Active; 'I' for Inactive)
REMARK    1  A    between atoms: C_2  and  C_5 
REMARK    2  A    between atoms: C_7  and  N_8 
REMARK    3  A    between atoms: N_11  and  C_12 
REMARK    4  A    between atoms: C_12  and  C_13 
REMARK    5  A    between atoms: C_13  and  C_14 
REMARK    6  A    between atoms: C_14  and  C_15 
REMARK    7  A    between atoms: C_15  and  N_16 
REMARK    8  A    between atoms: C_19  and  C_20 
REMARK    9  A    between atoms: C_32  and  C_33 
ROOT
ATOM      1  N   UNL d   1       9.422   1.490 -18.438  0.00  0.00    -0.330 N 
ATOM      2  C   UNL d   1      10.821   1.814 -18.164  0.00  0.00     0.138 C 
ATOM      3  C   UNL d   1      10.950   2.416 -16.763  0.00  0.00     0.274 C 
ATOM      4  N   UNL d   1      10.366   1.515 -15.763  0.00  0.00     0.141 N 
ATOM      5  C   UNL d   1       8.951   1.226 -16.061  0.00  0.00     0.274 C 
ATOM      6  C   UNL d   1       8.787   0.614 -17.459  0.00  0.00     0.138 C 
ENDROOT
BRANCH   4   7
ATOM      7  C   UNL d   1      10.544   2.075 -14.420  0.00  0.00     0.251 C 
BRANCH   7   8
ATOM      8  C   UNL d   1       9.594   3.251 -14.096  0.00  0.00     0.037 C 
BRANCH   8   9
ATOM      9  C   UNL d   1       9.942   3.951 -12.793  0.00  0.00     0.027 C 
BRANCH   9  10
ATOM     10  C   UNL d   1       8.861   4.984 -12.431  0.00  0.00     0.109 C 
BRANCH  10  11
ATOM     11  N   UNL d   1       9.241   5.782 -11.258  0.00  0.00    -0.294 N 
ATOM     12  C   UNL d   1       9.458   7.122 -11.336  0.00  0.00     0.261 A 
ATOM     13  C   UNL d   1       9.876   7.779 -10.097  0.00  0.00     0.061 A 
ATOM     14  O   UNL d   1       9.298   7.757 -12.384  0.00  0.00    -0.267 OA
ATOM     15  C   UNL d   1      10.051   7.115  -8.920  0.00  0.00     0.006 A 
ATOM     16  C   UNL d   1       9.800   5.684  -8.926  0.00  0.00     0.019 A 
ATOM     17  C   UNL d   1       9.408   5.075 -10.054  0.00  0.00     0.078 A 
BRANCH  15  18
ATOM     18  C   UNL d   1      10.482   7.812  -7.673  0.00  0.00     0.000 A 
ATOM     19  C   UNL d   1      10.541   7.133  -6.430  0.00  0.00     0.000 A 
ATOM     20  C   UNL d   1      10.960   7.789  -5.258  0.00  0.00     0.000 A 
ATOM     21  C   UNL d   1      11.289   9.157  -5.287  0.00  0.00     0.000 A 
ATOM     22  C   UNL d   1      11.235   9.851  -6.509  0.00  0.00     0.000 A 
ATOM     23  C   UNL d   1      10.854   9.187  -7.688  0.00  0.00     0.000 A 
ENDBRANCH  15  18
ENDBRANCH  10  11
ENDBRANCH   9  10
ENDBRANCH   8   9
ENDBRANCH   7   8
ENDBRANCH   4   7
BRANCH   1  24
ATOM     24  C   UNL d   1       8.744   1.966 -19.570  0.00  0.00     0.143 A 
ATOM     25  N   UNL d   1       7.710   1.228 -20.030  0.00  0.00    -0.214 NA
ATOM     26  C   UNL d   1       7.084   1.638 -21.147  0.00  0.00     0.140 A 
ATOM     27  N   UNL d   1       7.374   2.760 -21.804  0.00  0.00    -0.227 NA
ATOM     28  C   UNL d   1       8.364   3.548 -21.339  0.00  0.00     0.157 A 
ATOM     29  C   UNL d   1       9.111   3.171 -20.195  0.00  0.00     0.060 A 
BRANCH  26  30
ATOM     30  C   UNL d   1       5.854   0.822 -21.581  0.00  0.00     0.052 C 
ATOM     31  C   UNL d   1       4.719   0.966 -20.547  0.00  0.00     0.008 C 
ATOM     32  C   UNL d   1       6.203  -0.673 -21.711  0.00  0.00     0.008 C 
ATOM     33  C   UNL d   1       5.342   1.308 -22.958  0.00  0.00     0.008 C 
ENDBRANCH  26  30
BRANCH  28  34
ATOM     34  C   UNL d   1       8.615   4.859 -22.076  0.00  0.00     0.435 C 
ATOM     35  F   UNL d   1       8.915   4.596 -23.345  0.00  0.00    -0.165 F 
ATOM     36  F   UNL d   1       7.520   5.619 -22.042  0.00  0.00    -0.165 F 
ATOM     37  F   UNL d   1       9.617   5.555 -21.542  0.00  0.00    -0.165 F 
ENDBRANCH  28  34
ENDBRANCH   1  24
TORSDOF 9
