REMARK  9 active torsions:
REMARK  status: ('A' for Active; 'I' for Inactive)
REMARK    1  A    between atoms: C_2  and  C_3 
REMARK    2  A    between atoms: C_3  and  N_4 
REMARK    3  A    between atoms: C_19  and  O_20 
REMARK    4  A    between atoms: O_20  and  C_21 
REMARK    5  A    between atoms: C_21  and  C_23 
REMARK    6  A    between atoms: C_23  and  C_24 
REMARK    7  A    between atoms: C_24  and  C_25 
REMARK    8  A    between atoms: C_25  and  C_26 
REMARK    9  A    between atoms: C_26  and  C_27 
ROOT
ATOM      1  N   UNL d   1       8.169   0.561 -15.426  0.00  0.00     0.140 N 
ATOM      2  C   UNL d   1       9.453  -0.127 -15.381  0.00  0.00     0.255 C 
ATOM      3  C   UNL d   1      10.489   0.724 -16.101  0.00  0.00     0.061 C 
ATOM      4  C   UNL d   1      10.633   2.142 -15.563  0.00  0.00    -0.022 A 
ATOM      5  C   UNL d   1      11.736   2.969 -15.800  0.00  0.00    -0.004 A 
ATOM      6  C   UNL d   1      11.728   4.290 -15.309  0.00  0.00    -0.000 A 
ATOM      7  C   UNL d   1      10.618   4.750 -14.575  0.00  0.00    -0.000 A 
ATOM      8  C   UNL d   1       9.486   3.963 -14.279  0.00  0.00    -0.001 A 
ATOM      9  C   UNL d   1       9.529   2.635 -14.834  0.00  0.00     0.005 A 
ATOM     10  C   UNL d   1       8.299   1.740 -14.564  0.00  0.00     0.245 C 
ATOM     11  C   UNL d   1       6.989   2.554 -14.624  0.00  0.00     0.064 C 
ATOM     12  C   UNL d   1       7.067   3.802 -13.757  0.00  0.00    -0.018 A 
ATOM     13  C   UNL d   1       5.880   4.249 -13.120  0.00  0.00    -0.004 A 
ATOM     14  C   UNL d   1       5.938   5.348 -12.268  0.00  0.00     0.002 A 
ATOM     15  C   UNL d   1       7.141   6.005 -12.043  0.00  0.00     0.025 A 
ATOM     16  C   UNL d   1       8.343   5.532 -12.622  0.00  0.00     0.103 A 
ATOM     17  C   UNL d   1       8.300   4.450 -13.545  0.00  0.00     0.019 A 
ENDROOT
BRANCH  16  18
ATOM     18  O   UNL d   1       9.499   6.139 -12.194  0.00  0.00    -0.276 OA
BRANCH  18  19
ATOM     19  C   UNL d   1       9.767   6.255 -10.853  0.00  0.00     0.276 C 
ATOM     20  O   UNL d   1      10.630   7.003 -10.412  0.00  0.00    -0.264 OA
BRANCH  19  21
ATOM     21  C   UNL d   1       8.965   5.333  -9.909  0.00  0.00     0.096 C 
BRANCH  21  22
ATOM     22  C   UNL d   1       9.337   5.478  -8.436  0.00  0.00     0.011 C 
BRANCH  22  23
ATOM     23  C   UNL d   1       8.981   6.872  -7.881  0.00  0.00     0.001 C 
BRANCH  23  24
ATOM     24  C   UNL d   1       9.490   7.127  -6.472  0.00  0.00     0.012 C 
BRANCH  24  25
ATOM     25  C   UNL d   1      11.028   7.080  -6.357  0.00  0.00     0.059 C 
ATOM     26  S   UNL d   1      11.820   8.321  -7.423  0.00  0.00    -0.083 SA
ATOM     27  S   UNL d   1      11.922   9.802  -6.050  0.00  0.00    -0.082 SA
ATOM     28  C   UNL d   1      11.330   8.859  -4.630  0.00  0.00     0.070 C 
ATOM     29  C   UNL d   1      11.466   7.354  -4.918  0.00  0.00     0.024 C 
ENDBRANCH  24  25
ENDBRANCH  23  24
ENDBRANCH  22  23
ENDBRANCH  21  22
ENDBRANCH  19  21
ENDBRANCH  18  19
ENDBRANCH  16  18
BRANCH   1  30
ATOM     30  C   UNL d   1       7.096  -0.346 -14.986  0.00  0.00     0.251 C 
BRANCH  30  31
ATOM     31  C   UNL d   1       6.289  -0.808 -16.209  0.00  0.00     0.035 C 
ATOM     32  C   UNL d   1       5.306  -1.932 -15.871  0.00  0.00     0.002 C 
ENDBRANCH  30  31
ENDBRANCH   1  30
TORSDOF 9
