REMARK  7 active torsions:
REMARK  status: ('A' for Active; 'I' for Inactive)
REMARK    1  A    between atoms: S_2  and  N_4 
REMARK    2  A    between atoms: S_2  and  C_28 
REMARK    3  A    between atoms: N_4  and  C_5 
REMARK    4  A    between atoms: C_8  and  C_9 
REMARK    5  A    between atoms: C_9  and  C_10 
REMARK    6  A    between atoms: C_10  and  N_11 
REMARK    7  A    between atoms: N_14  and  C_15 
ROOT
ATOM      1  C   UNL d   1       9.335   4.712 -10.745  0.00  0.00     0.035 C 
ENDROOT
BRANCH   1   2
ATOM      2  C   UNL d   1       9.708   5.711  -9.634  0.00  0.00     0.002 C 
ATOM      3  C   UNL d   1       9.617   7.184 -10.100  0.00  0.00     0.002 C 
ATOM      4  C   UNL d   1      10.001   8.155  -9.014  0.00  0.00     0.025 C 
ATOM      5  C   UNL d   1       9.251   7.897  -7.701  0.00  0.00     0.116 C 
ATOM      6  C   UNL d   1       9.275   6.429  -7.232  0.00  0.00     0.025 C 
ATOM      7  C   UNL d   1       8.872   5.474  -8.367  0.00  0.00     0.002 C 
BRANCH   5   8
ATOM      8  N   UNL d   1       9.743   8.789  -6.669  0.00  0.00    -0.187 NA
BRANCH   8   9
ATOM      9  S   UNL d   1      11.399   9.188  -6.384  0.00  0.00     0.281 S 
ATOM     10  O   UNL d   1      12.260   8.420  -7.296  0.00  0.00    -0.199 OA
ATOM     11  O   UNL d   1      11.480  10.641  -6.308  0.00  0.00    -0.199 OA
BRANCH   9  12
ATOM     12  C   UNL d   1      11.650   8.530  -4.747  0.00  0.00     0.105 A 
ATOM     13  C   UNL d   1      11.761   9.423  -3.670  0.00  0.00     0.013 A 
ATOM     14  C   UNL d   1      12.099   8.926  -2.401  0.00  0.00     0.001 A 
ATOM     15  C   UNL d   1      12.272   7.543  -2.212  0.00  0.00     0.000 A 
ATOM     16  C   UNL d   1      12.145   6.656  -3.289  0.00  0.00     0.001 A 
ATOM     17  C   UNL d   1      11.829   7.149  -4.561  0.00  0.00     0.013 A 
ENDBRANCH   9  12
ENDBRANCH   8   9
ENDBRANCH   5   8
ENDBRANCH   1   2
BRANCH   1  18
ATOM     18  C   UNL d   1       9.697   5.185 -12.157  0.00  0.00     0.250 C 
BRANCH  18  19
ATOM     19  N   UNL d   1       9.877   4.080 -13.078  0.00  0.00     0.141 N 
ATOM     20  C   UNL d   1       8.563   3.678 -13.562  0.00  0.00     0.274 C 
ATOM     21  C   UNL d   1       8.714   2.483 -14.502  0.00  0.00     0.138 C 
ATOM     22  N   UNL d   1       9.615   2.814 -15.598  0.00  0.00    -0.330 N 
ATOM     23  C   UNL d   1      10.909   3.340 -15.194  0.00  0.00     0.138 C 
ATOM     24  C   UNL d   1      10.697   4.508 -14.219  0.00  0.00     0.274 C 
BRANCH  22  25
ATOM     25  C   UNL d   1       9.270   2.646 -16.955  0.00  0.00     0.138 A 
ATOM     26  C   UNL d   1       8.449   1.588 -17.405  0.00  0.00     0.036 A 
ATOM     27  C   UNL d   1       8.150   1.454 -18.746  0.00  0.00     0.095 A 
ATOM     28  C   UNL d   1       7.819   0.456 -16.662  0.00  0.00     0.064 C 
ATOM     29  C   UNL d   1       8.643   2.386 -19.673  0.00  0.00     0.045 A 
ATOM     30  O   UNL d   1       7.369   0.366 -19.022  0.00  0.00    -0.331 OA
ATOM     31  C   UNL d   1       9.459   3.418 -19.158  0.00  0.00     0.103 A 
ATOM     32  N   UNL d   1       9.766   3.544 -17.843  0.00  0.00    -0.228 NA
ATOM     33  C   UNL d   1       7.234  -0.391 -17.805  0.00  0.00     0.154 C 
ENDBRANCH  22  25
ENDBRANCH  18  19
ENDBRANCH   1  18
TORSDOF 7
