REMARK  7 active torsions:
REMARK  status: ('A' for Active; 'I' for Inactive)
REMARK    1  A    between atoms: S_2  and  C_5 
REMARK    2  A    between atoms: C_5  and  C_6 
REMARK       I    between atoms: C_6  and  N_8 
REMARK    3  A    between atoms: N_8  and  C_9 
REMARK    4  A    between atoms: C_12  and  C_13 
REMARK    5  A    between atoms: C_13  and  C_14 
REMARK    6  A    between atoms: C_14  and  N_15 
REMARK    7  A    between atoms: C_18  and  C_19 
ROOT
ATOM      1  C   UNL d   1       8.781   6.721 -11.180  0.00  0.00     0.250 C 
ENDROOT
BRANCH   1   2
ATOM      2  C   UNL d   1      10.112   6.916 -10.436  0.00  0.00     0.035 C 
BRANCH   2   3
ATOM      3  C   UNL d   1      10.105   7.893  -9.267  0.00  0.00     0.002 C 
ATOM      4  C   UNL d   1       9.243   7.302  -8.143  0.00  0.00     0.002 C 
ATOM      5  C   UNL d   1       9.167   8.264  -6.972  0.00  0.00     0.024 C 
ATOM      6  C   UNL d   1      10.602   8.377  -6.446  0.00  0.00     0.106 C 
ATOM      7  C   UNL d   1      11.567   8.943  -7.505  0.00  0.00     0.024 C 
ATOM      8  C   UNL d   1      11.535   8.067  -8.743  0.00  0.00     0.002 C 
BRANCH   6   9
ATOM      9  N   UNL d   1      10.658   9.269  -5.318  0.00  0.00    -0.239 NA
ATOM     10  C   UNL d   1      11.489   9.177  -4.280  0.00  0.00     0.268 C 
ATOM     11  O   UNL d   1      11.453  10.066  -3.436  0.00  0.00    -0.269 OA
BRANCH  10  12
ATOM     12  C   UNL d   1      12.469   8.004  -4.145  0.00  0.00     0.212 C 
BRANCH  12  13
ATOM     13  S   UNL d   1      12.303   7.126  -2.491  0.00  0.00     0.180 S 
ATOM     14  C   UNL d   1      12.879   8.391  -1.327  0.00  0.00     0.140 C 
ATOM     15  O   UNL d   1      13.181   5.967  -2.381  0.00  0.00    -0.225 OA
ATOM     16  O   UNL d   1      10.902   6.811  -2.198  0.00  0.00    -0.225 OA
ENDBRANCH  12  13
ENDBRANCH  10  12
ENDBRANCH   6   9
ENDBRANCH   2   3
ENDBRANCH   1   2
BRANCH   1  17
ATOM     17  N   UNL d   1       8.825   5.723 -12.241  0.00  0.00     0.137 N 
ATOM     18  C   UNL d   1       9.129   4.400 -11.687  0.00  0.00     0.251 C 
ATOM     19  C   UNL d   1       9.198   3.399 -12.832  0.00  0.00     0.040 C 
ATOM     20  C   UNL d   1       7.860   3.299 -13.560  0.00  0.00     0.026 C 
ATOM     21  C   UNL d   1       7.429   4.688 -13.974  0.00  0.00     0.040 C 
ATOM     22  C   UNL d   1       7.465   5.665 -12.793  0.00  0.00     0.251 C 
BRANCH  20  23
ATOM     23  C   UNL d   1       7.973   2.343 -14.740  0.00  0.00    -0.020 A 
ATOM     24  C   UNL d   1       7.058   1.258 -14.871  0.00  0.00     0.021 A 
ATOM     25  C   UNL d   1       7.222   0.435 -16.020  0.00  0.00     0.100 A 
ATOM     26  C   UNL d   1       5.938   0.729 -14.147  0.00  0.00     0.028 A 
ATOM     27  C   UNL d   1       8.234   0.614 -16.968  0.00  0.00     0.025 A 
ATOM     28  O   UNL d   1       6.224  -0.522 -16.026  0.00  0.00    -0.305 OA
ATOM     29  C   UNL d   1       9.145   1.680 -16.800  0.00  0.00     0.002 A 
ATOM     30  C   UNL d   1       8.999   2.534 -15.696  0.00  0.00    -0.004 A 
ATOM     31  C   UNL d   1       5.492  -0.349 -14.886  0.00  0.00     0.123 A 
ENDBRANCH  20  23
ENDBRANCH   1  17
TORSDOF 7
