REMARK  2 active torsions:
REMARK  status: ('A' for Active; 'I' for Inactive)
REMARK    1  A    between atoms: C_8  and  C_9 
REMARK    2  A    between atoms: C_15  and  N_16 
ROOT
ATOM      1  C   UNL d   1       8.724   2.582 -14.925  0.00  0.00    -0.001 C 
ATOM      2  C   UNL d   1      10.058   2.418 -14.515  0.00  0.00     0.001 C 
ATOM      3  C   UNL d   1      11.010   1.876 -15.419  0.00  0.00     0.006 C 
ATOM      4  C   UNL d   1      10.611   1.379 -16.659  0.00  0.00     0.027 C 
ATOM      5  C   UNL d   1       9.243   1.472 -17.088  0.00  0.00     0.015 C 
ATOM      6  C   UNL d   1       8.346   2.168 -16.238  0.00  0.00    -0.002 C 
ATOM      7  C   UNL d   1       8.665   0.840 -18.389  0.00  0.00     0.246 C 
ATOM      8  C   UNL d   1       9.620   0.640 -19.587  0.00  0.00     0.065 C 
ATOM      9  C   UNL d   1      10.614   1.738 -19.839  0.00  0.00    -0.014 A 
ATOM     10  C   UNL d   1      10.453   2.610 -20.932  0.00  0.00    -0.004 A 
ATOM     11  C   UNL d   1      11.442   3.578 -21.191  0.00  0.00    -0.000 A 
ATOM     12  C   UNL d   1      12.573   3.664 -20.348  0.00  0.00     0.001 A 
ATOM     13  C   UNL d   1      12.733   2.785 -19.256  0.00  0.00     0.006 A 
ATOM     14  C   UNL d   1      11.742   1.814 -19.015  0.00  0.00     0.025 A 
ATOM     15  S   UNL d   1      11.870   0.683 -17.683  0.00  0.00    -0.087 SA
ENDROOT
BRANCH   1  16
ATOM     16  C   UNL d   1       7.718   3.178 -14.010  0.00  0.00    -0.008 A 
ATOM     17  C   UNL d   1       6.481   2.502 -13.681  0.00  0.00    -0.022 A 
ATOM     18  C   UNL d   1       6.113   1.155 -14.284  0.00  0.00     0.031 C 
ATOM     19  C   UNL d   1       5.534   3.103 -12.840  0.00  0.00    -0.004 A 
ATOM     20  C   UNL d   1       5.779   4.360 -12.280  0.00  0.00    -0.001 A 
ATOM     21  C   UNL d   1       6.986   5.032 -12.561  0.00  0.00    -0.004 A 
ATOM     22  C   UNL d   1       7.946   4.452 -13.420  0.00  0.00    -0.022 A 
ATOM     23  C   UNL d   1       9.220   5.253 -13.706  0.00  0.00     0.031 C 
ENDBRANCH   1  16
BRANCH   7  24
ATOM     24  N   UNL d   1       7.863  -0.379 -18.113  0.00  0.00     0.144 N 
ATOM     25  C   UNL d   1       6.618  -0.093 -17.340  0.00  0.00     0.286 C 
ATOM     26  C   UNL d   1       5.589   0.656 -18.287  0.00  0.00     0.286 C 
ATOM     27  N   UNL d   1       5.277  -0.097 -19.508  0.00  0.00     0.143 N 
ATOM     28  C   UNL d   1       6.516  -0.428 -20.213  0.00  0.00     0.286 C 
ATOM     29  C   UNL d   1       4.362   0.625 -20.376  0.00  0.00     0.285 C 
ATOM     30  C   UNL d   1       7.501  -1.195 -19.307  0.00  0.00     0.286 C 
ENDBRANCH   7  24
TORSDOF 2
