REMARK  5 active torsions:
REMARK  status: ('A' for Active; 'I' for Inactive)
REMARK    1  A    between atoms: O_2  and  C_3 
REMARK    2  A    between atoms: N_11  and  C_12 
REMARK    3  A    between atoms: C_12  and  C_13 
REMARK    4  A    between atoms: C_13  and  N_14 
REMARK    5  A    between atoms: N_17  and  C_18 
ROOT
ATOM      1  C   UNL d   1       8.889   6.791 -12.009  0.00  0.00     0.140 C 
ENDROOT
BRANCH   1   2
ATOM      2  N   UNL d   1       8.187   5.622 -12.562  0.00  0.00    -0.314 N 
ATOM      3  C   UNL d   1       8.773   4.736 -13.408  0.00  0.00     0.257 C 
ATOM      4  C   UNL d   1       7.918   3.588 -13.894  0.00  0.00     0.054 A 
ATOM      5  O   UNL d   1       9.944   4.836 -13.781  0.00  0.00    -0.267 OA
ATOM      6  C   UNL d   1       6.708   3.277 -13.240  0.00  0.00    -0.015 A 
ATOM      7  C   UNL d   1       8.324   2.773 -14.983  0.00  0.00     0.029 A 
ATOM      8  C   UNL d   1       5.929   2.183 -13.635  0.00  0.00    -0.002 A 
ATOM      9  C   UNL d   1       6.271   4.090 -12.046  0.00  0.00     0.051 C 
ATOM     10  C   UNL d   1       6.330   1.393 -14.719  0.00  0.00     0.024 A 
ATOM     11  C   UNL d   1       7.528   1.685 -15.418  0.00  0.00     0.094 A 
ATOM     12  C   UNL d   1       6.783   5.526 -12.134  0.00  0.00     0.109 C 
BRANCH  11  13
ATOM     13  O   UNL d   1       7.963   0.972 -16.520  0.00  0.00    -0.328 OA
ATOM     14  C   UNL d   1       7.117  -0.060 -17.020  0.00  0.00     0.181 C 
ENDBRANCH  11  13
ENDBRANCH   1   2
BRANCH   1  15
ATOM     15  C   UNL d   1       9.821   6.400 -10.846  0.00  0.00     0.274 C 
BRANCH  15  16
ATOM     16  N   UNL d   1       9.781   7.374  -9.759  0.00  0.00     0.143 N 
ATOM     17  C   UNL d   1      11.127   7.836  -9.395  0.00  0.00     0.274 C 
ATOM     18  C   UNL d   1      11.057   8.862  -8.251  0.00  0.00     0.137 C 
ATOM     19  N   UNL d   1      10.329   8.303  -7.127  0.00  0.00    -0.344 N 
ATOM     20  C   UNL d   1       9.021   7.743  -7.421  0.00  0.00     0.137 C 
ATOM     21  C   UNL d   1       9.131   6.750  -8.594  0.00  0.00     0.274 C 
BRANCH  19  22
ATOM     22  C   UNL d   1      10.868   8.316  -5.837  0.00  0.00     0.056 A 
ATOM     23  C   UNL d   1      11.082   9.543  -5.173  0.00  0.00     0.018 A 
ATOM     24  C   UNL d   1      11.628   9.554  -3.873  0.00  0.00     0.013 A 
ATOM     25  C   UNL d   1      11.991   8.353  -3.243  0.00  0.00     0.058 A 
ATOM     26  C   UNL d   1      11.787   7.128  -3.902  0.00  0.00     0.013 A 
ATOM     27 CL   UNL d   1      12.651   8.390  -1.663  0.00  0.00    -0.082 Cl
ATOM     28  C   UNL d   1      11.215   7.108  -5.193  0.00  0.00     0.018 A 
ENDBRANCH  19  22
ENDBRANCH  15  16
ENDBRANCH   1  15
TORSDOF 5
