REMARK  11 active torsions:
REMARK  status: ('A' for Active; 'I' for Inactive)
REMARK    1  A    between atoms: C_2  and  C_3 
REMARK    2  A    between atoms: C_3  and  C_4 
REMARK    3  A    between atoms: C_4  and  C_5 
REMARK    4  A    between atoms: C_13  and  C_14 
REMARK    5  A    between atoms: C_14  and  C_16 
REMARK    6  A    between atoms: C_20  and  O_21 
REMARK    7  A    between atoms: O_21  and  C_22 
REMARK    8  A    between atoms: C_22  and  C_23 
REMARK    9  A    between atoms: C_23  and  N_24 
REMARK   10  A    between atoms: N_24  and  C_25 
REMARK   11  A    between atoms: N_24  and  C_27 
ROOT
ATOM      1  C   UNL d   1       8.642   1.948 -15.303  0.00  0.00     0.040 C 
ATOM      2  C   UNL d   1       9.762   2.812 -15.383  0.00  0.00     0.011 C 
ATOM      3  C   UNL d   1       9.757   4.099 -14.847  0.00  0.00     0.053 C 
ATOM      4  I   UNL d   1      11.397   5.413 -15.086  0.00  0.00    -0.041 I 
ATOM      5  C   UNL d   1       8.656   4.495 -14.072  0.00  0.00     0.105 C 
ATOM      6  C   UNL d   1       7.565   3.607 -13.875  0.00  0.00     0.053 C 
ATOM      7  I   UNL d   1       5.935   4.103 -12.654  0.00  0.00    -0.041 I 
ATOM      8  C   UNL d   1       7.558   2.344 -14.495  0.00  0.00     0.011 C 
ENDROOT
BRANCH   1   9
ATOM      9  C   UNL d   1       8.631   0.632 -16.008  0.00  0.00     0.197 C 
ATOM     10  O   UNL d   1       9.406  -0.255 -15.660  0.00  0.00    -0.286 OA
BRANCH   9  11
ATOM     11  C   UNL d   1       7.676   0.471 -17.116  0.00  0.00     0.059 A 
ATOM     12  C   UNL d   1       7.825   0.936 -18.417  0.00  0.00     0.081 A 
ATOM     13  O   UNL d   1       6.761   0.588 -19.209  0.00  0.00    -0.311 OA
ATOM     14  C   UNL d   1       5.886  -0.124 -18.422  0.00  0.00     0.100 A 
ATOM     15  C   UNL d   1       6.413  -0.227 -17.109  0.00  0.00     0.028 A 
ATOM     16  C   UNL d   1       4.649  -0.667 -18.809  0.00  0.00     0.025 A 
ATOM     17  C   UNL d   1       5.623  -0.928 -16.167  0.00  0.00     0.002 A 
ATOM     18  C   UNL d   1       4.376  -1.484 -16.528  0.00  0.00     0.000 A 
ATOM     19  C   UNL d   1       3.888  -1.355 -17.845  0.00  0.00     0.002 A 
BRANCH  12  20
ATOM     20  C   UNL d   1       8.874   1.740 -19.132  0.00  0.00     0.052 C 
BRANCH  20  21
ATOM     21  C   UNL d   1       9.131   3.096 -18.495  0.00  0.00     0.007 C 
BRANCH  21  22
ATOM     22  C   UNL d   1      10.172   3.977 -19.183  0.00  0.00     0.000 C 
ATOM     23  C   UNL d   1      10.517   5.251 -18.412  0.00  0.00     0.000 C 
ENDBRANCH  21  22
ENDBRANCH  20  21
ENDBRANCH  12  20
ENDBRANCH   9  11
ENDBRANCH   1   9
BRANCH   5  24
ATOM     24  O   UNL d   1       8.663   5.718 -13.465  0.00  0.00    -0.328 OA
BRANCH  24  25
ATOM     25  C   UNL d   1       9.549   5.797 -12.355  0.00  0.00     0.184 C 
BRANCH  25  26
ATOM     26  C   UNL d   1       9.041   4.905 -11.219  0.00  0.00     0.283 C 
BRANCH  26  27
ATOM     27  N   UNL d   1       9.544   5.300  -9.907  0.00  0.00     0.140 N 
BRANCH  27  28
ATOM     28  C   UNL d   1       9.049   6.624  -9.494  0.00  0.00     0.250 C 
ATOM     29  C   UNL d   1      10.078   7.243  -8.535  0.00  0.00     0.037 C 
ENDBRANCH  27  28
BRANCH  27  30
ATOM     30  C   UNL d   1       9.160   4.293  -8.898  0.00  0.00     0.250 C 
ATOM     31  C   UNL d   1      10.126   3.114  -8.848  0.00  0.00     0.037 C 
ENDBRANCH  27  30
ENDBRANCH  26  27
ENDBRANCH  25  26
ENDBRANCH  24  25
ENDBRANCH   5  24
TORSDOF 11
