REMARK  3 active torsions:
REMARK  status: ('A' for Active; 'I' for Inactive)
REMARK    1  A    between atoms: C_2  and  O_3 
REMARK    2  A    between atoms: O_3  and  C_4 
REMARK    3  A    between atoms: C_4  and  C_6 
ROOT
ATOM      1  C   UNL d   1       9.357   3.004 -14.056  0.00  0.00     0.160 A 
ATOM      2  N   UNL d   1      10.341   2.131 -14.540  0.00  0.00    -0.219 NA
ATOM      3  C   UNL d   1       9.673   1.173 -15.166  0.00  0.00     0.183 A 
ATOM      4  N   UNL d   1       8.350   1.384 -15.166  0.00  0.00    -0.290 N 
ATOM      5  C   UNL d   1       8.114   2.546 -14.461  0.00  0.00     0.088 A 
ATOM      6  C   UNL d   1       6.709   3.029 -14.307  0.00  0.00     0.150 C 
ATOM      7  N   UNL d   1       5.912   2.072 -13.547  0.00  0.00    -0.309 N 
ATOM      8  C   UNL d   1       5.435   2.640 -12.285  0.00  0.00     0.129 C 
ATOM      9  C   UNL d   1       5.675   0.786 -13.927  0.00  0.00     0.259 C 
ATOM     10  O   UNL d   1       5.004   0.013 -13.239  0.00  0.00    -0.267 OA
ATOM     11  C   UNL d   1       6.137   0.284 -15.280  0.00  0.00     0.074 A 
ATOM     12  C   UNL d   1       5.250  -0.540 -16.018  0.00  0.00     0.036 A 
ATOM     13  C   UNL d   1       5.615  -1.082 -17.264  0.00  0.00     0.140 A 
ATOM     14  F   UNL d   1       4.745  -1.869 -17.941  0.00  0.00    -0.204 F 
ATOM     15  C   UNL d   1       6.884  -0.811 -17.802  0.00  0.00     0.031 A 
ATOM     16  C   UNL d   1       7.790  -0.007 -17.087  0.00  0.00     0.020 A 
ATOM     17  C   UNL d   1       7.434   0.529 -15.823  0.00  0.00     0.070 A 
ENDROOT
BRANCH   1  18
ATOM     18  C   UNL d   1       9.655   4.196 -13.267  0.00  0.00     0.315 C 
ATOM     19  O   UNL d   1      10.750   4.760 -13.259  0.00  0.00    -0.257 OA
BRANCH  18  20
ATOM     20  O   UNL d   1       8.609   4.619 -12.527  0.00  0.00    -0.297 OA
BRANCH  20  21
ATOM     21  C   UNL d   1       8.707   5.731 -11.645  0.00  0.00     0.152 C 
ATOM     22  C   UNL d   1       8.936   5.233 -10.214  0.00  0.00     0.035 C 
ENDBRANCH  20  21
ENDBRANCH  18  20
ENDBRANCH   1  18
TORSDOF 3
