REMARK  7 active torsions:
REMARK  status: ('A' for Active; 'I' for Inactive)
REMARK    1  A    between atoms: C_2  and  C_3 
REMARK       I    between atoms: C_2  and  N_13 
REMARK    2  A    between atoms: C_3  and  C_4 
REMARK    3  A    between atoms: N_13  and  C_14 
REMARK    4  A    between atoms: C_17  and  C_18 
REMARK    5  A    between atoms: C_18  and  C_19 
REMARK    6  A    between atoms: C_19  and  N_20 
REMARK    7  A    between atoms: C_23  and  C_24 
ROOT
ATOM      1  C   UNL d   1       7.585   0.019 -17.253  0.00  0.00     0.106 C 
ATOM      2  C   UNL d   1       8.101   1.420 -17.626  0.00  0.00     0.024 C 
ATOM      3  C   UNL d   1       8.540   2.182 -16.388  0.00  0.00     0.002 C 
ATOM      4  C   UNL d   1       7.406   2.249 -15.350  0.00  0.00     0.002 C 
ATOM      5  C   UNL d   1       6.941   0.834 -14.931  0.00  0.00     0.002 C 
ATOM      6  C   UNL d   1       6.492   0.042 -16.154  0.00  0.00     0.024 C 
ENDROOT
BRANCH   4   7
ATOM      7  C   UNL d   1       7.887   3.061 -14.158  0.00  0.00     0.035 C 
BRANCH   7   8
ATOM      8  C   UNL d   1       6.778   3.949 -13.547  0.00  0.00     0.250 C 
BRANCH   8   9
ATOM      9  N   UNL d   1       7.333   4.938 -12.627  0.00  0.00     0.137 N 
ATOM     10  C   UNL d   1       7.839   4.259 -11.450  0.00  0.00     0.251 C 
ATOM     11  C   UNL d   1       8.298   5.254 -10.433  0.00  0.00     0.040 C 
ATOM     12  C   UNL d   1       9.379   6.201 -10.964  0.00  0.00     0.026 C 
ATOM     13  C   UNL d   1       8.869   6.854 -12.272  0.00  0.00     0.040 C 
ATOM     14  C   UNL d   1       8.390   5.760 -13.221  0.00  0.00     0.251 C 
BRANCH  12  15
ATOM     15  C   UNL d   1       9.870   7.232  -9.938  0.00  0.00    -0.024 A 
ATOM     16  C   UNL d   1       9.612   7.168  -8.543  0.00  0.00    -0.001 A 
ATOM     17  C   UNL d   1      10.040   8.144  -7.672  0.00  0.00     0.090 A 
ATOM     18  C   UNL d   1       8.885   6.132  -7.758  0.00  0.00     0.061 A 
ATOM     19  C   UNL d   1      10.810   9.226  -8.108  0.00  0.00     0.024 A 
ATOM     20  O   UNL d   1       9.645   7.969  -6.386  0.00  0.00    -0.331 OA
ATOM     21  C   UNL d   1      11.078   9.324  -9.488  0.00  0.00     0.002 A 
ATOM     22  C   UNL d   1      10.629   8.339 -10.375  0.00  0.00    -0.004 A 
ATOM     23  C   UNL d   1       8.861   6.766  -6.377  0.00  0.00     0.154 A 
ENDBRANCH  12  15
ENDBRANCH   8   9
ENDBRANCH   7   8
ENDBRANCH   4   7
BRANCH   1  24
ATOM     24  N   UNL d   1       7.127  -0.678 -18.443  0.00  0.00    -0.240 NA
ATOM     25  C   UNL d   1       6.119  -0.312 -19.261  0.00  0.00     0.258 C 
ATOM     26  O   UNL d   1       5.430   0.690 -19.083  0.00  0.00    -0.270 OA
BRANCH  25  27
ATOM     27  C   UNL d   1       5.866  -1.181 -20.486  0.00  0.00     0.138 C 
BRANCH  27  28
ATOM     28  C   UNL d   1       6.036  -2.642 -20.160  0.00  0.00     0.097 A 
ATOM     29  C   UNL d   1       5.089  -3.609 -19.789  0.00  0.00     0.041 A 
ATOM     30  C   UNL d   1       5.736  -4.822 -19.551  0.00  0.00     0.126 A 
ATOM     31  C   UNL d   1       3.688  -3.524 -19.627  0.00  0.00     0.003 A 
ATOM     32  O   UNL d   1       7.082  -4.561 -19.771  0.00  0.00    -0.211 OA
ATOM     33  C   UNL d   1       5.060  -5.987 -19.176  0.00  0.00     0.027 A 
ATOM     34  N   UNL d   1       7.249  -3.206 -20.166  0.00  0.00    -0.130 NA
ATOM     35  C   UNL d   1       3.656  -5.910 -19.033  0.00  0.00     0.002 A 
ATOM     36  C   UNL d   1       2.978  -4.686 -19.253  0.00  0.00     0.000 A 
ENDBRANCH  27  28
ENDBRANCH  25  27
ENDBRANCH   1  24
TORSDOF 7
