REMARK  4 active torsions:
REMARK  status: ('A' for Active; 'I' for Inactive)
REMARK    1  A    between atoms: O_2  and  C_3 
REMARK    2  A    between atoms: C_9  and  C_10 
REMARK    3  A    between atoms: N_21  and  S_22 
REMARK    4  A    between atoms: S_22  and  C_25 
ROOT
ATOM      1  C   UNL d   1       5.849   1.616 -13.574  0.00  0.00     0.094 A 
ATOM      2  C   UNL d   1       5.321   2.586 -12.706  0.00  0.00     0.026 A 
ATOM      3  C   UNL d   1       5.994   3.798 -12.497  0.00  0.00     0.020 A 
ATOM      4  C   UNL d   1       7.212   4.042 -13.158  0.00  0.00     0.075 A 
ATOM      5  C   UNL d   1       7.789   3.090 -14.054  0.00  0.00     0.022 A 
ATOM      6  C   UNL d   1       7.060   1.887 -14.258  0.00  0.00     0.026 A 
ATOM      7  C   UNL d   1       9.043   3.631 -14.540  0.00  0.00     0.038 A 
ATOM      8  C   UNL d   1       9.168   4.857 -13.940  0.00  0.00     0.093 A 
ATOM      9  N   UNL d   1       8.095   5.103 -13.115  0.00  0.00    -0.231 N 
ENDROOT
BRANCH   7  10
ATOM     10  C   UNL d   1       9.952   2.972 -15.482  0.00  0.00     0.096 A 
ATOM     11  C   UNL d   1      11.124   3.416 -16.067  0.00  0.00     0.061 A 
ATOM     12  N   UNL d   1      11.499   2.368 -16.892  0.00  0.00    -0.293 N 
ATOM     13  C   UNL d   1      11.893   4.701 -15.958  0.00  0.00     0.052 C 
ATOM     14  C   UNL d   1      10.660   1.329 -16.817  0.00  0.00     0.148 A 
ATOM     15  C   UNL d   1      12.604   2.344 -17.721  0.00  0.00     0.081 A 
ATOM     16  N   UNL d   1       9.716   1.685 -15.953  0.00  0.00    -0.227 NA
ATOM     17  C   UNL d   1      10.841   0.166 -17.550  0.00  0.00     0.037 A 
ATOM     18  C   UNL d   1      11.939   0.107 -18.384  0.00  0.00     0.005 A 
ATOM     19  C   UNL d   1      12.829   1.212 -18.475  0.00  0.00     0.019 A 
ENDBRANCH   7  10
BRANCH   9  20
ATOM     20  S   UNL d   1       7.940   6.526 -12.196  0.00  0.00     0.271 S 
ATOM     21  O   UNL d   1       8.830   7.504 -12.831  0.00  0.00    -0.200 OA
ATOM     22  O   UNL d   1       6.492   6.755 -12.074  0.00  0.00    -0.200 OA
BRANCH  20  23
ATOM     23  C   UNL d   1       8.668   6.123 -10.635  0.00  0.00     0.104 A 
ATOM     24  C   UNL d   1       8.277   4.953  -9.973  0.00  0.00     0.013 A 
ATOM     25  C   UNL d   1       8.874   4.648  -8.742  0.00  0.00     0.001 A 
ATOM     26  C   UNL d   1       9.828   5.521  -8.189  0.00  0.00     0.000 A 
ATOM     27  C   UNL d   1      10.221   6.686  -8.851  0.00  0.00     0.001 A 
ATOM     28  C   UNL d   1       9.642   6.991 -10.089  0.00  0.00     0.013 A 
ENDBRANCH  20  23
ENDBRANCH   9  20
BRANCH   1  29
ATOM     29  O   UNL d   1       5.141   0.441 -13.682  0.00  0.00    -0.328 OA
ATOM     30  C   UNL d   1       5.676  -0.578 -14.511  0.00  0.00     0.181 C 
ENDBRANCH   1  29
TORSDOF 4
