REMARK  9 active torsions:
REMARK  status: ('A' for Active; 'I' for Inactive)
REMARK    1  A    between atoms: C_4  and  C_5 
REMARK    2  A    between atoms: C_8  and  C_9 
REMARK    3  A    between atoms: C_13  and  O_14 
REMARK    4  A    between atoms: O_14  and  C_15 
REMARK       I    between atoms: C_15  and  N_17 
REMARK    5  A    between atoms: N_17  and  C_18 
REMARK    6  A    between atoms: C_18  and  C_19 
REMARK    7  A    between atoms: C_19  and  C_20 
REMARK    8  A    between atoms: C_20  and  N_21 
REMARK    9  A    between atoms: N_24  and  C_25 
ROOT
ATOM      1  C   UNL d   1      10.143   4.792 -13.841  0.00  0.00     0.388 C 
ATOM      2  O   UNL d   1      11.056   4.170 -13.283  0.00  0.00    -0.236 OA
ATOM      3  N   UNL d   1       8.991   5.249 -13.258  0.00  0.00    -0.212 NA
ENDROOT
BRANCH   1   4
ATOM      4  O   UNL d   1      10.123   5.142 -15.124  0.00  0.00    -0.258 OA
BRANCH   4   5
ATOM      5  C   UNL d   1      11.162   4.774 -15.928  0.00  0.00     0.105 C 
ATOM      6  C   UNL d   1      12.215   5.689 -16.198  0.00  0.00     0.025 C 
ATOM      7  C   UNL d   1      13.277   5.276 -17.020  0.00  0.00     0.002 C 
ATOM      8  C   UNL d   1      13.326   3.975 -17.518  0.00  0.00     0.002 C 
ATOM      9  C   UNL d   1      12.224   3.082 -17.389  0.00  0.00     0.025 C 
ATOM     10  C   UNL d   1      11.142   3.501 -16.557  0.00  0.00     0.027 C 
BRANCH   9  11
ATOM     11  C   UNL d   1      12.170   1.753 -18.028  0.00  0.00     0.104 A 
ATOM     12  C   UNL d   1      12.886   1.062 -19.013  0.00  0.00     0.084 A 
ATOM     13  C   UNL d   1      12.288  -0.218 -19.116  0.00  0.00     0.027 A 
ATOM     14  C   UNL d   1      11.216  -0.242 -18.275  0.00  0.00     0.078 A 
ATOM     15  C   UNL d   1      10.157  -1.240 -17.942  0.00  0.00     0.058 C 
ATOM     16  O   UNL d   1      11.139   0.940 -17.611  0.00  0.00    -0.311 OA
BRANCH  12  17
ATOM     17  C   UNL d   1      14.079   1.549 -19.733  0.00  0.00     0.299 C 
ATOM     18  N   UNL d   1      14.098   2.807 -20.128  0.00  0.00    -0.102 N 
ATOM     19  O   UNL d   1      15.067   0.823 -19.927  0.00  0.00    -0.264 OA
ENDBRANCH  12  17
ENDBRANCH   9  11
ENDBRANCH   4   5
ENDBRANCH   1   4
BRANCH   3  20
ATOM     20  C   UNL d   1       8.683   5.128 -11.841  0.00  0.00     0.133 C 
BRANCH  20  21
ATOM     21  C   UNL d   1       9.379   6.216 -11.001  0.00  0.00     0.062 C 
BRANCH  21  22
ATOM     22  C   UNL d   1       8.978   6.166  -9.512  0.00  0.00     0.253 C 
BRANCH  22  23
ATOM     23  N   UNL d   1       9.611   7.243  -8.744  0.00  0.00     0.141 N 
ATOM     24  C   UNL d   1       8.824   7.551  -7.547  0.00  0.00     0.274 C 
ATOM     25  C   UNL d   1       9.535   8.682  -6.752  0.00  0.00     0.137 C 
ATOM     26  N   UNL d   1      10.914   8.313  -6.426  0.00  0.00    -0.344 N 
ATOM     27  C   UNL d   1      11.698   7.877  -7.561  0.00  0.00     0.137 C 
ATOM     28  C   UNL d   1      10.932   6.778  -8.319  0.00  0.00     0.274 C 
BRANCH  26  29
ATOM     29  C   UNL d   1      11.367   8.341  -5.108  0.00  0.00     0.056 A 
ATOM     30  C   UNL d   1      11.366   9.556  -4.397  0.00  0.00     0.017 A 
ATOM     31  C   UNL d   1      11.863   9.593  -3.088  0.00  0.00     0.002 A 
ATOM     32  C   UNL d   1      12.384   8.439  -2.473  0.00  0.00     0.000 A 
ATOM     33  C   UNL d   1      12.368   7.221  -3.180  0.00  0.00     0.002 A 
ATOM     34  C   UNL d   1      11.852   7.172  -4.482  0.00  0.00     0.017 A 
ENDBRANCH  26  29
ENDBRANCH  22  23
ENDBRANCH  21  22
ENDBRANCH  20  21
ENDBRANCH   3  20
TORSDOF 9
