REMARK  4 active torsions:
REMARK  status: ('A' for Active; 'I' for Inactive)
REMARK       I    between atoms: C_2  and  N_4 
REMARK    1  A    between atoms: N_4  and  C_5 
REMARK    2  A    between atoms: C_9  and  C_10 
REMARK    3  A    between atoms: N_12  and  S_13 
REMARK    4  A    between atoms: S_13  and  C_16 
ROOT
ATOM      1  C   UNL d   1       7.656   2.834 -13.965  0.00  0.00     0.039 A 
ATOM      2  C   UNL d   1       7.407   4.030 -13.331  0.00  0.00     0.093 A 
ATOM      3  N   UNL d   1       8.560   4.763 -13.195  0.00  0.00    -0.231 N 
ATOM      4  C   UNL d   1       9.609   4.070 -13.789  0.00  0.00     0.075 A 
ATOM      5  C   UNL d   1      10.978   4.349 -13.975  0.00  0.00     0.018 A 
ATOM      6  C   UNL d   1      11.835   3.449 -14.614  0.00  0.00     0.002 A 
ATOM      7  C   UNL d   1      11.315   2.232 -15.056  0.00  0.00     0.000 A 
ATOM      8  C   UNL d   1       9.963   1.924 -14.856  0.00  0.00     0.002 A 
ATOM      9  C   UNL d   1       9.065   2.842 -14.265  0.00  0.00     0.020 A 
ENDROOT
BRANCH   3  10
ATOM     10  S   UNL d   1       8.620   6.286 -12.427  0.00  0.00     0.271 S 
ATOM     11  O   UNL d   1       9.856   6.851 -12.926  0.00  0.00    -0.200 OA
ATOM     12  O   UNL d   1       7.314   6.927 -12.664  0.00  0.00    -0.200 OA
BRANCH  10  13
ATOM     13  C   UNL d   1       8.948   6.054 -10.726  0.00  0.00     0.104 A 
ATOM     14  C   UNL d   1       9.730   6.968  -9.950  0.00  0.00     0.012 A 
ATOM     15  C   UNL d   1       9.948   6.650  -8.592  0.00  0.00     0.001 A 
ATOM     16  C   UNL d   1      10.287   8.180 -10.421  0.00  0.00     0.001 A 
ATOM     17  C   UNL d   1       9.400   5.478  -8.072  0.00  0.00     0.000 A 
ATOM     18  C   UNL d   1      10.689   7.488  -7.733  0.00  0.00     0.000 A 
ATOM     19  C   UNL d   1       8.660   4.576  -8.841  0.00  0.00     0.001 A 
ATOM     20  C   UNL d   1       8.452   4.867 -10.184  0.00  0.00     0.013 A 
ATOM     21  C   UNL d   1      11.248   8.671  -8.235  0.00  0.00     0.000 A 
ATOM     22  C   UNL d   1      11.046   9.011  -9.581  0.00  0.00     0.000 A 
ENDBRANCH  10  13
ENDBRANCH   3  10
BRANCH   1  23
ATOM     23  C   UNL d   1       6.740   1.708 -14.173  0.00  0.00     0.115 A 
ATOM     24  C   UNL d   1       5.461   1.528 -13.669  0.00  0.00     0.096 A 
ATOM     25  N   UNL d   1       5.015   0.345 -14.228  0.00  0.00    -0.062 NA
ATOM     26  C   UNL d   1       4.640   2.395 -12.784  0.00  0.00     0.054 C 
ATOM     27  C   UNL d   1       5.977  -0.106 -15.025  0.00  0.00     0.752 A 
ATOM     28  N   UNL d   1       7.073   0.636 -15.010  0.00  0.00    -0.058 NA
BRANCH  27  29
ATOM     29  N   UNL d   1       5.861  -1.290 -15.762  0.00  0.00    -0.023 NA
ATOM     30  C   UNL d   1       4.748  -1.770 -16.344  0.00  0.00     0.273 C 
ATOM     31  C   UNL d   1       4.934  -3.053 -17.160  0.00  0.00     0.101 C 
ATOM     32  O   UNL d   1       3.646  -1.232 -16.258  0.00  0.00    -0.270 OA
ENDBRANCH  27  29
ENDBRANCH   1  23
TORSDOF 4
