REMARK  2 active torsions:
REMARK  status: ('A' for Active; 'I' for Inactive)
REMARK    1  A    between atoms: N_10  and  C_11 
REMARK    2  A    between atoms: C_11  and  C_12 
ROOT
ATOM      1 CL   UNL d   1      11.671   6.787  -3.112  0.00  0.00    -0.082 Cl
ATOM      2  C   UNL d   1      11.480   7.614  -4.619  0.00  0.00     0.058 A 
ATOM      3  C   UNL d   1      12.094   8.868  -4.781  0.00  0.00     0.013 A 
ATOM      4  C   UNL d   1      12.072   9.509  -6.037  0.00  0.00     0.025 A 
ATOM      5  C   UNL d   1      11.387   8.930  -7.123  0.00  0.00     0.090 A 
ATOM      6  C   UNL d   1      10.717   7.694  -6.943  0.00  0.00     0.003 A 
ATOM      7  C   UNL d   1      10.756   7.038  -5.690  0.00  0.00     0.009 A 
ATOM      8  C   UNL d   1       9.964   7.138  -8.139  0.00  0.00     0.062 C 
ATOM      9  C   UNL d   1       9.877   5.646  -8.358  0.00  0.00     0.255 C 
ATOM     10  N   UNL d   1       9.604   5.503  -9.792  0.00  0.00     0.142 N 
ATOM     11  C   UNL d   1       9.784   6.814 -10.438  0.00  0.00     0.254 C 
ATOM     12  C   UNL d   1      10.622   7.573  -9.423  0.00  0.00     0.070 C 
ATOM     13  C   UNL d   1      10.637   9.095  -9.431  0.00  0.00     0.151 C 
ATOM     14  O   UNL d   1      11.435   9.583  -8.342  0.00  0.00    -0.331 OA
ENDROOT
BRANCH  10  15
ATOM     15  C   UNL d   1       8.276   4.995 -10.058  0.00  0.00     0.277 C 
BRANCH  15  16
ATOM     16  C   UNL d   1       8.035   4.574 -11.505  0.00  0.00     0.011 A 
ATOM     17  C   UNL d   1       9.098   4.117 -12.321  0.00  0.00    -0.002 A 
ATOM     18  C   UNL d   1       8.839   3.609 -13.604  0.00  0.00    -0.000 A 
ATOM     19  C   UNL d   1       7.507   3.511 -14.044  0.00  0.00    -0.000 A 
ATOM     20  C   UNL d   1       6.447   3.975 -13.261  0.00  0.00    -0.000 A 
ATOM     21  C   UNL d   1       6.709   4.492 -11.979  0.00  0.00    -0.002 A 
ENDBRANCH  15  16
ENDBRANCH  10  15
TORSDOF 2
