REMARK  6 active torsions:
REMARK  status: ('A' for Active; 'I' for Inactive)
REMARK    1  A    between atoms: C_7  and  C_8 
REMARK       I    between atoms: C_8  and  N_10 
REMARK    2  A    between atoms: N_10  and  C_11 
REMARK    3  A    between atoms: C_11  and  C_12 
REMARK    4  A    between atoms: N_16  and  C_17 
REMARK    5  A    between atoms: C_17  and  C_18 
REMARK    6  A    between atoms: C_18  and  C_19 
ROOT
ATOM      1  C   UNL d   1      11.392   3.749 -14.361  0.00  0.00     0.277 C 
ATOM      2  O   UNL d   1      12.186   4.391 -13.668  0.00  0.00    -0.266 OA
ATOM      3  N   UNL d   1      10.155   3.448 -13.967  0.00  0.00    -0.232 NA
ENDROOT
BRANCH   3   4
ATOM      4  C   UNL d   1       9.638   3.733 -12.643  0.00  0.00     0.162 C 
BRANCH   4   5
ATOM      5  C   UNL d   1       8.522   4.788 -12.673  0.00  0.00     0.243 C 
ATOM      6  N   UNL d   1       7.938   5.057 -11.363  0.00  0.00     0.137 N 
ATOM      7  C   UNL d   1       6.704   5.781 -11.680  0.00  0.00     0.250 C 
ATOM      8  C   UNL d   1       6.096   4.974 -12.833  0.00  0.00     0.037 C 
ATOM      9  C   UNL d   1       7.312   4.324 -13.488  0.00  0.00     0.037 C 
BRANCH   6  10
ATOM     10  C   UNL d   1       8.837   5.854 -10.522  0.00  0.00     0.255 C 
BRANCH  10  11
ATOM     11  C   UNL d   1       8.490   5.694  -9.032  0.00  0.00     0.062 C 
BRANCH  11  12
ATOM     12  C   UNL d   1       9.409   6.525  -8.152  0.00  0.00    -0.020 A 
ATOM     13  C   UNL d   1       9.062   7.828  -7.726  0.00  0.00    -0.004 A 
ATOM     14  C   UNL d   1       9.949   8.589  -6.949  0.00  0.00    -0.000 A 
ATOM     15  C   UNL d   1      11.190   8.064  -6.569  0.00  0.00    -0.000 A 
ATOM     16  C   UNL d   1      11.528   6.763  -6.987  0.00  0.00    -0.000 A 
ATOM     17  C   UNL d   1      10.653   6.002  -7.778  0.00  0.00    -0.004 A 
ENDBRANCH  11  12
ENDBRANCH  10  11
ENDBRANCH   6  10
ENDBRANCH   4   5
ENDBRANCH   3   4
BRANCH   1  18
ATOM     18  C   UNL d   1      11.734   3.240 -15.726  0.00  0.00     0.082 A 
ATOM     19  C   UNL d   1      12.597   3.981 -16.576  0.00  0.00     0.114 A 
ATOM     20  O   UNL d   1      13.088   5.198 -16.132  0.00  0.00    -0.327 OA
ATOM     21  C   UNL d   1      12.925   3.466 -17.863  0.00  0.00     0.080 A 
ATOM     22  C   UNL d   1      14.265   5.663 -16.780  0.00  0.00     0.173 C 
ATOM     23  C   UNL d   1      14.088   5.582 -18.302  0.00  0.00     0.134 C 
ATOM     24  N   UNL d   1      13.755   4.222 -18.721  0.00  0.00    -0.342 N 
ATOM     25  C   UNL d   1      13.947   3.846 -20.116  0.00  0.00     0.126 C 
ATOM     26  C   UNL d   1      12.400   2.212 -18.265  0.00  0.00     0.030 A 
ATOM     27  C   UNL d   1      11.542   1.490 -17.418  0.00  0.00     0.059 A 
ATOM     28  C   UNL d   1      11.214   1.992 -16.151  0.00  0.00     0.018 A 
ATOM     29 CL   UNL d   1      10.912  -0.024 -17.943  0.00  0.00    -0.082 Cl
ENDBRANCH   1  18
TORSDOF 6
