REMARK  7 active torsions:
REMARK  status: ('A' for Active; 'I' for Inactive)
REMARK    1  A    between atoms: C_2  and  C_3 
REMARK    2  A    between atoms: N_13  and  C_14 
REMARK    3  A    between atoms: C_14  and  C_15 
REMARK    4  A    between atoms: C_15  and  C_17 
REMARK    5  A    between atoms: C_17  and  N_18 
REMARK    6  A    between atoms: C_21  and  O_22 
REMARK    7  A    between atoms: O_22  and  C_23 
ROOT
ATOM      1  C   UNL d   1      10.011   1.248 -18.878  0.00  0.00     0.148 C 
ENDROOT
BRANCH   1   2
ATOM      2  N   UNL d   1       8.919   0.252 -18.738  0.00  0.00    -0.247 N 
ATOM      3  C   UNL d   1       9.146  -1.055 -18.507  0.00  0.00     0.348 A 
ATOM      4  N   UNL d   1       7.959  -1.679 -18.435  0.00  0.00    -0.209 NA
ATOM      5  O   UNL d   1      10.240  -1.593 -18.377  0.00  0.00    -0.245 OA
ATOM      6  C   UNL d   1       6.821  -0.790 -18.536  0.00  0.00     0.179 A 
ATOM      7  C   UNL d   1       6.004  -1.126 -19.805  0.00  0.00     0.039 C 
ATOM      8  C   UNL d   1       7.598   0.496 -18.784  0.00  0.00     0.265 A 
ATOM      9  O   UNL d   1       7.057   1.592 -18.988  0.00  0.00    -0.269 OA
BRANCH   6  10
ATOM     10  C   UNL d   1       5.965  -0.729 -17.222  0.00  0.00     0.006 A 
ATOM     11  C   UNL d   1       6.482  -0.151 -16.025  0.00  0.00     0.000 A 
ATOM     12  C   UNL d   1       5.690  -0.045 -14.862  0.00  0.00     0.029 A 
ATOM     13  C   UNL d   1       4.408  -0.613 -14.816  0.00  0.00     0.140 A 
ATOM     14  C   UNL d   1       3.898  -1.261 -15.959  0.00  0.00     0.029 A 
ATOM     15  F   UNL d   1       3.683  -0.584 -13.655  0.00  0.00    -0.204 F 
ATOM     16  C   UNL d   1       4.664  -1.295 -17.151  0.00  0.00     0.000 A 
ENDBRANCH   6  10
ENDBRANCH   1   2
BRANCH   1  17
ATOM     17  C   UNL d   1      10.416   1.974 -17.569  0.00  0.00     0.208 C 
ATOM     18  O   UNL d   1      11.266   1.122 -16.825  0.00  0.00    -0.219 OA
BRANCH  17  19
ATOM     19  C   UNL d   1       9.225   2.420 -16.692  0.00  0.00     0.285 C 
BRANCH  19  20
ATOM     20  N   UNL d   1       9.547   2.886 -15.349  0.00  0.00     0.140 N 
ATOM     21  C   UNL d   1      10.180   4.200 -15.387  0.00  0.00     0.253 C 
ATOM     22  C   UNL d   1      10.604   4.678 -14.001  0.00  0.00     0.066 C 
ATOM     23  C   UNL d   1       9.377   4.756 -13.076  0.00  0.00     0.125 C 
ATOM     24  C   UNL d   1       8.701   3.403 -13.068  0.00  0.00     0.066 C 
ATOM     25  C   UNL d   1       8.371   2.929 -14.474  0.00  0.00     0.253 C 
BRANCH  23  26
ATOM     26  O   UNL d   1       9.760   4.988 -11.724  0.00  0.00    -0.333 OA
BRANCH  26  27
ATOM     27  C   UNL d   1       9.784   6.256 -11.192  0.00  0.00     0.094 A 
ATOM     28  C   UNL d   1       9.393   7.421 -11.888  0.00  0.00     0.024 A 
ATOM     29  C   UNL d   1       9.447   8.668 -11.249  0.00  0.00     0.002 A 
ATOM     30  C   UNL d   1       9.892   8.786  -9.922  0.00  0.00     0.000 A 
ATOM     31  C   UNL d   1      10.296   7.634  -9.225  0.00  0.00     0.002 A 
ATOM     32  C   UNL d   1      10.240   6.383  -9.863  0.00  0.00     0.024 A 
ENDBRANCH  26  27
ENDBRANCH  23  26
ENDBRANCH  19  20
ENDBRANCH  17  19
ENDBRANCH   1  17
TORSDOF 7
