REMARK  8 active torsions:
REMARK  status: ('A' for Active; 'I' for Inactive)
REMARK    1  A    between atoms: C_2  and  C_4 
REMARK    2  A    between atoms: C_6  and  O_7 
REMARK    3  A    between atoms: O_7  and  C_8 
REMARK    4  A    between atoms: C_8  and  C_9 
REMARK    5  A    between atoms: C_9  and  C_10 
REMARK    6  A    between atoms: C_10  and  C_11 
REMARK    7  A    between atoms: C_11  and  N_12 
REMARK    8  A    between atoms: N_15  and  C_16 
ROOT
ATOM      1  N   UNL d   1       9.647   6.449 -10.577  0.00  0.00     0.141 N 
ATOM      2  C   UNL d   1       9.079   6.197  -9.243  0.00  0.00     0.274 C 
ATOM      3  C   UNL d   1      10.180   6.254  -8.172  0.00  0.00     0.138 C 
ATOM      4  N   UNL d   1      10.913   7.516  -8.216  0.00  0.00    -0.329 N 
ATOM      5  C   UNL d   1      11.351   7.909  -9.559  0.00  0.00     0.138 C 
ATOM      6  C   UNL d   1      10.200   7.808 -10.573  0.00  0.00     0.274 C 
ENDROOT
BRANCH   1   7
ATOM      7  C   UNL d   1       8.622   6.346 -11.603  0.00  0.00     0.251 C 
BRANCH   7   8
ATOM      8  C   UNL d   1       8.285   4.891 -11.918  0.00  0.00     0.038 C 
BRANCH   8   9
ATOM      9  C   UNL d   1       7.359   4.802 -13.139  0.00  0.00     0.035 C 
BRANCH   9  10
ATOM     10  C   UNL d   1       7.041   3.378 -13.594  0.00  0.00     0.149 C 
BRANCH  10  11
ATOM     11  O   UNL d   1       8.258   2.811 -14.069  0.00  0.00    -0.331 OA
BRANCH  11  12
ATOM     12  C   UNL d   1       8.229   1.867 -15.064  0.00  0.00     0.097 A 
ATOM     13  C   UNL d   1       9.460   1.507 -15.637  0.00  0.00     0.048 A 
ATOM     14  C   UNL d   1       9.481   0.627 -16.746  0.00  0.00     0.142 A 
ATOM     15  N   UNL d   1       8.354   0.075 -17.245  0.00  0.00    -0.239 NA
ATOM     16  C   UNL d   1       7.181   0.366 -16.654  0.00  0.00     0.101 A 
ATOM     17  C   UNL d   1       7.062   1.246 -15.562  0.00  0.00     0.045 A 
BRANCH  14  18
ATOM     18  C   UNL d   1      10.777   0.234 -17.402  0.00  0.00     0.315 C 
ATOM     19  N   UNL d   1      11.760   1.129 -17.311  0.00  0.00    -0.101 N 
ATOM     20  O   UNL d   1      10.916  -0.816 -18.034  0.00  0.00    -0.262 OA
ENDBRANCH  14  18
ENDBRANCH  11  12
ENDBRANCH  10  11
ENDBRANCH   9  10
ENDBRANCH   8   9
ENDBRANCH   7   8
ENDBRANCH   1   7
BRANCH   4  21
ATOM     21  C   UNL d   1      11.041   8.334  -7.089  0.00  0.00     0.148 A 
ATOM     22  C   UNL d   1      11.317   7.874  -5.739  0.00  0.00     0.042 A 
ATOM     23  C   UNL d   1      11.414   8.970  -4.837  0.00  0.00     0.050 A 
ATOM     24  C   UNL d   1      11.570   6.601  -5.216  0.00  0.00     0.004 A 
ATOM     25  S   UNL d   1      11.064  10.392  -5.747  0.00  0.00     0.015 SA
ATOM     26  C   UNL d   1      11.733   8.824  -3.475  0.00  0.00     0.008 A 
ATOM     27  N   UNL d   1      10.969   9.642  -7.232  0.00  0.00    -0.192 NA
ATOM     28  C   UNL d   1      11.976   7.541  -2.976  0.00  0.00     0.001 A 
ATOM     29  C   UNL d   1      11.917   6.456  -3.857  0.00  0.00     0.000 A 
ENDBRANCH   4  21
TORSDOF 8
