REMARK  9 active torsions:
REMARK  status: ('A' for Active; 'I' for Inactive)
REMARK    1  A    between atoms: C_2  and  C_3 
REMARK    2  A    between atoms: C_3  and  C_4 
REMARK    3  A    between atoms: N_6  and  C_7 
REMARK    4  A    between atoms: C_7  and  C_8 
REMARK    5  A    between atoms: C_15  and  C_16 
REMARK    6  A    between atoms: C_16  and  N_17 
REMARK       I    between atoms: N_17  and  C_18 
REMARK    7  A    between atoms: C_18  and  C_20 
REMARK    8  A    between atoms: C_24  and  N_25 
REMARK    9  A    between atoms: C_28  and  O_29 
ROOT
ATOM      1  C   UNL d   1       8.106   6.133 -12.362  0.00  0.00     0.037 C 
ATOM      2  C   UNL d   1       8.426   6.182 -10.870  0.00  0.00     0.251 C 
ATOM      3  N   UNL d   1       9.761   5.656 -10.733  0.00  0.00     0.141 N 
ATOM      4  C   UNL d   1       9.752   4.493 -11.643  0.00  0.00     0.253 C 
ATOM      5  C   UNL d   1       9.040   5.045 -12.859  0.00  0.00     0.060 C 
ENDROOT
BRANCH   5   6
ATOM      6  C   UNL d   1       8.350   3.893 -13.654  0.00  0.00     0.131 C 
BRANCH   6   7
ATOM      7  N   UNL d   1       9.306   3.113 -14.413  0.00  0.00    -0.234 NA
ATOM      8  C   UNL d   1       9.908   3.593 -15.495  0.00  0.00     0.277 C 
ATOM      9  O   UNL d   1       9.946   4.783 -15.825  0.00  0.00    -0.266 OA
BRANCH   8  10
ATOM     10  C   UNL d   1      10.510   2.546 -16.387  0.00  0.00     0.081 A 
ATOM     11  C   UNL d   1      11.777   2.746 -16.975  0.00  0.00     0.100 A 
ATOM     12  C   UNL d   1      12.285   1.728 -17.816  0.00  0.00     0.044 A 
ATOM     13  C   UNL d   1      11.556   0.544 -18.061  0.00  0.00     0.089 A 
ATOM     14  C   UNL d   1      10.290   0.379 -17.469  0.00  0.00     0.075 A 
ATOM     15  C   UNL d   1       9.767   1.380 -16.634  0.00  0.00     0.020 A 
ATOM     16 CL   UNL d   1       9.353  -1.032 -17.779  0.00  0.00    -0.081 Cl
BRANCH  11  17
ATOM     17  O   UNL d   1      12.466   3.911 -16.696  0.00  0.00    -0.328 OA
ATOM     18  C   UNL d   1      13.707   4.142 -17.345  0.00  0.00     0.181 C 
ENDBRANCH  11  17
BRANCH  13  19
ATOM     19  N   UNL d   1      12.054  -0.489 -18.862  0.00  0.00    -0.268 NA
ATOM     20  C   UNL d   1      13.235  -0.299 -19.686  0.00  0.00     0.152 C 
ENDBRANCH  13  19
ENDBRANCH   8  10
ENDBRANCH   6   7
ENDBRANCH   5   6
BRANCH   1  21
ATOM     21  C   UNL d   1       6.628   5.833 -12.623  0.00  0.00     0.002 C 
BRANCH  21  22
ATOM     22  C   UNL d   1       5.736   6.984 -12.278  0.00  0.00     0.000 C 
ATOM     23  C   UNL d   1       5.947   8.322 -12.915  0.00  0.00     0.000 C 
ENDBRANCH  21  22
ENDBRANCH   1  21
BRANCH   3  24
ATOM     24  C   UNL d   1       9.988   5.335  -9.322  0.00  0.00     0.277 C 
BRANCH  24  25
ATOM     25  C   UNL d   1      10.148   6.551  -8.415  0.00  0.00     0.011 A 
ATOM     26  C   UNL d   1      11.285   7.403  -8.472  0.00  0.00    -0.002 A 
ATOM     27  C   UNL d   1      11.440   8.445  -7.551  0.00  0.00    -0.000 A 
ATOM     28  C   UNL d   1      10.416   8.711  -6.626  0.00  0.00    -0.000 A 
ATOM     29  C   UNL d   1       9.264   7.899  -6.611  0.00  0.00    -0.000 A 
ATOM     30  C   UNL d   1       9.138   6.801  -7.471  0.00  0.00    -0.002 A 
ENDBRANCH  24  25
ENDBRANCH   3  24
TORSDOF 9
