REMARK  6 active torsions:
REMARK  status: ('A' for Active; 'I' for Inactive)
REMARK    1  A    between atoms: N_13  and  C_14 
REMARK    2  A    between atoms: C_14  and  C_15 
REMARK    3  A    between atoms: C_15  and  C_16 
REMARK    4  A    between atoms: C_16  and  C_17 
REMARK    5  A    between atoms: C_17  and  N_18 
REMARK    6  A    between atoms: N_21  and  C_22 
ROOT
ATOM      1  C   UNL d   1       9.657   7.412 -10.960  0.00  0.00     0.037 C 
ENDROOT
BRANCH   1   2
ATOM      2  C   UNL d   1      10.645   7.710  -9.820  0.00  0.00     0.027 C 
BRANCH   2   3
ATOM      3  C   UNL d   1      10.018   8.624  -8.736  0.00  0.00     0.112 C 
BRANCH   3   4
ATOM      4  N   UNL d   1      10.535   8.391  -7.384  0.00  0.00    -0.271 N 
ATOM      5  C   UNL d   1      11.056   9.330  -6.567  0.00  0.00     0.239 C 
ATOM      6  O   UNL d   1      11.174  10.529  -6.748  0.00  0.00    -0.272 OA
ATOM      7  C   UNL d   1      11.615   8.707  -5.321  0.00  0.00     0.091 C 
ATOM      8  C   UNL d   1      10.856   7.399  -5.307  0.00  0.00     0.091 C 
ATOM      9  C   UNL d   1      11.554   9.357  -3.936  0.00  0.00     0.045 C 
ATOM     10  C   UNL d   1      11.678   6.421  -4.517  0.00  0.00     0.045 C 
ATOM     11  C   UNL d   1      10.483   7.200  -6.759  0.00  0.00     0.239 C 
ATOM     12  C   UNL d   1      11.806   6.930  -3.067  0.00  0.00     0.183 C 
ATOM     13  C   UNL d   1      12.322   8.390  -3.000  0.00  0.00     0.183 C 
ATOM     14  O   UNL d   1      12.672   6.094  -2.354  0.00  0.00    -0.221 OA
ATOM     15  O   UNL d   1      12.263   8.861  -1.677  0.00  0.00    -0.221 OA
ATOM     16  O   UNL d   1      10.118   6.129  -7.236  0.00  0.00    -0.272 OA
ENDBRANCH   3   4
ENDBRANCH   2   3
ENDBRANCH   1   2
BRANCH   1  17
ATOM     17  C   UNL d   1       8.778   6.168 -10.645  0.00  0.00     0.251 C 
BRANCH  17  18
ATOM     18  N   UNL d   1       8.105   5.734 -11.865  0.00  0.00     0.141 N 
ATOM     19  C   UNL d   1       8.987   4.807 -12.568  0.00  0.00     0.274 C 
ATOM     20  C   UNL d   1       8.334   4.299 -13.848  0.00  0.00     0.137 C 
ATOM     21  N   UNL d   1       7.021   3.699 -13.582  0.00  0.00    -0.344 N 
ATOM     22  C   UNL d   1       6.127   4.541 -12.771  0.00  0.00     0.137 C 
ATOM     23  C   UNL d   1       6.878   5.018 -11.514  0.00  0.00     0.274 C 
BRANCH  21  24
ATOM     24  C   UNL d   1       6.674   2.416 -14.052  0.00  0.00     0.057 A 
ATOM     25  C   UNL d   1       7.259   1.851 -15.247  0.00  0.00     0.022 A 
ATOM     26  C   UNL d   1       6.850   0.519 -15.593  0.00  0.00     0.031 A 
ATOM     27  C   UNL d   1       8.220   2.385 -16.221  0.00  0.00     0.009 A 
ATOM     28  C   UNL d   1       5.909  -0.212 -14.845  0.00  0.00     0.007 A 
ATOM     29  S   UNL d   1       7.653  -0.019 -17.059  0.00  0.00    -0.086 SA
ATOM     30  C   UNL d   1       5.329   0.370 -13.713  0.00  0.00     0.002 A 
ATOM     31  C   UNL d   1       5.724   1.652 -13.315  0.00  0.00     0.017 A 
ATOM     32  C   UNL d   1       8.533   1.459 -17.187  0.00  0.00     0.035 A 
ENDBRANCH  21  24
ENDBRANCH  17  18
ENDBRANCH   1  17
TORSDOF 6
