REMARK  2 active torsions:
REMARK  status: ('A' for Active; 'I' for Inactive)
REMARK    1  A    between atoms: C_9  and  C_10 
REMARK    2  A    between atoms: C_10  and  C_11 
ROOT
ATOM      1  F   UNL d   1      12.330   7.537  -3.231  0.00  0.00    -0.204 F 
ATOM      2  C   UNL d   1      11.825   7.881  -4.435  0.00  0.00     0.140 A 
ATOM      3  C   UNL d   1      11.821   9.237  -4.833  0.00  0.00     0.029 A 
ATOM      4  C   UNL d   1      11.301   9.607  -6.095  0.00  0.00    -0.002 A 
ATOM      5  C   UNL d   1      10.791   8.598  -6.926  0.00  0.00    -0.026 A 
ATOM      6  C   UNL d   1      10.791   7.263  -6.537  0.00  0.00    -0.024 A 
ATOM      7  C   UNL d   1      11.305   6.878  -5.287  0.00  0.00     0.025 A 
ATOM      8  C   UNL d   1      10.212   6.374  -7.607  0.00  0.00     0.026 C 
ATOM      9  C   UNL d   1       9.667   7.363  -8.665  0.00  0.00     0.011 C 
ATOM     10  C   UNL d   1      10.207   8.773  -8.303  0.00  0.00     0.026 C 
ENDROOT
BRANCH   9  11
ATOM     11  C   UNL d   1       9.931   6.988 -10.139  0.00  0.00     0.027 C 
BRANCH  11  12
ATOM     12  C   UNL d   1       8.852   6.085 -10.780  0.00  0.00     0.129 C 
ATOM     13  N   UNL d   1       8.842   6.251 -12.225  0.00  0.00    -0.251 NA
ATOM     14  C   UNL d   1       9.168   5.121 -12.739  0.00  0.00     0.190 C 
ATOM     15  N   UNL d   1       9.451   4.108 -11.860  0.00  0.00    -0.249 NA
ATOM     16  C   UNL d   1       9.080   4.588 -10.548  0.00  0.00     0.152 C 
ENDBRANCH  11  12
ENDBRANCH   9  11
TORSDOF 2
