REMARK  0 active torsions:
REMARK  status: ('A' for Active; 'I' for Inactive)
ROOT
ATOM      1  C   UNL d   1      11.433   2.980 -14.600  0.00  0.00     0.139 C 
ATOM      2  N   UNL d   1       9.994   3.075 -14.288  0.00  0.00    -0.246 N 
ATOM      3  C   UNL d   1       9.548   4.181 -13.614  0.00  0.00     0.283 A 
ATOM      4  O   UNL d   1      10.260   5.119 -13.247  0.00  0.00    -0.265 OA
ATOM      5  C   UNL d   1       8.108   4.179 -13.365  0.00  0.00     0.153 A 
ATOM      6  C   UNL d   1       7.282   3.190 -13.776  0.00  0.00     0.170 A 
ATOM      7  N   UNL d   1       5.968   3.426 -13.386  0.00  0.00    -0.206 NA
ATOM      8  C   UNL d   1       6.080   4.587 -12.737  0.00  0.00     0.180 A 
ATOM      9  N   UNL d   1       7.324   5.104 -12.690  0.00  0.00    -0.302 N 
ATOM     10  C   UNL d   1       7.717   6.348 -12.070  0.00  0.00     0.132 C 
ATOM     11  N   UNL d   1       7.845   2.087 -14.464  0.00  0.00    -0.263 N 
ATOM     12  C   UNL d   1       6.934   1.010 -14.867  0.00  0.00     0.137 C 
ATOM     13  C   UNL d   1       9.195   2.026 -14.712  0.00  0.00     0.335 A 
ATOM     14  O   UNL d   1       9.684   1.063 -15.312  0.00  0.00    -0.246 OA
ENDROOT
TORSDOF 0
