REMARK  4 active torsions:
REMARK  status: ('A' for Active; 'I' for Inactive)
REMARK    1  A    between atoms: C_4  and  C_5 
REMARK    2  A    between atoms: C_7  and  C_8 
REMARK    3  A    between atoms: C_8  and  N_9 
REMARK    4  A    between atoms: N_12  and  C_13 
ROOT
ATOM      1  N   UNL d   1       9.710   6.334  -9.563  0.00  0.00     0.143 N 
ATOM      2  C   UNL d   1       9.986   7.767  -9.460  0.00  0.00     0.274 C 
ATOM      3  C   UNL d   1      11.237   8.011  -8.593  0.00  0.00     0.137 C 
ATOM      4  N   UNL d   1      11.060   7.404  -7.279  0.00  0.00    -0.344 N 
ATOM      5  C   UNL d   1      10.642   6.014  -7.298  0.00  0.00     0.137 C 
ATOM      6  C   UNL d   1       9.415   5.830  -8.213  0.00  0.00     0.274 C 
ENDROOT
BRANCH   1   7
ATOM      7  C   UNL d   1       8.554   6.143 -10.441  0.00  0.00     0.275 C 
BRANCH   7   8
ATOM      8  C   UNL d   1       8.538   4.754 -11.079  0.00  0.00     0.148 C 
ATOM      9  N   UNL d   1       9.594   4.670 -12.083  0.00  0.00    -0.264 NA
ATOM     10  C   UNL d   1       9.218   4.539 -13.288  0.00  0.00     0.101 C 
ATOM     11  S   UNL d   1       7.455   4.361 -13.477  0.00  0.00    -0.093 SA
ATOM     12  C   UNL d   1       7.174   4.402 -11.719  0.00  0.00     0.090 C 
BRANCH  10  13
ATOM     13  C   UNL d   1      10.171   4.511 -14.432  0.00  0.00     0.023 A 
ATOM     14  C   UNL d   1      11.536   4.213 -14.224  0.00  0.00     0.002 A 
ATOM     15  C   UNL d   1      12.438   4.205 -15.305  0.00  0.00     0.000 A 
ATOM     16  C   UNL d   1      11.991   4.471 -16.612  0.00  0.00     0.000 A 
ATOM     17  C   UNL d   1      10.632   4.765 -16.832  0.00  0.00     0.000 A 
ATOM     18  C   UNL d   1       9.733   4.792 -15.745  0.00  0.00     0.002 A 
ENDBRANCH  10  13
ENDBRANCH   7   8
ENDBRANCH   1   7
BRANCH   4  19
ATOM     19  C   UNL d   1      11.190   8.116  -6.069  0.00  0.00     0.056 A 
ATOM     20  C   UNL d   1      10.893   9.494  -6.023  0.00  0.00     0.017 A 
ATOM     21  C   UNL d   1      11.058  10.219  -4.835  0.00  0.00     0.002 A 
ATOM     22  C   UNL d   1      11.531   9.588  -3.668  0.00  0.00     0.000 A 
ATOM     23  C   UNL d   1      11.836   8.215  -3.693  0.00  0.00     0.002 A 
ATOM     24  C   UNL d   1      11.635   7.482  -4.882  0.00  0.00     0.017 A 
ENDBRANCH   4  19
TORSDOF 4
