REMARK  0 active torsions:
REMARK  status: ('A' for Active; 'I' for Inactive)
ROOT
ATOM      1  C   UNL d   1       9.375   7.317 -11.219  0.00  0.00     0.285 C 
ATOM      2  N   UNL d   1       9.777   8.048 -10.018  0.00  0.00     0.139 N 
ATOM      3  C   UNL d   1      11.227   8.225 -10.024  0.00  0.00     0.251 C 
ATOM      4  C   UNL d   1      11.589   9.039  -8.768  0.00  0.00     0.043 C 
ATOM      5  C   UNL d   1      11.074   8.433  -7.425  0.00  0.00     0.060 C 
ATOM      6  C   UNL d   1      11.797   7.077  -7.279  0.00  0.00     0.012 C 
ATOM      7  C   UNL d   1      11.564   6.412  -5.912  0.00  0.00     0.027 C 
ATOM      8  C   UNL d   1      11.658   7.341  -4.735  0.00  0.00    -0.019 A 
ATOM      9  C   UNL d   1      11.861   6.781  -3.461  0.00  0.00    -0.004 A 
ATOM     10  C   UNL d   1      12.016   7.615  -2.347  0.00  0.00    -0.000 A 
ATOM     11  C   UNL d   1      11.894   9.007  -2.493  0.00  0.00     0.000 A 
ATOM     12  C   UNL d   1      11.617   9.563  -3.749  0.00  0.00     0.003 A 
ATOM     13  C   UNL d   1      11.533   8.744  -4.892  0.00  0.00     0.031 A 
ATOM     14  C   UNL d   1      11.350   9.360  -6.227  0.00  0.00     0.172 C 
ATOM     15  O   UNL d   1      11.418  10.591  -6.396  0.00  0.00    -0.291 OA
ATOM     16  C   UNL d   1       9.562   8.155  -7.569  0.00  0.00     0.043 C 
ATOM     17  C   UNL d   1       9.314   7.319  -8.829  0.00  0.00     0.251 C 
ENDROOT
TORSDOF 0
