REMARK  6 active torsions:
REMARK  status: ('A' for Active; 'I' for Inactive)
REMARK       I    between atoms: C_2  and  N_3 
REMARK    1  A    between atoms: C_2  and  C_27 
REMARK    2  A    between atoms: N_3  and  C_4 
REMARK    3  A    between atoms: C_7  and  C_8 
REMARK    4  A    between atoms: C_8  and  C_9 
REMARK    5  A    between atoms: C_9  and  N_10 
REMARK    6  A    between atoms: C_13  and  C_14 
ROOT
ATOM      1  C   UNL d   1       7.824   6.364 -11.653  0.00  0.00     0.250 C 
ENDROOT
BRANCH   1   2
ATOM      2  C   UNL d   1       9.298   6.614 -11.220  0.00  0.00     0.035 C 
BRANCH   2   3
ATOM      3  C   UNL d   1       9.493   7.351  -9.874  0.00  0.00     0.002 C 
ATOM      4  C   UNL d   1       8.942   6.497  -8.695  0.00  0.00     0.002 C 
ATOM      5  C   UNL d   1       9.177   7.185  -7.349  0.00  0.00     0.024 C 
ATOM      6  C   UNL d   1      10.668   7.514  -7.154  0.00  0.00     0.106 C 
ATOM      7  C   UNL d   1      11.231   8.330  -8.328  0.00  0.00     0.024 C 
ATOM      8  C   UNL d   1      10.982   7.628  -9.659  0.00  0.00     0.002 C 
BRANCH   6   9
ATOM      9  N   UNL d   1      10.835   8.283  -5.933  0.00  0.00    -0.240 NA
ATOM     10  C   UNL d   1      11.373   7.787  -4.799  0.00  0.00     0.256 C 
ATOM     11  O   UNL d   1      11.888   6.691  -4.715  0.00  0.00    -0.270 OA
BRANCH  10  12
ATOM     12  C   UNL d   1      11.229   8.675  -3.637  0.00  0.00     0.147 A 
ATOM     13  C   UNL d   1      12.355   9.558  -3.302  0.00  0.00     0.273 A 
ATOM     14  C   UNL d   1      12.094   8.383  -2.410  0.00  0.00     0.082 A 
ATOM     15  F   UNL d   1      13.424   9.587  -4.205  0.00  0.00    -0.204 F 
ATOM     16  F   UNL d   1      11.886  10.778  -2.841  0.00  0.00    -0.204 F 
ENDBRANCH  10  12
ENDBRANCH   6   9
ENDBRANCH   2   3
ENDBRANCH   1   2
BRANCH   1  17
ATOM     17  N   UNL d   1       7.656   5.362 -12.710  0.00  0.00     0.137 N 
ATOM     18  C   UNL d   1       8.499   4.207 -12.423  0.00  0.00     0.251 C 
ATOM     19  C   UNL d   1       8.377   3.188 -13.553  0.00  0.00     0.040 C 
ATOM     20  C   UNL d   1       6.925   2.714 -13.746  0.00  0.00     0.028 C 
ATOM     21  C   UNL d   1       5.990   3.918 -13.852  0.00  0.00     0.040 C 
ATOM     22  C   UNL d   1       6.250   4.944 -12.730  0.00  0.00     0.251 C 
BRANCH  20  23
ATOM     23  C   UNL d   1       6.820   1.782 -14.954  0.00  0.00     0.002 A 
ATOM     24  C   UNL d   1       5.903   0.707 -14.966  0.00  0.00     0.115 A 
ATOM     25  C   UNL d   1       5.770  -0.126 -16.062  0.00  0.00     0.119 A 
ATOM     26  O   UNL d   1       5.008   0.340 -14.011  0.00  0.00    -0.300 OA
ATOM     27  C   UNL d   1       6.557   0.028 -17.214  0.00  0.00     0.026 A 
ATOM     28  O   UNL d   1       4.774  -1.024 -15.834  0.00  0.00    -0.300 OA
ATOM     29  C   UNL d   1       7.500   1.080 -17.228  0.00  0.00     0.002 A 
ATOM     30  C   UNL d   1       7.623   1.951 -16.121  0.00  0.00    -0.002 A 
ATOM     31  C   UNL d   1       4.291  -0.743 -14.551  0.00  0.00     0.304 A 
ENDBRANCH  20  23
ENDBRANCH   1  17
TORSDOF 6
