REMARK  4 active torsions:
REMARK  status: ('A' for Active; 'I' for Inactive)
REMARK    1  A    between atoms: N_5  and  C_6 
REMARK    2  A    between atoms: C_18  and  O_19 
REMARK    3  A    between atoms: O_19  and  S_20 
REMARK    4  A    between atoms: S_20  and  C_23 
ROOT
ATOM      1  C   UNL d   1       9.416   4.555 -13.653  0.00  0.00     0.142 C 
ATOM      2  N   UNL d   1      10.467   5.189 -14.054  0.00  0.00    -0.227 NA
ATOM      3  C   UNL d   1      11.288   4.803 -15.122  0.00  0.00     0.106 A 
ATOM      4  C   UNL d   1      11.782   5.817 -15.955  0.00  0.00     0.021 A 
ATOM      5  C   UNL d   1      12.666   5.534 -17.014  0.00  0.00     0.002 A 
ATOM      6  C   UNL d   1      13.058   4.197 -17.253  0.00  0.00     0.002 A 
ATOM      7  C   UNL d   1      12.563   3.166 -16.429  0.00  0.00     0.026 A 
ATOM      8  C   UNL d   1      11.702   3.475 -15.357  0.00  0.00     0.118 A 
ATOM      9  O   UNL d   1      11.292   2.484 -14.520  0.00  0.00    -0.305 OA
ATOM     10  C   UNL d   1       9.956   2.221 -14.539  0.00  0.00     0.103 A 
ATOM     11  C   UNL d   1       9.543   0.940 -14.950  0.00  0.00     0.027 A 
ATOM     12  C   UNL d   1       8.187   0.589 -14.970  0.00  0.00     0.028 A 
ATOM     13  C   UNL d   1       7.214   1.524 -14.536  0.00  0.00     0.114 A 
ATOM     14  C   UNL d   1       7.629   2.830 -14.166  0.00  0.00     0.031 A 
ATOM     15  C   UNL d   1       8.997   3.195 -14.152  0.00  0.00     0.059 A 
ENDROOT
BRANCH  13  16
ATOM     16  O   UNL d   1       5.880   1.208 -14.395  0.00  0.00    -0.224 OA
BRANCH  16  17
ATOM     17  S   UNL d   1       5.359  -0.349 -14.847  0.00  0.00     0.374 S 
ATOM     18  O   UNL d   1       5.441  -0.428 -16.310  0.00  0.00    -0.189 OA
ATOM     19  O   UNL d   1       6.080  -1.300 -13.999  0.00  0.00    -0.189 OA
BRANCH  17  20
ATOM     20  C   UNL d   1       3.578  -0.326 -14.335  0.00  0.00     0.524 C 
ATOM     21  F   UNL d   1       3.348  -1.370 -13.547  0.00  0.00    -0.155 F 
ATOM     22  F   UNL d   1       3.321   0.787 -13.652  0.00  0.00    -0.155 F 
ATOM     23  F   UNL d   1       2.784  -0.420 -15.399  0.00  0.00    -0.155 F 
ENDBRANCH  17  20
ENDBRANCH  16  17
ENDBRANCH  13  16
BRANCH   1  24
ATOM     24  N   UNL d   1       8.596   5.119 -12.663  0.00  0.00    -0.330 N 
ATOM     25  C   UNL d   1       8.178   4.379 -11.488  0.00  0.00     0.138 C 
ATOM     26  C   UNL d   1       9.089   4.614 -10.285  0.00  0.00     0.274 C 
ATOM     27  N   UNL d   1       9.028   6.031  -9.964  0.00  0.00     0.143 N 
ATOM     28  C   UNL d   1       9.843   6.315  -8.797  0.00  0.00     0.286 C 
ATOM     29  C   UNL d   1       9.501   6.814 -11.107  0.00  0.00     0.274 C 
ATOM     30  C   UNL d   1       8.615   6.537 -12.341  0.00  0.00     0.138 C 
ENDBRANCH   1  24
TORSDOF 4
