REMARK  7 active torsions:
REMARK  status: ('A' for Active; 'I' for Inactive)
REMARK    1  A    between atoms: C_6  and  C_7 
REMARK    2  A    between atoms: C_10  and  S_11 
REMARK    3  A    between atoms: S_11  and  C_12 
REMARK    4  A    between atoms: C_12  and  C_13 
REMARK    5  A    between atoms: C_13  and  C_14 
REMARK    6  A    between atoms: C_14  and  N_15 
REMARK    7  A    between atoms: C_19  and  C_20 
ROOT
ATOM      1  C   UNL d   1      10.344   4.623 -14.524  0.00  0.00     0.167 A 
ATOM      2  N   UNL d   1      11.458   4.348 -13.836  0.00  0.00    -0.128 NA
ATOM      3  N   UNL d   1      12.500   4.610 -14.698  0.00  0.00    -0.122 NA
ATOM      4  C   UNL d   1      11.930   5.005 -15.836  0.00  0.00     0.193 A 
ATOM      5  N   UNL d   1      10.589   5.052 -15.775  0.00  0.00    -0.289 N 
ATOM      6  C   UNL d   1       9.656   5.458 -16.810  0.00  0.00     0.134 C 
ENDROOT
BRANCH   4   7
ATOM      7  S   UNL d   1      12.798   5.399 -17.299  0.00  0.00    -0.075 SA
BRANCH   7   8
ATOM      8  C   UNL d   1      12.452   3.889 -18.277  0.00  0.00     0.067 C 
BRANCH   8   9
ATOM      9  C   UNL d   1      11.568   2.812 -17.542  0.00  0.00     0.047 C 
BRANCH   9  10
ATOM     10  C   UNL d   1      11.032   1.674 -18.436  0.00  0.00     0.251 C 
BRANCH  10  11
ATOM     11  N   UNL d   1      11.992   1.269 -19.446  0.00  0.00     0.137 N 
ATOM     12  C   UNL d   1      13.215   0.735 -18.854  0.00  0.00     0.254 C 
ATOM     13  C   UNL d   1      13.805  -0.013 -20.015  0.00  0.00     0.052 A 
ATOM     14  C   UNL d   1      12.660  -0.370 -20.920  0.00  0.00     0.039 A 
ATOM     15  C   UNL d   1      13.481  -1.457 -20.265  0.00  0.00     0.008 A 
ATOM     16  C   UNL d   1      11.425   0.227 -20.292  0.00  0.00     0.251 C 
BRANCH  13  17
ATOM     17  C   UNL d   1      15.042   0.629 -20.584  0.00  0.00    -0.021 A 
ATOM     18  C   UNL d   1      16.302   0.302 -20.059  0.00  0.00    -0.004 A 
ATOM     19  C   UNL d   1      17.469   0.881 -20.613  0.00  0.00     0.006 A 
ATOM     20  C   UNL d   1      17.399   1.743 -21.702  0.00  0.00     0.035 A 
ATOM     21  C   UNL d   1      16.136   2.092 -22.225  0.00  0.00     0.006 A 
ATOM     22 BR   UNL d   1      18.998   2.409 -22.481  0.00  0.00    -0.049 Br
ATOM     23  C   UNL d   1      14.970   1.555 -21.650  0.00  0.00    -0.004 A 
ENDBRANCH  13  17
ENDBRANCH  10  11
ENDBRANCH   9  10
ENDBRANCH   8   9
ENDBRANCH   7   8
ENDBRANCH   4   7
BRANCH   1  24
ATOM     24  C   UNL d   1       9.022   4.485 -13.907  0.00  0.00     0.037 A 
ATOM     25  C   UNL d   1       8.201   3.346 -14.113  0.00  0.00     0.021 A 
ATOM     26  C   UNL d   1       8.633   2.243 -14.892  0.00  0.00     0.003 A 
ATOM     27  C   UNL d   1       6.905   3.286 -13.531  0.00  0.00     0.081 A 
ATOM     28  C   UNL d   1       7.769   1.146 -15.066  0.00  0.00     0.015 A 
ATOM     29  C   UNL d   1       6.507   1.181 -14.449  0.00  0.00     0.059 A 
ATOM     30  C   UNL d   1       5.528   0.033 -14.602  0.00  0.00     0.052 C 
ATOM     31  N   UNL d   1       6.088   2.223 -13.700  0.00  0.00    -0.250 NA
ATOM     32  C   UNL d   1       6.471   4.364 -12.730  0.00  0.00     0.019 A 
ATOM     33  C   UNL d   1       7.295   5.480 -12.496  0.00  0.00     0.002 A 
ATOM     34  C   UNL d   1       8.567   5.538 -13.087  0.00  0.00     0.003 A 
ENDBRANCH   1  24
TORSDOF 7
