REMARK  9 active torsions:
REMARK  status: ('A' for Active; 'I' for Inactive)
REMARK    1  A    between atoms: C_2  and  C_3 
REMARK    2  A    between atoms: C_6  and  C_7 
REMARK       I    between atoms: C_7  and  N_9 
REMARK    3  A    between atoms: N_9  and  C_10 
REMARK    4  A    between atoms: C_10  and  C_11 
REMARK    5  A    between atoms: C_11  and  C_12 
REMARK    6  A    between atoms: C_12  and  C_13 
REMARK    7  A    between atoms: C_13  and  N_14 
REMARK    8  A    between atoms: N_17  and  C_18 
REMARK    9  A    between atoms: C_22  and  C_23 
ROOT
ATOM      1  N   UNL d   1       8.388   5.195 -11.687  0.00  0.00     0.141 N 
ATOM      2  C   UNL d   1       9.383   6.200 -12.091  0.00  0.00     0.274 C 
ATOM      3  C   UNL d   1       9.403   7.405 -11.174  0.00  0.00     0.137 C 
ATOM      4  N   UNL d   1       9.581   6.960  -9.809  0.00  0.00    -0.344 N 
ATOM      5  C   UNL d   1       8.663   5.928  -9.348  0.00  0.00     0.137 C 
ATOM      6  C   UNL d   1       8.676   4.753 -10.327  0.00  0.00     0.274 C 
ENDROOT
BRANCH   1   7
ATOM      7  C   UNL d   1       8.450   4.017 -12.571  0.00  0.00     0.251 C 
BRANCH   7   8
ATOM      8  C   UNL d   1       8.573   4.369 -14.071  0.00  0.00     0.037 C 
BRANCH   8   9
ATOM      9  C   UNL d   1       9.995   4.708 -14.611  0.00  0.00     0.029 C 
BRANCH   9  10
ATOM     10  C   UNL d   1      11.069   3.638 -14.272  0.00  0.00     0.129 C 
BRANCH  10  11
ATOM     11  N   UNL d   1      11.220   2.713 -15.366  0.00  0.00    -0.232 NA
ATOM     12  C   UNL d   1      10.444   1.638 -15.583  0.00  0.00     0.311 C 
ATOM     13  O   UNL d   1       9.492   1.296 -14.880  0.00  0.00    -0.262 OA
BRANCH  12  14
ATOM     14  C   UNL d   1      10.820   0.845 -16.782  0.00  0.00     0.221 A 
ATOM     15  N   UNL d   1      10.249  -0.270 -17.233  0.00  0.00    -0.220 NA
ATOM     16  C   UNL d   1      11.012  -0.631 -18.342  0.00  0.00     0.116 A 
ATOM     17  C   UNL d   1      12.039   0.267 -18.524  0.00  0.00     0.080 A 
ATOM     18  N   UNL d   1      11.876   1.206 -17.534  0.00  0.00    -0.226 NA
BRANCH  17  19
ATOM     19  C   UNL d   1      13.149   0.350 -19.516  0.00  0.00     0.048 C 
ATOM     20  C   UNL d   1      13.416  -0.975 -20.227  0.00  0.00     0.007 C 
ENDBRANCH  17  19
ENDBRANCH  12  14
ENDBRANCH  10  11
ENDBRANCH   9  10
ENDBRANCH   8   9
ENDBRANCH   7   8
ENDBRANCH   1   7
BRANCH   4  21
ATOM     21  C   UNL d   1      10.480   7.600  -8.943  0.00  0.00     0.067 A 
ATOM     22  C   UNL d   1      10.192   7.937  -7.605  0.00  0.00     0.069 A 
ATOM     23  C   UNL d   1      11.185   8.542  -6.799  0.00  0.00    -0.010 A 
ATOM     24 CL   UNL d   1       8.671   7.652  -6.875  0.00  0.00    -0.081 Cl
ATOM     25  C   UNL d   1      12.447   8.799  -7.369  0.00  0.00    -0.003 A 
ATOM     26  C   UNL d   1      12.744   8.459  -8.676  0.00  0.00     0.001 A 
ATOM     27  C   UNL d   1      11.756   7.895  -9.470  0.00  0.00     0.018 A 
BRANCH  23  28
ATOM     28  C   UNL d   1      10.886   8.833  -5.352  0.00  0.00     0.027 C 
ATOM     29  C   UNL d   1      11.825   9.804  -4.670  0.00  0.00     0.005 C 
ENDBRANCH  23  28
ENDBRANCH   4  21
TORSDOF 9
