REMARK  3 active torsions:
REMARK  status: ('A' for Active; 'I' for Inactive)
REMARK    1  A    between atoms: C_5  and  N_6 
REMARK    2  A    between atoms: N_9  and  C_10 
REMARK    3  A    between atoms: C_10  and  C_11 
ROOT
ATOM      1  N   UNL d   1       9.650   6.058 -10.206  0.00  0.00    -0.343 N 
ATOM      2  C   UNL d   1       9.060   4.761  -9.941  0.00  0.00     0.137 C 
ATOM      3  C   UNL d   1       7.792   4.602 -10.809  0.00  0.00     0.275 C 
ATOM      4  N   UNL d   1       8.065   4.753 -12.235  0.00  0.00     0.145 N 
ATOM      5  C   UNL d   1       8.521   6.139 -12.397  0.00  0.00     0.275 C 
ATOM      6  C   UNL d   1       9.832   6.341 -11.617  0.00  0.00     0.137 C 
ENDROOT
BRANCH   1   7
ATOM      7  C   UNL d   1      10.010   6.958  -9.179  0.00  0.00     0.076 A 
ATOM      8  C   UNL d   1      11.251   7.623  -9.161  0.00  0.00     0.118 A 
ATOM      9  N   UNL d   1      12.298   7.550 -10.038  0.00  0.00    -0.200 NA
ATOM     10  C   UNL d   1      11.616   8.428  -8.063  0.00  0.00     0.104 A 
ATOM     11  C   UNL d   1      13.258   8.194  -9.479  0.00  0.00     0.300 A 
ATOM     12  O   UNL d   1      14.487   8.384 -10.044  0.00  0.00    -0.147 OA
ATOM     13  N   UNL d   1      12.963   8.761  -8.294  0.00  0.00    -0.202 NA
ATOM     14  C   UNL d   1      10.697   8.717  -7.043  0.00  0.00     0.021 A 
ATOM     15  C   UNL d   1       9.427   8.099  -7.093  0.00  0.00     0.003 A 
ATOM     16  C   UNL d   1       9.106   7.197  -8.127  0.00  0.00     0.018 A 
ENDBRANCH   1   7
BRANCH   4  17
ATOM     17  C   UNL d   1       6.795   4.589 -12.954  0.00  0.00     0.277 C 
BRANCH  17  18
ATOM     18  C   UNL d   1       6.532   3.157 -13.387  0.00  0.00     0.011 A 
ATOM     19  C   UNL d   1       5.473   2.404 -12.832  0.00  0.00    -0.002 A 
ATOM     20  C   UNL d   1       5.272   1.078 -13.268  0.00  0.00    -0.000 A 
ATOM     21  C   UNL d   1       6.102   0.516 -14.256  0.00  0.00    -0.000 A 
ATOM     22  C   UNL d   1       7.143   1.272 -14.818  0.00  0.00    -0.000 A 
ATOM     23  C   UNL d   1       7.360   2.590 -14.383  0.00  0.00    -0.002 A 
ENDBRANCH  17  18
ENDBRANCH   4  17
TORSDOF 3
