REMARK  0 active torsions:
REMARK  status: ('A' for Active; 'I' for Inactive)
ROOT
ATOM      1  O   UNL d   1      11.064   9.576  -7.972  0.00  0.00    -0.269 OA
ATOM      2  C   UNL d   1      11.239   9.135  -6.843  0.00  0.00     0.275 A 
ATOM      3  N   UNL d   1      11.564   9.861  -5.764  0.00  0.00    -0.211 NA
ATOM      4  C   UNL d   1      11.715   9.033  -4.651  0.00  0.00     0.082 A 
ATOM      5  C   UNL d   1      12.065   9.368  -3.331  0.00  0.00     0.019 A 
ATOM      6  C   UNL d   1      12.173   8.319  -2.392  0.00  0.00     0.002 A 
ATOM      7  C   UNL d   1      11.913   6.980  -2.774  0.00  0.00    -0.000 A 
ATOM      8  C   UNL d   1      11.559   6.675  -4.108  0.00  0.00    -0.001 A 
ATOM      9  C   UNL d   1      11.458   7.723  -5.030  0.00  0.00     0.019 A 
ATOM     10  C   UNL d   1      11.118   7.647  -6.499  0.00  0.00     0.184 A 
ATOM     11 CL   UNL d   1       9.460   7.077  -6.806  0.00  0.00    -0.100 Cl
ENDROOT
TORSDOF 0
