REMARK  11 active torsions:
REMARK  status: ('A' for Active; 'I' for Inactive)
REMARK    1  A    between atoms: C_2  and  C_3 
REMARK    2  A    between atoms: C_3  and  N_4 
REMARK    3  A    between atoms: N_4  and  C_5 
REMARK    4  A    between atoms: N_4  and  C_22 
REMARK    5  A    between atoms: C_5  and  C_6 
REMARK    6  A    between atoms: C_6  and  C_7 
REMARK    7  A    between atoms: C_7  and  C_8 
REMARK    8  A    between atoms: C_8  and  N_9 
REMARK       I    between atoms: N_9  and  C_10 
REMARK    9  A    between atoms: C_10  and  C_12 
REMARK   10  A    between atoms: C_22  and  C_23 
REMARK   11  A    between atoms: C_25  and  C_26 
ROOT
ATOM      1  C   UNL d   1       9.583   6.060 -12.549  0.00  0.00     0.250 C 
ENDROOT
BRANCH   1   2
ATOM      2  N   UNL d   1       8.864   4.811 -12.303  0.00  0.00     0.137 N 
BRANCH   2   3
ATOM      3  C   UNL d   1       9.077   3.954 -13.475  0.00  0.00     0.250 C 
BRANCH   3   4
ATOM      4  C   UNL d   1      10.432   3.278 -13.559  0.00  0.00     0.035 C 
ATOM      5  C   UNL d   1      10.555   2.196 -14.649  0.00  0.00     0.002 C 
ENDBRANCH   3   4
ENDBRANCH   2   3
BRANCH   2   6
ATOM      6  C   UNL d   1       7.440   5.086 -12.050  0.00  0.00     0.251 C 
BRANCH   6   7
ATOM      7  C   UNL d   1       6.469   3.949 -12.326  0.00  0.00     0.038 A 
ATOM      8  C   UNL d   1       6.240   3.438 -13.740  0.00  0.00     0.024 A 
ATOM      9  C   UNL d   1       5.190   4.265 -13.055  0.00  0.00     0.007 A 
BRANCH   8  10
ATOM     10  C   UNL d   1       6.208   1.965 -13.936  0.00  0.00    -0.022 C 
ATOM     11  C   UNL d   1       5.054   1.239 -13.549  0.00  0.00     0.007 C 
ATOM     12  C   UNL d   1       4.892  -0.109 -13.877  0.00  0.00     0.057 C 
ATOM     13  C   UNL d   1       5.962  -0.853 -14.372  0.00  0.00     0.011 C 
ATOM     14 CL   UNL d   1       3.314  -0.821 -13.731  0.00  0.00    -0.082 Cl
ATOM     15  C   UNL d   1       7.154  -0.164 -14.680  0.00  0.00     0.001 C 
ATOM     16  C   UNL d   1       7.229   1.224 -14.527  0.00  0.00    -0.004 C 
ENDBRANCH   8  10
ENDBRANCH   6   7
ENDBRANCH   2   6
ENDBRANCH   1   2
BRANCH   1  17
ATOM     17  C   UNL d   1       9.134   7.311 -11.772  0.00  0.00     0.037 C 
BRANCH  17  18
ATOM     18  C   UNL d   1       9.822   7.390 -10.433  0.00  0.00     0.029 C 
BRANCH  18  19
ATOM     19  C   UNL d   1       9.888   8.820  -9.896  0.00  0.00     0.129 C 
BRANCH  19  20
ATOM     20  N   UNL d   1      10.324   8.898  -8.511  0.00  0.00    -0.234 NA
ATOM     21  C   UNL d   1      10.080   8.018  -7.520  0.00  0.00     0.275 C 
ATOM     22  O   UNL d   1       9.435   6.977  -7.604  0.00  0.00    -0.266 OA
BRANCH  21  23
ATOM     23  C   UNL d   1      10.685   8.339  -6.216  0.00  0.00     0.058 A 
ATOM     24  C   UNL d   1      11.170   7.293  -5.398  0.00  0.00     0.005 A 
ATOM     25  C   UNL d   1      11.675   7.594  -4.136  0.00  0.00     0.000 A 
ATOM     26  C   UNL d   1      11.690   8.915  -3.675  0.00  0.00     0.000 A 
ATOM     27  C   UNL d   1      12.159   6.560  -3.309  0.00  0.00     0.000 A 
ATOM     28  C   UNL d   1      11.188   9.957  -4.479  0.00  0.00     0.000 A 
ATOM     29  C   UNL d   1      12.189   9.178  -2.378  0.00  0.00     0.000 A 
ATOM     30  C   UNL d   1      10.706   9.662  -5.747  0.00  0.00     0.005 A 
ATOM     31  C   UNL d   1      12.697   8.165  -1.599  0.00  0.00     0.000 A 
ATOM     32  C   UNL d   1      12.631   6.831  -2.025  0.00  0.00     0.000 A 
ENDBRANCH  21  23
ENDBRANCH  19  20
ENDBRANCH  18  19
ENDBRANCH  17  18
ENDBRANCH   1  17
TORSDOF 11
