REMARK  8 active torsions:
REMARK  status: ('A' for Active; 'I' for Inactive)
REMARK    1  A    between atoms: C_2  and  C_3 
REMARK       I    between atoms: C_2  and  N_21 
REMARK    2  A    between atoms: C_3  and  C_4 
REMARK    3  A    between atoms: C_4  and  C_5 
REMARK    4  A    between atoms: C_5  and  C_6 
REMARK    5  A    between atoms: C_6  and  C_7 
REMARK    6  A    between atoms: C_7  and  N_8 
REMARK    7  A    between atoms: N_11  and  C_12 
REMARK    8  A    between atoms: N_21  and  C_22 
ROOT
ATOM      1  C   UNL d   1       8.018   6.080 -11.529  0.00  0.00     0.003 C 
ENDROOT
BRANCH   1   2
ATOM      2  C   UNL d   1       8.056   5.417 -12.893  0.00  0.00     0.010 C 
BRANCH   2   3
ATOM      3  C   UNL d   1       8.546   3.952 -12.863  0.00  0.00     0.090 C 
BRANCH   3   4
ATOM      4  C   UNL d   1       9.302   3.607 -14.128  0.00  0.00     0.252 C 
ATOM      5  O   UNL d   1       9.072   4.248 -15.156  0.00  0.00    -0.271 OA
ATOM      6  N   UNL d   1      10.177   2.598 -14.043  0.00  0.00    -0.235 NA
BRANCH   6   7
ATOM      7  C   UNL d   1      10.967   2.030 -15.145  0.00  0.00     0.128 C 
ATOM      8  C   UNL d   1      11.508   3.104 -16.079  0.00  0.00    -0.004 A 
ATOM      9  C   UNL d   1      10.913   3.325 -17.343  0.00  0.00    -0.024 A 
ATOM     10  C   UNL d   1      12.510   3.981 -15.605  0.00  0.00    -0.003 A 
ATOM     11  C   UNL d   1       9.789   2.431 -17.872  0.00  0.00     0.026 C 
ATOM     12  C   UNL d   1      11.342   4.426 -18.118  0.00  0.00    -0.004 A 
ATOM     13  C   UNL d   1       9.120   1.523 -16.821  0.00  0.00     0.007 C 
ATOM     14  C   UNL d   1      10.167   0.930 -15.866  0.00  0.00     0.029 C 
ATOM     15  C   UNL d   1      12.348   5.293 -17.644  0.00  0.00    -0.000 A 
ATOM     16  C   UNL d   1      12.938   5.068 -16.390  0.00  0.00    -0.000 A 
ENDBRANCH   6   7
ENDBRANCH   3   4
ENDBRANCH   2   3
ENDBRANCH   1   2
BRANCH   1  17
ATOM     17  C   UNL d   1       9.402   6.208 -10.875  0.00  0.00     0.035 C 
BRANCH  17  18
ATOM     18  C   UNL d   1       9.274   6.662  -9.431  0.00  0.00     0.250 C 
BRANCH  18  19
ATOM     19  N   UNL d   1      10.007   7.895  -9.168  0.00  0.00     0.141 N 
ATOM     20  C   UNL d   1      11.402   7.660  -8.796  0.00  0.00     0.274 C 
ATOM     21  C   UNL d   1      11.506   6.861  -7.465  0.00  0.00     0.137 C 
ATOM     22  N   UNL d   1      10.703   7.525  -6.442  0.00  0.00    -0.343 N 
ATOM     23  C   UNL d   1       9.333   7.878  -6.796  0.00  0.00     0.137 C 
ATOM     24  C   UNL d   1       9.337   8.662  -8.121  0.00  0.00     0.274 C 
BRANCH  22  25
ATOM     25  C   UNL d   1      11.245   7.832  -5.190  0.00  0.00     0.082 A 
ATOM     26  C   UNL d   1      11.304   9.163  -4.713  0.00  0.00     0.146 A 
ATOM     27  C   UNL d   1      11.830   9.438  -3.441  0.00  0.00     0.029 A 
ATOM     28  O   UNL d   1      10.868  10.189  -5.495  0.00  0.00    -0.189 OA
ATOM     29  C   UNL d   1      12.306   8.393  -2.630  0.00  0.00     0.002 A 
ATOM     30  C   UNL d   1      12.258   7.065  -3.095  0.00  0.00     0.002 A 
ATOM     31  C   UNL d   1      11.735   6.796  -4.374  0.00  0.00     0.019 A 
ENDBRANCH  22  25
ENDBRANCH  18  19
ENDBRANCH  17  18
ENDBRANCH   1  17
TORSDOF 8
