REMARK  6 active torsions:
REMARK  status: ('A' for Active; 'I' for Inactive)
REMARK    1  A    between atoms: C_5  and  C_6 
REMARK    2  A    between atoms: C_6  and  C_7 
REMARK    3  A    between atoms: C_7  and  C_8 
REMARK    4  A    between atoms: C_8  and  C_9 
REMARK    5  A    between atoms: C_9  and  N_10 
REMARK    6  A    between atoms: N_14  and  C_15 
ROOT
ATOM      1  N   UNL d   1       8.692   4.912 -11.995  0.00  0.00     0.139 N 
ATOM      2  C   UNL d   1       9.715   3.929 -12.379  0.00  0.00     0.252 C 
ATOM      3  C   UNL d   1      10.047   3.933 -13.873  0.00  0.00     0.059 C 
ATOM      4  C   UNL d   1       9.194   2.955 -14.696  0.00  0.00     0.103 C 
ATOM      5  N   UNL d   1       7.761   3.084 -14.432  0.00  0.00    -0.346 N 
ATOM      6  C   UNL d   1       7.218   4.334 -13.914  0.00  0.00     0.137 C 
ATOM      7  C   UNL d   1       7.360   4.472 -12.390  0.00  0.00     0.274 C 
ENDROOT
BRANCH   1   8
ATOM      8  C   UNL d   1       8.677   5.108 -10.541  0.00  0.00     0.250 C 
BRANCH   8   9
ATOM      9  C   UNL d   1       9.407   6.400 -10.176  0.00  0.00     0.036 C 
BRANCH   9  10
ATOM     10  C   UNL d   1       9.454   6.666  -8.653  0.00  0.00     0.007 C 
BRANCH  10  11
ATOM     11  C   UNL d   1      10.885   6.725  -8.100  0.00  0.00     0.026 C 
BRANCH  11  12
ATOM     12  C   UNL d   1      11.032   7.582  -6.860  0.00  0.00    -0.022 A 
ATOM     13  C   UNL d   1      10.926   8.983  -6.971  0.00  0.00    -0.002 A 
ATOM     14  C   UNL d   1      11.079   9.793  -5.831  0.00  0.00     0.029 A 
ATOM     15  C   UNL d   1      11.350   9.205  -4.580  0.00  0.00     0.140 A 
ATOM     16  F   UNL d   1      11.463   9.984  -3.479  0.00  0.00    -0.204 F 
ATOM     17  C   UNL d   1      11.470   7.807  -4.470  0.00  0.00     0.029 A 
ATOM     18  C   UNL d   1      11.312   6.996  -5.609  0.00  0.00    -0.002 A 
ENDBRANCH  11  12
ENDBRANCH  10  11
ENDBRANCH   9  10
ENDBRANCH   8   9
ENDBRANCH   1   8
BRANCH   5  19
ATOM     19  C   UNL d   1       6.930   1.971 -14.614  0.00  0.00     0.056 A 
ATOM     20  C   UNL d   1       5.885   1.679 -13.698  0.00  0.00     0.018 A 
ATOM     21  C   UNL d   1       5.062   0.553 -13.891  0.00  0.00     0.013 A 
ATOM     22  C   UNL d   1       5.241  -0.264 -15.018  0.00  0.00     0.058 A 
ATOM     23  C   UNL d   1       6.266   0.017 -15.935  0.00  0.00     0.013 A 
ATOM     24 CL   UNL d   1       4.175  -1.576 -15.293  0.00  0.00    -0.082 Cl
ATOM     25  C   UNL d   1       7.112   1.127 -15.736  0.00  0.00     0.018 A 
ENDBRANCH   5  19
TORSDOF 6
