REMARK  6 active torsions:
REMARK  status: ('A' for Active; 'I' for Inactive)
REMARK    1  A    between atoms: C_2  and  C_3 
REMARK    2  A    between atoms: C_2  and  C_19 
REMARK    3  A    between atoms: C_3  and  C_4 
REMARK    4  A    between atoms: C_4  and  C_5 
REMARK    5  A    between atoms: C_5  and  N_6 
REMARK    6  A    between atoms: C_9  and  C_11 
ROOT
ATOM      1  N   UNL d   1      10.043   6.462  -9.650  0.00  0.00     0.137 N 
ATOM      2  C   UNL d   1       9.030   6.189  -8.632  0.00  0.00     0.253 C 
ATOM      3  C   UNL d   1       9.636   6.426  -7.243  0.00  0.00     0.070 C 
ATOM      4  C   UNL d   1      10.174   7.842  -7.053  0.00  0.00     0.149 C 
ATOM      5  O   UNL d   1       9.079   8.742  -7.117  0.00  0.00    -0.221 OA
ATOM      6  C   UNL d   1      11.104   8.185  -8.225  0.00  0.00     0.070 C 
ATOM      7  C   UNL d   1      10.444   7.866  -9.592  0.00  0.00     0.253 C 
ENDROOT
BRANCH   1   8
ATOM      8  C   UNL d   1       9.483   6.209 -10.989  0.00  0.00     0.251 C 
BRANCH   8   9
ATOM      9  C   UNL d   1       9.057   4.746 -11.172  0.00  0.00     0.043 C 
BRANCH   9  10
ATOM     10  C   UNL d   1       8.572   4.442 -12.591  0.00  0.00     0.071 C 
BRANCH  10  11
ATOM     11  C   UNL d   1       9.706   4.077 -13.558  0.00  0.00     0.173 C 
ATOM     12  O   UNL d   1      10.685   4.818 -13.637  0.00  0.00    -0.291 OA
BRANCH  11  13
ATOM     13  C   UNL d   1       9.587   2.815 -14.343  0.00  0.00     0.035 A 
ATOM     14  C   UNL d   1       8.364   2.116 -14.468  0.00  0.00     0.003 A 
ATOM     15  C   UNL d   1       8.298   0.923 -15.215  0.00  0.00     0.000 A 
ATOM     16  C   UNL d   1       9.441   0.432 -15.866  0.00  0.00     0.000 A 
ATOM     17  C   UNL d   1      10.660   1.131 -15.767  0.00  0.00     0.000 A 
ATOM     18  C   UNL d   1      10.732   2.317 -15.009  0.00  0.00     0.003 A 
ENDBRANCH  11  13
ENDBRANCH  10  11
ENDBRANCH   9  10
ENDBRANCH   8   9
ENDBRANCH   1   8
BRANCH   4  19
ATOM     19  C   UNL d   1      10.909   7.999  -5.705  0.00  0.00     0.005 A 
ATOM     20  C   UNL d   1      11.210   9.273  -5.190  0.00  0.00    -0.002 A 
ATOM     21  C   UNL d   1      11.845   9.410  -3.936  0.00  0.00    -0.000 A 
ATOM     22  C   UNL d   1      12.209   8.278  -3.187  0.00  0.00    -0.000 A 
ATOM     23  C   UNL d   1      11.917   6.997  -3.685  0.00  0.00    -0.000 A 
ATOM     24  C   UNL d   1      11.276   6.861  -4.930  0.00  0.00    -0.002 A 
ENDBRANCH   4  19
TORSDOF 6
