REMARK  5 active torsions:
REMARK  status: ('A' for Active; 'I' for Inactive)
REMARK    1  A    between atoms: C_7  and  C_8 
REMARK    2  A    between atoms: N_13  and  C_14 
REMARK    3  A    between atoms: C_14  and  C_15 
REMARK    4  A    between atoms: C_15  and  N_16 
REMARK    5  A    between atoms: N_19  and  C_20 
ROOT
ATOM      1  C   UNL d   1      10.903   7.672  -6.159  0.00  0.00     0.083 A 
ATOM      2  C   UNL d   1      10.011   6.730  -6.602  0.00  0.00     0.027 A 
ATOM      3  C   UNL d   1       9.857   6.870  -8.009  0.00  0.00     0.094 A 
ATOM      4  C   UNL d   1       9.127   6.180  -9.092  0.00  0.00     0.267 A 
ATOM      5  O   UNL d   1       8.516   5.143  -8.849  0.00  0.00    -0.267 OA
ATOM      6  N   UNL d   1       9.231   6.737 -10.328  0.00  0.00    -0.245 N 
ATOM      7  C   UNL d   1       9.873   7.917 -10.575  0.00  0.00     0.354 A 
ATOM      8  O   UNL d   1       9.826   8.491 -11.642  0.00  0.00    -0.244 OA
ATOM      9  N   UNL d   1      10.553   8.510  -9.562  0.00  0.00    -0.173 NA
ATOM     10  C   UNL d   1      10.536   7.997  -8.328  0.00  0.00     0.172 A 
ATOM     11  N   UNL d   1      11.207   8.492  -7.232  0.00  0.00    -0.227 NA
ENDROOT
BRANCH   6  12
ATOM     12  C   UNL d   1       8.444   6.165 -11.415  0.00  0.00     0.149 C 
BRANCH  12  13
ATOM     13  C   UNL d   1       9.037   4.841 -11.896  0.00  0.00     0.275 C 
BRANCH  13  14
ATOM     14  N   UNL d   1       8.385   4.350 -13.096  0.00  0.00     0.143 N 
ATOM     15  C   UNL d   1       7.004   3.940 -12.798  0.00  0.00     0.274 C 
ATOM     16  C   UNL d   1       6.348   3.375 -14.057  0.00  0.00     0.137 C 
ATOM     17  N   UNL d   1       7.158   2.328 -14.651  0.00  0.00    -0.344 N 
ATOM     18  C   UNL d   1       8.561   2.652 -14.864  0.00  0.00     0.137 C 
ATOM     19  C   UNL d   1       9.192   3.216 -13.579  0.00  0.00     0.274 C 
BRANCH  17  20
ATOM     20  C   UNL d   1       6.596   1.082 -15.000  0.00  0.00     0.067 A 
ATOM     21  C   UNL d   1       6.828   0.450 -16.248  0.00  0.00     0.073 A 
ATOM     22  C   UNL d   1       6.214  -0.788 -16.533  0.00  0.00     0.013 A 
ATOM     23 CL   UNL d   1       7.780   1.151 -17.530  0.00  0.00    -0.081 Cl
ATOM     24  C   UNL d   1       5.359  -1.394 -15.610  0.00  0.00     0.001 A 
ATOM     25  C   UNL d   1       5.104  -0.766 -14.391  0.00  0.00     0.002 A 
ATOM     26  C   UNL d   1       5.736   0.459 -14.077  0.00  0.00     0.018 A 
ENDBRANCH  17  20
ENDBRANCH  13  14
ENDBRANCH  12  13
ENDBRANCH   6  12
BRANCH   1  27
ATOM     27  C   UNL d   1      11.453   7.878  -4.824  0.00  0.00     0.014 A 
ATOM     28  C   UNL d   1      11.497   9.159  -4.240  0.00  0.00    -0.020 A 
ATOM     29  C   UNL d   1      10.903  10.368  -4.926  0.00  0.00     0.031 C 
ATOM     30  C   UNL d   1      12.042   9.306  -2.950  0.00  0.00    -0.004 A 
ATOM     31  C   UNL d   1      12.542   8.205  -2.233  0.00  0.00    -0.000 A 
ATOM     32  C   UNL d   1      12.465   6.920  -2.798  0.00  0.00     0.000 A 
ATOM     33  C   UNL d   1      11.902   6.761  -4.079  0.00  0.00     0.001 A 
ENDBRANCH   1  27
TORSDOF 5
