REMARK  8 active torsions:
REMARK  status: ('A' for Active; 'I' for Inactive)
REMARK    1  A    between atoms: C_7  and  N_8 
REMARK    2  A    between atoms: N_11  and  C_12 
REMARK    3  A    between atoms: C_12  and  C_13 
REMARK    4  A    between atoms: C_13  and  C_14 
REMARK    5  A    between atoms: C_14  and  C_15 
REMARK    6  A    between atoms: C_15  and  N_16 
REMARK       I    between atoms: N_16  and  C_17 
REMARK    7  A    between atoms: C_17  and  C_19 
REMARK    8  A    between atoms: C_22  and  C_23 
ROOT
ATOM      1  N   UNL d   1       7.163  -1.984 -19.276  0.00  0.00    -0.191 NA
ATOM      2  C   UNL d   1       6.521  -1.653 -18.374  0.00  0.00     0.101 C 
ATOM      3  C   UNL d   1       5.721  -1.235 -17.236  0.00  0.00     0.070 A 
ATOM      4  C   UNL d   1       4.399  -1.682 -17.078  0.00  0.00     0.010 A 
ATOM      5  C   UNL d   1       3.663  -1.273 -15.953  0.00  0.00     0.002 A 
ATOM      6  C   UNL d   1       4.226  -0.413 -14.992  0.00  0.00     0.017 A 
ATOM      7  C   UNL d   1       5.557   0.049 -15.140  0.00  0.00     0.057 A 
ATOM      8  C   UNL d   1       6.293  -0.388 -16.265  0.00  0.00     0.027 A 
ENDROOT
BRANCH   7   9
ATOM      9  N   UNL d   1       6.145   0.932 -14.200  0.00  0.00    -0.344 N 
ATOM     10  C   UNL d   1       5.590   1.161 -12.868  0.00  0.00     0.137 C 
ATOM     11  C   UNL d   1       5.387   2.678 -12.621  0.00  0.00     0.274 C 
ATOM     12  N   UNL d   1       6.623   3.429 -12.852  0.00  0.00     0.141 N 
ATOM     13  C   UNL d   1       7.078   3.204 -14.218  0.00  0.00     0.274 C 
ATOM     14  C   UNL d   1       7.343   1.712 -14.493  0.00  0.00     0.137 C 
BRANCH  12  15
ATOM     15  C   UNL d   1       6.383   4.846 -12.626  0.00  0.00     0.251 C 
BRANCH  15  16
ATOM     16  C   UNL d   1       7.717   5.527 -12.326  0.00  0.00     0.037 C 
BRANCH  16  17
ATOM     17  C   UNL d   1       7.721   7.036 -12.613  0.00  0.00     0.029 C 
BRANCH  17  18
ATOM     18  C   UNL d   1       9.089   7.720 -12.408  0.00  0.00     0.129 C 
BRANCH  18  19
ATOM     19  N   UNL d   1       9.491   7.855 -11.024  0.00  0.00    -0.234 NA
ATOM     20  C   UNL d   1       9.855   6.853 -10.226  0.00  0.00     0.275 C 
ATOM     21  O   UNL d   1       9.845   5.675 -10.555  0.00  0.00    -0.266 OA
BRANCH  20  22
ATOM     22  C   UNL d   1      10.255   7.237  -8.841  0.00  0.00     0.058 A 
ATOM     23  C   UNL d   1       9.855   6.426  -7.765  0.00  0.00     0.005 A 
ATOM     24  C   UNL d   1      10.246   6.747  -6.455  0.00  0.00     0.000 A 
ATOM     25  C   UNL d   1      11.052   7.870  -6.206  0.00  0.00     0.001 A 
ATOM     26  C   UNL d   1      11.457   8.694  -7.280  0.00  0.00     0.000 A 
ATOM     27  C   UNL d   1      11.055   8.379  -8.595  0.00  0.00     0.005 A 
BRANCH  25  28
ATOM     28  C   UNL d   1      11.462   8.157  -4.843  0.00  0.00     0.007 A 
ATOM     29  C   UNL d   1      11.852   7.250  -3.885  0.00  0.00     0.035 A 
ATOM     30  S   UNL d   1      12.228   8.021  -2.378  0.00  0.00    -0.086 SA
ATOM     31  C   UNL d   1      11.868   9.586  -3.051  0.00  0.00     0.035 A 
ATOM     32  C   UNL d   1      11.473   9.497  -4.354  0.00  0.00     0.007 A 
ENDBRANCH  25  28
ENDBRANCH  20  22
ENDBRANCH  18  19
ENDBRANCH  17  18
ENDBRANCH  16  17
ENDBRANCH  15  16
ENDBRANCH  12  15
ENDBRANCH   7   9
TORSDOF 8
