REMARK  9 active torsions:
REMARK  status: ('A' for Active; 'I' for Inactive)
REMARK    1  A    between atoms: C_2  and  O_3 
REMARK    2  A    between atoms: O_3  and  C_4 
REMARK    3  A    between atoms: C_4  and  C_6 
REMARK    4  A    between atoms: C_6  and  C_7 
REMARK    5  A    between atoms: C_6  and  N_12 
REMARK    6  A    between atoms: C_7  and  O_9 
REMARK    7  A    between atoms: O_9  and  C_10 
REMARK    8  A    between atoms: N_15  and  C_16 
REMARK    9  A    between atoms: C_16  and  C_17 
ROOT
ATOM      1  N   UNL d   1       8.544   1.655 -15.702  0.00  0.00     0.159 N 
ATOM      2  C   UNL d   1       9.298   2.818 -15.154  0.00  0.00     0.287 C 
ATOM      3  C   UNL d   1       8.838   3.263 -13.771  0.00  0.00     0.286 C 
ATOM      4  N   UNL d   1       7.422   3.651 -13.745  0.00  0.00     0.146 N 
ATOM      5  C   UNL d   1       6.655   2.506 -14.228  0.00  0.00     0.286 C 
ATOM      6  C   UNL d   1       7.092   2.006 -15.612  0.00  0.00     0.287 C 
ENDROOT
BRANCH   1   7
ATOM      7  C   UNL d   1       9.020   1.177 -17.047  0.00  0.00     0.388 C 
BRANCH   7   8
ATOM      8  C   UNL d   1       8.285  -0.084 -17.642  0.00  0.00     0.314 C 
ATOM      9  O   UNL d   1       8.817  -1.099 -18.015  0.00  0.00    -0.262 OA
BRANCH   8  10
ATOM     10  O   UNL d   1       6.944   0.073 -17.649  0.00  0.00    -0.300 OA
BRANCH  10  11
ATOM     11  C   UNL d   1       6.103  -1.019 -17.892  0.00  0.00     0.152 C 
ATOM     12  C   UNL d   1       4.658  -0.635 -17.584  0.00  0.00     0.035 C 
ENDBRANCH  10  11
ENDBRANCH   8  10
ENDBRANCH   7   8
BRANCH   7  13
ATOM     13  C   UNL d   1      10.576   1.054 -17.205  0.00  0.00     0.314 C 
ATOM     14  O   UNL d   1      11.213   0.013 -17.285  0.00  0.00    -0.262 OA
BRANCH  13  15
ATOM     15  O   UNL d   1      11.178   2.280 -17.184  0.00  0.00    -0.300 OA
BRANCH  15  16
ATOM     16  C   UNL d   1      12.585   2.340 -17.199  0.00  0.00     0.152 C 
ATOM     17  C   UNL d   1      13.061   3.739 -16.808  0.00  0.00     0.035 C 
ENDBRANCH  15  16
ENDBRANCH  13  15
ENDBRANCH   7  13
ENDBRANCH   1   7
BRANCH   4  18
ATOM     18  C   UNL d   1       6.953   4.072 -12.427  0.00  0.00     0.277 C 
BRANCH  18  19
ATOM     19  C   UNL d   1       7.824   5.168 -11.815  0.00  0.00     0.011 A 
ATOM     20  C   UNL d   1       8.220   6.268 -12.595  0.00  0.00    -0.002 A 
ATOM     21  C   UNL d   1       9.071   7.256 -12.028  0.00  0.00     0.011 A 
ATOM     22  C   UNL d   1       9.480   7.131 -10.697  0.00  0.00     0.058 A 
ATOM     23  C   UNL d   1       9.094   6.022  -9.918  0.00  0.00     0.011 A 
ATOM     24 CL   UNL d   1      10.463   8.362  -9.983  0.00  0.00    -0.082 Cl
ATOM     25  C   UNL d   1       8.271   5.033 -10.489  0.00  0.00    -0.002 A 
ENDBRANCH  18  19
ENDBRANCH   4  18
TORSDOF 9
