REMARK  6 active torsions:
REMARK  status: ('A' for Active; 'I' for Inactive)
REMARK       I    between atoms: C_2  and  N_3 
REMARK    1  A    between atoms: C_2  and  C_24 
REMARK    2  A    between atoms: N_3  and  C_4 
REMARK    3  A    between atoms: C_7  and  C_8 
REMARK    4  A    between atoms: C_8  and  C_9 
REMARK    5  A    between atoms: C_9  and  N_10 
REMARK    6  A    between atoms: N_13  and  C_14 
ROOT
ATOM      1  C   UNL d   1       8.995   4.013 -13.319  0.00  0.00     0.107 C 
ATOM      2  C   UNL d   1       9.871   3.817 -12.082  0.00  0.00     0.024 C 
ATOM      3  C   UNL d   1       9.463   4.756 -10.920  0.00  0.00     0.002 C 
ATOM      4  C   UNL d   1       9.499   6.206 -11.392  0.00  0.00     0.002 C 
ATOM      5  C   UNL d   1       8.620   6.428 -12.625  0.00  0.00     0.002 C 
ATOM      6  C   UNL d   1       9.019   5.478 -13.764  0.00  0.00     0.024 C 
ENDROOT
BRANCH   4   7
ATOM      7  C   UNL d   1       9.104   7.194 -10.310  0.00  0.00     0.035 C 
BRANCH   7   8
ATOM      8  C   UNL d   1      10.272   7.599  -9.402  0.00  0.00     0.250 C 
BRANCH   8   9
ATOM      9  N   UNL d   1       9.898   8.680  -8.500  0.00  0.00     0.141 N 
ATOM     10  C   UNL d   1       9.062   8.277  -7.363  0.00  0.00     0.274 C 
ATOM     11  C   UNL d   1       9.797   7.270  -6.463  0.00  0.00     0.138 C 
ATOM     12  N   UNL d   1      11.090   7.820  -6.088  0.00  0.00    -0.330 N 
ATOM     13  C   UNL d   1      11.921   8.378  -7.147  0.00  0.00     0.138 C 
ATOM     14  C   UNL d   1      11.099   9.338  -7.982  0.00  0.00     0.274 C 
BRANCH  12  15
ATOM     15  C   UNL d   1      11.495   7.851  -4.755  0.00  0.00     0.140 A 
ATOM     16  N   UNL d   1      11.898   9.029  -4.253  0.00  0.00    -0.227 NA
ATOM     17  C   UNL d   1      12.269   9.054  -2.952  0.00  0.00     0.101 A 
ATOM     18  C   UNL d   1      12.279   7.924  -2.124  0.00  0.00     0.021 A 
ATOM     19  C   UNL d   1      11.867   6.697  -2.662  0.00  0.00     0.005 A 
ATOM     20  C   UNL d   1      11.456   6.667  -4.018  0.00  0.00     0.037 A 
ENDBRANCH  12  15
ENDBRANCH   8   9
ENDBRANCH   7   8
ENDBRANCH   4   7
BRANCH   1  21
ATOM     21  N   UNL d   1       9.450   3.143 -14.397  0.00  0.00    -0.236 NA
ATOM     22  C   UNL d   1      10.662   3.104 -14.983  0.00  0.00     0.281 C 
ATOM     23  O   UNL d   1      11.584   3.887 -14.747  0.00  0.00    -0.265 OA
BRANCH  22  24
ATOM     24  C   UNL d   1      10.843   2.063 -16.005  0.00  0.00     0.087 A 
ATOM     25  S   UNL d   1       9.969   0.568 -15.826  0.00  0.00    -0.082 SA
ATOM     26  C   UNL d   1      10.684  -0.051 -17.290  0.00  0.00     0.036 A 
ATOM     27  C   UNL d   1      11.577   0.836 -17.836  0.00  0.00     0.008 A 
ATOM     28  C   UNL d   1      11.675   2.044 -17.093  0.00  0.00     0.012 A 
ENDBRANCH  22  24
ENDBRANCH   1  21
TORSDOF 6
