REMARK  7 active torsions:
REMARK  status: ('A' for Active; 'I' for Inactive)
REMARK    1  A    between atoms: C_2  and  C_3 
REMARK    2  A    between atoms: C_3  and  N_4 
REMARK    3  A    between atoms: N_4  and  C_5 
REMARK    4  A    between atoms: N_4  and  C_8 
REMARK    5  A    between atoms: C_5  and  C_6 
REMARK    6  A    between atoms: C_8  and  C_9 
REMARK    7  A    between atoms: C_9  and  C_10 
ROOT
ATOM      1  C   UNL d   1      11.350   8.409  -6.588  0.00  0.00     0.000 A 
ATOM      2  C   UNL d   1      11.216   9.745  -6.810  0.00  0.00     0.095 A 
ATOM      3  N   UNL d   1      11.366  10.431  -5.625  0.00  0.00    -0.244 NA
ATOM      4  C   UNL d   1      11.595   9.548  -4.595  0.00  0.00     0.081 A 
ATOM      5  C   UNL d   1      11.846   9.741  -3.227  0.00  0.00     0.019 A 
ATOM      6  C   UNL d   1      12.116   8.628  -2.418  0.00  0.00    -0.003 A 
ATOM      7  C   UNL d   1      12.121   7.343  -2.978  0.00  0.00    -0.022 A 
ATOM      8  C   UNL d   1      12.379   6.145  -2.115  0.00  0.00     0.031 C 
ATOM      9  C   UNL d   1      11.843   7.158  -4.350  0.00  0.00    -0.003 A 
ATOM     10  C   UNL d   1      11.578   8.256  -5.183  0.00  0.00     0.015 A 
ENDROOT
BRANCH   1  11
ATOM     11  C   UNL d   1      11.344   7.374  -7.653  0.00  0.00     0.063 C 
BRANCH  11  12
ATOM     12  C   UNL d   1       9.949   6.734  -7.839  0.00  0.00     0.256 C 
BRANCH  12  13
ATOM     13  N   UNL d   1       9.741   6.090  -9.145  0.00  0.00     0.146 N 
BRANCH  13  14
ATOM     14  C   UNL d   1       8.423   5.422  -9.117  0.00  0.00     0.277 C 
BRANCH  14  15
ATOM     15  C   UNL d   1       8.444   4.070  -8.443  0.00  0.00     0.009 C 
ATOM     16  C   UNL d   1       9.449   3.201  -8.467  0.00  0.00    -0.003 C 
ENDBRANCH  14  15
ENDBRANCH  13  14
BRANCH  13  17
ATOM     17  C   UNL d   1       9.810   7.106 -10.211  0.00  0.00     0.277 C 
BRANCH  17  18
ATOM     18  C   UNL d   1       9.430   6.583 -11.576  0.00  0.00     0.009 C 
ATOM     19  C   UNL d   1       8.545   7.188 -12.377  0.00  0.00    -0.003 C 
ENDBRANCH  17  18
ENDBRANCH  13  17
ENDBRANCH  12  13
ENDBRANCH  11  12
ENDBRANCH   1  11
TORSDOF 7
