REMARK  5 active torsions:
REMARK  status: ('A' for Active; 'I' for Inactive)
REMARK    1  A    between atoms: C_2  and  C_3 
REMARK    2  A    between atoms: C_3  and  C_4 
REMARK    3  A    between atoms: C_4  and  C_5 
REMARK    4  A    between atoms: C_5  and  C_6 
REMARK    5  A    between atoms: C_6  and  C_7 
ROOT
ATOM      1  C   UNL d   1       9.915   6.386  -7.408  0.00  0.00     0.011 C 
ENDROOT
BRANCH   1   2
ATOM      2  C   UNL d   1      10.108   6.934  -5.984  0.00  0.00     0.003 C 
BRANCH   2   3
ATOM      3  C   UNL d   1      11.191   8.014  -5.889  0.00  0.00     0.041 C 
BRANCH   3   4
ATOM      4  C   UNL d   1      11.665   8.246  -4.452  0.00  0.00     0.338 C 
ATOM      5  N   UNL d   1      12.658   9.299  -4.417  0.00  0.00     0.618 N 
ENDBRANCH   3   4
ENDBRANCH   2   3
ENDBRANCH   1   2
BRANCH   1   6
ATOM      6  C   UNL d   1       9.211   7.358  -8.370  0.00  0.00     0.098 C 
BRANCH   6   7
ATOM      7  C   UNL d   1      10.140   8.243  -9.205  0.00  0.00     0.185 C 
ATOM      8  O   UNL d   1      11.329   8.428  -8.980  0.00  0.00    -0.647 OA
ATOM      9  O   UNL d   1       9.464   8.784 -10.245  0.00  0.00    -0.647 OA
ENDBRANCH   6   7
ENDBRANCH   1   6
TORSDOF 5
