REMARK  8 active torsions:
REMARK  status: ('A' for Active; 'I' for Inactive)
REMARK    1  A    between atoms: C_2  and  C_3 
REMARK    2  A    between atoms: C_3  and  N_4 
REMARK    3  A    between atoms: N_4  and  C_5 
REMARK    4  A    between atoms: N_4  and  C_8 
REMARK    5  A    between atoms: C_5  and  C_6 
REMARK    6  A    between atoms: C_11  and  C_12 
REMARK    7  A    between atoms: N_14  and  C_15 
REMARK    8  A    between atoms: C_15  and  C_16 
ROOT
ATOM      1  C   UNL d   1       8.333   3.169 -14.117  0.00  0.00     0.140 A 
ATOM      2  C   UNL d   1       7.148   3.638 -13.470  0.00  0.00     0.037 A 
ATOM      3  C   UNL d   1       7.245   4.649 -12.514  0.00  0.00     0.003 A 
ATOM      4  C   UNL d   1       8.506   5.199 -12.236  0.00  0.00     0.026 A 
ATOM      5  C   UNL d   1       9.620   4.719 -12.935  0.00  0.00     0.099 A 
ATOM      6  N   UNL d   1       9.528   3.734 -13.857  0.00  0.00    -0.228 NA
ENDROOT
BRANCH   4   7
ATOM      7  C   UNL d   1       8.659   6.306 -11.215  0.00  0.00     0.172 C 
ATOM      8  O   UNL d   1       9.439   7.368 -11.760  0.00  0.00    -0.348 OA
ATOM      9  C   UNL d   1       9.642   8.451 -10.857  0.00  0.00     0.176 C 
ATOM     10  C   UNL d   1      10.343   7.974  -9.588  0.00  0.00     0.249 C 
ATOM     11  N   UNL d   1       9.585   6.878  -8.958  0.00  0.00     0.140 N 
ATOM     12  C   UNL d   1      11.800   7.639  -9.874  0.00  0.00     0.038 C 
ATOM     13  C   UNL d   1       9.277   5.787  -9.886  0.00  0.00     0.284 C 
BRANCH  11  14
ATOM     14  C   UNL d   1      10.144   6.384  -7.690  0.00  0.00     0.250 C 
BRANCH  14  15
ATOM     15  C   UNL d   1      10.495   7.465  -6.653  0.00  0.00     0.035 C 
ATOM     16  C   UNL d   1       9.364   8.463  -6.372  0.00  0.00     0.002 C 
ENDBRANCH  14  15
ENDBRANCH  11  14
ENDBRANCH   4   7
BRANCH   1  17
ATOM     17  N   UNL d   1       8.319   2.107 -15.045  0.00  0.00    -0.334 N 
BRANCH  17  18
ATOM     18  C   UNL d   1       9.496   1.835 -15.902  0.00  0.00     0.103 C 
BRANCH  18  19
ATOM     19  C   UNL d   1       9.758   0.335 -16.137  0.00  0.00     0.024 C 
ATOM     20  C   UNL d   1      10.884   0.041 -17.147  0.00  0.00     0.002 C 
ENDBRANCH  18  19
ENDBRANCH  17  18
BRANCH  17  21
ATOM     21  C   UNL d   1       7.118   1.295 -15.217  0.00  0.00     0.103 C 
BRANCH  21  22
ATOM     22  C   UNL d   1       7.137   0.046 -14.354  0.00  0.00     0.024 C 
ATOM     23  C   UNL d   1       5.913  -0.843 -14.479  0.00  0.00     0.002 C 
ENDBRANCH  21  22
ENDBRANCH  17  21
ENDBRANCH   1  17
TORSDOF 8
