REMARK  8 active torsions:
REMARK  status: ('A' for Active; 'I' for Inactive)
REMARK    1  A    between atoms: C_2  and  C_3 
REMARK    2  A    between atoms: C_7  and  N_8 
REMARK    3  A    between atoms: N_11  and  C_12 
REMARK    4  A    between atoms: C_12  and  C_13 
REMARK    5  A    between atoms: C_13  and  C_15 
REMARK    6  A    between atoms: C_15  and  C_16 
REMARK    7  A    between atoms: C_16  and  N_17 
REMARK       I    between atoms: N_17  and  C_18 
REMARK    8  A    between atoms: C_18  and  C_20 
ROOT
ATOM      1  C   UNL d   1       9.018   4.104 -12.449  0.00  0.00     0.285 C 
ENDROOT
BRANCH   1   2
ATOM      2  N   UNL d   1       8.781   5.233 -11.562  0.00  0.00     0.144 N 
ATOM      3  C   UNL d   1       9.149   4.831 -10.200  0.00  0.00     0.274 C 
ATOM      4  C   UNL d   1       9.012   6.008  -9.235  0.00  0.00     0.137 C 
ATOM      5  N   UNL d   1       9.856   7.093  -9.689  0.00  0.00    -0.344 N 
ATOM      6  C   UNL d   1       9.623   7.546 -11.059  0.00  0.00     0.137 C 
ATOM      7  C   UNL d   1       9.655   6.329 -11.980  0.00  0.00     0.274 C 
BRANCH   5   8
ATOM      8  C   UNL d   1      10.670   7.805  -8.809  0.00  0.00     0.067 A 
ATOM      9  C   UNL d   1      11.972   8.075  -9.270  0.00  0.00     0.018 A 
ATOM     10  C   UNL d   1      12.892   8.709  -8.426  0.00  0.00     0.001 A 
ATOM     11  C   UNL d   1      12.480   9.169  -7.170  0.00  0.00    -0.003 A 
ATOM     12  C   UNL d   1      11.206   8.942  -6.689  0.00  0.00    -0.010 A 
ATOM     13  C   UNL d   1      10.283   8.231  -7.496  0.00  0.00     0.069 A 
ATOM     14 CL   UNL d   1       8.715   7.965  -6.834  0.00  0.00    -0.081 Cl
BRANCH  12  15
ATOM     15  C   UNL d   1      10.916   9.450  -5.300  0.00  0.00     0.027 C 
ATOM     16  C   UNL d   1      11.415   8.500  -4.211  0.00  0.00     0.005 C 
ENDBRANCH  12  15
ENDBRANCH   5   8
ENDBRANCH   1   2
BRANCH   1  17
ATOM     17  C   UNL d   1       8.348   4.283 -13.809  0.00  0.00     0.196 C 
ATOM     18  F   UNL d   1       7.045   4.454 -13.605  0.00  0.00    -0.235 F 
BRANCH  17  19
ATOM     19  C   UNL d   1       8.482   3.019 -14.667  0.00  0.00     0.064 C 
BRANCH  19  20
ATOM     20  C   UNL d   1       9.928   2.666 -15.049  0.00  0.00     0.132 C 
BRANCH  20  21
ATOM     21  N   UNL d   1      10.504   3.693 -15.912  0.00  0.00    -0.233 NA
ATOM     22  C   UNL d   1      11.370   4.656 -15.558  0.00  0.00     0.293 C 
ATOM     23  O   UNL d   1      11.830   4.779 -14.423  0.00  0.00    -0.264 OA
BRANCH  22  24
ATOM     24  C   UNL d   1      11.820   5.551 -16.643  0.00  0.00     0.139 A 
ATOM     25  N   UNL d   1      11.100   5.633 -17.828  0.00  0.00    -0.241 NA
ATOM     26  C   UNL d   1      11.682   6.522 -18.699  0.00  0.00     0.082 A 
ATOM     27  C   UNL d   1      12.829   7.029 -18.024  0.00  0.00     0.019 A 
ATOM     28  C   UNL d   1      11.321   6.933 -19.992  0.00  0.00     0.019 A 
ATOM     29  C   UNL d   1      12.889   6.408 -16.729  0.00  0.00     0.025 A 
ATOM     30  C   UNL d   1      13.616   7.974 -18.723  0.00  0.00     0.002 A 
ATOM     31  C   UNL d   1      13.268   8.389 -20.026  0.00  0.00     0.000 A 
ATOM     32  C   UNL d   1      12.119   7.878 -20.658  0.00  0.00     0.002 A 
ENDBRANCH  22  24
ENDBRANCH  20  21
ENDBRANCH  19  20
ENDBRANCH  17  19
ENDBRANCH   1  17
TORSDOF 8
