REMARK  7 active torsions:
REMARK  status: ('A' for Active; 'I' for Inactive)
REMARK    1  A    between atoms: C_2  and  O_3 
REMARK    2  A    between atoms: O_3  and  C_4 
REMARK       I    between atoms: C_4  and  N_6 
REMARK    3  A    between atoms: N_6  and  C_7 
REMARK    4  A    between atoms: C_10  and  C_11 
REMARK    5  A    between atoms: C_11  and  C_12 
REMARK    6  A    between atoms: C_12  and  N_13 
REMARK    7  A    between atoms: N_16  and  C_17 
ROOT
ATOM      1  N   UNL d   1       8.463   4.572 -12.536  0.00  0.00     0.141 N 
ATOM      2  C   UNL d   1       9.117   3.469 -13.252  0.00  0.00     0.274 C 
ATOM      3  C   UNL d   1       8.302   3.068 -14.491  0.00  0.00     0.138 C 
ATOM      4  N   UNL d   1       6.925   2.764 -14.136  0.00  0.00    -0.329 N 
ATOM      5  C   UNL d   1       6.258   3.812 -13.367  0.00  0.00     0.138 C 
ATOM      6  C   UNL d   1       7.092   4.209 -12.139  0.00  0.00     0.274 C 
ENDROOT
BRANCH   1   7
ATOM      7  C   UNL d   1       9.236   4.930 -11.348  0.00  0.00     0.250 C 
BRANCH   7   8
ATOM      8  C   UNL d   1       9.266   6.457 -11.199  0.00  0.00     0.035 C 
BRANCH   8   9
ATOM      9  C   UNL d   1      10.218   6.987 -10.104  0.00  0.00     0.002 C 
ATOM     10  C   UNL d   1      10.402   8.510 -10.246  0.00  0.00     0.002 C 
ATOM     11  C   UNL d   1      11.362   9.078  -9.191  0.00  0.00     0.025 C 
ATOM     12  C   UNL d   1      10.894   8.763  -7.765  0.00  0.00     0.109 C 
ATOM     13  C   UNL d   1      10.689   7.240  -7.597  0.00  0.00     0.025 C 
ATOM     14  C   UNL d   1       9.748   6.657  -8.674  0.00  0.00     0.002 C 
BRANCH  12  15
ATOM     15  N   UNL d   1      11.879   9.259  -6.808  0.00  0.00    -0.214 NA
ATOM     16  C   UNL d   1      11.566   9.612  -5.510  0.00  0.00     0.384 C 
ATOM     17  O   UNL d   1      10.453   9.901  -5.088  0.00  0.00    -0.236 OA
BRANCH  16  18
ATOM     18  O   UNL d   1      12.660   9.497  -4.749  0.00  0.00    -0.284 OA
BRANCH  18  19
ATOM     19  C   UNL d   1      12.513   9.322  -3.342  0.00  0.00     0.154 C 
ATOM     20  C   UNL d   1      12.181   7.852  -3.016  0.00  0.00     0.035 C 
ENDBRANCH  18  19
ENDBRANCH  16  18
ENDBRANCH  12  15
ENDBRANCH   8   9
ENDBRANCH   7   8
ENDBRANCH   1   7
BRANCH   4  21
ATOM     21  C   UNL d   1       6.302   1.532 -14.471  0.00  0.00     0.148 A 
ATOM     22  C   UNL d   1       6.474   0.894 -15.775  0.00  0.00     0.042 A 
ATOM     23  C   UNL d   1       5.666  -0.281 -15.838  0.00  0.00     0.050 A 
ATOM     24  C   UNL d   1       7.202   1.219 -16.950  0.00  0.00     0.004 A 
ATOM     25  S   UNL d   1       4.797  -0.415 -14.328  0.00  0.00     0.015 SA
ATOM     26  C   UNL d   1       5.625  -1.110 -16.974  0.00  0.00     0.008 A 
ATOM     27  N   UNL d   1       5.482   0.944 -13.625  0.00  0.00    -0.192 NA
ATOM     28  C   UNL d   1       6.392  -0.775 -18.105  0.00  0.00     0.001 A 
ATOM     29  C   UNL d   1       7.171   0.395 -18.092  0.00  0.00     0.000 A 
ENDBRANCH   4  21
TORSDOF 7
