REMARK  4 active torsions:
REMARK  status: ('A' for Active; 'I' for Inactive)
REMARK    1  A    between atoms: C_9  and  N_10 
REMARK    2  A    between atoms: N_13  and  C_14 
REMARK    3  A    between atoms: C_14  and  C_15 
REMARK    4  A    between atoms: C_15  and  C_16 
ROOT
ATOM      1  N   UNL d   1       8.636   3.021 -14.498  0.00  0.00    -0.344 N 
ATOM      2  C   UNL d   1       7.295   3.356 -14.024  0.00  0.00     0.137 C 
ATOM      3  C   UNL d   1       7.360   4.600 -13.097  0.00  0.00     0.274 C 
ATOM      4  N   UNL d   1       8.318   4.400 -11.998  0.00  0.00     0.141 N 
ATOM      5  C   UNL d   1       9.636   4.141 -12.597  0.00  0.00     0.274 C 
ATOM      6  C   UNL d   1       9.619   2.871 -13.449  0.00  0.00     0.137 C 
ENDROOT
BRANCH   4   7
ATOM      7  C   UNL d   1       8.325   5.564 -11.111  0.00  0.00     0.250 C 
BRANCH   7   8
ATOM      8  C   UNL d   1       9.231   5.376  -9.870  0.00  0.00     0.036 C 
BRANCH   8   9
ATOM      9  C   UNL d   1       9.307   6.596  -8.947  0.00  0.00     0.007 C 
ATOM     10  C   UNL d   1      10.203   6.290  -7.692  0.00  0.00     0.028 C 
ATOM     11  C   UNL d   1      10.534   7.521  -6.894  0.00  0.00    -0.007 A 
ATOM     12  C   UNL d   1      10.343   8.748  -7.444  0.00  0.00     0.055 A 
ATOM     13  C   UNL d   1      11.051   7.744  -5.548  0.00  0.00     0.017 A 
ATOM     14  C   UNL d   1       9.830   9.081  -8.783  0.00  0.00     0.045 C 
ATOM     15  N   UNL d   1      10.676   9.719  -6.529  0.00  0.00    -0.250 NA
ATOM     16  C   UNL d   1       9.806   7.866  -9.694  0.00  0.00     0.007 C 
ATOM     17  C   UNL d   1      11.082   9.157  -5.356  0.00  0.00     0.081 A 
ATOM     18  C   UNL d   1      11.464   9.748  -4.133  0.00  0.00     0.021 A 
ATOM     19  C   UNL d   1      11.896   8.936  -3.077  0.00  0.00     0.031 A 
ATOM     20  C   UNL d   1      11.882   7.524  -3.242  0.00  0.00     0.140 A 
ATOM     21  F   UNL d   1      12.239   6.737  -2.206  0.00  0.00    -0.204 F 
ATOM     22  C   UNL d   1      11.452   6.953  -4.457  0.00  0.00     0.031 A 
ENDBRANCH   8   9
ENDBRANCH   7   8
ENDBRANCH   4   7
BRANCH   1  23
ATOM     23  C   UNL d   1       8.993   2.876 -15.850  0.00  0.00     0.054 A 
ATOM     24  C   UNL d   1      10.158   3.478 -16.392  0.00  0.00     0.021 A 
ATOM     25  C   UNL d   1      11.179   4.399 -15.735  0.00  0.00     0.119 A 
ATOM     26  C   UNL d   1      10.472   3.336 -17.742  0.00  0.00     0.082 A 
ATOM     27  C   UNL d   1      12.085   4.684 -16.930  0.00  0.00     0.260 A 
ATOM     28  O   UNL d   1      13.122   5.331 -16.842  0.00  0.00    -0.270 OA
ATOM     29  N   UNL d   1      11.629   4.072 -18.029  0.00  0.00    -0.212 NA
ATOM     30  C   UNL d   1       9.669   2.590 -18.620  0.00  0.00     0.019 A 
ATOM     31  C   UNL d   1       8.512   1.973 -18.098  0.00  0.00     0.003 A 
ATOM     32  C   UNL d   1       8.177   2.113 -16.728  0.00  0.00     0.017 A 
ENDBRANCH   1  23
TORSDOF 4
