REMARK  1 active torsions:
REMARK  status: ('A' for Active; 'I' for Inactive)
REMARK       I    between atoms: N_2  and  C_3 
REMARK    1  A    between atoms: C_3  and  C_5 
ROOT
ATOM      1  C   UNL d   1      11.345   8.569  -5.691  0.00  0.00     0.062 A 
ATOM      2  C   UNL d   1      11.059   7.198  -5.867  0.00  0.00     0.025 A 
ATOM      3  C   UNL d   1      10.926   6.709  -7.179  0.00  0.00     0.099 A 
ATOM      4  N   UNL d   1      11.057   7.477  -8.277  0.00  0.00    -0.242 NA
ATOM      5  C   UNL d   1      11.306   8.789  -8.103  0.00  0.00     0.099 A 
ATOM      6  C   UNL d   1      11.454   9.386  -6.835  0.00  0.00     0.025 A 
ENDROOT
BRANCH   1   7
ATOM      7  C   UNL d   1      11.495   9.157  -4.322  0.00  0.00     0.298 C 
ATOM      8  N   UNL d   1      12.153   8.387  -3.441  0.00  0.00    -0.085 NA
ATOM      9  N   UNL d   1      12.370   8.789  -2.125  0.00  0.00    -0.019 N 
ATOM     10  O   UNL d   1      11.060  10.278  -4.068  0.00  0.00    -0.264 OA
ENDBRANCH   1   7
TORSDOF 1
