REMARK  8 active torsions:
REMARK  status: ('A' for Active; 'I' for Inactive)
REMARK    1  A    between atoms: C_3  and  S_4 
REMARK    2  A    between atoms: S_4  and  C_5 
REMARK    3  A    between atoms: C_5  and  C_6 
REMARK    4  A    between atoms: C_6  and  C_7 
REMARK    5  A    between atoms: C_7  and  N_8 
REMARK    6  A    between atoms: N_13  and  C_14 
REMARK    7  A    between atoms: C_17  and  C_18 
REMARK    8  A    between atoms: C_28  and  C_29 
ROOT
ATOM      1  N   UNL d   1      11.175   4.465 -17.234  0.00  0.00     0.139 N 
ATOM      2  C   UNL d   1      12.221   4.345 -16.218  0.00  0.00     0.252 C 
ATOM      3  C   UNL d   1      11.505   3.669 -15.049  0.00  0.00     0.058 C 
ATOM      4  C   UNL d   1      10.785   4.602 -14.075  0.00  0.00     0.028 C 
ATOM      5  C   UNL d   1       9.478   3.867 -13.784  0.00  0.00     0.102 C 
ATOM      6  N   UNL d   1       9.143   3.195 -15.030  0.00  0.00    -0.348 N 
ATOM      7  C   UNL d   1      10.399   2.847 -15.697  0.00  0.00     0.117 C 
ATOM      8  C   UNL d   1      10.419   3.226 -17.181  0.00  0.00     0.272 C 
ENDROOT
BRANCH   1   9
ATOM      9  C   UNL d   1      11.660   4.718 -18.581  0.00  0.00     0.251 C 
BRANCH   9  10
ATOM     10  C   UNL d   1      12.078   6.182 -18.705  0.00  0.00     0.047 C 
BRANCH  10  11
ATOM     11  C   UNL d   1      12.491   6.538 -20.148  0.00  0.00     0.067 C 
BRANCH  11  12
ATOM     12  S   UNL d   1      12.970   8.278 -20.358  0.00  0.00    -0.075 SA
BRANCH  12  13
ATOM     13  C   UNL d   1      14.575   8.265 -19.622  0.00  0.00     0.193 A 
ATOM     14  N   UNL d   1      15.476   9.253 -19.823  0.00  0.00    -0.287 N 
ATOM     15  C   UNL d   1      15.337  10.454 -20.644  0.00  0.00     0.134 C 
ATOM     16  C   UNL d   1      16.507   8.824 -19.054  0.00  0.00     0.186 A 
ATOM     17  N   UNL d   1      16.282   7.653 -18.451  0.00  0.00    -0.127 NA
ATOM     18  N   UNL d   1      15.008   7.286 -18.831  0.00  0.00    -0.122 NA
BRANCH  16  19
ATOM     19  C   UNL d   1      17.802   9.468 -18.901  0.00  0.00     0.136 A 
ATOM     20  N   UNL d   1      18.341   9.459 -17.651  0.00  0.00    -0.238 NA
ATOM     21  C   UNL d   1      19.563   9.997 -17.511  0.00  0.00     0.120 A 
ATOM     22  C   UNL d   1      20.248  10.570 -18.603  0.00  0.00     0.120 A 
ATOM     23  N   UNL d   1      19.735  10.562 -19.856  0.00  0.00    -0.239 NA
ATOM     24  C   UNL d   1      18.515   9.989 -19.994  0.00  0.00     0.121 A 
ENDBRANCH  16  19
ENDBRANCH  12  13
ENDBRANCH  11  12
ENDBRANCH  10  11
ENDBRANCH   9  10
ENDBRANCH   1   9
BRANCH   6  25
ATOM     25  C   UNL d   1       8.082   2.267 -15.036  0.00  0.00     0.056 A 
ATOM     26  C   UNL d   1       7.038   2.350 -14.084  0.00  0.00     0.017 A 
ATOM     27  C   UNL d   1       6.022   1.380 -14.036  0.00  0.00     0.005 A 
ATOM     28  C   UNL d   1       5.994   0.327 -14.971  0.00  0.00     0.072 A 
ATOM     29  C   UNL d   1       7.007   0.256 -15.951  0.00  0.00     0.005 A 
ATOM     30  C   UNL d   1       8.034   1.212 -15.989  0.00  0.00     0.017 A 
BRANCH  28  31
ATOM     31  C   UNL d   1       4.908  -0.728 -14.935  0.00  0.00     0.419 C 
ATOM     32  F   UNL d   1       4.332  -0.816 -16.130  0.00  0.00    -0.166 F 
ATOM     33  F   UNL d   1       5.453  -1.905 -14.639  0.00  0.00    -0.166 F 
ATOM     34  F   UNL d   1       3.973  -0.452 -14.021  0.00  0.00    -0.166 F 
ENDBRANCH  28  31
ENDBRANCH   6  25
TORSDOF 8
