REMARK  6 active torsions:
REMARK  status: ('A' for Active; 'I' for Inactive)
REMARK    1  A    between atoms: N_8  and  C_9 
REMARK    2  A    between atoms: C_9  and  C_10 
REMARK    3  A    between atoms: C_10  and  C_11 
REMARK    4  A    between atoms: C_11  and  O_12 
REMARK    5  A    between atoms: O_12  and  C_13 
REMARK    6  A    between atoms: C_16  and  C_17 
ROOT
ATOM      1  O   UNL d   1       9.150   7.040 -12.114  0.00  0.00    -0.331 OA
ENDROOT
BRANCH   1   2
ATOM      2  C   UNL d   1       7.954   6.317 -12.326  0.00  0.00     0.151 C 
BRANCH   2   3
ATOM      3  C   UNL d   1       8.120   4.787 -12.403  0.00  0.00     0.068 C 
BRANCH   3   4
ATOM      4  C   UNL d   1       8.303   4.259 -13.833  0.00  0.00     0.253 C 
BRANCH   4   5
ATOM      5  N   UNL d   1       7.949   2.841 -13.933  0.00  0.00     0.141 N 
ATOM      6  C   UNL d   1       8.435   2.269 -15.192  0.00  0.00     0.275 C 
ATOM      7  C   UNL d   1       8.096   0.768 -15.265  0.00  0.00     0.155 C 
ATOM      8  N   UNL d   1       6.650   0.547 -15.099  0.00  0.00    -0.179 N 
ATOM      9  C   UNL d   1       5.880  -0.140 -15.986  0.00  0.00     0.727 A 
ATOM     10  C   UNL d   1       6.126   1.163 -13.879  0.00  0.00     0.155 C 
ATOM     11  N   UNL d   1       6.290  -0.183 -17.262  0.00  0.00    -0.060 NA
ATOM     12  N   UNL d   1       4.747  -0.721 -15.526  0.00  0.00    -0.060 NA
ATOM     13  C   UNL d   1       5.543  -0.865 -18.144  0.00  0.00     0.120 A 
ATOM     14  C   UNL d   1       4.353  -1.514 -17.760  0.00  0.00     0.043 A 
ATOM     15  C   UNL d   1       4.002  -1.413 -16.401  0.00  0.00     0.120 A 
ATOM     16  C   UNL d   1       6.503   2.652 -13.835  0.00  0.00     0.275 C 
ENDBRANCH   4   5
ENDBRANCH   3   4
ENDBRANCH   2   3
ENDBRANCH   1   2
BRANCH   1  17
ATOM     17  C   UNL d   1       9.573   7.192 -10.818  0.00  0.00     0.094 A 
ATOM     18  C   UNL d   1       9.346   6.187  -9.820  0.00  0.00     0.024 A 
ATOM     19  C   UNL d   1       9.757   6.401  -8.495  0.00  0.00     0.005 A 
ATOM     20  C   UNL d   1      10.383   7.606  -8.133  0.00  0.00     0.036 A 
ATOM     21  C   UNL d   1      10.622   8.596  -9.120  0.00  0.00     0.005 A 
ATOM     22  C   UNL d   1      10.222   8.367 -10.442  0.00  0.00     0.024 A 
BRANCH  20  23
ATOM     23  C   UNL d   1      10.793   7.818  -6.753  0.00  0.00     0.162 A 
ATOM     24  N   UNL d   1      11.114   6.797  -5.929  0.00  0.00    -0.225 NA
ATOM     25  C   UNL d   1      11.460   7.340  -4.709  0.00  0.00     0.101 A 
ATOM     26  C   UNL d   1      11.312   8.737  -4.900  0.00  0.00     0.101 A 
ATOM     27  C   UNL d   1      11.885   6.788  -3.483  0.00  0.00     0.021 A 
ATOM     28  N   UNL d   1      10.889   9.024  -6.186  0.00  0.00    -0.225 NA
ATOM     29  C   UNL d   1      11.575   9.590  -3.808  0.00  0.00     0.021 A 
ATOM     30  C   UNL d   1      12.010   9.055  -2.579  0.00  0.00     0.002 A 
ATOM     31  C   UNL d   1      12.165   7.665  -2.417  0.00  0.00     0.002 A 
ENDBRANCH  20  23
ENDBRANCH   1  17
TORSDOF 6
