REMARK  7 active torsions:
REMARK  status: ('A' for Active; 'I' for Inactive)
REMARK    1  A    between atoms: S_2  and  N_4 
REMARK    2  A    between atoms: S_2  and  C_22 
REMARK    3  A    between atoms: N_4  and  C_5 
REMARK    4  A    between atoms: N_8  and  C_9 
REMARK    5  A    between atoms: C_9  and  C_10 
REMARK    6  A    between atoms: C_10  and  C_11 
REMARK    7  A    between atoms: C_11  and  C_12 
ROOT
ATOM      1  C   UNL d   1       7.594   4.922 -11.491  0.00  0.00     0.151 C 
ATOM      2  C   UNL d   1       7.721   6.360 -11.967  0.00  0.00     0.063 C 
ATOM      3  C   UNL d   1       8.942   6.883 -11.204  0.00  0.00     0.252 C 
ATOM      4  N   UNL d   1       9.027   6.036 -10.017  0.00  0.00     0.139 N 
ATOM      5  C   UNL d   1       8.753   4.704 -10.517  0.00  0.00     0.275 C 
ENDROOT
BRANCH   1   6
ATOM      6  N   UNL d   1       7.638   3.987 -12.601  0.00  0.00    -0.185 NA
BRANCH   6   7
ATOM      7  S   UNL d   1       6.175   3.301 -13.239  0.00  0.00     0.281 S 
ATOM      8  O   UNL d   1       5.496   2.513 -12.193  0.00  0.00    -0.199 OA
ATOM      9  O   UNL d   1       5.441   4.392 -13.897  0.00  0.00    -0.199 OA
BRANCH   7  10
ATOM     10  C   UNL d   1       6.814   2.188 -14.494  0.00  0.00     0.105 A 
ATOM     11  C   UNL d   1       8.009   2.506 -15.178  0.00  0.00     0.013 A 
ATOM     12  C   UNL d   1       8.506   1.644 -16.172  0.00  0.00     0.001 A 
ATOM     13  C   UNL d   1       7.804   0.455 -16.483  0.00  0.00     0.001 A 
ATOM     14  C   UNL d   1       9.699   1.973 -16.854  0.00  0.00     0.001 A 
ATOM     15  C   UNL d   1       6.612   0.135 -15.798  0.00  0.00     0.001 A 
ATOM     16  C   UNL d   1       8.304  -0.403 -17.482  0.00  0.00     0.011 A 
ATOM     17  C   UNL d   1       6.127   0.997 -14.792  0.00  0.00     0.013 A 
ATOM     18  C   UNL d   1       9.511  -0.087 -18.134  0.00  0.00     0.058 A 
ATOM     19 CL   UNL d   1      10.144  -1.167 -19.305  0.00  0.00    -0.082 Cl
ATOM     20  C   UNL d   1      10.208   1.095 -17.828  0.00  0.00     0.011 A 
ENDBRANCH   7  10
ENDBRANCH   6   7
ENDBRANCH   1   6
BRANCH   4  21
ATOM     21  C   UNL d   1      10.311   6.158  -9.337  0.00  0.00     0.251 C 
BRANCH  21  22
ATOM     22  C   UNL d   1      10.194   7.122  -8.152  0.00  0.00     0.042 C 
BRANCH  22  23
ATOM     23  C   UNL d   1      11.550   7.692  -7.755  0.00  0.00     0.050 C 
BRANCH  23  24
ATOM     24  C   UNL d   1      11.466   8.567  -6.540  0.00  0.00     0.088 A 
ATOM     25  C   UNL d   1      11.608   8.251  -5.175  0.00  0.00     0.041 A 
ATOM     26  C   UNL d   1      11.543   9.429  -4.435  0.00  0.00     0.126 A 
ATOM     27  C   UNL d   1      11.841   7.022  -4.519  0.00  0.00     0.003 A 
ATOM     28  O   UNL d   1      11.310  10.430  -5.362  0.00  0.00    -0.211 OA
ATOM     29  C   UNL d   1      11.709   9.456  -3.045  0.00  0.00     0.027 A 
ATOM     30  N   UNL d   1      11.281   9.878  -6.670  0.00  0.00    -0.131 NA
ATOM     31  C   UNL d   1      11.907   8.231  -2.382  0.00  0.00     0.002 A 
ATOM     32  C   UNL d   1      11.978   7.019  -3.114  0.00  0.00     0.000 A 
ENDBRANCH  23  24
ENDBRANCH  22  23
ENDBRANCH  21  22
ENDBRANCH   4  21
TORSDOF 7
