REMARK  8 active torsions:
REMARK  status: ('A' for Active; 'I' for Inactive)
REMARK    1  A    between atoms: C_6  and  S_7 
REMARK    2  A    between atoms: S_7  and  N_10 
REMARK    3  A    between atoms: N_10  and  C_11 
REMARK    4  A    between atoms: C_11  and  C_12 
REMARK    5  A    between atoms: C_12  and  C_13 
REMARK    6  A    between atoms: C_13  and  C_14 
REMARK    7  A    between atoms: C_14  and  N_15 
REMARK    8  A    between atoms: C_18  and  C_19 
ROOT
ATOM      1  N   UNL d   1       9.474   5.615  -9.627  0.00  0.00     0.142 N 
ATOM      2  C   UNL d   1       9.854   6.948 -10.127  0.00  0.00     0.276 C 
ATOM      3  C   UNL d   1      10.456   7.840  -9.071  0.00  0.00     0.005 C 
ATOM      4  C   UNL d   1      10.401   7.570  -7.753  0.00  0.00    -0.021 C 
ATOM      5  C   UNL d   1       9.647   6.341  -7.293  0.00  0.00     0.061 C 
ATOM      6  C   UNL d   1       8.732   5.760  -8.380  0.00  0.00     0.255 C 
ENDROOT
BRANCH   1   7
ATOM      7  C   UNL d   1       8.644   4.923 -10.604  0.00  0.00     0.251 C 
BRANCH   7   8
ATOM      8  C   UNL d   1       9.485   4.458 -11.815  0.00  0.00     0.037 C 
BRANCH   8   9
ATOM      9  C   UNL d   1       8.630   4.161 -13.046  0.00  0.00     0.029 C 
BRANCH   9  10
ATOM     10  C   UNL d   1       9.487   3.795 -14.265  0.00  0.00     0.139 C 
BRANCH  10  11
ATOM     11  N   UNL d   1      10.052   2.448 -14.119  0.00  0.00    -0.185 NA
BRANCH  11  12
ATOM     12  S   UNL d   1       9.572   1.227 -15.227  0.00  0.00     0.281 S 
ATOM     13  O   UNL d   1       8.102   1.277 -15.325  0.00  0.00    -0.199 OA
ATOM     14  O   UNL d   1      10.259  -0.014 -14.843  0.00  0.00    -0.199 OA
BRANCH  12  15
ATOM     15  C   UNL d   1      10.271   1.803 -16.767  0.00  0.00     0.105 A 
ATOM     16  C   UNL d   1       9.486   1.822 -17.936  0.00  0.00     0.013 A 
ATOM     17  C   UNL d   1      10.047   2.297 -19.138  0.00  0.00     0.000 A 
ATOM     18  C   UNL d   1      11.379   2.755 -19.163  0.00  0.00    -0.004 A 
ATOM     19  C   UNL d   1      12.161   2.740 -17.989  0.00  0.00    -0.021 A 
ATOM     20  C   UNL d   1      13.591   3.234 -18.022  0.00  0.00     0.031 C 
ATOM     21  C   UNL d   1      11.604   2.261 -16.785  0.00  0.00     0.009 A 
ENDBRANCH  12  15
ENDBRANCH  11  12
ENDBRANCH  10  11
ENDBRANCH   9  10
ENDBRANCH   8   9
ENDBRANCH   7   8
ENDBRANCH   1   7
BRANCH   4  22
ATOM     22  C   UNL d   1      11.015   8.466  -6.768  0.00  0.00     0.017 A 
ATOM     23  C   UNL d   1      11.411   8.151  -5.426  0.00  0.00     0.021 A 
ATOM     24  C   UNL d   1      11.982   9.348  -4.896  0.00  0.00     0.082 A 
ATOM     25  C   UNL d   1      11.381   7.019  -4.573  0.00  0.00     0.031 A 
ATOM     26  N   UNL d   1      11.914  10.300  -5.892  0.00  0.00    -0.244 NA
ATOM     27  C   UNL d   1      12.496   9.409  -3.597  0.00  0.00     0.021 A 
ATOM     28  C   UNL d   1      11.366   9.757  -7.028  0.00  0.00     0.099 A 
ATOM     29  C   UNL d   1      12.450   8.273  -2.775  0.00  0.00     0.031 A 
ATOM     30  C   UNL d   1      11.895   7.085  -3.262  0.00  0.00     0.140 A 
ATOM     31  F   UNL d   1      11.873   6.009  -2.452  0.00  0.00    -0.204 F 
ENDBRANCH   4  22
TORSDOF 8
