REMARK  4 active torsions:
REMARK  status: ('A' for Active; 'I' for Inactive)
REMARK    1  A    between atoms: C_4  and  C_5 
REMARK    2  A    between atoms: C_5  and  N_6 
REMARK    3  A    between atoms: C_9  and  C_10 
REMARK    4  A    between atoms: C_25  and  N_26 
ROOT
ATOM      1  N   UNL d   1       7.794   5.930 -11.597  0.00  0.00     0.137 N 
ATOM      2  C   UNL d   1       8.530   7.001 -12.295  0.00  0.00     0.251 C 
ATOM      3  C   UNL d   1       9.415   7.797 -11.326  0.00  0.00     0.040 C 
ATOM      4  C   UNL d   1      10.298   6.868 -10.491  0.00  0.00     0.028 C 
ATOM      5  C   UNL d   1       9.487   5.746  -9.812  0.00  0.00     0.040 C 
ATOM      6  C   UNL d   1       8.655   5.019 -10.836  0.00  0.00     0.251 C 
ENDROOT
BRANCH   1   7
ATOM      7  C   UNL d   1       6.802   5.245 -12.428  0.00  0.00     0.251 C 
BRANCH   7   8
ATOM      8  C   UNL d   1       7.348   3.993 -13.166  0.00  0.00     0.047 C 
ATOM      9  C   UNL d   1       6.211   3.045 -13.633  0.00  0.00     0.072 C 
ATOM     10  C   UNL d   1       6.752   1.809 -14.387  0.00  0.00     0.180 C 
ATOM     11  O   UNL d   1       6.181   0.721 -14.332  0.00  0.00    -0.291 OA
ATOM     12  C   UNL d   1       7.980   2.046 -15.133  0.00  0.00     0.080 A 
ATOM     13  C   UNL d   1       8.705   3.196 -15.097  0.00  0.00     0.070 A 
ATOM     14  S   UNL d   1       8.724   0.855 -16.158  0.00  0.00    -0.046 SA
ATOM     15  C   UNL d   1       8.385   4.368 -14.245  0.00  0.00     0.049 C 
ATOM     16  N   UNL d   1       9.821   3.216 -15.915  0.00  0.00    -0.227 NA
ATOM     17  C   UNL d   1       9.972   2.051 -16.548  0.00  0.00     0.171 A 
BRANCH  17  18
ATOM     18  N   UNL d   1      10.999   1.799 -17.432  0.00  0.00    -0.329 N 
ATOM     19  C   UNL d   1      11.286   0.518 -18.055  0.00  0.00     0.103 C 
ATOM     20  C   UNL d   1      12.329   0.738 -19.140  0.00  0.00     0.026 C 
ATOM     21  C   UNL d   1      13.067   1.972 -18.668  0.00  0.00     0.026 C 
ATOM     22  C   UNL d   1      11.996   2.753 -17.919  0.00  0.00     0.103 C 
ENDBRANCH  17  18
ENDBRANCH   7   8
ENDBRANCH   1   7
BRANCH   4  23
ATOM     23  C   UNL d   1      11.150   7.612  -9.537  0.00  0.00    -0.002 A 
ATOM     24  C   UNL d   1      10.779   8.108  -8.235  0.00  0.00     0.015 A 
ATOM     25  C   UNL d   1      11.911   8.746  -7.658  0.00  0.00     0.083 A 
ATOM     26  C   UNL d   1       9.591   8.081  -7.480  0.00  0.00     0.004 A 
ATOM     27  N   UNL d   1      12.917   8.617  -8.566  0.00  0.00    -0.244 NA
ATOM     28  C   UNL d   1      11.875   9.375  -6.401  0.00  0.00     0.049 A 
ATOM     29  C   UNL d   1      12.466   7.999  -9.689  0.00  0.00     0.095 A 
ATOM     30  C   UNL d   1      10.698   9.297  -5.653  0.00  0.00     0.142 A 
ATOM     31  F   UNL d   1      10.678   9.885  -4.438  0.00  0.00    -0.204 F 
ATOM     32  C   UNL d   1       9.581   8.605  -6.198  0.00  0.00     0.030 A 
ENDBRANCH   4  23
TORSDOF 4
