REMARK  4 active torsions:
REMARK  status: ('A' for Active; 'I' for Inactive)
REMARK    1  A    between atoms: C_2  and  C_3 
REMARK    2  A    between atoms: C_3  and  C_4 
REMARK    3  A    between atoms: C_4  and  N_6 
REMARK       I    between atoms: N_6  and  C_7 
REMARK    4  A    between atoms: C_7  and  C_9 
ROOT
ATOM      1  C   UNL d   1      10.725   7.880  -6.728  0.00  0.00     0.139 A 
ATOM      2  C   UNL d   1      10.828   9.081  -6.072  0.00  0.00     0.025 A 
ATOM      3  C   UNL d   1      11.318   8.800  -4.760  0.00  0.00     0.019 A 
ATOM      4  C   UNL d   1      11.622   9.587  -3.626  0.00  0.00     0.002 A 
ATOM      5  C   UNL d   1      12.103   8.988  -2.449  0.00  0.00     0.000 A 
ATOM      6  C   UNL d   1      12.265   7.595  -2.369  0.00  0.00     0.002 A 
ATOM      7  C   UNL d   1      11.958   6.785  -3.475  0.00  0.00     0.019 A 
ATOM      8  C   UNL d   1      11.488   7.394  -4.645  0.00  0.00     0.082 A 
ATOM      9  N   UNL d   1      11.115   6.870  -5.859  0.00  0.00    -0.241 NA
ENDROOT
BRANCH   1  10
ATOM     10  C   UNL d   1      10.253   7.594  -8.096  0.00  0.00     0.292 C 
ATOM     11  N   UNL d   1      10.243   6.289  -8.445  0.00  0.00    -0.235 NA
ATOM     12  O   UNL d   1       9.883   8.517  -8.805  0.00  0.00    -0.264 OA
BRANCH  11  13
ATOM     13  C   UNL d   1       9.628   5.657  -9.602  0.00  0.00     0.107 C 
ATOM     14  C   UNL d   1       8.258   5.088  -9.210  0.00  0.00     0.026 C 
BRANCH  13  15
ATOM     15  C   UNL d   1       9.583   6.597 -10.831  0.00  0.00     0.024 C 
BRANCH  15  16
ATOM     16  C   UNL d   1       8.942   6.016 -12.097  0.00  0.00     0.002 C 
ATOM     17  C   UNL d   1       9.646   4.760 -12.634  0.00  0.00     0.000 C 
ENDBRANCH  15  16
ENDBRANCH  13  15
ENDBRANCH  11  13
ENDBRANCH   1  10
TORSDOF 4
