REMARK  10 active torsions:
REMARK  status: ('A' for Active; 'I' for Inactive)
REMARK    1  A    between atoms: O_2  and  C_3 
REMARK    2  A    between atoms: C_9  and  C_10 
REMARK    3  A    between atoms: C_12  and  C_13 
REMARK    4  A    between atoms: C_13  and  N_14 
REMARK    5  A    between atoms: N_14  and  C_15 
REMARK    6  A    between atoms: C_15  and  C_16 
REMARK    7  A    between atoms: C_16  and  C_17 
REMARK    8  A    between atoms: C_17  and  C_18 
REMARK    9  A    between atoms: C_18  and  O_19 
REMARK   10  A    between atoms: O_19  and  C_20 
ROOT
ATOM      1  C   UNL d   1       9.397   6.390 -10.046  0.00  0.00     0.290 C 
ENDROOT
BRANCH   1   2
ATOM      2  N   UNL d   1       8.915   5.490 -11.084  0.00  0.00     0.339 N 
BRANCH   2   3
ATOM      3  C   UNL d   1       7.470   5.592 -11.124  0.00  0.00     0.290 C 
BRANCH   3   4
ATOM      4  C   UNL d   1       6.873   4.416 -11.842  0.00  0.00     0.041 A 
ATOM      5  C   UNL d   1       6.911   4.287 -13.345  0.00  0.00     0.026 A 
ATOM      6  C   UNL d   1       5.604   4.621 -12.638  0.00  0.00     0.007 A 
BRANCH   5   7
ATOM      7  C   UNL d   1       7.194   2.954 -13.991  0.00  0.00     0.001 A 
ATOM      8  C   UNL d   1       8.481   2.653 -14.515  0.00  0.00     0.090 A 
ATOM      9  C   UNL d   1       8.693   1.376 -15.110  0.00  0.00     0.025 A 
ATOM     10  C   UNL d   1       7.652   0.429 -15.178  0.00  0.00     0.013 A 
ATOM     11  C   UNL d   1       6.392   0.731 -14.646  0.00  0.00     0.058 A 
ATOM     12 CL   UNL d   1       5.087  -0.393 -14.708  0.00  0.00    -0.082 Cl
ATOM     13  C   UNL d   1       6.180   1.979 -14.054  0.00  0.00     0.009 A 
BRANCH   8  14
ATOM     14  O   UNL d   1       9.470   3.611 -14.410  0.00  0.00    -0.328 OA
ATOM     15  C   UNL d   1      10.786   3.264 -14.827  0.00  0.00     0.181 C 
ENDBRANCH   8  14
ENDBRANCH   5   7
ENDBRANCH   3   4
ENDBRANCH   2   3
ENDBRANCH   1   2
BRANCH   1  16
ATOM     16  C   UNL d   1      10.586   7.185 -10.588  0.00  0.00     0.041 C 
BRANCH  16  17
ATOM     17  C   UNL d   1      11.414   8.046  -9.653  0.00  0.00     0.035 C 
BRANCH  17  18
ATOM     18  C   UNL d   1      10.537   9.169  -9.096  0.00  0.00     0.149 C 
BRANCH  18  19
ATOM     19  O   UNL d   1      11.092   9.716  -7.925  0.00  0.00    -0.331 OA
BRANCH  19  20
ATOM     20  C   UNL d   1      11.132   8.955  -6.789  0.00  0.00     0.096 C 
ATOM     21  C   UNL d   1      11.826   9.453  -5.659  0.00  0.00     0.043 C 
ATOM     22  C   UNL d   1      11.991   8.629  -4.543  0.00  0.00     0.082 C 
ATOM     23  C   UNL d   1      11.534   7.304  -4.598  0.00  0.00    -0.004 C 
ATOM     24  N   UNL d   1      12.649   9.087  -3.371  0.00  0.00    -0.212 NA
ATOM     25  C   UNL d   1      10.841   6.813  -5.703  0.00  0.00    -0.001 C 
ATOM     26  C   UNL d   1      11.772   6.390  -3.446  0.00  0.00     0.038 C 
ATOM     27  C   UNL d   1      10.555   7.663  -6.764  0.00  0.00     0.024 C 
ATOM     28  C   UNL d   1      11.775   7.141  -2.122  0.00  0.00     0.095 C 
ATOM     29  C   UNL d   1      12.606   8.424  -2.206  0.00  0.00     0.256 C 
ATOM     30  O   UNL d   1      13.186   8.862  -1.235  0.00  0.00    -0.270 OA
ENDBRANCH  19  20
ENDBRANCH  18  19
ENDBRANCH  17  18
ENDBRANCH  16  17
ENDBRANCH   1  16
TORSDOF 10
