REMARK  4 active torsions:
REMARK  status: ('A' for Active; 'I' for Inactive)
REMARK    1  A    between atoms: O_2  and  C_3 
REMARK    2  A    between atoms: C_8  and  N_9 
REMARK    3  A    between atoms: N_12  and  C_13 
REMARK    4  A    between atoms: C_13  and  C_14 
ROOT
ATOM      1  N   UNL d   1      10.639   4.899 -17.273  0.00  0.00    -0.343 N 
ATOM      2  C   UNL d   1      10.056   4.541 -15.991  0.00  0.00     0.137 C 
ATOM      3  C   UNL d   1       9.932   3.012 -15.888  0.00  0.00     0.275 C 
ATOM      4  N   UNL d   1       9.184   2.455 -17.026  0.00  0.00     0.145 N 
ATOM      5  C   UNL d   1       9.908   2.777 -18.260  0.00  0.00     0.275 C 
ATOM      6  C   UNL d   1      10.011   4.300 -18.440  0.00  0.00     0.137 C 
ENDROOT
BRANCH   4   7
ATOM      7  C   UNL d   1       9.081   1.004 -16.892  0.00  0.00     0.273 C 
BRANCH   7   8
ATOM      8  C   UNL d   1       7.957   0.566 -15.964  0.00  0.00    -0.007 A 
ATOM      9  C   UNL d   1       6.699   0.027 -16.352  0.00  0.00    -0.006 A 
ATOM     10  C   UNL d   1       5.931  -0.261 -15.098  0.00  0.00    -0.004 A 
ATOM     11  C   UNL d   1       6.299  -0.187 -17.677  0.00  0.00    -0.001 A 
ATOM     12  C   UNL d   1       6.763   0.123 -14.042  0.00  0.00    -0.022 A 
ATOM     13  C   UNL d   1       4.661  -0.801 -14.921  0.00  0.00    -0.000 A 
ATOM     14  C   UNL d   1       8.007   0.623 -14.525  0.00  0.00     0.050 A 
ATOM     15  C   UNL d   1       3.761  -1.231 -15.947  0.00  0.00    -0.000 A 
ATOM     16  C   UNL d   1       3.938  -1.214 -17.370  0.00  0.00    -0.000 A 
ATOM     17  C   UNL d   1       5.061  -0.750 -18.136  0.00  0.00    -0.000 A 
ENDBRANCH   7   8
ENDBRANCH   4   7
BRANCH   1  18
ATOM     18  C   UNL d   1      11.742   5.762 -17.392  0.00  0.00     0.079 A 
ATOM     19  C   UNL d   1      11.744   6.795 -18.366  0.00  0.00     0.110 A 
ATOM     20  C   UNL d   1      12.887   7.625 -18.480  0.00  0.00     0.026 A 
ATOM     21  C   UNL d   1      13.999   7.441 -17.641  0.00  0.00     0.002 A 
ATOM     22  C   UNL d   1      13.989   6.422 -16.674  0.00  0.00     0.002 A 
ATOM     23  C   UNL d   1      12.861   5.589 -16.547  0.00  0.00     0.019 A 
BRANCH  19  24
ATOM     24  O   UNL d   1      10.607   6.968 -19.131  0.00  0.00    -0.327 OA
ATOM     25  C   UNL d   1      10.590   7.987 -20.113  0.00  0.00     0.181 C 
ENDBRANCH  19  24
ENDBRANCH   1  18
TORSDOF 4
