REMARK  9 active torsions:
REMARK  status: ('A' for Active; 'I' for Inactive)
REMARK    1  A    between atoms: C_5  and  S_6 
REMARK    2  A    between atoms: S_6  and  C_7 
REMARK    3  A    between atoms: C_7  and  C_8 
REMARK    4  A    between atoms: C_8  and  N_9 
REMARK    5  A    between atoms: N_9  and  C_10 
REMARK    6  A    between atoms: C_10  and  C_11 
REMARK    7  A    between atoms: C_11  and  C_12 
REMARK    8  A    between atoms: C_12  and  O_13 
REMARK    9  A    between atoms: O_13  and  C_14 
ROOT
ATOM      1  N   UNL d   1       9.049   5.445 -10.382  0.00  0.00     0.340 N 
ENDROOT
BRANCH   1   2
ATOM      2  C   UNL d   1       9.682   6.723 -10.091  0.00  0.00     0.302 C 
BRANCH   2   3
ATOM      3  C   UNL d   1       9.962   6.805  -8.588  0.00  0.00     0.100 C 
BRANCH   3   4
ATOM      4  S   UNL d   1      10.624   8.432  -8.108  0.00  0.00    -0.111 SA
BRANCH   4   5
ATOM      5  C   UNL d   1      11.072   8.342  -6.398  0.00  0.00     0.025 A 
ATOM      6  C   UNL d   1      11.239   7.096  -5.755  0.00  0.00     0.007 A 
ATOM      7  C   UNL d   1      11.633   7.045  -4.411  0.00  0.00     0.012 A 
ATOM      8  C   UNL d   1      11.860   8.232  -3.695  0.00  0.00     0.058 A 
ATOM      9 CL   UNL d   1      12.307   8.153  -2.037  0.00  0.00    -0.082 Cl
ATOM     10  C   UNL d   1      11.676   9.483  -4.320  0.00  0.00     0.012 A 
ATOM     11  C   UNL d   1      11.297   9.539  -5.676  0.00  0.00     0.007 A 
ENDBRANCH   4   5
ENDBRANCH   3   4
ENDBRANCH   2   3
ENDBRANCH   1   2
BRANCH   1  12
ATOM     12  C   UNL d   1       8.019   5.623 -11.391  0.00  0.00     0.293 C 
BRANCH  12  13
ATOM     13  C   UNL d   1       7.361   4.282 -11.686  0.00  0.00     0.071 C 
BRANCH  13  14
ATOM     14  C   UNL d   1       6.121   4.419 -12.592  0.00  0.00     0.151 C 
BRANCH  14  15
ATOM     15  O   UNL d   1       5.517   3.149 -12.818  0.00  0.00    -0.331 OA
BRANCH  15  16
ATOM     16  C   UNL d   1       6.154   2.251 -13.649  0.00  0.00     0.094 A 
ATOM     17  C   UNL d   1       7.281   2.575 -14.448  0.00  0.00     0.024 A 
ATOM     18  C   UNL d   1       7.864   1.612 -15.287  0.00  0.00     0.002 A 
ATOM     19  C   UNL d   1       7.328   0.313 -15.345  0.00  0.00     0.000 A 
ATOM     20  C   UNL d   1       6.217  -0.027 -14.552  0.00  0.00     0.002 A 
ATOM     21  C   UNL d   1       5.635   0.940 -13.707  0.00  0.00     0.024 A 
ENDBRANCH  15  16
ENDBRANCH  14  15
ENDBRANCH  13  14
ENDBRANCH  12  13
ENDBRANCH   1  12
TORSDOF 9
