REMARK  3 active torsions:
REMARK  status: ('A' for Active; 'I' for Inactive)
REMARK    1  A    between atoms: O_2  and  C_3 
REMARK    2  A    between atoms: N_13  and  C_14 
REMARK    3  A    between atoms: C_14  and  C_15 
ROOT
ATOM      1  C   UNL d   1       8.122   1.219 -15.641  0.00  0.00     0.096 A 
ATOM      2  C   UNL d   1       9.230   2.090 -15.796  0.00  0.00     0.024 A 
ATOM      3  C   UNL d   1       9.300   3.287 -15.059  0.00  0.00    -0.000 A 
ATOM      4  C   UNL d   1       8.263   3.633 -14.171  0.00  0.00     0.002 A 
ATOM      5  C   UNL d   1       7.137   2.788 -14.041  0.00  0.00     0.092 A 
ATOM      6  C   UNL d   1       7.089   1.580 -14.754  0.00  0.00     0.048 A 
ATOM      7  O   UNL d   1       6.103   3.105 -13.192  0.00  0.00    -0.331 OA
ATOM      8  C   UNL d   1       5.846   4.494 -13.061  0.00  0.00     0.151 C 
ATOM      9  C   UNL d   1       7.079   5.317 -12.644  0.00  0.00     0.070 C 
ATOM     10  C   UNL d   1       7.417   5.253 -11.161  0.00  0.00     0.254 C 
ATOM     11  N   UNL d   1       8.850   5.514 -11.098  0.00  0.00     0.142 N 
ATOM     12  C   UNL d   1       9.360   4.668 -12.165  0.00  0.00     0.255 C 
ATOM     13  C   UNL d   1       8.378   4.884 -13.322  0.00  0.00     0.062 C 
ENDROOT
BRANCH  11  14
ATOM     14  C   UNL d   1       9.378   5.195  -9.774  0.00  0.00     0.277 C 
BRANCH  14  15
ATOM     15  C   UNL d   1       9.768   6.429  -8.982  0.00  0.00     0.011 A 
ATOM     16  C   UNL d   1       9.057   6.779  -7.814  0.00  0.00    -0.002 A 
ATOM     17  C   UNL d   1       9.429   7.917  -7.072  0.00  0.00    -0.000 A 
ATOM     18  C   UNL d   1      10.517   8.710  -7.485  0.00  0.00    -0.000 A 
ATOM     19  C   UNL d   1      11.232   8.366  -8.650  0.00  0.00    -0.000 A 
ATOM     20  C   UNL d   1      10.850   7.235  -9.399  0.00  0.00    -0.002 A 
ENDBRANCH  14  15
ENDBRANCH  11  14
BRANCH   1  21
ATOM     21  O   UNL d   1       7.980   0.025 -16.312  0.00  0.00    -0.328 OA
ATOM     22  C   UNL d   1       9.011  -0.372 -17.200  0.00  0.00     0.181 C 
ENDBRANCH   1  21
TORSDOF 3
