REMARK  4 active torsions:
REMARK  status: ('A' for Active; 'I' for Inactive)
REMARK    1  A    between atoms: C_4  and  C_5 
REMARK    2  A    between atoms: C_5  and  C_6 
REMARK    3  A    between atoms: C_6  and  N_7 
REMARK    4  A    between atoms: C_17  and  C_18 
ROOT
ATOM      1  N   UNL d   1      11.107   8.978  -7.525  0.00  0.00     0.137 N 
ATOM      2  C   UNL d   1      11.799   8.295  -8.628  0.00  0.00     0.251 C 
ATOM      3  C   UNL d   1      11.237   8.771  -9.982  0.00  0.00     0.041 C 
ATOM      4  C   UNL d   1       9.719   8.470 -10.071  0.00  0.00     0.041 A 
ATOM      5  C   UNL d   1       9.056   9.040 -11.388  0.00  0.00     0.011 A 
ATOM      6  C   UNL d   1       8.303   7.906 -12.128  0.00  0.00     0.030 A 
ATOM      7  C   UNL d   1       8.642   6.708 -11.274  0.00  0.00     0.013 A 
ATOM      8  C   UNL d   1       9.444   7.043 -10.186  0.00  0.00     0.077 A 
ATOM      9  N   UNL d   1       9.663   6.045  -9.356  0.00  0.00    -0.153 NA
ATOM     10  N   UNL d   1       8.992   5.038  -9.950  0.00  0.00    -0.149 NA
ATOM     11  C   UNL d   1       8.375   5.418 -11.151  0.00  0.00     0.100 A 
ATOM     12  C   UNL d   1       9.095   9.074  -8.814  0.00  0.00     0.041 C 
ATOM     13  C   UNL d   1       9.679   8.633  -7.518  0.00  0.00     0.251 C 
ENDROOT
BRANCH   1  14
ATOM     14  C   UNL d   1      11.686   8.504  -6.290  0.00  0.00     0.255 C 
BRANCH  14  15
ATOM     15  C   UNL d   1      10.933   9.042  -5.072  0.00  0.00     0.062 C 
BRANCH  15  16
ATOM     16  C   UNL d   1      11.571   8.587  -3.796  0.00  0.00    -0.020 A 
ATOM     17  C   UNL d   1      11.745   7.203  -3.551  0.00  0.00    -0.004 A 
ATOM     18  C   UNL d   1      12.324   6.796  -2.350  0.00  0.00    -0.000 A 
ATOM     19  C   UNL d   1      12.669   7.792  -1.417  0.00  0.00    -0.000 A 
ATOM     20  C   UNL d   1      12.470   9.148  -1.646  0.00  0.00    -0.000 A 
ATOM     21  C   UNL d   1      11.897   9.573  -2.854  0.00  0.00    -0.004 A 
ENDBRANCH  15  16
ENDBRANCH  14  15
ENDBRANCH   1  14
BRANCH  11  22
ATOM     22  C   UNL d   1       7.634   4.511 -11.984  0.00  0.00     0.019 A 
ATOM     23  C   UNL d   1       8.326   3.725 -12.950  0.00  0.00     0.002 A 
ATOM     24  C   UNL d   1       7.626   2.840 -13.742  0.00  0.00     0.000 A 
ATOM     25  C   UNL d   1       6.239   2.621 -13.571  0.00  0.00     0.000 A 
ATOM     26  C   UNL d   1       5.538   3.414 -12.626  0.00  0.00     0.000 A 
ATOM     27  C   UNL d   1       6.228   4.376 -11.909  0.00  0.00     0.002 A 
ENDBRANCH  11  22
TORSDOF 4
