REMARK  3 active torsions:
REMARK  status: ('A' for Active; 'I' for Inactive)
REMARK    1  A    between atoms: N_4  and  C_5 
REMARK    2  A    between atoms: C_14  and  C_15 
REMARK    3  A    between atoms: N_19  and  C_20 
ROOT
ATOM      1  C   UNL d   1       8.438   2.588 -15.096  0.00  0.00     0.086 A 
ATOM      2  C   UNL d   1       9.241   3.164 -16.122  0.00  0.00     0.037 A 
ATOM      3  C   UNL d   1       9.963   2.334 -17.020  0.00  0.00     0.069 A 
ATOM      4  C   UNL d   1       9.929   0.929 -16.841  0.00  0.00     0.058 A 
ATOM      5  C   UNL d   1       9.149   0.369 -15.807  0.00  0.00     0.036 A 
ATOM      6  C   UNL d   1       8.365   1.179 -14.962  0.00  0.00     0.156 A 
ATOM      7  F   UNL d   1       7.545   0.590 -14.049  0.00  0.00    -0.203 F 
ATOM      8  C   UNL d   1      10.712   0.022 -17.735  0.00  0.00     0.204 A 
ATOM      9  O   UNL d   1      10.633  -1.199 -17.645  0.00  0.00    -0.286 OA
ATOM     10  C   UNL d   1      11.579   0.678 -18.751  0.00  0.00     0.121 A 
ATOM     11  C   UNL d   1      11.509   2.025 -18.863  0.00  0.00     0.089 A 
ATOM     12  N   UNL d   1      10.714   2.885 -18.107  0.00  0.00    -0.303 N 
ENDROOT
BRANCH  12  13
ATOM     13  C   UNL d   1      10.693   4.249 -18.447  0.00  0.00     0.092 A 
ATOM     14  C   UNL d   1      11.909   4.982 -18.534  0.00  0.00     0.158 A 
ATOM     15  C   UNL d   1      11.894   6.330 -18.931  0.00  0.00     0.061 A 
ATOM     16  F   UNL d   1      13.092   4.392 -18.241  0.00  0.00    -0.203 F 
ATOM     17  C   UNL d   1      10.680   6.963 -19.256  0.00  0.00     0.142 A 
ATOM     18  C   UNL d   1       9.472   6.246 -19.155  0.00  0.00     0.031 A 
ATOM     19  F   UNL d   1      10.670   8.260 -19.653  0.00  0.00    -0.204 F 
ATOM     20  C   UNL d   1       9.481   4.891 -18.770  0.00  0.00     0.022 A 
ENDBRANCH  12  13
BRANCH  10  21
ATOM     21  C   UNL d   1      12.523  -0.068 -19.583  0.00  0.00     0.215 C 
ATOM     22  O   UNL d   1      12.931  -1.205 -19.359  0.00  0.00    -0.644 OA
ATOM     23  O   UNL d   1      12.905   0.603 -20.708  0.00  0.00    -0.644 OA
ENDBRANCH  10  21
BRANCH   1  24
ATOM     24  N   UNL d   1       7.686   3.411 -14.250  0.00  0.00    -0.342 N 
ATOM     25  C   UNL d   1       8.238   4.577 -13.580  0.00  0.00     0.138 C 
ATOM     26  C   UNL d   1       7.795   4.511 -12.103  0.00  0.00     0.279 C 
ATOM     27  C   UNL d   1       8.306   5.707 -11.290  0.00  0.00     0.040 C 
ATOM     28  N   UNL d   1       6.334   4.457 -12.006  0.00  0.00     0.341 N 
ATOM     29  C   UNL d   1       5.839   3.248 -12.646  0.00  0.00     0.314 C 
ATOM     30  C   UNL d   1       6.254   3.243 -14.117  0.00  0.00     0.140 C 
ENDBRANCH   1  24
TORSDOF 3
