REMARK  7 active torsions:
REMARK  status: ('A' for Active; 'I' for Inactive)
REMARK    1  A    between atoms: C_2  and  C_3 
REMARK    2  A    between atoms: C_2  and  C_20 
REMARK    3  A    between atoms: C_3  and  N_4 
REMARK       I    between atoms: N_4  and  C_5 
REMARK       I    between atoms: C_5  and  N_7 
REMARK       I    between atoms: C_8  and  N_10 
REMARK    4  A    between atoms: N_10  and  C_11 
REMARK    5  A    between atoms: C_11  and  C_12 
REMARK    6  A    between atoms: C_12  and  C_13 
REMARK    7  A    between atoms: C_13  and  C_14 
ROOT
ATOM      1  N   UNL d   1       9.573   3.192 -13.439  0.00  0.00    -0.217 NA
ATOM      2  C   UNL d   1       8.824   4.277 -13.251  0.00  0.00     0.380 C 
ATOM      3  O   UNL d   1       7.892   4.564 -14.013  0.00  0.00    -0.242 OA
ATOM      4  N   UNL d   1       9.287   4.976 -12.152  0.00  0.00     0.001 NA
ATOM      5  C   UNL d   1       8.594   5.942 -11.633  0.00  0.00     0.768 C 
ATOM      6  N   UNL d   1       7.357   6.392 -12.036  0.00  0.00     0.062 N 
ATOM      7  N   UNL d   1       9.059   6.666 -10.553  0.00  0.00    -0.084 NA
ENDROOT
BRANCH   1   8
ATOM      8  C   UNL d   1       9.498   2.294 -14.585  0.00  0.00     0.131 C 
BRANCH   8   9
ATOM      9  C   UNL d   1      10.724   2.439 -15.523  0.00  0.00     0.025 C 
ATOM     10  C   UNL d   1      11.024   3.925 -15.850  0.00  0.00     0.002 C 
BRANCH   9  11
ATOM     11  C   UNL d   1      10.552   1.585 -16.813  0.00  0.00     0.002 C 
ATOM     12  C   UNL d   1      11.792   1.685 -17.734  0.00  0.00     0.000 C 
ATOM     13  C   UNL d   1      11.664   0.823 -18.990  0.00  0.00     0.000 C 
ATOM     14  C   UNL d   1      11.390  -0.639 -18.635  0.00  0.00     0.000 C 
ATOM     15  C   UNL d   1      10.144  -0.761 -17.755  0.00  0.00     0.000 C 
ATOM     16  C   UNL d   1      10.260   0.097 -16.491  0.00  0.00     0.000 C 
ENDBRANCH   9  11
ENDBRANCH   8   9
ENDBRANCH   1   8
BRANCH   7  17
ATOM     17  C   UNL d   1      10.345   6.462  -9.920  0.00  0.00     0.146 C 
BRANCH  17  18
ATOM     18  C   UNL d   1      10.725   7.588  -8.953  0.00  0.00     0.034 C 
BRANCH  18  19
ATOM     19  C   UNL d   1       9.780   7.697  -7.745  0.00  0.00     0.057 C 
BRANCH  19  20
ATOM     20  C   UNL d   1      10.447   8.276  -6.541  0.00  0.00     0.112 A 
ATOM     21  S   UNL d   1      11.079   7.271  -5.242  0.00  0.00    -0.036 SA
ATOM     22  C   UNL d   1      11.598   8.777  -4.501  0.00  0.00     0.203 A 
ATOM     23  N   UNL d   1      11.308   9.880  -5.194  0.00  0.00    -0.127 NA
ATOM     24  N   UNL d   1      12.252   8.786  -3.280  0.00  0.00    -0.070 NA
ATOM     25  N   UNL d   1      10.665   9.587  -6.388  0.00  0.00    -0.144 NA
ENDBRANCH  19  20
ENDBRANCH  18  19
ENDBRANCH  17  18
ENDBRANCH   7  17
TORSDOF 7
