REMARK  9 active torsions:
REMARK  status: ('A' for Active; 'I' for Inactive)
REMARK    1  A    between atoms: C_2  and  C_5 
REMARK    2  A    between atoms: C_7  and  N_8 
REMARK    3  A    between atoms: N_11  and  C_12 
REMARK    4  A    between atoms: C_12  and  C_13 
REMARK    5  A    between atoms: C_13  and  C_14 
REMARK    6  A    between atoms: C_14  and  C_15 
REMARK    7  A    between atoms: C_15  and  N_16 
REMARK    8  A    between atoms: C_19  and  C_20 
REMARK    9  A    between atoms: C_30  and  C_31 
ROOT
ATOM      1  N   UNL d   1      10.665   1.056 -17.333  0.00  0.00    -0.330 N 
ATOM      2  C   UNL d   1      11.688   1.491 -16.386  0.00  0.00     0.138 C 
ATOM      3  C   UNL d   1      11.409   2.925 -15.923  0.00  0.00     0.274 C 
ATOM      4  N   UNL d   1      10.073   3.017 -15.333  0.00  0.00     0.141 N 
ATOM      5  C   UNL d   1       9.077   2.674 -16.357  0.00  0.00     0.274 C 
ATOM      6  C   UNL d   1       9.292   1.230 -16.856  0.00  0.00     0.138 C 
ENDROOT
BRANCH   4   7
ATOM      7  C   UNL d   1       9.856   4.379 -14.855  0.00  0.00     0.251 C 
BRANCH   7   8
ATOM      8  C   UNL d   1       8.842   4.407 -13.693  0.00  0.00     0.037 C 
BRANCH   8   9
ATOM      9  C   UNL d   1       9.484   4.854 -12.368  0.00  0.00     0.027 C 
BRANCH   9  10
ATOM     10  C   UNL d   1       8.495   5.489 -11.379  0.00  0.00     0.111 C 
BRANCH  10  11
ATOM     11  N   UNL d   1       9.200   6.077 -10.229  0.00  0.00    -0.279 N 
ATOM     12  C   UNL d   1       9.222   5.474  -9.003  0.00  0.00     0.350 A 
ATOM     13  N   UNL d   1       9.898   6.120  -7.950  0.00  0.00    -0.197 NA
ATOM     14  O   UNL d   1       8.677   4.386  -8.834  0.00  0.00    -0.244 OA
ATOM     15  C   UNL d   1      10.468   7.257  -8.118  0.00  0.00     0.065 A 
ATOM     16  C   UNL d   1      10.457   7.944  -9.421  0.00  0.00     0.034 A 
ATOM     17  C   UNL d   1       9.822   7.323 -10.425  0.00  0.00     0.081 A 
BRANCH  15  18
ATOM     18  C   UNL d   1      11.208   7.940  -6.973  0.00  0.00     0.041 C 
ATOM     19  C   UNL d   1      11.074   9.469  -6.895  0.00  0.00     0.006 C 
ATOM     20  C   UNL d   1      10.958   9.345  -5.375  0.00  0.00     0.001 C 
ATOM     21  C   UNL d   1      10.534   7.885  -5.593  0.00  0.00     0.006 C 
ENDBRANCH  15  18
ENDBRANCH  10  11
ENDBRANCH   9  10
ENDBRANCH   8   9
ENDBRANCH   7   8
ENDBRANCH   4   7
BRANCH   1  22
ATOM     22  C   UNL d   1      10.978   0.529 -18.603  0.00  0.00     0.143 A 
ATOM     23  N   UNL d   1       9.988   0.443 -19.521  0.00  0.00    -0.214 NA
ATOM     24  C   UNL d   1      10.273  -0.062 -20.724  0.00  0.00     0.140 A 
ATOM     25  N   UNL d   1      11.495  -0.417 -21.133  0.00  0.00    -0.227 NA
ATOM     26  C   UNL d   1      12.501  -0.361 -20.238  0.00  0.00     0.157 A 
ATOM     27  C   UNL d   1      12.283   0.109 -18.928  0.00  0.00     0.060 A 
BRANCH  24  28
ATOM     28  C   UNL d   1       9.170  -0.012 -21.794  0.00  0.00     0.052 C 
ATOM     29  C   UNL d   1       7.781  -0.281 -21.175  0.00  0.00     0.008 C 
ATOM     30  C   UNL d   1       9.388  -1.112 -22.860  0.00  0.00     0.008 C 
ATOM     31  C   UNL d   1       9.179   1.371 -22.469  0.00  0.00     0.008 C 
ENDBRANCH  24  28
BRANCH  26  32
ATOM     32  C   UNL d   1      13.881  -0.818 -20.704  0.00  0.00     0.435 C 
ATOM     33  F   UNL d   1      14.782  -0.706 -19.731  0.00  0.00    -0.165 F 
ATOM     34  F   UNL d   1      13.847  -2.092 -21.094  0.00  0.00    -0.165 F 
ATOM     35  F   UNL d   1      14.281  -0.067 -21.729  0.00  0.00    -0.165 F 
ENDBRANCH  26  32
ENDBRANCH   1  22
TORSDOF 9
