REMARK  7 active torsions:
REMARK  status: ('A' for Active; 'I' for Inactive)
REMARK    1  A    between atoms: C_2  and  N_4 
REMARK    2  A    between atoms: N_4  and  C_5 
REMARK       I    between atoms: N_4  and  C_24 
REMARK    3  A    between atoms: C_5  and  C_6 
REMARK    4  A    between atoms: C_6  and  C_7 
REMARK    5  A    between atoms: C_7  and  N_8 
REMARK    6  A    between atoms: C_11  and  C_12 
REMARK    7  A    between atoms: C_24  and  C_26 
ROOT
ATOM      1  N   UNL d   1       7.671   3.626 -13.993  0.00  0.00     0.137 N 
ATOM      2  C   UNL d   1       9.048   3.386 -13.530  0.00  0.00     0.251 C 
ATOM      3  C   UNL d   1       9.634   4.653 -12.900  0.00  0.00     0.041 C 
ATOM      4  C   UNL d   1       8.760   5.165 -11.743  0.00  0.00     0.047 C 
ATOM      5  C   UNL d   1       7.297   5.292 -12.208  0.00  0.00     0.041 C 
ATOM      6  C   UNL d   1       6.804   3.995 -12.874  0.00  0.00     0.251 C 
ENDROOT
BRANCH   1   7
ATOM      7  C   UNL d   1       7.121   2.446 -14.646  0.00  0.00     0.252 C 
BRANCH   7   8
ATOM      8  C   UNL d   1       7.845   2.190 -15.985  0.00  0.00     0.060 C 
BRANCH   8   9
ATOM      9  C   UNL d   1       8.274   0.697 -16.092  0.00  0.00     0.106 C 
BRANCH   9  10
ATOM     10  N   UNL d   1       9.057   0.432 -17.327  0.00  0.00    -0.319 N 
ATOM     11  C   UNL d   1       8.527   0.207 -18.557  0.00  0.00     0.257 C 
ATOM     12  O   UNL d   1       9.188   0.141 -19.578  0.00  0.00    -0.267 OA
BRANCH  10  13
ATOM     13  C   UNL d   1      10.557   0.547 -17.108  0.00  0.00     0.084 C 
ATOM     14  C   UNL d   1      11.087   1.997 -17.264  0.00  0.00     0.024 C 
ATOM     15  C   UNL d   1      11.441  -0.423 -17.928  0.00  0.00     0.024 C 
ENDBRANCH  10  13
BRANCH  11  16
ATOM     16  C   UNL d   1       7.005   0.107 -18.740  0.00  0.00     0.056 C 
ATOM     17  C   UNL d   1       6.407   0.786 -19.824  0.00  0.00     0.005 C 
ATOM     18  C   UNL d   1       5.018   0.717 -20.050  0.00  0.00     0.000 C 
ATOM     19  C   UNL d   1       4.214  -0.023 -19.162  0.00  0.00     0.000 C 
ATOM     20  C   UNL d   1       4.813  -0.746 -18.101  0.00  0.00     0.000 C 
ATOM     21  C   UNL d   1       6.210  -0.738 -17.940  0.00  0.00     0.005 C 
ENDBRANCH  11  16
ENDBRANCH   9  10
ENDBRANCH   8   9
ENDBRANCH   7   8
ENDBRANCH   1   7
BRANCH   4  22
ATOM     22  C   UNL d   1       9.276   6.460 -11.196  0.00  0.00     0.087 A 
ATOM     23  C   UNL d   1       9.780   6.800  -9.917  0.00  0.00     0.041 A 
ATOM     24  C   UNL d   1      10.144   8.147  -9.913  0.00  0.00     0.129 A 
ATOM     25  C   UNL d   1       9.934   6.041  -8.734  0.00  0.00     0.006 A 
ATOM     26  O   UNL d   1       9.854   8.603 -11.193  0.00  0.00    -0.211 OA
ATOM     27  C   UNL d   1      10.672   8.799  -8.800  0.00  0.00     0.057 A 
ATOM     28  N   UNL d   1       9.327   7.545 -11.972  0.00  0.00    -0.131 NA
ATOM     29  C   UNL d   1      10.823   8.054  -7.615  0.00  0.00     0.142 A 
ATOM     30  F   UNL d   1      11.322   8.649  -6.503  0.00  0.00    -0.204 F 
ATOM     31  C   UNL d   1      10.462   6.682  -7.580  0.00  0.00     0.030 A 
ENDBRANCH   4  22
TORSDOF 7
