REMARK  2 active torsions:
REMARK  status: ('A' for Active; 'I' for Inactive)
REMARK    1  A    between atoms: C_4  and  N_5 
REMARK    2  A    between atoms: C_13  and  C_14 
ROOT
ATOM      1  O   UNL d   1      10.744   4.798 -13.622  0.00  0.00    -0.286 OA
ATOM      2  C   UNL d   1      10.113   3.858 -14.100  0.00  0.00     0.201 A 
ATOM      3  C   UNL d   1      10.748   2.904 -15.010  0.00  0.00     0.085 A 
ATOM      4  C   UNL d   1      10.059   1.860 -15.524  0.00  0.00     0.163 A 
ATOM      5  O   UNL d   1       8.748   1.614 -15.197  0.00  0.00    -0.291 OA
ATOM      6  C   UNL d   1       8.046   2.484 -14.393  0.00  0.00     0.105 A 
ATOM      7  C   UNL d   1       6.681   2.209 -14.123  0.00  0.00     0.023 A 
ATOM      8  C   UNL d   1       5.978   3.072 -13.246  0.00  0.00     0.002 A 
ATOM      9  C   UNL d   1       6.612   4.181 -12.650  0.00  0.00     0.000 A 
ATOM     10  C   UNL d   1       7.961   4.456 -12.933  0.00  0.00     0.005 A 
ATOM     11  C   UNL d   1       8.680   3.611 -13.805  0.00  0.00     0.062 A 
ENDROOT
BRANCH   4  12
ATOM     12  N   UNL d   1      10.581   0.924 -16.416  0.00  0.00    -0.324 N 
ATOM     13  C   UNL d   1       9.983  -0.388 -16.663  0.00  0.00     0.135 C 
ATOM     14  C   UNL d   1       9.712  -0.603 -18.162  0.00  0.00     0.167 C 
ATOM     15  O   UNL d   1      10.913  -0.407 -18.904  0.00  0.00    -0.350 OA
ATOM     16  C   UNL d   1      11.415   0.916 -18.736  0.00  0.00     0.167 C 
ATOM     17  C   UNL d   1      11.749   1.163 -17.258  0.00  0.00     0.135 C 
ENDBRANCH   4  12
BRANCH   7  18
ATOM     18  C   UNL d   1       6.012   1.031 -14.726  0.00  0.00     0.002 A 
ATOM     19  C   UNL d   1       6.248   0.657 -16.073  0.00  0.00     0.000 A 
ATOM     20  C   UNL d   1       5.592  -0.445 -16.651  0.00  0.00     0.000 A 
ATOM     21  C   UNL d   1       4.666  -1.188 -15.898  0.00  0.00     0.000 A 
ATOM     22  C   UNL d   1       4.403  -0.820 -14.567  0.00  0.00     0.000 A 
ATOM     23  C   UNL d   1       5.082   0.268 -13.982  0.00  0.00     0.000 A 
ENDBRANCH   7  18
TORSDOF 2
