REMARK  8 active torsions:
REMARK  status: ('A' for Active; 'I' for Inactive)
REMARK    1  A    between atoms: C_2  and  C_3 
REMARK    2  A    between atoms: C_3  and  N_4 
REMARK    3  A    between atoms: N_4  and  C_5 
REMARK    4  A    between atoms: N_4  and  C_25 
REMARK    5  A    between atoms: C_5  and  C_6 
REMARK    6  A    between atoms: C_6  and  C_7 
REMARK    7  A    between atoms: C_10  and  N_11 
REMARK       I    between atoms: N_11  and  C_12 
REMARK    8  A    between atoms: C_12  and  C_14 
ROOT
ATOM      1  C   UNL d   1       8.887   5.532 -11.970  0.00  0.00     0.133 C 
ATOM      2  O   UNL d   1       7.559   5.363 -12.423  0.00  0.00    -0.226 OA
ATOM      3  C   UNL d   1       9.147   6.910 -11.369  0.00  0.00     0.055 C 
ATOM      4  C   UNL d   1       8.901   6.302  -9.989  0.00  0.00     0.112 C 
ATOM      5  C   UNL d   1       9.192   4.933 -10.590  0.00  0.00     0.055 C 
ENDROOT
BRANCH   1   6
ATOM      6  C   UNL d   1       9.825   5.195 -13.110  0.00  0.00     0.066 C 
BRANCH   6   7
ATOM      7  C   UNL d   1       9.650   3.811 -13.749  0.00  0.00     0.253 C 
BRANCH   7   8
ATOM      8  N   UNL d   1      10.599   3.575 -14.862  0.00  0.00     0.135 N 
BRANCH   8   9
ATOM      9  C   UNL d   1      10.887   4.760 -15.687  0.00  0.00     0.250 C 
BRANCH   9  10
ATOM     10  C   UNL d   1      12.071   4.602 -16.663  0.00  0.00     0.035 C 
ATOM     11  C   UNL d   1      13.390   4.978 -15.994  0.00  0.00     0.002 C 
ENDBRANCH   9  10
ENDBRANCH   8   9
BRANCH   8  12
ATOM     12  C   UNL d   1      10.200   2.416 -15.677  0.00  0.00     0.225 C 
ATOM     13  C   UNL d   1       8.840   2.581 -16.415  0.00  0.00     0.067 C 
ATOM     14  C   UNL d   1       8.464   1.336 -17.117  0.00  0.00     0.025 A 
ATOM     15  C   UNL d   1       9.048   0.115 -16.878  0.00  0.00     0.063 A 
ATOM     16  S   UNL d   1       7.230   1.229 -18.338  0.00  0.00    -0.057 SA
ATOM     17  C   UNL d   1      10.112  -0.124 -15.849  0.00  0.00     0.048 C 
ATOM     18  N   UNL d   1       8.583  -0.891 -17.723  0.00  0.00    -0.230 NA
ATOM     19  C   UNL d   1      10.308   1.079 -14.900  0.00  0.00     0.040 C 
ATOM     20  C   UNL d   1       7.590  -0.476 -18.502  0.00  0.00     0.180 A 
ATOM     21  N   UNL d   1       6.884  -1.298 -19.358  0.00  0.00    -0.072 NA
ENDBRANCH   8  12
ENDBRANCH   7   8
ENDBRANCH   6   7
ENDBRANCH   1   6
BRANCH   4  22
ATOM     22  N   UNL d   1       9.830   6.708  -8.948  0.00  0.00    -0.236 NA
ATOM     23  C   UNL d   1      10.330   7.940  -8.768  0.00  0.00     0.275 C 
ATOM     24  O   UNL d   1      10.331   8.828  -9.621  0.00  0.00    -0.266 OA
BRANCH  23  25
ATOM     25  C   UNL d   1      10.818   8.242  -7.383  0.00  0.00     0.058 A 
ATOM     26  C   UNL d   1      10.916   7.248  -6.381  0.00  0.00     0.005 A 
ATOM     27  C   UNL d   1      11.366   7.609  -5.097  0.00  0.00     0.000 A 
ATOM     28  C   UNL d   1      11.714   8.950  -4.792  0.00  0.00     0.000 A 
ATOM     29  C   UNL d   1      11.470   6.620  -4.106  0.00  0.00     0.000 A 
ATOM     30  C   UNL d   1      11.603   9.935  -5.790  0.00  0.00     0.000 A 
ATOM     31  C   UNL d   1      12.173   9.279  -3.503  0.00  0.00     0.000 A 
ATOM     32  C   UNL d   1      11.171   9.566  -7.066  0.00  0.00     0.005 A 
ATOM     33  C   UNL d   1      12.281   8.280  -2.522  0.00  0.00     0.000 A 
ATOM     34  C   UNL d   1      11.931   6.950  -2.820  0.00  0.00     0.000 A 
ENDBRANCH  23  25
ENDBRANCH   4  22
TORSDOF 8
