REMARK  8 active torsions:
REMARK  status: ('A' for Active; 'I' for Inactive)
REMARK    1  A    between atoms: O_2  and  C_3 
REMARK    2  A    between atoms: C_8  and  N_9 
REMARK    3  A    between atoms: N_12  and  C_13 
REMARK    4  A    between atoms: C_13  and  C_14 
REMARK    5  A    between atoms: C_14  and  C_15 
REMARK    6  A    between atoms: C_15  and  C_16 
REMARK    7  A    between atoms: C_16  and  C_17 
REMARK    8  A    between atoms: C_19  and  C_20 
ROOT
ATOM      1  C   UNL d   1       8.687   5.239 -13.425  0.00  0.00     0.250 C 
ENDROOT
BRANCH   1   2
ATOM      2  N   UNL d   1       9.739   4.354 -13.930  0.00  0.00     0.141 N 
ATOM      3  C   UNL d   1       9.292   2.967 -13.795  0.00  0.00     0.274 C 
ATOM      4  C   UNL d   1      10.389   1.991 -14.268  0.00  0.00     0.137 C 
ATOM      5  N   UNL d   1      10.799   2.300 -15.624  0.00  0.00    -0.343 N 
ATOM      6  C   UNL d   1      11.132   3.692 -15.880  0.00  0.00     0.137 C 
ATOM      7  C   UNL d   1      10.007   4.609 -15.352  0.00  0.00     0.274 C 
BRANCH   5   8
ATOM      8  C   UNL d   1      10.737   1.356 -16.661  0.00  0.00     0.079 A 
ATOM      9  C   UNL d   1       9.573   0.578 -16.896  0.00  0.00     0.110 A 
ATOM     10  C   UNL d   1       9.582  -0.371 -17.951  0.00  0.00     0.026 A 
ATOM     11  C   UNL d   1      10.722  -0.536 -18.758  0.00  0.00     0.002 A 
ATOM     12  C   UNL d   1      11.868   0.241 -18.526  0.00  0.00     0.002 A 
ATOM     13  C   UNL d   1      11.865   1.192 -17.487  0.00  0.00     0.019 A 
BRANCH   9  14
ATOM     14  O   UNL d   1       8.481   0.800 -16.083  0.00  0.00    -0.327 OA
ATOM     15  C   UNL d   1       7.225   0.273 -16.473  0.00  0.00     0.181 C 
ENDBRANCH   9  14
ENDBRANCH   5   8
ENDBRANCH   1   2
BRANCH   1  16
ATOM     16  C   UNL d   1       9.284   6.495 -12.769  0.00  0.00     0.036 C 
BRANCH  16  17
ATOM     17  C   UNL d   1       9.486   6.338 -11.254  0.00  0.00     0.009 C 
BRANCH  17  18
ATOM     18  C   UNL d   1       9.835   7.660 -10.543  0.00  0.00     0.054 C 
BRANCH  18  19
ATOM     19  C   UNL d   1      10.031   7.517  -9.067  0.00  0.00     0.104 A 
ATOM     20  O   UNL d   1       9.238   6.626  -8.417  0.00  0.00    -0.215 OA
ATOM     21  N   UNL d   1       9.571   6.644  -7.062  0.00  0.00    -0.127 NA
ATOM     22  C   UNL d   1      10.522   7.550  -6.926  0.00  0.00     0.110 A 
ATOM     23  C   UNL d   1      10.854   8.146  -8.175  0.00  0.00     0.044 A 
BRANCH  22  24
ATOM     24  C   UNL d   1      11.064   7.838  -5.599  0.00  0.00     0.020 A 
ATOM     25  C   UNL d   1      11.215   9.169  -5.161  0.00  0.00     0.002 A 
ATOM     26  C   UNL d   1      11.727   9.429  -3.873  0.00  0.00     0.000 A 
ATOM     27  C   UNL d   1      12.122   8.376  -3.028  0.00  0.00     0.000 A 
ATOM     28  C   UNL d   1      11.979   7.046  -3.462  0.00  0.00     0.000 A 
ATOM     29  C   UNL d   1      11.459   6.788  -4.744  0.00  0.00     0.002 A 
ENDBRANCH  22  24
ENDBRANCH  18  19
ENDBRANCH  17  18
ENDBRANCH  16  17
ENDBRANCH   1  16
TORSDOF 8
