REMARK  6 active torsions:
REMARK  status: ('A' for Active; 'I' for Inactive)
REMARK    1  A    between atoms: N_11  and  C_12 
REMARK    2  A    between atoms: C_12  and  C_13 
REMARK    3  A    between atoms: C_13  and  C_14 
REMARK    4  A    between atoms: C_14  and  C_15 
REMARK    5  A    between atoms: C_15  and  N_16 
REMARK    6  A    between atoms: N_19  and  C_20 
ROOT
ATOM      1  N   UNL d   1       8.816   4.862 -12.732  0.00  0.00     0.141 N 
ATOM      2  C   UNL d   1       8.205   4.339 -11.513  0.00  0.00     0.274 C 
ATOM      3  C   UNL d   1       9.191   4.401 -10.340  0.00  0.00     0.137 C 
ATOM      4  N   UNL d   1       9.530   5.776 -10.165  0.00  0.00    -0.344 N 
ATOM      5  C   UNL d   1       9.937   6.484 -11.351  0.00  0.00     0.137 C 
ATOM      6  C   UNL d   1       8.976   6.281 -12.493  0.00  0.00     0.274 C 
ENDROOT
BRANCH   1   7
ATOM      7  C   UNL d   1       7.891   4.661 -13.839  0.00  0.00     0.251 C 
BRANCH   7   8
ATOM      8  C   UNL d   1       8.055   3.241 -14.438  0.00  0.00     0.037 C 
BRANCH   8   9
ATOM      9  C   UNL d   1       6.712   2.564 -14.764  0.00  0.00     0.027 C 
BRANCH   9  10
ATOM     10  C   UNL d   1       6.808   1.056 -15.042  0.00  0.00     0.112 C 
BRANCH  10  11
ATOM     11  N   UNL d   1       7.686   0.715 -16.176  0.00  0.00    -0.271 N 
ATOM     12  C   UNL d   1       8.997   0.441 -16.069  0.00  0.00     0.239 C 
ATOM     13  O   UNL d   1       9.663   0.337 -15.034  0.00  0.00    -0.272 OA
ATOM     14  C   UNL d   1       9.604   0.354 -17.454  0.00  0.00     0.088 C 
ATOM     15  C   UNL d   1       8.391   0.010 -18.287  0.00  0.00     0.088 C 
ATOM     16  C   UNL d   1      10.737  -0.613 -17.783  0.00  0.00     0.010 C 
ATOM     17  C   UNL d   1       8.654   0.391 -19.739  0.00  0.00     0.010 C 
ATOM     18  C   UNL d   1       7.279   0.634 -17.454  0.00  0.00     0.239 C 
ATOM     19  C   UNL d   1       9.852  -0.467 -20.221  0.00  0.00     0.001 C 
ATOM     20  C   UNL d   1      11.086  -0.416 -19.276  0.00  0.00     0.001 C 
ATOM     21  O   UNL d   1       6.185   0.963 -17.921  0.00  0.00    -0.272 OA
ENDBRANCH  10  11
ENDBRANCH   9  10
ENDBRANCH   8   9
ENDBRANCH   7   8
ENDBRANCH   1   7
BRANCH   4  22
ATOM     22  C   UNL d   1       9.605   6.399  -8.915  0.00  0.00     0.057 A 
ATOM     23  C   UNL d   1      10.593   7.365  -8.557  0.00  0.00     0.022 A 
ATOM     24  C   UNL d   1      10.407   8.002  -7.300  0.00  0.00     0.031 A 
ATOM     25  C   UNL d   1      11.771   7.868  -9.203  0.00  0.00     0.009 A 
ATOM     26  C   UNL d   1       9.334   7.699  -6.479  0.00  0.00     0.007 A 
ATOM     27  S   UNL d   1      11.663   9.165  -6.930  0.00  0.00    -0.086 SA
ATOM     28  C   UNL d   1       8.428   6.733  -6.850  0.00  0.00     0.002 A 
ATOM     29  C   UNL d   1       8.559   6.071  -8.054  0.00  0.00     0.017 A 
ATOM     30  C   UNL d   1      12.448   8.747  -8.407  0.00  0.00     0.035 A 
ENDBRANCH   4  22
TORSDOF 6
