REMARK  7 active torsions:
REMARK  status: ('A' for Active; 'I' for Inactive)
REMARK       I    between atoms: C_2  and  N_3 
REMARK    1  A    between atoms: C_2  and  C_22 
REMARK    2  A    between atoms: N_3  and  C_4 
REMARK    3  A    between atoms: C_4  and  C_5 
REMARK    4  A    between atoms: C_5  and  C_6 
REMARK    5  A    between atoms: C_6  and  C_7 
REMARK    6  A    between atoms: C_7  and  N_8 
REMARK    7  A    between atoms: N_11  and  C_12 
ROOT
ATOM      1  N   UNL d   1       8.433   4.387 -12.991  0.00  0.00     0.141 N 
ATOM      2  C   UNL d   1       7.051   4.003 -12.655  0.00  0.00     0.274 C 
ATOM      3  C   UNL d   1       6.308   3.520 -13.903  0.00  0.00     0.137 C 
ATOM      4  N   UNL d   1       7.080   2.483 -14.580  0.00  0.00    -0.344 N 
ATOM      5  C   UNL d   1       8.480   2.776 -14.839  0.00  0.00     0.137 C 
ATOM      6  C   UNL d   1       9.160   3.248 -13.555  0.00  0.00     0.274 C 
ENDROOT
BRANCH   1   7
ATOM      7  C   UNL d   1       9.132   4.806 -11.786  0.00  0.00     0.251 C 
BRANCH   7   8
ATOM      8  C   UNL d   1       8.762   6.244 -11.448  0.00  0.00     0.037 C 
BRANCH   8   9
ATOM      9  C   UNL d   1       9.543   6.771 -10.257  0.00  0.00     0.029 C 
BRANCH   9  10
ATOM     10  C   UNL d   1       9.091   6.206  -8.899  0.00  0.00     0.129 C 
BRANCH  10  11
ATOM     11  N   UNL d   1       9.789   6.763  -7.744  0.00  0.00    -0.234 NA
ATOM     12  C   UNL d   1      10.266   8.005  -7.568  0.00  0.00     0.281 C 
ATOM     13  O   UNL d   1      10.249   8.898  -8.414  0.00  0.00    -0.265 OA
BRANCH  12  14
ATOM     14  C   UNL d   1      10.800   8.338  -6.237  0.00  0.00     0.087 A 
ATOM     15  S   UNL d   1      11.288   7.050  -5.157  0.00  0.00    -0.076 SA
ATOM     16  C   UNL d   1      11.795   8.225  -3.986  0.00  0.00     0.059 A 
ATOM     17  C   UNL d   1      11.591   9.514  -4.378  0.00  0.00     0.013 A 
ATOM     18  I   UNL d   1      12.509   7.642  -2.117  0.00  0.00    -0.036 I 
ATOM     19  C   UNL d   1      11.038   9.573  -5.689  0.00  0.00     0.012 A 
ENDBRANCH  12  14
ENDBRANCH  10  11
ENDBRANCH   9  10
ENDBRANCH   8   9
ENDBRANCH   7   8
ENDBRANCH   1   7
BRANCH   4  20
ATOM     20  C   UNL d   1       6.500   1.252 -14.968  0.00  0.00     0.068 A 
ATOM     21  C   UNL d   1       6.654   0.716 -16.278  0.00  0.00     0.084 A 
ATOM     22  C   UNL d   1       6.024  -0.505 -16.612  0.00  0.00     0.070 A 
ATOM     23 CL   UNL d   1       7.517   1.556 -17.528  0.00  0.00    -0.080 Cl
ATOM     24  C   UNL d   1       5.239  -1.183 -15.667  0.00  0.00     0.012 A 
ATOM     25 CL   UNL d   1       6.195  -1.177 -18.192  0.00  0.00    -0.081 Cl
ATOM     26  C   UNL d   1       5.070  -0.644 -14.382  0.00  0.00     0.002 A 
ATOM     27  C   UNL d   1       5.698   0.566 -14.034  0.00  0.00     0.018 A 
ENDBRANCH   4  20
TORSDOF 7
