REMARK  9 active torsions:
REMARK  status: ('A' for Active; 'I' for Inactive)
REMARK       I    between atoms: C_2  and  N_3 
REMARK    1  A    between atoms: C_2  and  C_28 
REMARK    2  A    between atoms: N_3  and  C_4 
REMARK    3  A    between atoms: C_4  and  C_5 
REMARK    4  A    between atoms: C_5  and  C_6 
REMARK    5  A    between atoms: C_6  and  C_7 
REMARK    6  A    between atoms: C_7  and  N_8 
REMARK    7  A    between atoms: N_12  and  C_13 
REMARK    8  A    between atoms: C_13  and  C_14 
REMARK    9  A    between atoms: C_13  and  C_20 
ROOT
ATOM      1  N   UNL d   1       7.353   5.940 -12.710  0.00  0.00     0.139 N 
ATOM      2  C   UNL d   1       5.891   5.959 -12.950  0.00  0.00     0.252 C 
ATOM      3  C   UNL d   1       5.300   4.723 -13.654  0.00  0.00     0.071 C 
ATOM      4  C   UNL d   1       5.998   3.412 -13.380  0.00  0.00     0.253 C 
ATOM      5  N   UNL d   1       7.149   3.145 -14.252  0.00  0.00     0.145 N 
ATOM      6  C   UNL d   1       8.318   3.927 -13.792  0.00  0.00     0.286 C 
ATOM      7  C   UNL d   1       8.195   5.440 -13.784  0.00  0.00     0.285 C 
ENDROOT
BRANCH   1   8
ATOM      8  C   UNL d   1       7.775   7.251 -12.282  0.00  0.00     0.250 C 
BRANCH   8   9
ATOM      9  C   UNL d   1       9.055   7.279 -11.436  0.00  0.00     0.037 C 
BRANCH   9  10
ATOM     10  C   UNL d   1       9.552   8.692 -11.129  0.00  0.00     0.029 C 
BRANCH  10  11
ATOM     11  C   UNL d   1      10.914   8.708 -10.421  0.00  0.00     0.129 C 
BRANCH  11  12
ATOM     12  N   UNL d   1      10.759   8.578  -8.988  0.00  0.00    -0.234 NA
ATOM     13  C   UNL d   1      10.703   7.426  -8.315  0.00  0.00     0.275 C 
ATOM     14  O   UNL d   1      10.472   6.325  -8.814  0.00  0.00    -0.266 OA
BRANCH  13  15
ATOM     15  C   UNL d   1      11.082   7.524  -6.878  0.00  0.00     0.058 A 
ATOM     16  C   UNL d   1      11.093   8.743  -6.184  0.00  0.00     0.005 A 
ATOM     17  C   UNL d   1      11.456   8.747  -4.831  0.00  0.00     0.000 A 
ATOM     18  C   UNL d   1      11.844   7.582  -4.153  0.00  0.00     0.000 A 
ATOM     19  C   UNL d   1      11.452   9.952  -4.159  0.00  0.00     0.000 A 
ATOM     20  C   UNL d   1      11.870   6.406  -4.871  0.00  0.00     0.000 A 
ATOM     21  C   UNL d   1      12.250   7.582  -2.800  0.00  0.00     0.000 A 
ATOM     22  C   UNL d   1      11.487   6.382  -6.219  0.00  0.00     0.005 A 
ATOM     23  C   UNL d   1      12.254   8.809  -2.133  0.00  0.00     0.000 A 
ATOM     24  C   UNL d   1      11.823   9.959  -2.821  0.00  0.00     0.000 A 
ENDBRANCH  13  15
ENDBRANCH  11  12
ENDBRANCH  10  11
ENDBRANCH   9  10
ENDBRANCH   8   9
ENDBRANCH   1   8
BRANCH   5  25
ATOM     25  C   UNL d   1       7.472   1.701 -14.324  0.00  0.00     0.264 C 
BRANCH  25  26
ATOM     26  C   UNL d   1       8.685   1.401 -15.168  0.00  0.00     0.013 A 
ATOM     27  C   UNL d   1       9.592   0.454 -14.703  0.00  0.00    -0.002 A 
ATOM     28  C   UNL d   1      10.675   0.116 -15.500  0.00  0.00    -0.000 A 
ATOM     29  C   UNL d   1      10.900   0.682 -16.767  0.00  0.00    -0.000 A 
ATOM     30  C   UNL d   1       9.995   1.650 -17.228  0.00  0.00    -0.000 A 
ATOM     31  C   UNL d   1       8.902   2.012 -16.422  0.00  0.00    -0.002 A 
ENDBRANCH  25  26
BRANCH  25  32
ATOM     32  C   UNL d   1       6.327   0.769 -14.687  0.00  0.00     0.013 A 
ATOM     33  C   UNL d   1       5.394   0.368 -13.698  0.00  0.00    -0.002 A 
ATOM     34  C   UNL d   1       4.295  -0.431 -14.049  0.00  0.00    -0.000 A 
ATOM     35  C   UNL d   1       4.161  -0.904 -15.370  0.00  0.00    -0.000 A 
ATOM     36  C   UNL d   1       5.109  -0.545 -16.343  0.00  0.00    -0.000 A 
ATOM     37  C   UNL d   1       6.177   0.291 -16.003  0.00  0.00    -0.002 A 
ENDBRANCH  25  32
ENDBRANCH   5  25
TORSDOF 9
