REMARK  4 active torsions:
REMARK  status: ('A' for Active; 'I' for Inactive)
REMARK       I    between atoms: N_10  and  C_11 
REMARK    1  A    between atoms: C_11  and  C_13 
REMARK    2  A    between atoms: C_13  and  C_14 
REMARK    3  A    between atoms: N_17  and  C_18 
REMARK    4  A    between atoms: C_18  and  C_19 
ROOT
ATOM      1  C   UNL d   1       8.238   4.501 -13.237  0.00  0.00     0.013 C 
ATOM      2  C   UNL d   1       9.414   5.375 -13.658  0.00  0.00     0.036 C 
ATOM      3  C   UNL d   1       9.415   6.675 -12.843  0.00  0.00     0.251 C 
ATOM      4  N   UNL d   1       9.567   6.372 -11.426  0.00  0.00     0.141 N 
ATOM      5  C   UNL d   1       8.412   5.584 -10.983  0.00  0.00     0.251 C 
ATOM      6  C   UNL d   1       8.354   4.272 -11.735  0.00  0.00     0.036 C 
ENDROOT
BRANCH   1   7
ATOM      7  C   UNL d   1       8.275   3.200 -14.012  0.00  0.00     0.088 C 
BRANCH   7   8
ATOM      8  C   UNL d   1       6.933   2.428 -14.068  0.00  0.00     0.237 C 
ATOM      9  N   UNL d   1       6.862   1.399 -14.989  0.00  0.00    -0.301 N 
ATOM     10  C   UNL d   1       7.770   1.220 -16.120  0.00  0.00     0.093 A 
ATOM     11  C   UNL d   1       5.790   0.482 -15.010  0.00  0.00     0.058 A 
ATOM     12  C   UNL d   1       9.296   0.917 -15.817  0.00  0.00     0.025 C 
ATOM     13  C   UNL d   1       7.171   0.023 -16.914  0.00  0.00     0.051 A 
ATOM     14  C   UNL d   1       5.937  -0.330 -16.133  0.00  0.00    -0.004 A 
ATOM     15  C   UNL d   1       4.989  -1.348 -16.422  0.00  0.00    -0.003 A 
ATOM     16  C   UNL d   1       3.877  -1.486 -15.565  0.00  0.00    -0.000 A 
ATOM     17  C   UNL d   1       3.720  -0.667 -14.427  0.00  0.00     0.002 A 
ATOM     18  C   UNL d   1       4.686   0.310 -14.127  0.00  0.00     0.017 A 
ATOM     19  O   UNL d   1       6.052   2.745 -13.309  0.00  0.00    -0.272 OA
ENDBRANCH   7   8
ENDBRANCH   1   7
BRANCH   4  20
ATOM     20  C   UNL d   1       9.627   7.649 -10.716  0.00  0.00     0.277 C 
BRANCH  20  21
ATOM     21  C   UNL d   1      10.054   7.550  -9.248  0.00  0.00     0.011 A 
ATOM     22  C   UNL d   1      11.317   8.047  -8.859  0.00  0.00    -0.000 A 
ATOM     23  C   UNL d   1      11.717   7.975  -7.511  0.00  0.00     0.029 A 
ATOM     24  C   UNL d   1      10.889   7.359  -6.546  0.00  0.00     0.140 A 
ATOM     25  C   UNL d   1       9.632   6.862  -6.932  0.00  0.00     0.029 A 
ATOM     26  F   UNL d   1      11.281   7.273  -5.249  0.00  0.00    -0.204 F 
ATOM     27  C   UNL d   1       9.205   6.990  -8.265  0.00  0.00    -0.000 A 
ENDBRANCH  20  21
ENDBRANCH   4  20
TORSDOF 4
