REMARK  8 active torsions:
REMARK  status: ('A' for Active; 'I' for Inactive)
REMARK    1  A    between atoms: O_2  and  C_3 
REMARK    2  A    between atoms: C_3  and  C_4 
REMARK    3  A    between atoms: C_4  and  C_5 
REMARK       I    between atoms: C_5  and  N_7 
REMARK    4  A    between atoms: N_7  and  C_8 
REMARK    5  A    between atoms: C_11  and  C_12 
REMARK    6  A    between atoms: C_12  and  C_13 
REMARK    7  A    between atoms: C_13  and  N_14 
REMARK    8  A    between atoms: N_17  and  C_18 
ROOT
ATOM      1  N   UNL d   1       9.044   4.221 -13.300  0.00  0.00     0.141 N 
ATOM      2  C   UNL d   1      10.233   3.378 -13.120  0.00  0.00     0.274 C 
ATOM      3  C   UNL d   1      10.255   2.220 -14.124  0.00  0.00     0.138 C 
ATOM      4  N   UNL d   1      10.155   2.755 -15.461  0.00  0.00    -0.330 N 
ATOM      5  C   UNL d   1       9.088   3.709 -15.698  0.00  0.00     0.138 C 
ATOM      6  C   UNL d   1       9.115   4.818 -14.633  0.00  0.00     0.274 C 
ENDROOT
BRANCH   1   7
ATOM      7  C   UNL d   1       9.031   5.299 -12.316  0.00  0.00     0.250 C 
BRANCH   7   8
ATOM      8  C   UNL d   1       8.914   4.813 -10.851  0.00  0.00     0.035 C 
BRANCH   8   9
ATOM      9  C   UNL d   1       8.886   5.940  -9.807  0.00  0.00     0.002 C 
ATOM     10  C   UNL d   1       9.046   5.366  -8.390  0.00  0.00     0.002 C 
ATOM     11  C   UNL d   1       9.066   6.468  -7.322  0.00  0.00     0.024 C 
ATOM     12  C   UNL d   1      10.143   7.528  -7.622  0.00  0.00     0.106 C 
ATOM     13  C   UNL d   1       9.988   8.100  -9.024  0.00  0.00     0.024 C 
ATOM     14  C   UNL d   1       9.978   7.000 -10.072  0.00  0.00     0.002 C 
BRANCH  12  15
ATOM     15  N   UNL d   1      10.059   8.608  -6.647  0.00  0.00    -0.240 NA
ATOM     16  C   UNL d   1      11.103   9.341  -6.237  0.00  0.00     0.254 C 
ATOM     17  O   UNL d   1      12.184   9.359  -6.821  0.00  0.00    -0.271 OA
BRANCH  16  18
ATOM     18  C   UNL d   1      10.900  10.206  -4.996  0.00  0.00     0.122 C 
BRANCH  18  19
ATOM     19  C   UNL d   1      11.830   9.782  -3.849  0.00  0.00     0.152 C 
BRANCH  19  20
ATOM     20  O   UNL d   1      11.473   8.521  -3.276  0.00  0.00    -0.351 OA
ATOM     21  C   UNL d   1      11.999   7.351  -3.900  0.00  0.00     0.174 C 
ENDBRANCH  19  20
ENDBRANCH  18  19
ENDBRANCH  16  18
ENDBRANCH  12  15
ENDBRANCH   8   9
ENDBRANCH   7   8
ENDBRANCH   1   7
BRANCH   4  22
ATOM     22  C   UNL d   1      11.050   2.389 -16.458  0.00  0.00     0.138 A 
ATOM     23  C   UNL d   1      10.990   1.116 -17.042  0.00  0.00     0.036 A 
ATOM     24  C   UNL d   1      11.882   0.763 -18.036  0.00  0.00     0.094 A 
ATOM     25  C   UNL d   1      10.060  -0.016 -16.783  0.00  0.00     0.064 C 
ATOM     26  C   UNL d   1      12.859   1.681 -18.449  0.00  0.00     0.039 A 
ATOM     27  O   UNL d   1      11.691  -0.500 -18.505  0.00  0.00    -0.331 OA
ATOM     28  C   UNL d   1      12.859   2.944 -17.813  0.00  0.00     0.063 A 
ATOM     29  N   UNL d   1      11.974   3.295 -16.848  0.00  0.00    -0.233 NA
ATOM     30  C   UNL d   1      13.892   3.984 -18.177  0.00  0.00     0.052 C 
ATOM     31  C   UNL d   1      10.488  -0.997 -17.896  0.00  0.00     0.154 C 
ENDBRANCH   4  22
TORSDOF 8
