REMARK  3 active torsions:
REMARK  status: ('A' for Active; 'I' for Inactive)
REMARK    1  A    between atoms: C_2  and  C_3 
REMARK    2  A    between atoms: C_3  and  N_4 
REMARK    3  A    between atoms: C_7  and  N_8 
ROOT
ATOM      1  N   UNL d   1       9.015   3.876 -14.201  0.00  0.00    -0.282 N 
ATOM      2  C   UNL d   1      10.118   4.164 -14.966  0.00  0.00     0.332 A 
ATOM      3  O   UNL d   1      11.017   4.958 -14.691  0.00  0.00    -0.246 OA
ATOM      4  N   UNL d   1      10.072   3.396 -16.073  0.00  0.00    -0.278 N 
ATOM      5  C   UNL d   1      11.011   3.427 -17.182  0.00  0.00     0.135 C 
ATOM      6  C   UNL d   1       8.963   2.544 -16.000  0.00  0.00     0.081 A 
ATOM      7  C   UNL d   1       8.489   1.586 -16.906  0.00  0.00     0.030 A 
ATOM      8  C   UNL d   1       7.308   0.890 -16.551  0.00  0.00     0.059 A 
ATOM      9 CL   UNL d   1       6.654  -0.287 -17.627  0.00  0.00    -0.082 Cl
ATOM     10  C   UNL d   1       6.651   1.165 -15.327  0.00  0.00     0.013 A 
ATOM     11  C   UNL d   1       7.136   2.156 -14.442  0.00  0.00     0.020 A 
ATOM     12  C   UNL d   1       8.311   2.827 -14.826  0.00  0.00     0.080 A 
ENDROOT
BRANCH   1  13
ATOM     13  C   UNL d   1       8.640   4.461 -12.912  0.00  0.00     0.094 C 
ATOM     14  C   UNL d   1       8.621   6.005 -12.926  0.00  0.00     0.058 C 
ATOM     15  C   UNL d   1       8.389   6.588 -11.529  0.00  0.00     0.252 C 
ATOM     16  N   UNL d   1       9.413   6.120 -10.597  0.00  0.00     0.137 N 
ATOM     17  C   UNL d   1       9.304   4.670 -10.478  0.00  0.00     0.252 C 
ATOM     18  C   UNL d   1       9.598   4.009 -11.827  0.00  0.00     0.058 C 
BRANCH  16  19
ATOM     19  C   UNL d   1       9.175   6.772  -9.307  0.00  0.00     0.250 C 
BRANCH  19  20
ATOM     20  C   UNL d   1      10.306   6.540  -8.291  0.00  0.00     0.035 C 
ATOM     21  C   UNL d   1       9.997   7.139  -6.916  0.00  0.00     0.002 C 
ENDBRANCH  19  20
ENDBRANCH  16  19
ENDBRANCH   1  13
TORSDOF 3
