REMARK  5 active torsions:
REMARK  status: ('A' for Active; 'I' for Inactive)
REMARK    1  A    between atoms: C_2  and  C_14 
REMARK    2  A    between atoms: N_3  and  O_4 
REMARK    3  A    between atoms: O_4  and  C_5 
REMARK       I    between atoms: C_5  and  N_7 
REMARK    4  A    between atoms: N_7  and  C_8 
REMARK    5  A    between atoms: C_18  and  C_19 
ROOT
ATOM      1  C   UNL d   1       6.425   5.850 -12.412  0.00  0.00     0.054 C 
ATOM      2  C   UNL d   1       7.494   4.768 -12.282  0.00  0.00     0.086 C 
ATOM      3  N   UNL d   1       8.426   4.793 -11.415  0.00  0.00    -0.126 NA
ENDROOT
BRANCH   2   4
ATOM      4  C   UNL d   1       7.421   3.660 -13.259  0.00  0.00     0.016 A 
ATOM      5  C   UNL d   1       8.552   3.313 -14.036  0.00  0.00     0.002 A 
ATOM      6  C   UNL d   1       8.520   2.223 -14.941  0.00  0.00     0.006 A 
ATOM      7  C   UNL d   1       7.330   1.471 -15.036  0.00  0.00     0.001 A 
ATOM      8  C   UNL d   1       6.216   1.784 -14.241  0.00  0.00     0.000 A 
ATOM      9  C   UNL d   1       6.250   2.889 -13.373  0.00  0.00     0.001 A 
BRANCH   6  10
ATOM     10  C   UNL d   1       9.674   1.860 -15.771  0.00  0.00     0.029 A 
ATOM     11  S   UNL d   1      11.069   2.911 -15.848  0.00  0.00    -0.086 SA
ATOM     12  C   UNL d   1      11.865   1.838 -16.964  0.00  0.00     0.035 A 
ATOM     13  C   UNL d   1      11.101   0.739 -17.245  0.00  0.00     0.007 A 
ATOM     14  C   UNL d   1       9.850   0.750 -16.563  0.00  0.00     0.007 A 
ENDBRANCH   6  10
ENDBRANCH   2   4
BRANCH   3  15
ATOM     15  O   UNL d   1       8.359   5.911 -10.561  0.00  0.00    -0.154 OA
BRANCH  15  16
ATOM     16  C   UNL d   1       9.151   5.791  -9.469  0.00  0.00     0.411 C 
ATOM     17  O   UNL d   1       9.819   4.795  -9.180  0.00  0.00    -0.234 OA
ATOM     18  N   UNL d   1       9.060   6.977  -8.755  0.00  0.00    -0.184 NA
BRANCH  18  19
ATOM     19  C   UNL d   1       9.829   7.413  -7.632  0.00  0.00     0.087 A 
ATOM     20  C   UNL d   1      10.742   6.584  -6.941  0.00  0.00     0.019 A 
ATOM     21  C   UNL d   1      11.450   7.047  -5.816  0.00  0.00     0.002 A 
ATOM     22  C   UNL d   1      11.295   8.375  -5.386  0.00  0.00     0.000 A 
ATOM     23  C   UNL d   1      10.405   9.218  -6.075  0.00  0.00     0.002 A 
ATOM     24  C   UNL d   1       9.671   8.743  -7.187  0.00  0.00     0.019 A 
ENDBRANCH  18  19
ENDBRANCH  15  16
ENDBRANCH   3  15
TORSDOF 5
