REMARK  6 active torsions:
REMARK  status: ('A' for Active; 'I' for Inactive)
REMARK    1  A    between atoms: N_10  and  C_11 
REMARK    2  A    between atoms: C_11  and  C_12 
REMARK    3  A    between atoms: C_12  and  C_13 
REMARK    4  A    between atoms: C_13  and  C_14 
REMARK    5  A    between atoms: C_14  and  N_15 
REMARK    6  A    between atoms: N_18  and  C_19 
ROOT
ATOM      1  N   UNL d   1      14.595   4.499 -19.093  0.00  0.00    -0.191 NA
ATOM      2  C   UNL d   1      14.222   3.405 -19.142  0.00  0.00     0.104 C 
ATOM      3  C   UNL d   1      13.811   2.042 -19.220  0.00  0.00     0.104 A 
ATOM      4  C   UNL d   1      14.525   1.097 -19.872  0.00  0.00     0.015 A 
ATOM      5  C   UNL d   1      14.077  -0.287 -19.915  0.00  0.00     0.020 A 
ATOM      6  C   UNL d   1      12.930  -0.615 -19.289  0.00  0.00     0.086 A 
ATOM      7  N   UNL d   1      12.197   0.366 -18.619  0.00  0.00    -0.240 N 
ATOM      8  C   UNL d   1      11.058   0.214 -17.952  0.00  0.00     0.352 A 
ATOM      9  O   UNL d   1      10.409  -0.817 -17.782  0.00  0.00    -0.244 OA
ATOM     10  N   UNL d   1      10.787   1.448 -17.506  0.00  0.00    -0.201 N 
ATOM     11  N   UNL d   1      11.722   2.377 -17.851  0.00  0.00    -0.147 NA
ATOM     12  C   UNL d   1      12.573   1.698 -18.538  0.00  0.00     0.180 A 
ENDROOT
BRANCH  10  13
ATOM     13  C   UNL d   1       9.635   1.869 -16.715  0.00  0.00     0.133 C 
BRANCH  13  14
ATOM     14  C   UNL d   1       9.805   1.498 -15.233  0.00  0.00     0.029 C 
BRANCH  14  15
ATOM     15  C   UNL d   1       8.879   2.276 -14.289  0.00  0.00     0.037 C 
BRANCH  15  16
ATOM     16  C   UNL d   1       9.135   3.801 -14.324  0.00  0.00     0.251 C 
BRANCH  16  17
ATOM     17  N   UNL d   1       8.701   4.469 -13.101  0.00  0.00     0.141 N 
ATOM     18  C   UNL d   1       8.720   5.921 -13.322  0.00  0.00     0.274 C 
ATOM     19  C   UNL d   1       8.276   6.694 -12.069  0.00  0.00     0.137 C 
ATOM     20  N   UNL d   1       9.116   6.302 -10.953  0.00  0.00    -0.344 N 
ATOM     21  C   UNL d   1       9.216   4.876 -10.725  0.00  0.00     0.137 C 
ATOM     22  C   UNL d   1       9.652   4.176 -12.023  0.00  0.00     0.274 C 
BRANCH  20  23
ATOM     23  C   UNL d   1       9.729   7.243 -10.114  0.00  0.00     0.057 A 
ATOM     24  C   UNL d   1       9.629   7.160  -8.702  0.00  0.00     0.022 A 
ATOM     25  C   UNL d   1      10.319   8.148  -7.931  0.00  0.00     0.031 A 
ATOM     26  C   UNL d   1       8.914   6.240  -7.856  0.00  0.00     0.009 A 
ATOM     27  C   UNL d   1      11.062   9.167  -8.524  0.00  0.00     0.007 A 
ATOM     28  S   UNL d   1      10.104   7.912  -6.221  0.00  0.00    -0.086 SA
ATOM     29  C   UNL d   1      11.154   9.218  -9.915  0.00  0.00     0.002 A 
ATOM     30  C   UNL d   1      10.439   8.303 -10.699  0.00  0.00     0.017 A 
ATOM     31  C   UNL d   1       9.075   6.562  -6.541  0.00  0.00     0.035 A 
ENDBRANCH  20  23
ENDBRANCH  16  17
ENDBRANCH  15  16
ENDBRANCH  14  15
ENDBRANCH  13  14
ENDBRANCH  10  13
TORSDOF 6
