REMARK  5 active torsions:
REMARK  status: ('A' for Active; 'I' for Inactive)
REMARK    1  A    between atoms: C_2  and  C_3 
REMARK    2  A    between atoms: C_3  and  O_4 
REMARK    3  A    between atoms: C_3  and  C_11 
REMARK    4  A    between atoms: O_4  and  C_5 
REMARK    5  A    between atoms: C_16  and  N_17 
ROOT
ATOM      1  C   UNL d   1       9.704   4.649 -13.292  0.00  0.00     0.203 A 
ATOM      2  N   UNL d   1       9.175   3.431 -13.329  0.00  0.00    -0.039 NA
ATOM      3  C   UNL d   1       9.675   2.698 -14.311  0.00  0.00     0.785 A 
ATOM      4  N   UNL d   1       9.091   1.498 -14.484  0.00  0.00     0.063 N 
ATOM      5  N   UNL d   1      10.626   3.022 -15.190  0.00  0.00     0.134 NA
ATOM      6  C   UNL d   1      11.088   4.263 -15.027  0.00  0.00     0.744 A 
ATOM      7  N   UNL d   1      10.662   5.132 -14.104  0.00  0.00    -0.043 NA
ENDROOT
BRANCH   1   8
ATOM      8  C   UNL d   1       9.170   5.643 -12.273  0.00  0.00     0.180 C 
BRANCH   8   9
ATOM      9  C   UNL d   1       7.782   6.231 -12.631  0.00  0.00     0.038 C 
ATOM     10  C   UNL d   1       6.636   5.205 -12.708  0.00  0.00     0.003 C 
ENDBRANCH   8   9
BRANCH   8  11
ATOM     11  O   UNL d   1       9.230   5.157 -10.931  0.00  0.00    -0.326 OA
BRANCH  11  12
ATOM     12  C   UNL d   1       9.478   6.053  -9.907  0.00  0.00     0.095 A 
ATOM     13  C   UNL d   1       9.381   5.574  -8.570  0.00  0.00     0.024 A 
ATOM     14  C   UNL d   1       9.698   6.412  -7.480  0.00  0.00     0.002 A 
ATOM     15  C   UNL d   1      10.126   7.736  -7.694  0.00  0.00     0.000 A 
ATOM     16  C   UNL d   1      10.207   8.224  -9.017  0.00  0.00     0.002 A 
ATOM     17  C   UNL d   1       9.865   7.404 -10.107  0.00  0.00     0.024 A 
ENDBRANCH  11  12
ENDBRANCH   8  11
ENDBRANCH   1   8
BRANCH   6  18
ATOM     18  N   UNL d   1      12.105   4.682 -15.888  0.00  0.00    -0.178 N 
ATOM     19  C   UNL d   1      12.840   3.764 -16.771  0.00  0.00     0.155 C 
ATOM     20  C   UNL d   1      12.781   4.245 -18.227  0.00  0.00     0.275 C 
ATOM     21  N   UNL d   1      13.344   5.590 -18.327  0.00  0.00     0.143 N 
ATOM     22  C   UNL d   1      12.531   6.499 -17.519  0.00  0.00     0.275 C 
ATOM     23  C   UNL d   1      13.318   6.017 -19.721  0.00  0.00     0.286 C 
ATOM     24  C   UNL d   1      12.567   6.071 -16.038  0.00  0.00     0.155 C 
ENDBRANCH   6  18
TORSDOF 5
