REMARK  4 active torsions:
REMARK  status: ('A' for Active; 'I' for Inactive)
REMARK    1  A    between atoms: C_2  and  O_3 
REMARK    2  A    between atoms: C_2  and  C_12 
REMARK    3  A    between atoms: O_3  and  C_4 
REMARK    4  A    between atoms: C_17  and  N_18 
ROOT
ATOM      1  C   UNL d   1      10.463   7.218  -9.441  0.00  0.00     0.188 C 
ATOM      2  N   UNL d   1      11.638   7.518  -9.991  0.00  0.00    -0.196 NA
ATOM      3  C   UNL d   1      12.530   7.995  -9.148  0.00  0.00     0.256 C 
ATOM      4  N   UNL d   1      13.827   7.993  -9.623  0.00  0.00    -0.059 NA
ATOM      5  N   UNL d   1      12.343   8.300  -7.889  0.00  0.00    -0.028 NA
ATOM      6  C   UNL d   1      11.145   7.915  -7.452  0.00  0.00     0.731 C 
ATOM      7  N   UNL d   1      10.163   7.340  -8.151  0.00  0.00    -0.044 NA
ENDROOT
BRANCH   1   8
ATOM      8  C   UNL d   1       9.410   6.671 -10.426  0.00  0.00     0.180 C 
ATOM      9  C   UNL d   1       9.052   7.755 -11.463  0.00  0.00     0.041 C 
BRANCH   8  10
ATOM     10  O   UNL d   1       9.857   5.506 -11.136  0.00  0.00    -0.325 OA
BRANCH  10  11
ATOM     11  C   UNL d   1       9.001   4.877 -12.020  0.00  0.00     0.106 A 
ATOM     12  C   UNL d   1       9.522   4.311 -13.220  0.00  0.00     0.080 A 
ATOM     13  C   UNL d   1       8.682   3.687 -14.151  0.00  0.00     0.014 A 
ATOM     14 CL   UNL d   1      11.175   4.377 -13.667  0.00  0.00    -0.080 Cl
ATOM     15  C   UNL d   1       7.316   3.585 -13.909  0.00  0.00     0.012 A 
ATOM     16  C   UNL d   1       6.778   4.123 -12.736  0.00  0.00     0.060 A 
ATOM     17  C   UNL d   1       7.606   4.776 -11.787  0.00  0.00     0.036 A 
ATOM     18 CL   UNL d   1       5.100   3.929 -12.500  0.00  0.00    -0.082 Cl
ENDBRANCH  10  11
ENDBRANCH   8  10
ENDBRANCH   1   8
BRANCH   6  19
ATOM     19  N   UNL d   1      10.916   8.073  -6.099  0.00  0.00    -0.179 N 
ATOM     20  C   UNL d   1      10.905   9.387  -5.492  0.00  0.00     0.155 C 
ATOM     21  C   UNL d   1      11.838   9.419  -4.267  0.00  0.00     0.275 C 
ATOM     22  N   UNL d   1      11.495   8.358  -3.325  0.00  0.00     0.143 N 
ATOM     23  C   UNL d   1      11.626   7.053  -3.981  0.00  0.00     0.275 C 
ATOM     24  C   UNL d   1      12.355   8.433  -2.161  0.00  0.00     0.286 C 
ATOM     25  C   UNL d   1      10.679   6.955  -5.202  0.00  0.00     0.155 C 
ENDBRANCH   6  19
TORSDOF 4
