REMARK  9 active torsions:
REMARK  status: ('A' for Active; 'I' for Inactive)
REMARK    1  A    between atoms: C_2  and  C_3 
REMARK    2  A    between atoms: C_3  and  C_4 
REMARK    3  A    between atoms: C_4  and  O_5 
REMARK    4  A    between atoms: O_5  and  C_6 
REMARK    5  A    between atoms: C_9  and  O_10 
REMARK    6  A    between atoms: O_10  and  C_11 
REMARK    7  A    between atoms: C_11  and  C_12 
REMARK    8  A    between atoms: C_12  and  C_13 
REMARK    9  A    between atoms: C_13  and  N_14 
ROOT
ATOM      1  C   UNL d   1      10.588   7.733  -7.931  0.00  0.00     0.094 A 
ATOM      2  C   UNL d   1      10.000   6.525  -7.482  0.00  0.00     0.026 A 
ATOM      3  C   UNL d   1       9.358   5.663  -8.391  0.00  0.00     0.026 A 
ATOM      4  C   UNL d   1       9.267   5.995  -9.754  0.00  0.00     0.094 A 
ATOM      5  C   UNL d   1       9.858   7.202 -10.204  0.00  0.00     0.026 A 
ATOM      6  C   UNL d   1      10.517   8.052  -9.301  0.00  0.00     0.026 A 
ENDROOT
BRANCH   4   7
ATOM      7  O   UNL d   1       8.587   5.109 -10.557  0.00  0.00    -0.331 OA
BRANCH   7   8
ATOM      8  C   UNL d   1       8.098   5.577 -11.806  0.00  0.00     0.151 C 
BRANCH   8   9
ATOM      9  C   UNL d   1       9.143   5.399 -12.918  0.00  0.00     0.068 C 
BRANCH   9  10
ATOM     10  C   UNL d   1       9.429   3.923 -13.243  0.00  0.00     0.253 C 
BRANCH  10  11
ATOM     11  N   UNL d   1      10.286   3.719 -14.410  0.00  0.00     0.142 N 
ATOM     12  C   UNL d   1       9.616   4.112 -15.650  0.00  0.00     0.282 C 
ATOM     13  C   UNL d   1      10.479   3.848 -16.895  0.00  0.00     0.178 C 
ATOM     14  O   UNL d   1      10.842   2.473 -16.945  0.00  0.00    -0.350 OA
ATOM     15  C   UNL d   1      11.547   2.057 -15.778  0.00  0.00     0.178 C 
ATOM     16  C   UNL d   1      10.690   2.317 -14.522  0.00  0.00     0.282 C 
ENDBRANCH  10  11
ENDBRANCH   9  10
ENDBRANCH   8   9
ENDBRANCH   7   8
ENDBRANCH   4   7
BRANCH   1  17
ATOM     17  O   UNL d   1      11.229   8.639  -7.117  0.00  0.00    -0.331 OA
BRANCH  17  18
ATOM     18  C   UNL d   1      11.170   8.421  -5.718  0.00  0.00     0.149 C 
BRANCH  18  19
ATOM     19  C   UNL d   1      11.910   9.558  -5.001  0.00  0.00     0.033 C 
BRANCH  19  20
ATOM     20  C   UNL d   1      11.714   9.541  -3.477  0.00  0.00     0.003 C 
ATOM     21  C   UNL d   1      12.180   8.240  -2.811  0.00  0.00     0.000 C 
ENDBRANCH  19  20
ENDBRANCH  18  19
ENDBRANCH  17  18
ENDBRANCH   1  17
TORSDOF 9
