REMARK  6 active torsions:
REMARK  status: ('A' for Active; 'I' for Inactive)
REMARK    1  A    between atoms: C_2  and  C_3 
REMARK    2  A    between atoms: C_3  and  O_4 
REMARK    3  A    between atoms: O_4  and  C_5 
REMARK    4  A    between atoms: C_5  and  C_6 
REMARK    5  A    between atoms: C_6  and  N_7 
REMARK    6  A    between atoms: N_10  and  C_11 
ROOT
ATOM      1  C   UNL d   1       9.479   5.001 -13.196  0.00  0.00     0.141 C 
ATOM      2  N   UNL d   1      10.588   5.171 -13.841  0.00  0.00    -0.228 NA
ATOM      3  C   UNL d   1      10.981   4.525 -15.023  0.00  0.00     0.089 C 
ATOM      4  C   UNL d   1      11.737   5.284 -15.942  0.00  0.00     0.020 C 
ATOM      5  C   UNL d   1      12.191   4.709 -17.160  0.00  0.00     0.002 C 
ATOM      6  C   UNL d   1      11.832   3.377 -17.486  0.00  0.00     0.001 C 
ATOM      7  C   UNL d   1      11.096   2.621 -16.558  0.00  0.00     0.008 C 
ATOM      8  C   UNL d   1      10.777   3.172 -15.321  0.00  0.00     0.047 C 
ATOM      9  S   UNL d   1      10.143   2.142 -14.175  0.00  0.00    -0.085 SA
ATOM     10  C   UNL d   1       8.590   2.763 -14.072  0.00  0.00     0.032 C 
ATOM     11  C   UNL d   1       7.541   1.933 -14.446  0.00  0.00     0.007 C 
ATOM     12  C   UNL d   1       6.196   2.311 -14.115  0.00  0.00     0.001 C 
ATOM     13  C   UNL d   1       5.960   3.565 -13.510  0.00  0.00     0.000 C 
ATOM     14  C   UNL d   1       7.040   4.444 -13.287  0.00  0.00     0.004 C 
ATOM     15  C   UNL d   1       8.370   4.056 -13.584  0.00  0.00     0.040 C 
ENDROOT
BRANCH   1  16
ATOM     16  N   UNL d   1       9.209   5.709 -12.025  0.00  0.00    -0.330 N 
ATOM     17  C   UNL d   1       9.320   7.166 -11.919  0.00  0.00     0.138 C 
ATOM     18  C   UNL d   1      10.089   7.520 -10.647  0.00  0.00     0.274 C 
ATOM     19  N   UNL d   1       9.474   6.931  -9.457  0.00  0.00     0.144 N 
ATOM     20  C   UNL d   1       9.420   5.480  -9.591  0.00  0.00     0.274 C 
ATOM     21  C   UNL d   1       8.631   5.088 -10.831  0.00  0.00     0.138 C 
BRANCH  19  22
ATOM     22  C   UNL d   1      10.218   7.317  -8.288  0.00  0.00     0.282 C 
BRANCH  22  23
ATOM     23  C   UNL d   1       9.452   7.191  -6.959  0.00  0.00     0.178 C 
BRANCH  23  24
ATOM     24  O   UNL d   1      10.329   7.493  -5.883  0.00  0.00    -0.349 OA
BRANCH  24  25
ATOM     25  C   UNL d   1      10.806   8.834  -5.885  0.00  0.00     0.178 C 
BRANCH  25  26
ATOM     26  C   UNL d   1      11.878   8.996  -4.811  0.00  0.00     0.214 C 
ATOM     27  O   UNL d   1      11.317   9.600  -3.669  0.00  0.00    -0.218 OA
ENDBRANCH  25  26
ENDBRANCH  24  25
ENDBRANCH  23  24
ENDBRANCH  22  23
ENDBRANCH  19  22
ENDBRANCH   1  16
TORSDOF 6
