REMARK  9 active torsions:
REMARK  status: ('A' for Active; 'I' for Inactive)
REMARK    1  A    between atoms: C_5  and  O_6 
REMARK    2  A    between atoms: O_6  and  C_7 
REMARK    3  A    between atoms: C_7  and  C_8 
REMARK    4  A    between atoms: C_8  and  C_9 
REMARK    5  A    between atoms: C_9  and  N_10 
REMARK    6  A    between atoms: N_10  and  C_11 
REMARK    7  A    between atoms: C_11  and  C_12 
REMARK    8  A    between atoms: C_12  and  O_13 
REMARK    9  A    between atoms: O_13  and  C_14 
ROOT
ATOM      1  C   UNL d   1       9.909   6.741  -9.692  0.00  0.00     0.293 C 
ENDROOT
BRANCH   1   2
ATOM      2  C   UNL d   1       9.838   7.634  -8.457  0.00  0.00     0.071 C 
BRANCH   2   3
ATOM      3  C   UNL d   1      11.112   8.491  -8.361  0.00  0.00     0.151 C 
BRANCH   3   4
ATOM      4  O   UNL d   1      11.113   9.319  -7.213  0.00  0.00    -0.331 OA
BRANCH   4   5
ATOM      5  C   UNL d   1      11.363   8.740  -5.993  0.00  0.00     0.094 A 
ATOM      6  C   UNL d   1      11.541   9.624  -4.907  0.00  0.00     0.024 A 
ATOM      7  C   UNL d   1      11.828   9.150  -3.616  0.00  0.00    -0.002 A 
ATOM      8  C   UNL d   1      11.867   7.756  -3.403  0.00  0.00    -0.022 A 
ATOM      9  C   UNL d   1      12.148   7.189  -2.025  0.00  0.00     0.031 C 
ATOM     10  C   UNL d   1      11.654   6.863  -4.476  0.00  0.00    -0.002 A 
ATOM     11  C   UNL d   1      11.434   7.345  -5.775  0.00  0.00     0.024 A 
ENDBRANCH   4   5
ENDBRANCH   3   4
ENDBRANCH   2   3
ENDBRANCH   1   2
BRANCH   1  12
ATOM     12  N   UNL d   1       8.677   5.992  -9.774  0.00  0.00     0.342 N 
BRANCH  12  13
ATOM     13  C   UNL d   1       8.689   5.136 -10.932  0.00  0.00     0.323 C 
BRANCH  13  14
ATOM     14  C   UNL d   1       8.430   5.921 -12.245  0.00  0.00     0.187 C 
BRANCH  14  15
ATOM     15  O   UNL d   1       8.694   5.073 -13.352  0.00  0.00    -0.329 OA
BRANCH  15  16
ATOM     16  C   UNL d   1       7.850   4.008 -13.569  0.00  0.00     0.094 A 
ATOM     17  C   UNL d   1       8.301   2.980 -14.441  0.00  0.00     0.025 A 
ATOM     18  C   UNL d   1       7.497   1.842 -14.663  0.00  0.00     0.013 A 
ATOM     19  C   UNL d   1       6.258   1.716 -14.017  0.00  0.00     0.058 A 
ATOM     20  C   UNL d   1       5.799   2.752 -13.169  0.00  0.00     0.013 A 
ATOM     21 CL   UNL d   1       5.292   0.297 -14.215  0.00  0.00    -0.082 Cl
ATOM     22  C   UNL d   1       6.588   3.896 -12.955  0.00  0.00     0.025 A 
ENDBRANCH  15  16
ENDBRANCH  14  15
ENDBRANCH  13  14
ENDBRANCH  12  13
ENDBRANCH   1  12
TORSDOF 9
