REMARK  3 active torsions:
REMARK  status: ('A' for Active; 'I' for Inactive)
REMARK    1  A    between atoms: C_5  and  C_6 
REMARK    2  A    between atoms: C_6  and  C_7 
REMARK    3  A    between atoms: C_7  and  N_8 
ROOT
ATOM      1  N   UNL d   1       9.703   6.203 -10.550  0.00  0.00     0.137 N 
ATOM      2  C   UNL d   1       9.528   4.762 -10.713  0.00  0.00     0.250 C 
ATOM      3  C   UNL d   1       9.707   4.358 -12.190  0.00  0.00     0.036 C 
ATOM      4  C   UNL d   1       8.734   5.108 -13.126  0.00  0.00     0.008 C 
ATOM      5  C   UNL d   1       9.093   4.807 -14.608  0.00  0.00     0.005 C 
ATOM      6  C   UNL d   1       8.930   3.326 -14.984  0.00  0.00     0.026 C 
ATOM      7  C   UNL d   1       7.660   2.703 -14.431  0.00  0.00    -0.026 A 
ATOM      8  C   UNL d   1       7.299   1.412 -14.845  0.00  0.00    -0.005 A 
ATOM      9  C   UNL d   1       6.169   0.779 -14.283  0.00  0.00    -0.000 A 
ATOM     10  C   UNL d   1       5.427   1.441 -13.291  0.00  0.00    -0.000 A 
ATOM     11  C   UNL d   1       5.775   2.728 -12.880  0.00  0.00    -0.005 A 
ATOM     12  C   UNL d   1       6.883   3.373 -13.443  0.00  0.00    -0.026 A 
ATOM     13  C   UNL d   1       7.239   4.713 -12.875  0.00  0.00     0.026 C 
ATOM     14  C   UNL d   1       8.914   6.616 -12.838  0.00  0.00     0.036 C 
ATOM     15  C   UNL d   1       8.750   6.941 -11.372  0.00  0.00     0.250 C 
ENDROOT
BRANCH   1  16
ATOM     16  C   UNL d   1       9.461   6.581  -9.158  0.00  0.00     0.255 C 
BRANCH  16  17
ATOM     17  C   UNL d   1      10.805   6.605  -8.441  0.00  0.00     0.064 C 
BRANCH  17  18
ATOM     18  C   UNL d   1      10.844   7.510  -7.240  0.00  0.00     0.007 A 
ATOM     19  C   UNL d   1      11.056   7.018  -5.937  0.00  0.00     0.000 A 
ATOM     20  C   UNL d   1      11.122   7.914  -4.854  0.00  0.00     0.029 A 
ATOM     21  C   UNL d   1      10.980   9.295  -5.079  0.00  0.00     0.142 A 
ATOM     22  F   UNL d   1      10.947  10.153  -4.036  0.00  0.00    -0.204 F 
ATOM     23  C   UNL d   1      10.813   9.779  -6.384  0.00  0.00     0.059 A 
ATOM     24  C   UNL d   1      10.750   8.892  -7.468  0.00  0.00     0.138 A 
ATOM     25  F   UNL d   1      10.617   9.356  -8.733  0.00  0.00    -0.204 F 
ENDBRANCH  17  18
ENDBRANCH  16  17
ENDBRANCH   1  16
TORSDOF 3
