REMARK  6 active torsions:
REMARK  status: ('A' for Active; 'I' for Inactive)
REMARK    1  A    between atoms: C_2  and  C_3 
REMARK    2  A    between atoms: C_2  and  C_20 
REMARK    3  A    between atoms: C_3  and  C_4 
REMARK    4  A    between atoms: C_4  and  C_5 
REMARK    5  A    between atoms: C_5  and  N_6 
REMARK    6  A    between atoms: C_9  and  C_11 
ROOT
ATOM      1  N   UNL d   1      10.037   6.300  -9.852  0.00  0.00     0.137 N 
ATOM      2  C   UNL d   1       8.953   6.137  -8.893  0.00  0.00     0.253 C 
ATOM      3  C   UNL d   1       9.464   6.428  -7.490  0.00  0.00     0.070 C 
ATOM      4  C   UNL d   1      10.114   7.832  -7.392  0.00  0.00     0.149 C 
ATOM      5  O   UNL d   1       9.075   8.770  -7.638  0.00  0.00    -0.221 OA
ATOM      6  C   UNL d   1      11.185   7.988  -8.490  0.00  0.00     0.070 C 
ATOM      7  C   UNL d   1      10.604   7.650  -9.859  0.00  0.00     0.253 C 
ENDROOT
BRANCH   1   8
ATOM      8  C   UNL d   1       9.563   5.899 -11.166  0.00  0.00     0.251 C 
BRANCH   8   9
ATOM      9  C   UNL d   1       8.841   7.027 -11.966  0.00  0.00     0.043 C 
BRANCH   9  10
ATOM     10  C   UNL d   1       7.841   6.585 -13.033  0.00  0.00     0.071 C 
BRANCH  10  11
ATOM     11  C   UNL d   1       7.010   5.387 -12.600  0.00  0.00     0.177 C 
ATOM     12  O   UNL d   1       6.114   5.555 -11.782  0.00  0.00    -0.291 OA
BRANCH  11  13
ATOM     13  C   UNL d   1       7.294   4.096 -13.281  0.00  0.00     0.089 A 
ATOM     14  C   UNL d   1       8.611   3.717 -13.669  0.00  0.00     0.145 A 
ATOM     15  C   UNL d   1       8.826   2.464 -14.274  0.00  0.00     0.030 A 
ATOM     16  F   UNL d   1       9.677   4.535 -13.502  0.00  0.00    -0.204 F 
ATOM     17  C   UNL d   1       7.751   1.589 -14.537  0.00  0.00     0.005 A 
ATOM     18  C   UNL d   1       6.445   1.974 -14.189  0.00  0.00     0.030 A 
ATOM     19  C   UNL d   1       6.223   3.209 -13.544  0.00  0.00     0.145 A 
ATOM     20  F   UNL d   1       4.951   3.562 -13.221  0.00  0.00    -0.204 F 
ENDBRANCH  11  13
ENDBRANCH  10  11
ENDBRANCH   9  10
ENDBRANCH   8   9
ENDBRANCH   1   8
BRANCH   4  21
ATOM     21  C   UNL d   1      10.760   8.071  -6.028  0.00  0.00     0.005 A 
ATOM     22  C   UNL d   1      11.304   6.992  -5.281  0.00  0.00    -0.001 A 
ATOM     23  C   UNL d   1      11.876   7.213  -4.018  0.00  0.00     0.011 A 
ATOM     24  C   UNL d   1      11.947   8.511  -3.493  0.00  0.00     0.058 A 
ATOM     25  C   UNL d   1      11.436   9.592  -4.231  0.00  0.00     0.011 A 
ATOM     26 CL   UNL d   1      12.649   8.773  -1.942  0.00  0.00    -0.082 Cl
ATOM     27  C   UNL d   1      10.853   9.369  -5.498  0.00  0.00    -0.001 A 
ENDBRANCH   4  21
TORSDOF 6
