REMARK  5 active torsions:
REMARK  status: ('A' for Active; 'I' for Inactive)
REMARK    1  A    between atoms: O_2  and  C_3 
REMARK    2  A    between atoms: C_8  and  S_9 
REMARK    3  A    between atoms: S_9  and  C_11 
REMARK    4  A    between atoms: C_11  and  C_12 
REMARK    5  A    between atoms: C_17  and  O_18 
ROOT
ATOM      1  S   UNL d   1       8.431   5.563 -12.454  0.00  0.00     0.107 S 
ATOM      2  O   UNL d   1       7.029   5.089 -12.066  0.00  0.00    -0.248 OA
ENDROOT
BRANCH   1   3
ATOM      3  C   UNL d   1       9.152   6.309 -10.943  0.00  0.00     0.221 A 
ATOM      4  N   UNL d   1       9.846   7.454 -11.035  0.00  0.00    -0.218 NA
ATOM      5  C   UNL d   1      10.271   7.767  -9.761  0.00  0.00     0.101 A 
ATOM      6  C   UNL d   1      11.018   8.821  -9.209  0.00  0.00     0.023 A 
ATOM      7  C   UNL d   1       9.771   6.698  -8.960  0.00  0.00     0.103 A 
ATOM      8  C   UNL d   1      11.273   8.818  -7.824  0.00  0.00     0.026 A 
ATOM      9  C   UNL d   1      10.794   7.781  -6.998  0.00  0.00     0.096 A 
ATOM     10  C   UNL d   1      10.046   6.722  -7.576  0.00  0.00     0.045 A 
ATOM     11  N   UNL d   1       9.095   5.763  -9.730  0.00  0.00    -0.218 NA
BRANCH   9  12
ATOM     12  O   UNL d   1      11.089   7.879  -5.657  0.00  0.00    -0.328 OA
ATOM     13  C   UNL d   1      10.892   6.731  -4.851  0.00  0.00     0.181 C 
ENDBRANCH   9  12
ENDBRANCH   1   3
BRANCH   1  14
ATOM     14  C   UNL d   1       9.525   4.066 -12.434  0.00  0.00     0.145 C 
BRANCH  14  15
ATOM     15  C   UNL d   1      10.238   3.930 -13.768  0.00  0.00     0.071 A 
ATOM     16  C   UNL d   1       9.850   2.974 -14.739  0.00  0.00     0.015 A 
ATOM     17  C   UNL d   1      10.589   2.910 -15.946  0.00  0.00     0.089 A 
ATOM     18  C   UNL d   1       8.661   2.054 -14.493  0.00  0.00     0.034 C 
ATOM     19  C   UNL d   1      11.649   3.820 -16.145  0.00  0.00     0.019 A 
ATOM     20  C   UNL d   1      11.951   4.726 -15.116  0.00  0.00     0.096 A 
ATOM     21  C   UNL d   1      12.456   3.826 -17.430  0.00  0.00     0.035 C 
ATOM     22  N   UNL d   1      11.273   4.777 -13.952  0.00  0.00    -0.248 NA
BRANCH  17  23
ATOM     23  O   UNL d   1      10.279   2.008 -16.930  0.00  0.00    -0.329 OA
ATOM     24  C   UNL d   1      10.763   0.698 -16.674  0.00  0.00     0.181 C 
ENDBRANCH  17  23
ENDBRANCH  14  15
ENDBRANCH   1  14
TORSDOF 5
