REMARK  4 active torsions:
REMARK  status: ('A' for Active; 'I' for Inactive)
REMARK    1  A    between atoms: O_2  and  C_3 
REMARK    2  A    between atoms: C_14  and  C_15 
REMARK    3  A    between atoms: C_15  and  C_16 
REMARK    4  A    between atoms: C_16  and  C_17 
ROOT
ATOM      1  C   UNL d   1       8.506   5.785 -12.607  0.00  0.00     0.119 C 
ATOM      2  C   UNL d   1       8.539   7.156 -12.357  0.00  0.00     0.022 C 
ATOM      3  C   UNL d   1       9.266   7.666 -11.252  0.00  0.00    -0.020 C 
ATOM      4  C   UNL d   1       9.864   6.769 -10.326  0.00  0.00     0.007 C 
ATOM      5  C   UNL d   1       9.731   5.404 -10.541  0.00  0.00     0.027 C 
ATOM      6  C   UNL d   1       9.188   4.913 -11.743  0.00  0.00     0.153 C 
ATOM      7  O   UNL d   1       9.402   3.626 -12.097  0.00  0.00    -0.188 OA
ATOM      8  C   UNL d   1      10.694   7.323  -9.159  0.00  0.00     0.246 C 
ATOM      9  C   UNL d   1      10.440   6.553  -7.844  0.00  0.00     0.070 C 
ATOM     10  C   UNL d   1      11.081   7.212  -6.663  0.00  0.00     0.007 A 
ATOM     11  S   UNL d   1      11.472   6.406  -5.203  0.00  0.00    -0.096 SA
ATOM     12  C   UNL d   1      12.062   7.886  -4.481  0.00  0.00     0.007 A 
ATOM     13  C   UNL d   1      12.011   8.934  -5.372  0.00  0.00    -0.000 A 
ATOM     14  C   UNL d   1      11.461   8.517  -6.621  0.00  0.00     0.013 A 
ATOM     15  C   UNL d   1      11.361   9.271  -7.876  0.00  0.00     0.277 C 
ATOM     16  N   UNL d   1      10.424   8.732  -8.867  0.00  0.00     0.144 N 
ATOM     17  C   UNL d   1      10.594   9.496 -10.069  0.00  0.00     0.256 C 
ATOM     18  C   UNL d   1       9.396   9.165 -11.033  0.00  0.00     0.061 C 
ENDROOT
BRANCH  12  19
ATOM     19  C   UNL d   1      12.634   7.875  -3.109  0.00  0.00     0.034 C 
BRANCH  19  20
ATOM     20  C   UNL d   1      11.552   7.774  -2.049  0.00  0.00     0.023 C 
BRANCH  20  21
ATOM     21  C   UNL d   1      10.871   6.391  -1.946  0.00  0.00     0.095 C 
ATOM     22 CL   UNL d   1       9.455   6.366  -0.848  0.00  0.00    -0.114 Cl
ENDBRANCH  20  21
ENDBRANCH  19  20
ENDBRANCH  12  19
BRANCH   1  23
ATOM     23  O   UNL d   1       7.864   5.279 -13.709  0.00  0.00    -0.326 OA
ATOM     24  C   UNL d   1       6.698   4.505 -13.426  0.00  0.00     0.181 C 
ENDBRANCH   1  23
TORSDOF 4
