REMARK  7 active torsions:
REMARK  status: ('A' for Active; 'I' for Inactive)
REMARK    1  A    between atoms: C_4  and  C_5 
REMARK    2  A    between atoms: N_13  and  C_14 
REMARK    3  A    between atoms: C_14  and  C_15 
REMARK    4  A    between atoms: C_15  and  C_16 
REMARK    5  A    between atoms: C_16  and  S_17 
REMARK    6  A    between atoms: S_17  and  C_18 
REMARK    7  A    between atoms: C_21  and  C_22 
ROOT
ATOM      1  C   UNL d   1       9.672   6.640  -8.910  0.00  0.00     0.020 A 
ATOM      2  C   UNL d   1       8.869   5.513  -8.663  0.00  0.00     0.001 A 
ATOM      3  C   UNL d   1       8.289   4.794  -9.731  0.00  0.00    -0.004 A 
ATOM      4  C   UNL d   1       8.499   5.199 -11.065  0.00  0.00    -0.024 A 
ATOM      5  C   UNL d   1       9.275   6.343 -11.318  0.00  0.00    -0.024 A 
ATOM      6  C   UNL d   1       9.870   7.050 -10.245  0.00  0.00    -0.003 A 
ATOM      7  C   UNL d   1       9.482   6.808 -12.738  0.00  0.00     0.061 C 
ATOM      8  C   UNL d   1      10.223   5.743 -13.586  0.00  0.00     0.255 C 
ATOM      9  N   UNL d   1       9.319   4.781 -14.178  0.00  0.00     0.138 N 
ATOM     10  C   UNL d   1       8.878   3.809 -13.167  0.00  0.00     0.255 C 
ATOM     11  C   UNL d   1       7.856   4.406 -12.191  0.00  0.00     0.061 C 
ENDROOT
BRANCH   9  12
ATOM     12  C   UNL d   1      10.070   4.116 -15.227  0.00  0.00     0.251 C 
BRANCH  12  13
ATOM     13  C   UNL d   1       9.805   4.758 -16.604  0.00  0.00     0.047 C 
BRANCH  13  14
ATOM     14  C   UNL d   1      10.619   4.166 -17.772  0.00  0.00     0.067 C 
BRANCH  14  15
ATOM     15  S   UNL d   1      10.936   2.357 -17.732  0.00  0.00    -0.075 SA
BRANCH  15  16
ATOM     16  C   UNL d   1       9.332   1.740 -17.336  0.00  0.00     0.193 A 
ATOM     17  N   UNL d   1       9.117   0.860 -16.334  0.00  0.00    -0.292 N 
ATOM     18  C   UNL d   1       7.773   0.763 -16.364  0.00  0.00     0.143 A 
ATOM     19  C   UNL d   1      10.068   0.227 -15.426  0.00  0.00     0.134 C 
ATOM     20  N   UNL d   1       7.188   1.556 -17.249  0.00  0.00    -0.133 NA
ATOM     21  N   UNL d   1       8.215   2.171 -17.928  0.00  0.00    -0.122 NA
BRANCH  18  22
ATOM     22  C   UNL d   1       6.996  -0.139 -15.434  0.00  0.00     0.059 C 
ATOM     23  C   UNL d   1       6.250   0.660 -14.348  0.00  0.00     0.007 C 
ATOM     24  C   UNL d   1       5.399  -0.274 -13.470  0.00  0.00     0.000 C 
ATOM     25  C   UNL d   1       4.435  -1.139 -14.306  0.00  0.00     0.000 C 
ATOM     26  C   UNL d   1       5.209  -1.973 -15.337  0.00  0.00     0.000 C 
ATOM     27  C   UNL d   1       3.336  -0.336 -14.957  0.00  0.00     0.000 C 
ATOM     28  C   UNL d   1       6.061  -1.063 -16.251  0.00  0.00     0.007 C 
ENDBRANCH  18  22
ENDBRANCH  15  16
ENDBRANCH  14  15
ENDBRANCH  13  14
ENDBRANCH  12  13
ENDBRANCH   9  12
BRANCH   1  29
ATOM     29  C   UNL d   1      10.256   7.397  -7.800  0.00  0.00     0.110 A 
ATOM     30  C   UNL d   1      10.797   8.713  -7.812  0.00  0.00     0.044 A 
ATOM     31  C   UNL d   1      11.222   8.911  -6.528  0.00  0.00     0.105 A 
ATOM     32  C   UNL d   1      11.880  10.050  -5.836  0.00  0.00     0.061 C 
ATOM     33  O   UNL d   1      10.974   7.810  -5.777  0.00  0.00    -0.215 OA
ATOM     34  N   UNL d   1      10.361   6.854  -6.592  0.00  0.00    -0.127 NA
ENDBRANCH   1  29
TORSDOF 7
