REMARK  4 active torsions:
REMARK  status: ('A' for Active; 'I' for Inactive)
REMARK    1  A    between atoms: C_4  and  C_5 
REMARK    2  A    between atoms: C_7  and  C_8 
REMARK    3  A    between atoms: C_8  and  N_9 
REMARK    4  A    between atoms: N_12  and  C_13 
ROOT
ATOM      1  N   UNL d   1      10.607   8.300  -8.361  0.00  0.00     0.147 N 
ATOM      2  C   UNL d   1      11.895   8.793  -7.868  0.00  0.00     0.275 C 
ATOM      3  C   UNL d   1      11.716   9.543  -6.518  0.00  0.00     0.155 C 
ATOM      4  N   UNL d   1      11.092   8.672  -5.538  0.00  0.00    -0.179 N 
ATOM      5  C   UNL d   1       9.879   8.046  -6.004  0.00  0.00     0.155 C 
ATOM      6  C   UNL d   1      10.082   7.411  -7.345  0.00  0.00     0.275 C 
ENDROOT
BRANCH   1   7
ATOM      7  C   UNL d   1      10.793   7.578  -9.627  0.00  0.00     0.297 C 
BRANCH   7   8
ATOM      8  C   UNL d   1       9.842   6.432  -9.947  0.00  0.00     0.113 A 
ATOM      9  N   UNL d   1       9.450   6.097 -11.234  0.00  0.00    -0.228 NA
ATOM     10  C   UNL d   1       8.565   5.103 -11.174  0.00  0.00     0.162 A 
ATOM     11  N   UNL d   1       8.348   4.737  -9.923  0.00  0.00    -0.224 NA
ATOM     12  C   UNL d   1       9.165   5.512  -9.151  0.00  0.00     0.117 A 
BRANCH  10  13
ATOM     13  C   UNL d   1       7.943   4.422 -12.284  0.00  0.00     0.036 A 
ATOM     14  C   UNL d   1       8.762   3.882 -13.296  0.00  0.00     0.003 A 
ATOM     15  C   UNL d   1       8.154   3.191 -14.351  0.00  0.00     0.000 A 
ATOM     16  C   UNL d   1       6.757   3.034 -14.370  0.00  0.00     0.000 A 
ATOM     17  C   UNL d   1       5.952   3.555 -13.342  0.00  0.00     0.000 A 
ATOM     18  C   UNL d   1       6.546   4.239 -12.277  0.00  0.00     0.003 A 
ENDBRANCH  10  13
ENDBRANCH   7   8
ENDBRANCH   1   7
BRANCH   4  19
ATOM     19  C   UNL d   1      11.626   8.393  -4.296  0.00  0.00     0.727 A 
ATOM     20  N   UNL d   1      11.949   7.131  -4.037  0.00  0.00    -0.060 NA
ATOM     21  C   UNL d   1      12.487   6.881  -2.824  0.00  0.00     0.120 A 
ATOM     22  C   UNL d   1      12.649   7.908  -1.881  0.00  0.00     0.043 A 
ATOM     23  C   UNL d   1      12.227   9.172  -2.256  0.00  0.00     0.120 A 
ATOM     24  N   UNL d   1      11.717   9.432  -3.477  0.00  0.00    -0.060 NA
ENDBRANCH   4  19
TORSDOF 4
