REMARK  5 active torsions:
REMARK  status: ('A' for Active; 'I' for Inactive)
REMARK    1  A    between atoms: C_2  and  N_5 
REMARK    2  A    between atoms: N_5  and  C_6 
REMARK    3  A    between atoms: C_6  and  C_7 
REMARK    4  A    between atoms: C_7  and  C_9 
REMARK    5  A    between atoms: C_14  and  C_15 
ROOT
ATOM      1  C   UNL d   1      10.907   8.157  -7.350  0.00  0.00     0.010 A 
ATOM      2  C   UNL d   1      11.649   8.466  -8.504  0.00  0.00     0.000 A 
ATOM      3  C   UNL d   1      11.285   7.934  -9.741  0.00  0.00     0.027 A 
ATOM      4  C   UNL d   1      10.193   7.042  -9.855  0.00  0.00     0.129 A 
ATOM      5  O   UNL d   1       9.849   6.545 -11.069  0.00  0.00    -0.190 OA
ATOM      6  C   UNL d   1       9.463   6.694  -8.690  0.00  0.00     0.036 A 
ATOM      7  C   UNL d   1       9.803   7.260  -7.461  0.00  0.00    -0.002 A 
ENDROOT
BRANCH   1   8
ATOM      8  C   UNL d   1      11.312   8.770  -6.023  0.00  0.00     0.198 C 
ATOM      9  O   UNL d   1      10.537   9.882  -5.671  0.00  0.00    -0.216 OA
BRANCH   8  10
ATOM     10  C   UNL d   1      11.266   7.750  -4.887  0.00  0.00     0.157 C 
BRANCH  10  11
ATOM     11  N   UNL d   1      11.713   8.350  -3.611  0.00  0.00    -0.296 NA
BRANCH  11  12
ATOM     12  C   UNL d   1      11.947   7.436  -2.461  0.00  0.00     0.080 C 
ATOM     13  C   UNL d   1      10.704   6.607  -2.023  0.00  0.00     0.024 C 
ATOM     14  C   UNL d   1      12.586   8.293  -1.369  0.00  0.00     0.024 C 
ATOM     15  C   UNL d   1      12.940   6.379  -2.839  0.00  0.00     0.024 C 
ENDBRANCH  11  12
ENDBRANCH  10  11
ENDBRANCH   8  10
ENDBRANCH   1   8
BRANCH   6  16
ATOM     16  C   UNL d   1       8.281   5.740  -8.766  0.00  0.00     0.211 C 
ATOM     17  O   UNL d   1       8.662   4.386  -8.838  0.00  0.00    -0.215 OA
ENDBRANCH   6  16
TORSDOF 5
