REMARK  9 active torsions:
REMARK  status: ('A' for Active; 'I' for Inactive)
REMARK    1  A    between atoms: S_2  and  C_3 
REMARK    2  A    between atoms: C_8  and  O_9 
REMARK    3  A    between atoms: O_9  and  C_10 
REMARK    4  A    between atoms: C_10  and  C_11 
REMARK    5  A    between atoms: C_11  and  N_12 
REMARK    6  A    between atoms: C_15  and  C_16 
REMARK    7  A    between atoms: C_16  and  N_17 
REMARK    8  A    between atoms: N_17  and  S_18 
REMARK    9  A    between atoms: S_18  and  C_21 
ROOT
ATOM      1  N   UNL d   1       7.763   3.998 -12.894  0.00  0.00     0.140 N 
ATOM      2  C   UNL d   1       7.077   4.206 -11.627  0.00  0.00     0.250 C 
ATOM      3  C   UNL d   1       8.092   4.713 -10.591  0.00  0.00     0.037 C 
ATOM      4  C   UNL d   1       8.703   6.028 -11.038  0.00  0.00     0.029 C 
ATOM      5  C   UNL d   1       9.331   5.848 -12.427  0.00  0.00     0.037 C 
ATOM      6  C   UNL d   1       8.297   5.259 -13.404  0.00  0.00     0.250 C 
ENDROOT
BRANCH   4   7
ATOM      7  C   UNL d   1       9.715   6.469  -9.975  0.00  0.00     0.139 C 
BRANCH   7   8
ATOM      8  N   UNL d   1       9.966   7.876 -10.065  0.00  0.00    -0.185 NA
BRANCH   8   9
ATOM      9  S   UNL d   1      11.432   8.517  -9.453  0.00  0.00     0.281 S 
ATOM     10  O   UNL d   1      12.562   7.744  -9.979  0.00  0.00    -0.199 OA
ATOM     11  O   UNL d   1      11.341   9.953  -9.638  0.00  0.00    -0.199 OA
BRANCH   9  12
ATOM     12  C   UNL d   1      11.344   8.219  -7.707  0.00  0.00     0.106 A 
ATOM     13  C   UNL d   1      11.255   9.296  -6.821  0.00  0.00     0.024 A 
ATOM     14  C   UNL d   1      11.171   9.044  -5.441  0.00  0.00     0.059 A 
ATOM     15  C   UNL d   1      11.185   7.726  -4.943  0.00  0.00     0.011 A 
ATOM     16 CL   UNL d   1      11.051  10.341  -4.356  0.00  0.00    -0.082 Cl
ATOM     17  C   UNL d   1      11.286   6.658  -5.840  0.00  0.00     0.002 A 
ATOM     18  C   UNL d   1      11.370   6.894  -7.216  0.00  0.00     0.013 A 
ENDBRANCH   9  12
ENDBRANCH   8   9
ENDBRANCH   7   8
ENDBRANCH   4   7
BRANCH   1  19
ATOM     19  C   UNL d   1       6.827   3.379 -13.824  0.00  0.00     0.283 C 
BRANCH  19  20
ATOM     20  C   UNL d   1       7.592   2.405 -14.740  0.00  0.00     0.184 C 
BRANCH  20  21
ATOM     21  O   UNL d   1       6.792   1.225 -14.891  0.00  0.00    -0.328 OA
BRANCH  21  22
ATOM     22  C   UNL d   1       6.348   0.742 -16.113  0.00  0.00     0.100 A 
ATOM     23  C   UNL d   1       5.428  -0.339 -16.090  0.00  0.00     0.048 A 
ATOM     24  C   UNL d   1       4.920  -0.893 -17.292  0.00  0.00     0.008 A 
ATOM     25  C   UNL d   1       5.296  -0.352 -18.528  0.00  0.00     0.001 A 
ATOM     26  C   UNL d   1       6.203   0.732 -18.562  0.00  0.00     0.002 A 
ATOM     27  C   UNL d   1       6.738   1.256 -17.379  0.00  0.00     0.025 A 
BRANCH  23  28
ATOM     28  S   UNL d   1       4.889  -0.982 -14.533  0.00  0.00    -0.111 SA
ATOM     29  C   UNL d   1       3.087  -1.137 -14.647  0.00  0.00     0.074 C 
ENDBRANCH  23  28
ENDBRANCH  21  22
ENDBRANCH  20  21
ENDBRANCH  19  20
ENDBRANCH   1  19
TORSDOF 9
