REMARK  5 active torsions:
REMARK  status: ('A' for Active; 'I' for Inactive)
REMARK    1  A    between atoms: C_7  and  C_8 
REMARK    2  A    between atoms: C_8  and  C_9 
REMARK    3  A    between atoms: C_9  and  C_10 
REMARK    4  A    between atoms: C_10  and  N_11 
REMARK    5  A    between atoms: N_14  and  C_15 
ROOT
ATOM      1  N   UNL d   1       8.650   4.718 -11.828  0.00  0.00     0.141 N 
ATOM      2  C   UNL d   1       7.260   4.282 -12.070  0.00  0.00     0.274 C 
ATOM      3  C   UNL d   1       6.997   4.162 -13.582  0.00  0.00     0.137 C 
ATOM      4  N   UNL d   1       7.997   3.304 -14.203  0.00  0.00    -0.343 N 
ATOM      5  C   UNL d   1       9.377   3.692 -13.954  0.00  0.00     0.137 C 
ATOM      6  C   UNL d   1       9.601   3.791 -12.451  0.00  0.00     0.274 C 
ENDROOT
BRANCH   1   7
ATOM      7  C   UNL d   1       8.911   4.787 -10.393  0.00  0.00     0.251 C 
BRANCH   7   8
ATOM      8  C   UNL d   1       8.947   6.247  -9.926  0.00  0.00     0.040 C 
BRANCH   8   9
ATOM      9  C   UNL d   1      10.363   6.730  -9.572  0.00  0.00     0.030 C 
BRANCH   9  10
ATOM     10  C   UNL d   1      10.414   7.708  -8.447  0.00  0.00    -0.002 A 
ATOM     11  C   UNL d   1      10.913   7.481  -7.120  0.00  0.00     0.016 A 
ATOM     12  C   UNL d   1      11.469   6.383  -6.451  0.00  0.00     0.001 A 
ATOM     13  C   UNL d   1      10.811   8.668  -6.365  0.00  0.00     0.092 A 
ATOM     14  C   UNL d   1      11.852   6.435  -5.096  0.00  0.00     0.001 A 
ATOM     15  C   UNL d   1      11.741   7.620  -4.371  0.00  0.00     0.013 A 
ATOM     16  C   UNL d   1      11.212   8.743  -5.018  0.00  0.00     0.075 A 
ATOM     17 CL   UNL d   1      11.049  10.186  -4.130  0.00  0.00    -0.081 Cl
ATOM     18  N   UNL d   1      10.272   9.585  -7.235  0.00  0.00    -0.243 NA
ATOM     19  C   UNL d   1      10.011   9.014  -8.474  0.00  0.00     0.095 A 
ENDBRANCH   9  10
ENDBRANCH   8   9
ENDBRANCH   7   8
ENDBRANCH   1   7
BRANCH   4  20
ATOM     20  C   UNL d   1       7.662   2.249 -15.062  0.00  0.00     0.081 A 
ATOM     21  C   UNL d   1       8.348   2.053 -16.291  0.00  0.00     0.132 A 
ATOM     22  C   UNL d   1       8.005   0.967 -17.129  0.00  0.00     0.118 A 
ATOM     23  O   UNL d   1       9.328   2.953 -16.662  0.00  0.00    -0.325 OA
ATOM     24  C   UNL d   1       6.950   0.104 -16.765  0.00  0.00     0.026 A 
ATOM     25  O   UNL d   1       8.672   0.737 -18.312  0.00  0.00    -0.326 OA
ATOM     26  C   UNL d   1       6.257   0.309 -15.563  0.00  0.00     0.004 A 
ATOM     27  C   UNL d   1       6.612   1.370 -14.715  0.00  0.00     0.019 A 
ATOM     28  C   UNL d   1       9.910   1.435 -18.435  0.00  0.00     0.181 C 
ATOM     29  C   UNL d   1       9.712   2.902 -18.026  0.00  0.00     0.182 C 
ENDBRANCH   4  20
TORSDOF 5
