REMARK  7 active torsions:
REMARK  status: ('A' for Active; 'I' for Inactive)
REMARK    1  A    between atoms: O_2  and  C_3 
REMARK    2  A    between atoms: C_6  and  N_7 
REMARK    3  A    between atoms: N_7  and  C_8 
REMARK    4  A    between atoms: C_8  and  C_9 
REMARK    5  A    between atoms: C_9  and  N_10 
REMARK    6  A    between atoms: N_13  and  C_14 
REMARK    7  A    between atoms: C_14  and  C_15 
ROOT
ATOM      1  N   UNL d   1       9.442   5.497 -11.413  0.00  0.00     0.143 N 
ATOM      2  C   UNL d   1       8.769   6.798 -11.480  0.00  0.00     0.286 C 
ATOM      3  C   UNL d   1       9.578   7.931 -10.804  0.00  0.00     0.286 C 
ATOM      4  N   UNL d   1       9.857   7.617  -9.393  0.00  0.00     0.147 N 
ATOM      5  C   UNL d   1      10.505   6.318  -9.353  0.00  0.00     0.286 C 
ATOM      6  C   UNL d   1       9.689   5.217 -10.001  0.00  0.00     0.286 C 
ENDROOT
BRANCH   1   7
ATOM      7  C   UNL d   1       8.658   4.418 -12.002  0.00  0.00     0.277 C 
BRANCH   7   8
ATOM      8  C   UNL d   1       8.361   4.632 -13.485  0.00  0.00     0.161 C 
BRANCH   8   9
ATOM      9  N   UNL d   1       7.639   3.508 -14.048  0.00  0.00    -0.269 NA
BRANCH   9  10
ATOM     10  C   UNL d   1       8.315   2.474 -14.710  0.00  0.00     0.076 A 
ATOM     11  C   UNL d   1       7.548   1.443 -15.282  0.00  0.00     0.021 A 
ATOM     12  C   UNL d   1       8.177   0.386 -15.975  0.00  0.00     0.026 A 
ATOM     13  C   UNL d   1       9.583   0.358 -16.113  0.00  0.00     0.094 A 
ATOM     14  C   UNL d   1      10.345   1.383 -15.525  0.00  0.00     0.026 A 
ATOM     15  C   UNL d   1       9.721   2.433 -14.832  0.00  0.00     0.021 A 
BRANCH  13  16
ATOM     16  O   UNL d   1      10.182  -0.668 -16.811  0.00  0.00    -0.328 OA
ATOM     17  C   UNL d   1      11.270  -0.299 -17.657  0.00  0.00     0.181 C 
ENDBRANCH  13  16
ENDBRANCH   9  10
ENDBRANCH   8   9
ENDBRANCH   7   8
ENDBRANCH   1   7
BRANCH   4  18
ATOM     18  C   UNL d   1      10.637   8.674  -8.734  0.00  0.00     0.296 C 
BRANCH  18  19
ATOM     19  C   UNL d   1      10.959   8.425  -7.274  0.00  0.00     0.092 A 
ATOM     20  N   UNL d   1      11.032   9.482  -6.356  0.00  0.00    -0.248 NA
ATOM     21  C   UNL d   1      11.338   9.003  -5.094  0.00  0.00     0.081 A 
ATOM     22  C   UNL d   1      11.451   7.593  -5.239  0.00  0.00     0.019 A 
ATOM     23  C   UNL d   1      11.548   9.609  -3.845  0.00  0.00     0.019 A 
ATOM     24  C   UNL d   1      11.260   7.271  -6.588  0.00  0.00     0.018 A 
ATOM     25  C   UNL d   1      11.765   6.813  -4.110  0.00  0.00     0.002 A 
ATOM     26  C   UNL d   1      11.981   7.410  -2.861  0.00  0.00     0.000 A 
ATOM     27  C   UNL d   1      11.870   8.807  -2.739  0.00  0.00     0.002 A 
ENDBRANCH  18  19
ENDBRANCH   4  18
TORSDOF 7
