REMARK  8 active torsions:
REMARK  status: ('A' for Active; 'I' for Inactive)
REMARK    1  A    between atoms: O_2  and  C_3 
REMARK    2  A    between atoms: C_8  and  N_9 
REMARK    3  A    between atoms: N_15  and  C_16 
REMARK    4  A    between atoms: C_16  and  C_17 
REMARK    5  A    between atoms: C_17  and  C_18 
REMARK    6  A    between atoms: C_18  and  S_19 
REMARK    7  A    between atoms: S_19  and  C_20 
REMARK    8  A    between atoms: C_23  and  C_24 
ROOT
ATOM      1  N   UNL d   1       7.883   0.922 -16.130  0.00  0.00    -0.325 N 
ATOM      2  C   UNL d   1       8.073   1.989 -15.270  0.00  0.00     0.071 C 
ATOM      3  C   UNL d   1       9.189   2.724 -15.282  0.00  0.00    -0.008 C 
ATOM      4  C   UNL d   1      10.379   2.417 -16.191  0.00  0.00     0.026 C 
ATOM      5  C   UNL d   1      11.707   2.603 -15.439  0.00  0.00     0.040 C 
ATOM      6  C   UNL d   1      11.974   4.076 -15.087  0.00  0.00     0.251 C 
ATOM      7  N   UNL d   1      11.965   4.896 -16.303  0.00  0.00     0.137 N 
ATOM      8  C   UNL d   1      10.658   4.822 -16.959  0.00  0.00     0.251 C 
ATOM      9  C   UNL d   1      10.365   3.381 -17.392  0.00  0.00     0.040 C 
ATOM     10  C   UNL d   1      10.290   0.949 -16.681  0.00  0.00     0.029 C 
ATOM     11  C   UNL d   1       8.876   0.589 -17.153  0.00  0.00     0.107 C 
ENDROOT
BRANCH   7  12
ATOM     12  C   UNL d   1      12.270   6.284 -15.963  0.00  0.00     0.251 C 
BRANCH  12  13
ATOM     13  C   UNL d   1      12.699   7.088 -17.206  0.00  0.00     0.047 C 
BRANCH  13  14
ATOM     14  C   UNL d   1      14.215   7.219 -17.355  0.00  0.00     0.067 C 
BRANCH  14  15
ATOM     15  S   UNL d   1      15.045   5.609 -17.540  0.00  0.00    -0.075 SA
BRANCH  15  16
ATOM     16  C   UNL d   1      16.700   6.185 -17.423  0.00  0.00     0.193 A 
ATOM     17  N   UNL d   1      17.301   6.891 -18.403  0.00  0.00    -0.289 N 
ATOM     18  C   UNL d   1      18.517   7.131 -17.873  0.00  0.00     0.167 A 
ATOM     19  C   UNL d   1      16.769   7.298 -19.692  0.00  0.00     0.134 C 
ATOM     20  N   UNL d   1      18.658   6.620 -16.645  0.00  0.00    -0.128 NA
ATOM     21  N   UNL d   1      17.473   5.985 -16.357  0.00  0.00    -0.122 NA
BRANCH  18  22
ATOM     22  C   UNL d   1      19.582   7.862 -18.536  0.00  0.00     0.036 A 
ATOM     23  C   UNL d   1      20.473   7.188 -19.400  0.00  0.00     0.003 A 
ATOM     24  C   UNL d   1      21.514   7.898 -20.030  0.00  0.00     0.000 A 
ATOM     25  C   UNL d   1      21.672   9.278 -19.791  0.00  0.00     0.000 A 
ATOM     26  C   UNL d   1      20.783   9.950 -18.929  0.00  0.00     0.000 A 
ATOM     27  C   UNL d   1      19.740   9.244 -18.300  0.00  0.00     0.003 A 
ENDBRANCH  18  22
ENDBRANCH  15  16
ENDBRANCH  14  15
ENDBRANCH  13  14
ENDBRANCH  12  13
ENDBRANCH   7  12
BRANCH   1  28
ATOM     28  C   UNL d   1       6.684   0.194 -16.172  0.00  0.00     0.083 A 
ATOM     29  C   UNL d   1       5.947   0.040 -17.379  0.00  0.00     0.110 A 
ATOM     30  C   UNL d   1       4.734  -0.698 -17.355  0.00  0.00     0.026 A 
ATOM     31  C   UNL d   1       4.255  -1.250 -16.151  0.00  0.00     0.002 A 
ATOM     32  C   UNL d   1       4.987  -1.085 -14.961  0.00  0.00     0.002 A 
ATOM     33  C   UNL d   1       6.195  -0.367 -14.975  0.00  0.00     0.019 A 
BRANCH  29  34
ATOM     34  O   UNL d   1       6.428   0.667 -18.513  0.00  0.00    -0.327 OA
ATOM     35  C   UNL d   1       5.726   0.518 -19.731  0.00  0.00     0.181 C 
ENDBRANCH  29  34
ENDBRANCH   1  28
TORSDOF 8
