REMARK  6 active torsions:
REMARK  status: ('A' for Active; 'I' for Inactive)
REMARK    1  A    between atoms: C_2  and  C_4 
REMARK       I    between atoms: C_4  and  N_6 
REMARK    2  A    between atoms: N_6  and  C_7 
REMARK    3  A    between atoms: C_10  and  C_11 
REMARK    4  A    between atoms: C_11  and  C_12 
REMARK    5  A    between atoms: C_12  and  N_13 
REMARK    6  A    between atoms: C_16  and  C_17 
ROOT
ATOM      1  N   UNL d   1       9.204   6.338  -9.373  0.00  0.00     0.137 N 
ATOM      2  C   UNL d   1      10.660   6.296  -9.203  0.00  0.00     0.251 C 
ATOM      3  C   UNL d   1      11.128   7.276  -8.144  0.00  0.00     0.040 C 
ATOM      4  C   UNL d   1      10.482   6.958  -6.802  0.00  0.00     0.028 C 
ATOM      5  C   UNL d   1       8.959   6.857  -6.974  0.00  0.00     0.040 C 
ATOM      6  C   UNL d   1       8.595   5.895  -8.118  0.00  0.00     0.251 C 
ENDROOT
BRANCH   1   7
ATOM      7  C   UNL d   1       8.744   5.439 -10.435  0.00  0.00     0.250 C 
BRANCH   7   8
ATOM      8  C   UNL d   1       9.425   5.691 -11.797  0.00  0.00     0.035 C 
BRANCH   8   9
ATOM      9  C   UNL d   1       9.551   4.425 -12.659  0.00  0.00     0.002 C 
ATOM     10  C   UNL d   1       8.198   4.092 -13.299  0.00  0.00     0.002 C 
ATOM     11  C   UNL d   1       8.306   2.885 -14.233  0.00  0.00     0.024 C 
ATOM     12  C   UNL d   1       9.393   3.113 -15.304  0.00  0.00     0.106 C 
ATOM     13  C   UNL d   1      10.752   3.393 -14.650  0.00  0.00     0.024 C 
ATOM     14  C   UNL d   1      10.650   4.603 -13.724  0.00  0.00     0.002 C 
BRANCH  12  15
ATOM     15  N   UNL d   1       9.509   1.934 -16.137  0.00  0.00    -0.240 NA
ATOM     16  C   UNL d   1       8.743   1.633 -17.194  0.00  0.00     0.251 C 
ATOM     17  O   UNL d   1       7.875   2.387 -17.629  0.00  0.00    -0.271 OA
BRANCH  16  18
ATOM     18  C   UNL d   1       9.003   0.276 -17.867  0.00  0.00     0.081 C 
ATOM     19  C   UNL d   1       7.686  -0.495 -18.070  0.00  0.00     0.010 C 
ATOM     20  C   UNL d   1      10.049  -0.590 -17.126  0.00  0.00     0.010 C 
ENDBRANCH  16  18
ENDBRANCH  12  15
ENDBRANCH   8   9
ENDBRANCH   7   8
ENDBRANCH   1   7
BRANCH   4  21
ATOM     21  C   UNL d   1      10.880   7.989  -5.768  0.00  0.00     0.002 A 
ATOM     22  C   UNL d   1      11.482   7.623  -4.549  0.00  0.00     0.115 A 
ATOM     23  C   UNL d   1      11.829   8.560  -3.596  0.00  0.00     0.119 A 
ATOM     24  O   UNL d   1      11.800   6.389  -4.097  0.00  0.00    -0.300 OA
ATOM     25  C   UNL d   1      11.574   9.925  -3.788  0.00  0.00     0.026 A 
ATOM     26  O   UNL d   1      12.372   7.944  -2.515  0.00  0.00    -0.300 OA
ATOM     27  C   UNL d   1      11.011  10.321  -5.022  0.00  0.00     0.002 A 
ATOM     28  C   UNL d   1      10.660   9.368  -5.998  0.00  0.00    -0.002 A 
ATOM     29  C   UNL d   1      12.350   6.572  -2.821  0.00  0.00     0.304 A 
ENDBRANCH   4  21
TORSDOF 6
