REMARK  2 active torsions:
REMARK  status: ('A' for Active; 'I' for Inactive)
REMARK    1  A    between atoms: C_6  and  C_7 
REMARK    2  A    between atoms: C_13  and  N_14 
ROOT
ATOM      1  C   UNL d   1       9.045   3.546 -14.757  0.00  0.00    -0.000 A 
ATOM      2  C   UNL d   1       9.927   4.500 -14.208  0.00  0.00     0.001 A 
ATOM      3  C   UNL d   1      11.149   4.789 -14.840  0.00  0.00     0.006 A 
ATOM      4  C   UNL d   1      11.533   4.089 -15.999  0.00  0.00     0.027 A 
ATOM      5  C   UNL d   1      10.678   3.103 -16.566  0.00  0.00     0.015 A 
ATOM      6  C   UNL d   1       9.416   2.894 -15.962  0.00  0.00    -0.002 A 
ATOM      7  C   UNL d   1      11.009   2.193 -17.783  0.00  0.00     0.246 C 
ATOM      8  C   UNL d   1      12.046   2.708 -18.817  0.00  0.00     0.065 C 
ATOM      9  C   UNL d   1      11.959   4.170 -19.170  0.00  0.00    -0.014 A 
ATOM     10  C   UNL d   1      11.449   4.580 -20.422  0.00  0.00    -0.004 A 
ATOM     11  C   UNL d   1      11.439   5.949 -20.758  0.00  0.00    -0.000 A 
ATOM     12  C   UNL d   1      11.932   6.898 -19.837  0.00  0.00     0.001 A 
ATOM     13  C   UNL d   1      12.443   6.488 -18.585  0.00  0.00     0.006 A 
ATOM     14  C   UNL d   1      12.458   5.118 -18.264  0.00  0.00     0.025 A 
ATOM     15  S   UNL d   1      13.076   4.562 -16.716  0.00  0.00    -0.087 SA
ENDROOT
BRANCH   1  16
ATOM     16  C   UNL d   1       7.766   3.210 -14.093  0.00  0.00    -0.000 A 
ATOM     17  C   UNL d   1       7.129   4.145 -13.233  0.00  0.00    -0.000 A 
ATOM     18  C   UNL d   1       5.903   3.845 -12.609  0.00  0.00    -0.000 A 
ATOM     19  C   UNL d   1       5.283   2.606 -12.833  0.00  0.00    -0.004 A 
ATOM     20  C   UNL d   1       5.899   1.652 -13.670  0.00  0.00    -0.022 A 
ATOM     21  C   UNL d   1       5.245   0.307 -13.919  0.00  0.00     0.031 C 
ATOM     22  C   UNL d   1       7.130   1.960 -14.289  0.00  0.00    -0.004 A 
ENDBRANCH   1  16
BRANCH   7  23
ATOM     23  N   UNL d   1      11.287   0.799 -17.348  0.00  0.00     0.144 N 
ATOM     24  C   UNL d   1      10.096   0.069 -16.837  0.00  0.00     0.286 C 
ATOM     25  C   UNL d   1       9.115  -0.252 -18.007  0.00  0.00     0.286 C 
ATOM     26  N   UNL d   1       9.759  -1.038 -19.075  0.00  0.00     0.143 N 
ATOM     27  C   UNL d   1      10.954  -0.341 -19.550  0.00  0.00     0.286 C 
ATOM     28  C   UNL d   1       8.839  -1.305 -20.176  0.00  0.00     0.285 C 
ATOM     29  C   UNL d   1      11.924  -0.052 -18.390  0.00  0.00     0.286 C 
ENDBRANCH   7  23
TORSDOF 2
