REMARK  7 active torsions:
REMARK  status: ('A' for Active; 'I' for Inactive)
REMARK    1  A    between atoms: C_6  and  N_7 
REMARK    2  A    between atoms: N_10  and  C_11 
REMARK    3  A    between atoms: C_11  and  C_12 
REMARK    4  A    between atoms: C_12  and  C_13 
REMARK    5  A    between atoms: C_13  and  C_14 
REMARK    6  A    between atoms: C_14  and  O_15 
REMARK    7  A    between atoms: O_15  and  C_16 
ROOT
ATOM      1  N   UNL d   1       8.171   4.086 -13.903  0.00  0.00    -0.344 N 
ATOM      2  C   UNL d   1       8.974   5.159 -14.465  0.00  0.00     0.137 C 
ATOM      3  C   UNL d   1       9.900   5.710 -13.364  0.00  0.00     0.274 C 
ATOM      4  N   UNL d   1       9.096   6.186 -12.229  0.00  0.00     0.141 N 
ATOM      5  C   UNL d   1       8.418   5.017 -11.661  0.00  0.00     0.274 C 
ATOM      6  C   UNL d   1       7.447   4.417 -12.685  0.00  0.00     0.137 C 
ENDROOT
BRANCH   4   7
ATOM      7  C   UNL d   1       9.998   6.758 -11.210  0.00  0.00     0.251 C 
BRANCH   7   8
ATOM      8  C   UNL d   1       9.265   7.514 -10.138  0.00  0.00     0.038 C 
BRANCH   8   9
ATOM      9  C   UNL d   1      10.231   8.222  -9.195  0.00  0.00     0.035 C 
BRANCH   9  10
ATOM     10  C   UNL d   1       9.448   9.066  -8.148  0.00  0.00     0.149 C 
BRANCH  10  11
ATOM     11  O   UNL d   1      10.310   9.649  -7.169  0.00  0.00    -0.331 OA
BRANCH  11  12
ATOM     12  C   UNL d   1      10.736   8.869  -6.142  0.00  0.00     0.096 C 
ATOM     13  C   UNL d   1      11.334   9.498  -4.999  0.00  0.00     0.044 C 
ATOM     14  C   UNL d   1      11.787   8.703  -3.931  0.00  0.00     0.090 A 
ATOM     15  C   UNL d   1      11.705   7.290  -4.053  0.00  0.00     0.049 A 
ATOM     16  N   UNL d   1      12.288   9.148  -2.692  0.00  0.00    -0.236 NA
ATOM     17  C   UNL d   1      11.144   6.684  -5.197  0.00  0.00     0.010 C 
ATOM     18  S   UNL d   1      12.270   6.480  -2.607  0.00  0.00    -0.064 SA
ATOM     19  C   UNL d   1      10.596   7.479  -6.185  0.00  0.00     0.025 C 
ATOM     20  C   UNL d   1      12.598   8.071  -1.964  0.00  0.00     0.135 A 
ENDBRANCH  11  12
ENDBRANCH  10  11
ENDBRANCH   9  10
ENDBRANCH   8   9
ENDBRANCH   7   8
ENDBRANCH   4   7
BRANCH   1  21
ATOM     21  C   UNL d   1       8.152   2.789 -14.439  0.00  0.00     0.068 A 
ATOM     22  C   UNL d   1       6.895   2.151 -14.610  0.00  0.00     0.018 A 
ATOM     23  C   UNL d   1       6.806   0.862 -15.169  0.00  0.00     0.002 A 
ATOM     24  C   UNL d   1       7.982   0.207 -15.561  0.00  0.00     0.012 A 
ATOM     25  C   UNL d   1       9.225   0.820 -15.387  0.00  0.00     0.070 A 
ATOM     26 CL   UNL d   1      10.617  -0.018 -15.913  0.00  0.00    -0.081 Cl
ATOM     27  C   UNL d   1       9.338   2.092 -14.812  0.00  0.00     0.084 A 
ATOM     28 CL   UNL d   1      10.941   2.718 -14.558  0.00  0.00    -0.080 Cl
ENDBRANCH   1  21
TORSDOF 7
