REMARK  3 active torsions:
REMARK  status: ('A' for Active; 'I' for Inactive)
REMARK    1  A    between atoms: O_2  and  C_3 
REMARK    2  A    between atoms: N_15  and  C_16 
REMARK    3  A    between atoms: C_16  and  C_17 
ROOT
ATOM      1  C   UNL d   1      12.711   6.292 -17.117  0.00  0.00     0.096 A 
ATOM      2  C   UNL d   1      12.018   6.176 -15.888  0.00  0.00     0.024 A 
ATOM      3  C   UNL d   1      11.407   4.962 -15.523  0.00  0.00     0.004 A 
ATOM      4  C   UNL d   1      11.482   3.843 -16.381  0.00  0.00     0.019 A 
ATOM      5  C   UNL d   1      10.861   2.546 -16.074  0.00  0.00    -0.015 A 
ATOM      6  C   UNL d   1      10.929   1.538 -16.968  0.00  0.00     0.071 A 
ATOM      7  C   UNL d   1      11.665   1.680 -18.256  0.00  0.00     0.298 A 
ATOM      8  O   UNL d   1      11.764   0.760 -19.067  0.00  0.00    -0.259 OA
ATOM      9  O   UNL d   1      12.240   2.896 -18.491  0.00  0.00    -0.273 OA
ATOM     10  C   UNL d   1      12.160   3.955 -17.613  0.00  0.00     0.105 A 
ATOM     11  C   UNL d   1      12.767   5.174 -17.971  0.00  0.00     0.049 A 
ATOM     12  C   UNL d   1      10.268   0.187 -16.721  0.00  0.00     0.282 C 
ATOM     13  N   UNL d   1       9.245   0.194 -15.672  0.00  0.00     0.146 N 
ATOM     14  C   UNL d   1       9.775   0.875 -14.484  0.00  0.00     0.256 C 
ATOM     15  C   UNL d   1      10.120   2.358 -14.756  0.00  0.00     0.062 C 
ENDROOT
BRANCH  13  16
ATOM     16  C   UNL d   1       7.986   0.758 -16.177  0.00  0.00     0.277 C 
BRANCH  16  17
ATOM     17  C   UNL d   1       6.780   0.504 -15.288  0.00  0.00     0.014 A 
ATOM     18  C   UNL d   1       6.556   1.257 -14.120  0.00  0.00     0.018 A 
ATOM     19  C   UNL d   1       5.445   0.943 -13.319  0.00  0.00     0.099 A 
ATOM     20  N   UNL d   1       4.546  -0.012 -13.638  0.00  0.00    -0.243 NA
ATOM     21  C   UNL d   1       4.748  -0.712 -14.776  0.00  0.00     0.099 A 
ATOM     22  C   UNL d   1       5.849  -0.496 -15.627  0.00  0.00     0.018 A 
ENDBRANCH  16  17
ENDBRANCH  13  16
BRANCH   1  23
ATOM     23  O   UNL d   1      13.335   7.442 -17.547  0.00  0.00    -0.328 OA
ATOM     24  C   UNL d   1      13.338   8.566 -16.678  0.00  0.00     0.181 C 
ENDBRANCH   1  23
TORSDOF 3
