REMARK  5 active torsions:
REMARK  status: ('A' for Active; 'I' for Inactive)
REMARK    1  A    between atoms: C_2  and  C_3 
REMARK    2  A    between atoms: C_3  and  N_4 
REMARK    3  A    between atoms: N_7  and  C_8 
REMARK    4  A    between atoms: C_10  and  N_11 
REMARK    5  A    between atoms: N_11  and  C_12 
ROOT
ATOM      1  C   UNL d   1       7.266   1.757 -14.666  0.00  0.00     0.729 A 
ATOM      2  N   UNL d   1       8.523   2.092 -14.966  0.00  0.00    -0.042 NA
ATOM      3  C   UNL d   1       8.992   3.246 -14.452  0.00  0.00     0.182 A 
ATOM      4  C   UNL d   1       8.182   4.080 -13.642  0.00  0.00     0.055 A 
ATOM      5  C   UNL d   1       8.637   5.289 -13.070  0.00  0.00     0.005 A 
ATOM      6  C   UNL d   1       7.767   6.065 -12.282  0.00  0.00     0.000 A 
ATOM      7  C   UNL d   1       6.447   5.637 -12.054  0.00  0.00     0.002 A 
ATOM      8  C   UNL d   1       5.999   4.426 -12.614  0.00  0.00     0.020 A 
ATOM      9  C   UNL d   1       6.854   3.636 -13.409  0.00  0.00     0.103 A 
ATOM     10  N   UNL d   1       6.418   2.470 -13.919  0.00  0.00    -0.061 NA
ENDROOT
BRANCH   1  11
ATOM     11  N   UNL d   1       6.788   0.555 -15.167  0.00  0.00    -0.179 N 
ATOM     12  C   UNL d   1       7.106   0.086 -16.513  0.00  0.00     0.155 C 
ATOM     13  C   UNL d   1       5.811  -0.243 -17.278  0.00  0.00     0.275 C 
ATOM     14  N   UNL d   1       4.968  -1.205 -16.558  0.00  0.00     0.144 N 
ATOM     15  C   UNL d   1       4.639  -0.651 -15.244  0.00  0.00     0.275 C 
ATOM     16  C   UNL d   1       5.896  -0.332 -14.421  0.00  0.00     0.155 C 
BRANCH  14  17
ATOM     17  C   UNL d   1       3.765  -1.560 -17.304  0.00  0.00     0.286 C 
BRANCH  17  18
ATOM     18  C   UNL d   1       3.993  -2.501 -18.499  0.00  0.00     0.218 C 
ATOM     19  O   UNL d   1       4.262  -3.812 -18.037  0.00  0.00    -0.218 OA
ENDBRANCH  17  18
ENDBRANCH  14  17
ENDBRANCH   1  11
BRANCH   3  20
ATOM     20  N   UNL d   1      10.335   3.538 -14.715  0.00  0.00    -0.226 NA
BRANCH  20  21
ATOM     21  C   UNL d   1      10.828   4.500 -15.607  0.00  0.00     0.085 A 
ATOM     22  C   UNL d   1      10.089   4.916 -16.738  0.00  0.00     0.046 A 
ATOM     23  C   UNL d   1      10.632   5.867 -17.631  0.00  0.00     0.133 A 
ATOM     24  C   UNL d   1      11.908   6.409 -17.388  0.00  0.00     0.028 A 
ATOM     25  O   UNL d   1       9.933   6.271 -18.730  0.00  0.00    -0.190 OA
ATOM     26  C   UNL d   1      12.643   6.008 -16.259  0.00  0.00     0.004 A 
ATOM     27  C   UNL d   1      12.108   5.051 -15.375  0.00  0.00     0.019 A 
ENDBRANCH  20  21
ENDBRANCH   3  20
TORSDOF 5
