REMARK  8 active torsions:
REMARK  status: ('A' for Active; 'I' for Inactive)
REMARK    1  A    between atoms: O_2  and  C_3 
REMARK    2  A    between atoms: C_3  and  C_4 
REMARK    3  A    between atoms: C_4  and  C_5 
REMARK       I    between atoms: C_5  and  N_7 
REMARK    4  A    between atoms: N_7  and  C_8 
REMARK    5  A    between atoms: C_11  and  C_12 
REMARK    6  A    between atoms: C_12  and  C_13 
REMARK    7  A    between atoms: C_13  and  N_14 
REMARK    8  A    between atoms: C_17  and  C_18 
ROOT
ATOM      1  N   UNL d   1       8.749   4.091 -12.966  0.00  0.00     0.137 N 
ATOM      2  C   UNL d   1       9.903   4.451 -13.793  0.00  0.00     0.251 C 
ATOM      3  C   UNL d   1      10.270   3.313 -14.745  0.00  0.00     0.040 C 
ATOM      4  C   UNL d   1       9.090   2.919 -15.654  0.00  0.00     0.028 C 
ATOM      5  C   UNL d   1       7.846   2.688 -14.765  0.00  0.00     0.040 C 
ATOM      6  C   UNL d   1       7.598   3.867 -13.826  0.00  0.00     0.251 C 
ENDROOT
BRANCH   1   7
ATOM      7  C   UNL d   1       8.445   5.175 -12.039  0.00  0.00     0.250 C 
BRANCH   7   8
ATOM      8  C   UNL d   1       8.723   4.709 -10.604  0.00  0.00     0.035 C 
BRANCH   8   9
ATOM      9  C   UNL d   1       8.752   5.865  -9.599  0.00  0.00     0.002 C 
ATOM     10  C   UNL d   1       8.807   5.351  -8.153  0.00  0.00     0.002 C 
ATOM     11  C   UNL d   1       8.861   6.504  -7.138  0.00  0.00     0.024 C 
ATOM     12  C   UNL d   1      10.031   7.451  -7.436  0.00  0.00     0.106 C 
ATOM     13  C   UNL d   1       9.951   7.986  -8.867  0.00  0.00     0.024 C 
ATOM     14  C   UNL d   1       9.909   6.846  -9.881  0.00  0.00     0.002 C 
BRANCH  12  15
ATOM     15  N   UNL d   1      10.017   8.544  -6.483  0.00  0.00    -0.240 NA
ATOM     16  C   UNL d   1      11.087   9.272  -6.127  0.00  0.00     0.254 C 
ATOM     17  O   UNL d   1      12.187   9.189  -6.678  0.00  0.00    -0.271 OA
BRANCH  16  18
ATOM     18  C   UNL d   1      10.900  10.249  -4.965  0.00  0.00     0.122 C 
BRANCH  18  19
ATOM     19  C   UNL d   1      11.807   9.906  -3.777  0.00  0.00     0.152 C 
BRANCH  19  20
ATOM     20  O   UNL d   1      11.473   8.633  -3.262  0.00  0.00    -0.351 OA
ATOM     21  C   UNL d   1      12.219   8.297  -2.114  0.00  0.00     0.174 C 
ENDBRANCH  19  20
ENDBRANCH  18  19
ENDBRANCH  16  18
ENDBRANCH  12  15
ENDBRANCH   8   9
ENDBRANCH   7   8
ENDBRANCH   1   7
BRANCH   4  22
ATOM     22  C   UNL d   1       9.388   1.708 -16.547  0.00  0.00     0.002 A 
ATOM     23  C   UNL d   1       8.393   1.143 -17.384  0.00  0.00     0.115 A 
ATOM     24  C   UNL d   1       8.635   0.024 -18.165  0.00  0.00     0.119 A 
ATOM     25  O   UNL d   1       7.103   1.543 -17.568  0.00  0.00    -0.300 OA
ATOM     26  C   UNL d   1       9.895  -0.593 -18.203  0.00  0.00     0.026 A 
ATOM     27  O   UNL d   1       7.502  -0.317 -18.832  0.00  0.00    -0.300 OA
ATOM     28  C   UNL d   1      10.924  -0.015 -17.422  0.00  0.00     0.002 A 
ATOM     29  C   UNL d   1      10.673   1.101 -16.593  0.00  0.00    -0.002 A 
ATOM     30  C   UNL d   1       6.526   0.617 -18.447  0.00  0.00     0.304 A 
ENDBRANCH   4  22
TORSDOF 8
