REMARK  0 active torsions:
REMARK  status: ('A' for Active; 'I' for Inactive)
ROOT
ATOM      1  C   UNL d   1      12.386   6.254 -16.488  0.00  0.00     0.033 C 
ATOM      2  C   UNL d   1      11.455   5.251 -17.179  0.00  0.00     0.126 A 
ATOM      3  C   UNL d   1      12.173   3.945 -17.597  0.00  0.00     0.058 A 
ATOM      4  C   UNL d   1      11.378   2.918 -16.871  0.00  0.00     0.003 A 
ATOM      5  C   UNL d   1      11.541   1.526 -16.906  0.00  0.00    -0.003 A 
ATOM      6  C   UNL d   1      10.648   0.744 -16.153  0.00  0.00    -0.004 A 
ATOM      7  C   UNL d   1       9.627   1.359 -15.388  0.00  0.00    -0.018 A 
ATOM      8  C   UNL d   1       9.495   2.765 -15.321  0.00  0.00     0.018 A 
ATOM      9  C   UNL d   1      10.389   3.530 -16.112  0.00  0.00     0.090 A 
ATOM     10  O   UNL d   1      10.403   4.889 -16.267  0.00  0.00    -0.333 OA
ATOM     11  C   UNL d   1       8.440   3.333 -14.450  0.00  0.00    -0.001 A 
ATOM     12  C   UNL d   1       8.478   4.664 -13.969  0.00  0.00    -0.000 A 
ATOM     13  C   UNL d   1       7.478   5.199 -13.145  0.00  0.00    -0.000 A 
ATOM     14  C   UNL d   1       6.353   4.439 -12.793  0.00  0.00    -0.004 A 
ATOM     15  C   UNL d   1       6.249   3.119 -13.249  0.00  0.00    -0.022 A 
ATOM     16  C   UNL d   1       7.300   2.584 -14.043  0.00  0.00     0.005 A 
ATOM     17  C   UNL d   1       7.231   1.121 -14.539  0.00  0.00     0.246 C 
ATOM     18  C   UNL d   1       8.644   0.492 -14.632  0.00  0.00     0.064 C 
ATOM     19  N   UNL d   1       6.346   0.250 -13.744  0.00  0.00     0.142 N 
ATOM     20  C   UNL d   1       6.124  -1.034 -14.378  0.00  0.00     0.286 C 
ATOM     21  C   UNL d   1       5.056   0.882 -13.683  0.00  0.00     0.255 C 
ATOM     22  C   UNL d   1       5.171   2.137 -12.821  0.00  0.00     0.061 C 
ENDROOT
TORSDOF 0
