REMARK  6 active torsions:
REMARK  status: ('A' for Active; 'I' for Inactive)
REMARK    1  A    between atoms: C_2  and  N_3 
REMARK    2  A    between atoms: C_2  and  C_19 
REMARK       I    between atoms: N_3  and  C_4 
REMARK       I    between atoms: C_4  and  N_6 
REMARK       I    between atoms: C_7  and  N_9 
REMARK    3  A    between atoms: N_9  and  C_10 
REMARK    4  A    between atoms: C_10  and  C_11 
REMARK    5  A    between atoms: C_11  and  C_12 
REMARK    6  A    between atoms: C_12  and  C_13 
ROOT
ATOM      1  N   UNL d   1      10.283   8.372  -6.721  0.00  0.00    -0.215 NA
ATOM      2  C   UNL d   1      10.916   7.681  -7.674  0.00  0.00     0.367 C 
ATOM      3  O   UNL d   1      12.138   7.731  -7.798  0.00  0.00    -0.243 OA
ATOM      4  N   UNL d   1      10.072   6.992  -8.536  0.00  0.00    -0.159 NA
ATOM      5  C   UNL d   1      10.044   7.352  -9.782  0.00  0.00     0.237 C 
ATOM      6  N   UNL d   1      10.611   8.500 -10.331  0.00  0.00    -0.060 NA
ATOM      7  N   UNL d   1       9.452   6.567 -10.752  0.00  0.00    -0.241 NA
ENDROOT
BRANCH   1   8
ATOM      8  C   UNL d   1      10.880   9.292  -5.746  0.00  0.00     0.130 C 
ATOM      9  C   UNL d   1      11.909  10.230  -6.393  0.00  0.00     0.031 C 
BRANCH   8  10
ATOM     10  C   UNL d   1      11.462   8.633  -4.494  0.00  0.00    -0.000 A 
ATOM     11  C   UNL d   1      11.742   9.411  -3.341  0.00  0.00    -0.002 A 
ATOM     12  C   UNL d   1      12.261   8.810  -2.176  0.00  0.00    -0.000 A 
ATOM     13  C   UNL d   1      12.493   7.430  -2.144  0.00  0.00    -0.000 A 
ATOM     14  C   UNL d   1      12.211   6.648  -3.278  0.00  0.00    -0.000 A 
ATOM     15  C   UNL d   1      11.688   7.242  -4.442  0.00  0.00    -0.002 A 
ENDBRANCH   8  10
ENDBRANCH   1   8
BRANCH   7  16
ATOM     16  C   UNL d   1       9.168   5.152 -10.589  0.00  0.00     0.129 C 
BRANCH  16  17
ATOM     17  C   UNL d   1       9.420   4.365 -11.887  0.00  0.00     0.033 C 
BRANCH  17  18
ATOM     18  C   UNL d   1       8.361   4.583 -12.974  0.00  0.00     0.057 C 
BRANCH  18  19
ATOM     19  C   UNL d   1       8.581   3.721 -14.171  0.00  0.00     0.112 A 
ATOM     20  S   UNL d   1       7.713   2.213 -14.436  0.00  0.00    -0.036 SA
ATOM     21  C   UNL d   1       8.659   2.071 -15.909  0.00  0.00     0.203 A 
ATOM     22  N   UNL d   1       9.511   3.078 -16.138  0.00  0.00    -0.127 NA
ATOM     23  N   UNL d   1       8.497   0.987 -16.757  0.00  0.00    -0.070 NA
ATOM     24  N   UNL d   1       9.476   4.025 -15.121  0.00  0.00    -0.144 NA
ENDBRANCH  18  19
ENDBRANCH  17  18
ENDBRANCH  16  17
ENDBRANCH   7  16
TORSDOF 6
