REMARK  7 active torsions:
REMARK  status: ('A' for Active; 'I' for Inactive)
REMARK    1  A    between atoms: C_5  and  S_6 
REMARK    2  A    between atoms: S_6  and  N_9 
REMARK    3  A    between atoms: N_9  and  C_10 
REMARK    4  A    between atoms: C_13  and  C_14 
REMARK    5  A    between atoms: C_14  and  C_15 
REMARK    6  A    between atoms: C_15  and  N_16 
REMARK    7  A    between atoms: C_19  and  C_20 
ROOT
ATOM      1  C   UNL d   1       9.528   5.640 -11.754  0.00  0.00     0.035 C 
ENDROOT
BRANCH   1   2
ATOM      2  C   UNL d   1       9.728   4.372 -12.594  0.00  0.00     0.002 C 
ATOM      3  C   UNL d   1       8.393   3.994 -13.212  0.00  0.00     0.002 C 
ATOM      4  C   UNL d   1       8.558   2.783 -14.079  0.00  0.00     0.025 C 
ATOM      5  C   UNL d   1       9.594   2.932 -15.194  0.00  0.00     0.116 C 
ATOM      6  C   UNL d   1      10.952   3.316 -14.586  0.00  0.00     0.025 C 
ATOM      7  C   UNL d   1      10.789   4.559 -13.700  0.00  0.00     0.002 C 
BRANCH   5   8
ATOM      8  N   UNL d   1       9.703   1.677 -15.964  0.00  0.00    -0.185 NA
BRANCH   8   9
ATOM      9  S   UNL d   1       8.565   1.286 -17.219  0.00  0.00     0.299 S 
ATOM     10  O   UNL d   1       9.163   0.215 -18.038  0.00  0.00    -0.197 OA
ATOM     11  O   UNL d   1       8.155   2.554 -17.850  0.00  0.00    -0.197 OA
BRANCH   9  12
ATOM     12  C   UNL d   1       7.137   0.606 -16.361  0.00  0.00     0.204 A 
ATOM     13  N   UNL d   1       6.684   1.099 -15.167  0.00  0.00    -0.211 NA
ATOM     14  C   UNL d   1       5.674   0.342 -14.853  0.00  0.00     0.179 A 
ATOM     15  N   UNL d   1       5.417  -0.590 -15.752  0.00  0.00    -0.306 N 
ATOM     16  C   UNL d   1       4.351  -1.590 -15.695  0.00  0.00     0.132 C 
ATOM     17  C   UNL d   1       6.368  -0.454 -16.775  0.00  0.00     0.110 A 
ENDBRANCH   9  12
ENDBRANCH   8   9
ENDBRANCH   5   8
ENDBRANCH   1   2
BRANCH   1  18
ATOM     18  C   UNL d   1       8.792   5.351 -10.413  0.00  0.00     0.250 C 
BRANCH  18  19
ATOM     19  N   UNL d   1       9.211   6.255  -9.342  0.00  0.00     0.137 N 
ATOM     20  C   UNL d   1       8.636   5.797  -8.071  0.00  0.00     0.251 C 
ATOM     21  C   UNL d   1       9.003   6.769  -6.937  0.00  0.00     0.040 C 
ATOM     22  C   UNL d   1      10.520   6.931  -6.785  0.00  0.00     0.028 C 
ATOM     23  C   UNL d   1      11.117   7.283  -8.146  0.00  0.00     0.040 C 
ATOM     24  C   UNL d   1      10.669   6.296  -9.215  0.00  0.00     0.251 C 
BRANCH  22  25
ATOM     25  C   UNL d   1      10.883   7.978  -5.763  0.00  0.00     0.002 A 
ATOM     26  C   UNL d   1      11.480   7.617  -4.528  0.00  0.00     0.115 A 
ATOM     27  C   UNL d   1      11.805   8.556  -3.585  0.00  0.00     0.119 A 
ATOM     28  O   UNL d   1      11.784   6.390  -4.074  0.00  0.00    -0.300 OA
ATOM     29  C   UNL d   1      11.566   9.915  -3.793  0.00  0.00     0.026 A 
ATOM     30  O   UNL d   1      12.336   7.944  -2.494  0.00  0.00    -0.300 OA
ATOM     31  C   UNL d   1      11.003  10.305  -5.029  0.00  0.00     0.002 A 
ATOM     32  C   UNL d   1      10.662   9.348  -6.002  0.00  0.00    -0.002 A 
ATOM     33  C   UNL d   1      12.316   6.574  -2.789  0.00  0.00     0.304 A 
ENDBRANCH  22  25
ENDBRANCH  18  19
ENDBRANCH   1  18
TORSDOF 7
