REMARK  4 active torsions:
REMARK  status: ('A' for Active; 'I' for Inactive)
REMARK    1  A    between atoms: C_6  and  C_7 
REMARK    2  A    between atoms: C_7  and  C_8 
REMARK    3  A    between atoms: C_8  and  C_9 
REMARK    4  A    between atoms: C_9  and  N_10 
ROOT
ATOM      1  C   UNL d   1      10.182   8.084 -10.685  0.00  0.00     0.040 C 
ENDROOT
BRANCH   1   2
ATOM      2  C   UNL d   1       9.875   9.060  -9.527  0.00  0.00     0.029 C 
BRANCH   2   3
ATOM      3  C   UNL d   1      10.146   8.519  -8.131  0.00  0.00    -0.020 A 
ATOM      4  C   UNL d   1       9.388   7.440  -7.609  0.00  0.00    -0.004 A 
ATOM      5  C   UNL d   1       9.687   6.899  -6.366  0.00  0.00     0.002 A 
ATOM      6  C   UNL d   1      10.701   7.483  -5.550  0.00  0.00     0.030 A 
ATOM      7  C   UNL d   1      11.388   8.611  -6.008  0.00  0.00     0.140 A 
ATOM      8  F   UNL d   1      12.299   9.226  -5.216  0.00  0.00    -0.204 F 
ATOM      9  C   UNL d   1      11.127   9.113  -7.300  0.00  0.00     0.025 A 
ENDBRANCH   2   3
ENDBRANCH   1   2
BRANCH   1  10
ATOM     10  C   UNL d   1       9.587   6.668 -10.520  0.00  0.00     0.251 C 
BRANCH  10  11
ATOM     11  N   UNL d   1       9.684   5.847 -11.714  0.00  0.00     0.133 N 
ATOM     12  C   UNL d   1       8.721   6.152 -12.769  0.00  0.00     0.219 C 
ATOM     13  C   UNL d   1       7.361   5.696 -12.210  0.00  0.00     0.035 C 
ATOM     14  C   UNL d   1       9.233   5.148 -13.808  0.00  0.00     0.035 C 
ATOM     15  C   UNL d   1       7.754   4.517 -11.320  0.00  0.00     0.035 C 
ATOM     16  C   UNL d   1       9.279   4.450 -11.532  0.00  0.00     0.219 C 
ATOM     17  C   UNL d   1       9.600   3.933 -12.937  0.00  0.00     0.035 C 
ENDBRANCH  10  11
ENDBRANCH   1  10
TORSDOF 4
