REMARK  2 active torsions:
REMARK  status: ('A' for Active; 'I' for Inactive)
REMARK    1  A    between atoms: S_2  and  C_5 
REMARK    2  A    between atoms: C_7  and  C_8 
ROOT
ATOM      1  C   UNL d   1       7.288   2.701 -14.012  0.00  0.00     0.117 A 
ATOM      2  C   UNL d   1       8.330   3.619 -13.731  0.00  0.00     0.014 A 
ATOM      3  C   UNL d   1       8.202   4.577 -12.678  0.00  0.00     0.031 A 
ATOM      4  C   UNL d   1       7.008   4.623 -11.927  0.00  0.00     0.001 A 
ATOM      5  C   UNL d   1       5.974   3.714 -12.219  0.00  0.00     0.012 A 
ATOM      6  C   UNL d   1       6.126   2.743 -13.222  0.00  0.00     0.070 A 
ATOM      7 CL   UNL d   1       5.062   1.428 -13.217  0.00  0.00    -0.082 Cl
ENDROOT
BRANCH   3   8
ATOM      8  C   UNL d   1       9.338   5.534 -12.357  0.00  0.00     0.251 C 
ATOM      9  C   UNL d   1       9.556   5.825 -10.864  0.00  0.00     0.035 A 
ATOM     10  C   UNL d   1       9.465   7.197 -10.642  0.00  0.00     0.058 A 
ATOM     11  C   UNL d   1       9.746   4.963  -9.782  0.00  0.00     0.001 A 
ATOM     12  C   UNL d   1       9.056   7.837 -11.920  0.00  0.00     0.277 C 
ATOM     13  C   UNL d   1       9.591   7.785  -9.382  0.00  0.00     0.005 A 
ATOM     14  N   UNL d   1       8.941   6.848 -12.800  0.00  0.00    -0.200 NA
ATOM     15  O   UNL d   1       8.852   9.035 -12.085  0.00  0.00    -0.266 OA
ATOM     16  C   UNL d   1       9.798   6.916  -8.276  0.00  0.00     0.000 A 
ATOM     17  C   UNL d   1       9.849   5.529  -8.483  0.00  0.00    -0.000 A 
ATOM     18  O   UNL d   1      10.519   5.189 -13.055  0.00  0.00    -0.192 OA
ENDBRANCH   3   8
BRANCH   1  19
ATOM     19  S   UNL d   1       7.647   1.346 -15.172  0.00  0.00     0.303 S 
ATOM     20  N   UNL d   1       7.229  -0.111 -14.367  0.00  0.00    -0.043 N 
ATOM     21  O   UNL d   1       9.084   1.303 -15.394  0.00  0.00    -0.197 OA
ATOM     22  O   UNL d   1       6.708   1.492 -16.316  0.00  0.00    -0.197 OA
ENDBRANCH   1  19
TORSDOF 2
