REMARK  6 active torsions:
REMARK  status: ('A' for Active; 'I' for Inactive)
REMARK    1  A    between atoms: O_2  and  C_3 
REMARK    2  A    between atoms: C_8  and  N_9 
REMARK    3  A    between atoms: N_12  and  C_13 
REMARK    4  A    between atoms: C_13  and  C_14 
REMARK    5  A    between atoms: C_16  and  C_17 
REMARK    6  A    between atoms: C_17  and  N_18 
ROOT
ATOM      1  C   UNL d   1       6.618   0.744 -15.460  0.00  0.00     0.011 A 
ATOM      2  C   UNL d   1       7.657   1.163 -16.364  0.00  0.00    -0.005 A 
ATOM      3  C   UNL d   1       8.201   2.392 -15.912  0.00  0.00     0.011 A 
ATOM      4  C   UNL d   1       7.538   2.769 -14.714  0.00  0.00    -0.002 A 
ATOM      5  C   UNL d   1       7.799   3.953 -14.018  0.00  0.00    -0.000 A 
ATOM      6  C   UNL d   1       7.191   4.446 -12.846  0.00  0.00    -0.000 A 
ATOM      7  C   UNL d   1       6.138   3.853 -12.114  0.00  0.00    -0.000 A 
ATOM      8  C   UNL d   1       5.441   2.630 -12.345  0.00  0.00    -0.000 A 
ATOM      9  C   UNL d   1       5.605   1.656 -13.368  0.00  0.00    -0.000 A 
ATOM     10  C   UNL d   1       6.525   1.708 -14.429  0.00  0.00    -0.002 A 
ENDROOT
BRANCH   1  11
ATOM     11  C   UNL d   1       5.757  -0.521 -15.579  0.00  0.00     0.277 C 
BRANCH  11  12
ATOM     12  N   UNL d   1       5.211  -0.806 -16.905  0.00  0.00     0.145 N 
ATOM     13  C   UNL d   1       6.254  -1.469 -17.719  0.00  0.00     0.275 C 
ATOM     14  C   UNL d   1       5.754  -1.761 -19.138  0.00  0.00     0.137 C 
ATOM     15  N   UNL d   1       4.553  -2.575 -19.079  0.00  0.00    -0.343 N 
ATOM     16  C   UNL d   1       3.520  -2.131 -18.139  0.00  0.00     0.137 C 
ATOM     17  C   UNL d   1       4.069  -1.710 -16.734  0.00  0.00     0.275 C 
BRANCH  15  18
ATOM     18  C   UNL d   1       4.511  -3.837 -19.724  0.00  0.00     0.079 A 
ATOM     19  C   UNL d   1       5.323  -4.951 -19.345  0.00  0.00     0.110 A 
ATOM     20  C   UNL d   1       5.193  -6.156 -20.038  0.00  0.00     0.026 A 
ATOM     21  C   UNL d   1       4.348  -6.266 -21.161  0.00  0.00     0.002 A 
ATOM     22  C   UNL d   1       3.591  -5.148 -21.568  0.00  0.00     0.002 A 
ATOM     23  C   UNL d   1       3.669  -3.951 -20.858  0.00  0.00     0.019 A 
BRANCH  19  24
ATOM     24  O   UNL d   1       6.168  -4.960 -18.244  0.00  0.00    -0.327 OA
ATOM     25  C   UNL d   1       5.533  -4.881 -16.993  0.00  0.00     0.181 C 
ENDBRANCH  19  24
ENDBRANCH  15  18
ENDBRANCH  11  12
ENDBRANCH   1  11
BRANCH   3  26
ATOM     26  C   UNL d   1       9.293   3.089 -16.704  0.00  0.00     0.277 C 
BRANCH  26  27
ATOM     27  N   UNL d   1      10.196   3.857 -15.866  0.00  0.00     0.147 N 
ATOM     28  C   UNL d   1      10.989   4.801 -16.630  0.00  0.00     0.283 C 
ATOM     29  C   UNL d   1      11.894   5.635 -15.702  0.00  0.00     0.178 C 
ATOM     30  O   UNL d   1      12.716   4.769 -14.929  0.00  0.00    -0.350 OA
ATOM     31  C   UNL d   1      11.947   3.855 -14.157  0.00  0.00     0.178 C 
ATOM     32  C   UNL d   1      11.053   3.002 -15.057  0.00  0.00     0.283 C 
ENDBRANCH  26  27
ENDBRANCH   3  26
TORSDOF 6
