REMARK  5 active torsions:
REMARK  status: ('A' for Active; 'I' for Inactive)
REMARK       I    between atoms: C_2  and  N_4 
REMARK    1  A    between atoms: N_4  and  C_5 
REMARK    2  A    between atoms: C_9  and  C_10 
REMARK    3  A    between atoms: C_10  and  C_11 
REMARK    4  A    between atoms: C_11  and  N_12 
REMARK    5  A    between atoms: N_15  and  C_16 
ROOT
ATOM      1  N   UNL d   1       8.198   5.151 -11.798  0.00  0.00     0.141 N 
ATOM      2  C   UNL d   1       8.204   6.034 -12.979  0.00  0.00     0.274 C 
ATOM      3  C   UNL d   1       8.287   5.191 -14.261  0.00  0.00     0.137 C 
ATOM      4  N   UNL d   1       9.448   4.325 -14.199  0.00  0.00    -0.344 N 
ATOM      5  C   UNL d   1       9.524   3.466 -13.037  0.00  0.00     0.137 C 
ATOM      6  C   UNL d   1       9.416   4.324 -11.770  0.00  0.00     0.274 C 
ENDROOT
BRANCH   1   7
ATOM      7  C   UNL d   1       8.167   5.929 -10.575  0.00  0.00     0.255 C 
BRANCH   7   8
ATOM      8  C   UNL d   1       9.239   7.065 -10.524  0.00  0.00     0.062 C 
BRANCH   8   9
ATOM      9  C   UNL d   1       9.830   7.146  -9.156  0.00  0.00    -0.019 A 
ATOM     10  C   UNL d   1      10.411   5.978  -8.628  0.00  0.00    -0.004 A 
ATOM     11  C   UNL d   1      11.038   6.030  -7.371  0.00  0.00     0.001 A 
ATOM     12  C   UNL d   1      11.048   7.162  -6.587  0.00  0.00     0.019 A 
ATOM     13  C   UNL d   1      10.534   8.363  -7.152  0.00  0.00     0.084 A 
ATOM     14  C   UNL d   1       9.890   8.355  -8.429  0.00  0.00     0.015 A 
BRANCH  13  15
ATOM     15  N   UNL d   1      10.559   9.591  -6.477  0.00  0.00    -0.212 NA
ATOM     16  C   UNL d   1      11.168   9.901  -5.337  0.00  0.00     0.256 C 
ATOM     17  C   UNL d   1      12.457   9.259  -4.835  0.00  0.00     0.100 C 
ATOM     18  O   UNL d   1      10.639  10.783  -4.633  0.00  0.00    -0.270 OA
ENDBRANCH  13  15
ENDBRANCH   8   9
ENDBRANCH   7   8
ENDBRANCH   1   7
BRANCH   4  19
ATOM     19  C   UNL d   1      10.402   4.225 -15.241  0.00  0.00     0.058 A 
ATOM     20  C   UNL d   1      10.608   3.018 -15.950  0.00  0.00     0.033 A 
ATOM     21  C   UNL d   1      11.611   2.946 -16.964  0.00  0.00     0.082 A 
ATOM     22  C   UNL d   1       9.845   1.850 -15.709  0.00  0.00     0.004 A 
ATOM     23  C   UNL d   1      12.370   4.100 -17.248  0.00  0.00     0.019 A 
ATOM     24  N   UNL d   1      11.852   1.817 -17.666  0.00  0.00    -0.250 NA
ATOM     25  C   UNL d   1      12.155   5.297 -16.549  0.00  0.00     0.003 A 
ATOM     26  C   UNL d   1      11.185   5.354 -15.540  0.00  0.00     0.017 A 
ATOM     27  C   UNL d   1      11.123   0.714 -17.407  0.00  0.00     0.059 A 
ATOM     28  C   UNL d   1      11.450  -0.512 -18.226  0.00  0.00     0.052 C 
ATOM     29  C   UNL d   1      10.106   0.678 -16.436  0.00  0.00     0.015 A 
ENDBRANCH   4  19
TORSDOF 5
