REMARK  9 active torsions:
REMARK  status: ('A' for Active; 'I' for Inactive)
REMARK    1  A    between atoms: O_2  and  C_3 
REMARK    2  A    between atoms: C_4  and  O_5 
REMARK    3  A    between atoms: O_5  and  C_6 
REMARK    4  A    between atoms: C_6  and  C_7 
REMARK    5  A    between atoms: C_12  and  C_13 
REMARK    6  A    between atoms: C_13  and  C_15 
REMARK    7  A    between atoms: N_18  and  C_19 
REMARK    8  A    between atoms: C_19  and  C_20 
REMARK    9  A    between atoms: C_20  and  C_21 
ROOT
ATOM      1  C   UNL d   1       9.038   5.385 -10.896  0.00  0.00     0.039 C 
ATOM      2  C   UNL d   1       8.370   5.336  -9.511  0.00  0.00     0.038 C 
ATOM      3  C   UNL d   1       9.346   5.789  -8.417  0.00  0.00     0.250 C 
ATOM      4  N   UNL d   1       9.888   7.126  -8.701  0.00  0.00     0.137 N 
ATOM      5  C   UNL d   1      10.636   7.113  -9.952  0.00  0.00     0.250 C 
ATOM      6  C   UNL d   1       9.678   6.799 -11.075  0.00  0.00     0.038 C 
ENDROOT
BRANCH   1   7
ATOM      7  C   UNL d   1       8.017   5.048 -12.005  0.00  0.00     0.176 C 
ATOM      8  O   UNL d   1       7.276   6.222 -12.284  0.00  0.00    -0.218 OA
BRANCH   7   9
ATOM      9  C   UNL d   1       8.606   4.377 -13.256  0.00  0.00     0.032 A 
ATOM     10  C   UNL d   1       7.887   3.393 -14.021  0.00  0.00     0.115 A 
ATOM     11  C   UNL d   1       8.513   2.780 -15.130  0.00  0.00     0.116 A 
ATOM     12  C   UNL d   1       9.801   3.194 -15.543  0.00  0.00     0.026 A 
ATOM     13  C   UNL d   1      10.502   4.152 -14.798  0.00  0.00     0.002 A 
ATOM     14  C   UNL d   1       9.929   4.706 -13.659  0.00  0.00     0.000 A 
BRANCH  10  15
ATOM     15  O   UNL d   1       6.620   2.955 -13.680  0.00  0.00    -0.326 OA
ATOM     16  C   UNL d   1       5.584   3.929 -13.570  0.00  0.00     0.181 C 
ENDBRANCH  10  15
BRANCH  11  17
ATOM     17  O   UNL d   1       7.816   1.780 -15.794  0.00  0.00    -0.326 OA
BRANCH  17  18
ATOM     18  C   UNL d   1       8.536   0.977 -16.723  0.00  0.00     0.187 C 
BRANCH  18  19
ATOM     19  C   UNL d   1       9.557   0.069 -16.006  0.00  0.00     0.226 C 
ATOM     20  F   UNL d   1      10.160  -0.736 -16.878  0.00  0.00    -0.232 F 
ENDBRANCH  18  19
ENDBRANCH  17  18
ENDBRANCH  11  17
ENDBRANCH   7   9
ENDBRANCH   1   7
BRANCH   4  21
ATOM     21  C   UNL d   1      10.798   7.520  -7.642  0.00  0.00     0.255 C 
BRANCH  21  22
ATOM     22  C   UNL d   1      10.037   8.253  -6.532  0.00  0.00     0.062 C 
BRANCH  22  23
ATOM     23  C   UNL d   1      10.866   8.304  -5.264  0.00  0.00    -0.020 A 
ATOM     24  C   UNL d   1      11.216   9.540  -4.685  0.00  0.00    -0.002 A 
ATOM     25  C   UNL d   1      11.931   9.551  -3.469  0.00  0.00     0.029 A 
ATOM     26  C   UNL d   1      12.308   8.350  -2.852  0.00  0.00     0.140 A 
ATOM     27  C   UNL d   1      11.964   7.120  -3.429  0.00  0.00     0.029 A 
ATOM     28  F   UNL d   1      13.011   8.385  -1.695  0.00  0.00    -0.204 F 
ATOM     29  C   UNL d   1      11.242   7.095  -4.638  0.00  0.00    -0.002 A 
ENDBRANCH  22  23
ENDBRANCH  21  22
ENDBRANCH   4  21
TORSDOF 9
