REMARK  6 active torsions:
REMARK  status: ('A' for Active; 'I' for Inactive)
REMARK    1  A    between atoms: C_2  and  C_4 
REMARK    2  A    between atoms: C_4  and  S_5 
REMARK    3  A    between atoms: S_5  and  N_8 
REMARK    4  A    between atoms: C_12  and  C_13 
REMARK    5  A    between atoms: C_17  and  C_18 
REMARK    6  A    between atoms: C_24  and  N_25 
ROOT
ATOM      1  N   UNL d   1      11.037   3.627 -16.241  0.00  0.00    -0.218 N 
ATOM      2  C   UNL d   1      10.868   2.611 -17.170  0.00  0.00     0.093 A 
ATOM      3  C   UNL d   1       9.718   1.919 -16.904  0.00  0.00     0.023 A 
ATOM      4  C   UNL d   1       9.124   2.543 -15.753  0.00  0.00     0.037 A 
ATOM      5  C   UNL d   1       7.958   2.342 -14.973  0.00  0.00     0.006 A 
ATOM      6  C   UNL d   1       7.725   3.222 -13.898  0.00  0.00     0.037 A 
ATOM      7  C   UNL d   1       8.652   4.242 -13.576  0.00  0.00     0.142 A 
ATOM      8  N   UNL d   1       9.767   4.465 -14.306  0.00  0.00    -0.211 NA
ATOM      9  C   UNL d   1       9.971   3.618 -15.354  0.00  0.00     0.158 A 
ENDROOT
BRANCH   5  10
ATOM     10  C   UNL d   1       6.986   1.271 -15.275  0.00  0.00     0.000 A 
ATOM     11  C   UNL d   1       6.637   0.957 -16.607  0.00  0.00     0.004 A 
ATOM     12  C   UNL d   1       5.696  -0.051 -16.901  0.00  0.00     0.071 A 
ATOM     13  C   UNL d   1       5.087  -0.764 -15.847  0.00  0.00     0.004 A 
ATOM     14  C   UNL d   1       5.416  -0.455 -14.514  0.00  0.00    -0.000 A 
ATOM     15  C   UNL d   1       6.359   0.550 -14.235  0.00  0.00    -0.000 A 
BRANCH  12  16
ATOM     16  C   UNL d   1       5.350  -0.364 -18.347  0.00  0.00     0.419 C 
ATOM     17  F   UNL d   1       4.101  -0.818 -18.465  0.00  0.00    -0.166 F 
ATOM     18  F   UNL d   1       5.472   0.731 -19.097  0.00  0.00    -0.166 F 
ATOM     19  F   UNL d   1       6.193  -1.292 -18.796  0.00  0.00    -0.166 F 
ENDBRANCH  12  16
ENDBRANCH   5  10
BRANCH   7  20
ATOM     20  N   UNL d   1       8.440   5.082 -12.464  0.00  0.00    -0.330 N 
ATOM     21  C   UNL d   1       7.679   4.662 -11.290  0.00  0.00     0.138 C 
ATOM     22  C   UNL d   1       8.518   4.845 -10.012  0.00  0.00     0.274 C 
ATOM     23  N   UNL d   1       8.963   6.235  -9.899  0.00  0.00     0.143 N 
ATOM     24  C   UNL d   1       9.774   6.616 -11.055  0.00  0.00     0.274 C 
ATOM     25  C   UNL d   1       9.679   6.446  -8.656  0.00  0.00     0.286 C 
ATOM     26  C   UNL d   1       8.994   6.432 -12.370  0.00  0.00     0.138 C 
ENDBRANCH   7  20
BRANCH   1  27
ATOM     27  S   UNL d   1      12.382   4.698 -16.239  0.00  0.00     0.252 S 
ATOM     28  O   UNL d   1      13.441   4.005 -16.988  0.00  0.00    -0.204 OA
ATOM     29  O   UNL d   1      12.593   5.139 -14.851  0.00  0.00    -0.204 OA
BRANCH  27  30
ATOM     30  C   UNL d   1      11.710   6.077 -17.265  0.00  0.00     0.145 C 
BRANCH  30  31
ATOM     31  C   UNL d   1      12.833   6.989 -17.798  0.00  0.00     0.018 C 
ATOM     32  C   UNL d   1      13.342   7.944 -16.709  0.00  0.00     0.001 C 
ATOM     33  C   UNL d   1      12.394   7.763 -19.049  0.00  0.00     0.001 C 
ENDBRANCH  30  31
ENDBRANCH  27  30
ENDBRANCH   1  27
TORSDOF 6
