REMARK  5 active torsions:
REMARK  status: ('A' for Active; 'I' for Inactive)
REMARK    1  A    between atoms: O_2  and  C_3 
REMARK    2  A    between atoms: C_8  and  N_9 
REMARK    3  A    between atoms: N_12  and  C_13 
REMARK    4  A    between atoms: C_13  and  C_14 
REMARK    5  A    between atoms: C_14  and  C_15 
ROOT
ATOM      1  N   UNL d   1       7.832   3.906 -13.558  0.00  0.00    -0.343 N 
ATOM      2  C   UNL d   1       7.071   4.475 -12.438  0.00  0.00     0.137 C 
ATOM      3  C   UNL d   1       8.019   4.906 -11.293  0.00  0.00     0.274 C 
ATOM      4  N   UNL d   1       9.063   5.809 -11.784  0.00  0.00     0.141 N 
ATOM      5  C   UNL d   1       9.826   5.084 -12.814  0.00  0.00     0.274 C 
ATOM      6  C   UNL d   1       8.920   4.761 -14.018  0.00  0.00     0.137 C 
ENDROOT
BRANCH   4   7
ATOM      7  C   UNL d   1       9.942   6.153 -10.665  0.00  0.00     0.251 C 
BRANCH   7   8
ATOM      8  C   UNL d   1       9.332   7.213  -9.755  0.00  0.00     0.043 C 
BRANCH   8   9
ATOM      9  C   UNL d   1      10.265   7.831  -8.689  0.00  0.00     0.064 C 
ATOM     10  C   UNL d   1      10.501   6.881  -7.506  0.00  0.00     0.172 C 
ATOM     11  C   UNL d   1      10.990   7.489  -6.226  0.00  0.00     0.032 A 
ATOM     12  O   UNL d   1      10.288   5.682  -7.656  0.00  0.00    -0.291 OA
ATOM     13  C   UNL d   1      11.061   8.887  -6.060  0.00  0.00    -0.019 A 
ATOM     14  C   UNL d   1      11.383   6.676  -5.144  0.00  0.00     0.017 A 
ATOM     15  C   UNL d   1      10.711   9.808  -7.192  0.00  0.00     0.027 C 
ATOM     16  C   UNL d   1      11.530   9.450  -4.859  0.00  0.00    -0.003 A 
ATOM     17  C   UNL d   1       9.710   9.181  -8.184  0.00  0.00     0.012 C 
ATOM     18  C   UNL d   1      11.938   8.632  -3.796  0.00  0.00     0.014 A 
ATOM     19  C   UNL d   1      11.862   7.234  -3.937  0.00  0.00     0.070 A 
ATOM     20  N   UNL d   1      12.259   6.398  -2.902  0.00  0.00    -0.101 NA
ENDBRANCH   8   9
ENDBRANCH   7   8
ENDBRANCH   4   7
BRANCH   1  21
ATOM     21  C   UNL d   1       7.581   2.602 -14.037  0.00  0.00     0.079 A 
ATOM     22  C   UNL d   1       8.611   1.707 -14.464  0.00  0.00     0.110 A 
ATOM     23  C   UNL d   1       8.245   0.445 -15.023  0.00  0.00     0.026 A 
ATOM     24  C   UNL d   1       6.900   0.046 -15.106  0.00  0.00     0.002 A 
ATOM     25  C   UNL d   1       5.896   0.894 -14.622  0.00  0.00     0.002 A 
ATOM     26  C   UNL d   1       6.247   2.155 -14.098  0.00  0.00     0.019 A 
BRANCH  22  27
ATOM     27  O   UNL d   1       9.913   2.092 -14.280  0.00  0.00    -0.327 OA
ATOM     28  C   UNL d   1      10.933   1.323 -14.871  0.00  0.00     0.181 C 
ENDBRANCH  22  27
ENDBRANCH   1  21
TORSDOF 5
