REMARK  0 active torsions:
REMARK  status: ('A' for Active; 'I' for Inactive)
ROOT
ATOM      1  C   UNL d   1       5.381  -1.229 -19.890  0.00  0.00     0.033 C 
ATOM      2  C   UNL d   1       5.597  -1.707 -18.451  0.00  0.00     0.126 C 
ATOM      3  C   UNL d   1       4.282  -1.958 -17.678  0.00  0.00     0.058 C 
ATOM      4  C   UNL d   1       4.520  -1.184 -16.433  0.00  0.00     0.003 A 
ATOM      5  C   UNL d   1       3.672  -1.071 -15.323  0.00  0.00    -0.003 A 
ATOM      6  C   UNL d   1       4.074  -0.216 -14.283  0.00  0.00    -0.004 A 
ATOM      7  C   UNL d   1       5.304   0.489 -14.360  0.00  0.00    -0.018 A 
ATOM      8  C   UNL d   1       6.163   0.353 -15.477  0.00  0.00     0.018 A 
ATOM      9  C   UNL d   1       5.721  -0.496 -16.523  0.00  0.00     0.090 A 
ATOM     10  O   UNL d   1       6.338  -0.713 -17.726  0.00  0.00    -0.333 OA
ATOM     11  C   UNL d   1       7.433   1.117 -15.500  0.00  0.00    -0.001 A 
ATOM     12  C   UNL d   1       8.537   0.748 -16.308  0.00  0.00    -0.000 A 
ATOM     13  C   UNL d   1       9.753   1.456 -16.317  0.00  0.00    -0.000 A 
ATOM     14  C   UNL d   1       9.919   2.578 -15.489  0.00  0.00    -0.004 A 
ATOM     15  C   UNL d   1       8.867   2.995 -14.658  0.00  0.00    -0.022 A 
ATOM     16  C   UNL d   1       7.653   2.256 -14.678  0.00  0.00     0.005 A 
ATOM     17  C   UNL d   1       6.462   2.699 -13.800  0.00  0.00     0.246 C 
ATOM     18  C   UNL d   1       5.670   1.469 -13.270  0.00  0.00     0.064 C 
ATOM     19  N   UNL d   1       6.818   3.604 -12.700  0.00  0.00     0.142 N 
ATOM     20  C   UNL d   1       5.668   4.174 -12.015  0.00  0.00     0.286 C 
ATOM     21  C   UNL d   1       7.607   4.705 -13.221  0.00  0.00     0.255 C 
ATOM     22  C   UNL d   1       8.954   4.149 -13.669  0.00  0.00     0.061 C 
ENDROOT
TORSDOF 0
