REMARK  6 active torsions:
REMARK  status: ('A' for Active; 'I' for Inactive)
REMARK    1  A    between atoms: N_13  and  C_14 
REMARK    2  A    between atoms: C_14  and  C_15 
REMARK    3  A    between atoms: C_15  and  C_16 
REMARK    4  A    between atoms: C_16  and  C_17 
REMARK    5  A    between atoms: C_17  and  N_18 
REMARK    6  A    between atoms: N_21  and  C_22 
ROOT
ATOM      1  C   UNL d   1       8.753   4.867 -11.714  0.00  0.00     0.037 C 
ENDROOT
BRANCH   1   2
ATOM      2  C   UNL d   1       8.832   4.508 -13.201  0.00  0.00     0.027 C 
BRANCH   2   3
ATOM      3  C   UNL d   1      10.079   3.639 -13.528  0.00  0.00     0.118 C 
BRANCH   3   4
ATOM      4  N   UNL d   1      10.205   3.279 -14.945  0.00  0.00    -0.257 N 
ATOM      5  S   UNL d   1      11.329   4.201 -15.873  0.00  0.00     0.247 S 
ATOM      6  O   UNL d   1      12.644   3.597 -15.631  0.00  0.00    -0.204 OA
ATOM      7  O   UNL d   1      11.074   5.614 -15.552  0.00  0.00    -0.204 OA
ATOM      8  C   UNL d   1      10.794   3.848 -17.568  0.00  0.00     0.149 C 
ATOM      9  C   UNL d   1      10.644   2.336 -17.709  0.00  0.00     0.047 C 
ATOM     10  C   UNL d   1       9.572   1.766 -16.789  0.00  0.00    -0.004 A 
ATOM     11  C   UNL d   1       9.409   2.222 -15.451  0.00  0.00     0.068 A 
ATOM     12  C   UNL d   1       8.749   0.736 -17.301  0.00  0.00    -0.001 A 
ATOM     13  C   UNL d   1       8.408   1.593 -14.653  0.00  0.00     0.045 A 
ATOM     14  C   UNL d   1       7.577   0.583 -15.185  0.00  0.00     0.132 A 
ATOM     15  C   UNL d   1       7.741   0.155 -16.510  0.00  0.00     0.027 A 
ATOM     16  O   UNL d   1       6.612   0.028 -14.393  0.00  0.00    -0.190 OA
ENDBRANCH   3   4
ENDBRANCH   2   3
ENDBRANCH   1   2
BRANCH   1  17
ATOM     17  C   UNL d   1       9.546   6.132 -11.393  0.00  0.00     0.251 C 
BRANCH  17  18
ATOM     18  N   UNL d   1       9.361   6.488 -10.005  0.00  0.00     0.141 N 
ATOM     19  C   UNL d   1      10.390   5.864  -9.187  0.00  0.00     0.274 C 
ATOM     20  C   UNL d   1      10.257   6.206  -7.700  0.00  0.00     0.137 C 
ATOM     21  N   UNL d   1      10.212   7.643  -7.524  0.00  0.00    -0.344 N 
ATOM     22  C   UNL d   1       9.267   8.330  -8.405  0.00  0.00     0.137 C 
ATOM     23  C   UNL d   1       9.524   7.933  -9.878  0.00  0.00     0.274 C 
BRANCH  21  24
ATOM     24  C   UNL d   1      10.976   8.291  -6.557  0.00  0.00     0.057 C 
ATOM     25  C   UNL d   1      11.322   7.762  -5.276  0.00  0.00     0.022 A 
ATOM     26  C   UNL d   1      12.193   8.513  -4.434  0.00  0.00     0.031 A 
ATOM     27  C   UNL d   1      10.938   6.559  -4.603  0.00  0.00     0.009 A 
ATOM     28  C   UNL d   1      12.756   9.671  -4.882  0.00  0.00     0.007 C 
ATOM     29  S   UNL d   1      12.514   7.778  -2.893  0.00  0.00    -0.086 SA
ATOM     30  C   UNL d   1      12.271  10.282  -6.048  0.00  0.00     0.002 C 
ATOM     31  C   UNL d   1      11.473   9.562  -6.942  0.00  0.00     0.017 C 
ATOM     32  C   UNL d   1      11.538   6.427  -3.378  0.00  0.00     0.035 A 
ENDBRANCH  21  24
ENDBRANCH  17  18
ENDBRANCH   1  17
TORSDOF 6
