REMARK  1 active torsions:
REMARK  status: ('A' for Active; 'I' for Inactive)
REMARK    1  A    between atoms: C_2  and  P_4 
ROOT
ATOM      1  P   UNL d   1       9.458   6.877  -8.081  0.00  0.00     0.364 P 
ATOM      2  O   UNL d   1      10.565   5.990  -7.638  0.00  0.00    -0.632 OA
ATOM      3  O   UNL d   1       8.260   7.064  -7.013  0.00  0.00    -0.632 OA
ATOM      4  O   UNL d   1       8.665   6.386  -9.408  0.00  0.00    -0.632 OA
ENDROOT
BRANCH   1   5
ATOM      5  C   UNL d   1       9.964   8.618  -8.505  0.00  0.00     0.307 C 
ATOM      6  O   UNL d   1      10.929   9.155  -7.958  0.00  0.00    -0.637 OA
ATOM      7  O   UNL d   1       9.168   9.248  -9.407  0.00  0.00    -0.637 OA
ENDBRANCH   1   5
TORSDOF 1
