REMARK  8 active torsions:
REMARK  status: ('A' for Active; 'I' for Inactive)
REMARK    1  A    between atoms: S_2  and  C_3 
REMARK    2  A    between atoms: C_8  and  O_9 
REMARK    3  A    between atoms: O_9  and  C_10 
REMARK    4  A    between atoms: C_10  and  C_11 
REMARK    5  A    between atoms: C_11  and  N_12 
REMARK    6  A    between atoms: C_15  and  N_16 
REMARK    7  A    between atoms: N_16  and  S_17 
REMARK    8  A    between atoms: S_17  and  C_20 
ROOT
ATOM      1  N   UNL d   1      10.252   6.317  -9.113  0.00  0.00     0.142 N 
ATOM      2  C   UNL d   1       9.354   5.642  -8.172  0.00  0.00     0.253 C 
ATOM      3  C   UNL d   1       8.869   4.426  -8.948  0.00  0.00     0.063 C 
ATOM      4  C   UNL d   1       8.992   4.845 -10.414  0.00  0.00     0.151 C 
ATOM      5  C   UNL d   1       9.503   6.285 -10.364  0.00  0.00     0.275 C 
ENDROOT
BRANCH   1   6
ATOM      6  C   UNL d   1      10.569   7.659  -8.681  0.00  0.00     0.283 C 
BRANCH   6   7
ATOM      7  C   UNL d   1      11.480   7.525  -7.431  0.00  0.00     0.184 C 
BRANCH   7   8
ATOM      8  O   UNL d   1      10.639   7.651  -6.296  0.00  0.00    -0.328 OA
BRANCH   8   9
ATOM      9  C   UNL d   1      11.273   7.731  -5.092  0.00  0.00     0.100 A 
ATOM     10  C   UNL d   1      11.418   8.976  -4.435  0.00  0.00     0.048 A 
ATOM     11  C   UNL d   1      11.961   9.059  -3.140  0.00  0.00     0.008 A 
ATOM     12  C   UNL d   1      12.382   7.899  -2.484  0.00  0.00     0.001 A 
ATOM     13  C   UNL d   1      12.264   6.660  -3.138  0.00  0.00     0.002 A 
ATOM     14  C   UNL d   1      11.710   6.562  -4.436  0.00  0.00     0.025 A 
BRANCH  10  15
ATOM     15  S   UNL d   1      10.723  10.400  -5.165  0.00  0.00    -0.111 SA
ATOM     16  C   UNL d   1      11.802  10.903  -6.542  0.00  0.00     0.074 C 
ENDBRANCH  10  15
ENDBRANCH   8   9
ENDBRANCH   7   8
ENDBRANCH   6   7
ENDBRANCH   1   6
BRANCH   4  17
ATOM     17  N   UNL d   1       7.706   4.787 -11.099  0.00  0.00    -0.185 NA
BRANCH  17  18
ATOM     18  S   UNL d   1       7.542   5.189 -12.749  0.00  0.00     0.281 S 
ATOM     19  O   UNL d   1       6.116   5.053 -13.071  0.00  0.00    -0.199 OA
ATOM     20  O   UNL d   1       8.259   6.452 -12.987  0.00  0.00    -0.199 OA
BRANCH  18  21
ATOM     21  C   UNL d   1       8.449   3.878 -13.554  0.00  0.00     0.105 A 
ATOM     22  C   UNL d   1       7.738   2.778 -14.061  0.00  0.00     0.015 A 
ATOM     23  C   UNL d   1       8.440   1.718 -14.666  0.00  0.00     0.030 A 
ATOM     24  C   UNL d   1       9.845   1.764 -14.766  0.00  0.00     0.140 A 
ATOM     25  C   UNL d   1      10.553   2.876 -14.264  0.00  0.00     0.030 A 
ATOM     26  F   UNL d   1      10.513   0.734 -15.335  0.00  0.00    -0.204 F 
ATOM     27  C   UNL d   1       9.855   3.939 -13.655  0.00  0.00     0.015 A 
ENDBRANCH  18  21
ENDBRANCH  17  18
ENDBRANCH   4  17
TORSDOF 8
