REMARK  1 active torsions:
REMARK  status: ('A' for Active; 'I' for Inactive)
REMARK    1  A    between atoms: C_4  and  C_5 
ROOT
ATOM      1  O   UNL d   1       9.031   9.189  -8.072  0.00  0.00    -0.289 OA
ATOM      2  C   UNL d   1       9.878   8.648  -7.379  0.00  0.00     0.202 A 
ATOM      3  C   UNL d   1      10.118   8.912  -6.017  0.00  0.00     0.064 A 
ATOM      4  C   UNL d   1      11.096   8.106  -5.617  0.00  0.00     0.097 A 
ATOM      5  O   UNL d   1      11.630   7.381  -6.641  0.00  0.00    -0.326 OA
ATOM      6  C   UNL d   1      10.864   7.591  -7.834  0.00  0.00     0.187 A 
ATOM      7  C   UNL d   1      10.167   6.260  -8.184  0.00  0.00     0.040 C 
ATOM      8  C   UNL d   1       9.402   6.394  -9.493  0.00  0.00     0.041 C 
ATOM      9  C   UNL d   1      10.244   7.062 -10.593  0.00  0.00     0.290 C 
ATOM     10  N   UNL d   1      10.883   8.321 -10.214  0.00  0.00     0.342 N 
ATOM     11  C   UNL d   1      11.716   8.101  -9.031  0.00  0.00     0.325 C 
ENDROOT
BRANCH   4  12
ATOM     12  C   UNL d   1      11.652   8.055  -4.284  0.00  0.00     0.022 A 
ATOM     13  C   UNL d   1      12.010   6.799  -3.762  0.00  0.00     0.002 A 
ATOM     14  C   UNL d   1      12.518   6.713  -2.453  0.00  0.00     0.000 A 
ATOM     15  C   UNL d   1      12.654   7.871  -1.676  0.00  0.00     0.000 A 
ATOM     16  C   UNL d   1      12.242   9.116  -2.184  0.00  0.00     0.000 A 
ATOM     17  C   UNL d   1      11.752   9.208  -3.494  0.00  0.00     0.002 A 
ENDBRANCH   4  12
TORSDOF 1
