REMARK  7 active torsions:
REMARK  status: ('A' for Active; 'I' for Inactive)
REMARK    1  A    between atoms: S_2  and  C_4 
REMARK    2  A    between atoms: S_2  and  C_23 
REMARK    3  A    between atoms: C_4  and  C_5 
REMARK    4  A    between atoms: N_8  and  C_9 
REMARK    5  A    between atoms: C_9  and  C_10 
REMARK    6  A    between atoms: C_10  and  C_11 
REMARK    7  A    between atoms: C_11  and  C_12 
ROOT
ATOM      1  C   UNL d   1       7.513   5.644 -11.569  0.00  0.00     0.052 C 
ATOM      2  C   UNL d   1       8.077   6.302 -12.846  0.00  0.00     0.038 C 
ATOM      3  C   UNL d   1       9.437   6.862 -12.400  0.00  0.00     0.250 C 
ATOM      4  N   UNL d   1       9.232   7.159 -10.999  0.00  0.00     0.137 N 
ATOM      5  C   UNL d   1       8.542   5.977 -10.473  0.00  0.00     0.251 C 
ENDROOT
BRANCH   4   6
ATOM      6  C   UNL d   1      10.457   7.478 -10.284  0.00  0.00     0.251 C 
BRANCH   6   7
ATOM      7  C   UNL d   1      10.154   7.911  -8.832  0.00  0.00     0.042 C 
BRANCH   7   8
ATOM      8  C   UNL d   1      11.332   7.606  -7.897  0.00  0.00     0.050 C 
BRANCH   8   9
ATOM      9  C   UNL d   1      11.364   8.511  -6.703  0.00  0.00     0.088 A 
ATOM     10  C   UNL d   1      11.556   8.248  -5.331  0.00  0.00     0.041 A 
ATOM     11  C   UNL d   1      11.610   9.457  -4.642  0.00  0.00     0.129 A 
ATOM     12  C   UNL d   1      11.795   7.042  -4.633  0.00  0.00     0.006 A 
ATOM     13  O   UNL d   1      11.434  10.434  -5.598  0.00  0.00    -0.211 OA
ATOM     14  C   UNL d   1      11.854   9.549  -3.268  0.00  0.00     0.057 A 
ATOM     15  N   UNL d   1      11.331   9.829  -6.875  0.00  0.00    -0.131 NA
ATOM     16  C   UNL d   1      12.089   8.349  -2.570  0.00  0.00     0.142 A 
ATOM     17  F   UNL d   1      12.314   8.387  -1.238  0.00  0.00    -0.204 F 
ATOM     18  C   UNL d   1      12.062   7.105  -3.245  0.00  0.00     0.030 A 
ENDBRANCH   8   9
ENDBRANCH   7   8
ENDBRANCH   6   7
ENDBRANCH   4   6
BRANCH   1  19
ATOM     19  C   UNL d   1       7.302   4.108 -11.629  0.00  0.00     0.129 C 
BRANCH  19  20
ATOM     20  S   UNL d   1       6.045   3.555 -12.857  0.00  0.00     0.190 S 
ATOM     21  O   UNL d   1       5.120   2.631 -12.185  0.00  0.00    -0.222 OA
ATOM     22  O   UNL d   1       5.483   4.730 -13.550  0.00  0.00    -0.222 OA
BRANCH  20  23
ATOM     23  C   UNL d   1       6.992   2.590 -14.046  0.00  0.00     0.086 A 
ATOM     24  C   UNL d   1       8.259   3.027 -14.516  0.00  0.00     0.041 A 
ATOM     25  C   UNL d   1       8.947   2.260 -15.465  0.00  0.00     0.141 A 
ATOM     26  C   UNL d   1       8.441   1.029 -15.931  0.00  0.00     0.030 A 
ATOM     27  F   UNL d   1      10.125   2.705 -15.932  0.00  0.00    -0.204 F 
ATOM     28  C   UNL d   1       7.194   0.558 -15.428  0.00  0.00     0.003 A 
ATOM     29  C   UNL d   1       6.448   1.341 -14.491  0.00  0.00     0.011 A 
ENDBRANCH  20  23
ENDBRANCH  19  20
ENDBRANCH   1  19
TORSDOF 7
