REMARK  6 active torsions:
REMARK  status: ('A' for Active; 'I' for Inactive)
REMARK    1  A    between atoms: C_8  and  O_9 
REMARK    2  A    between atoms: O_9  and  C_10 
REMARK    3  A    between atoms: C_10  and  C_11 
REMARK    4  A    between atoms: C_11  and  C_12 
REMARK    5  A    between atoms: C_12  and  N_13 
REMARK    6  A    between atoms: N_16  and  C_17 
ROOT
ATOM      1  N   UNL d   1       9.730   5.078 -12.320  0.00  0.00     0.141 N 
ATOM      2  C   UNL d   1       9.719   3.624 -12.387  0.00  0.00     0.274 C 
ATOM      3  C   UNL d   1      10.302   3.099 -13.723  0.00  0.00     0.137 C 
ATOM      4  N   UNL d   1       9.612   3.718 -14.848  0.00  0.00    -0.344 N 
ATOM      5  C   UNL d   1       9.505   5.169 -14.787  0.00  0.00     0.137 C 
ATOM      6  C   UNL d   1       8.905   5.590 -13.421  0.00  0.00     0.274 C 
ENDROOT
BRANCH   1   7
ATOM      7  C   UNL d   1       9.146   5.449 -11.035  0.00  0.00     0.253 C 
BRANCH   7   8
ATOM      8  C   UNL d   1       9.596   6.844 -10.617  0.00  0.00     0.068 C 
BRANCH   8   9
ATOM      9  C   UNL d   1       9.241   7.138  -9.151  0.00  0.00     0.151 C 
BRANCH   9  10
ATOM     10  O   UNL d   1      10.176   6.540  -8.238  0.00  0.00    -0.331 OA
BRANCH  10  11
ATOM     11  C   UNL d   1      10.738   7.378  -7.298  0.00  0.00     0.094 A 
ATOM     12  C   UNL d   1      11.102   8.732  -7.577  0.00  0.00     0.024 A 
ATOM     13  C   UNL d   1      11.604   9.569  -6.558  0.00  0.00    -0.000 A 
ATOM     14  C   UNL d   1      11.791   9.004  -5.292  0.00  0.00     0.007 A 
ATOM     15  C   UNL d   1      12.373   9.621  -4.060  0.00  0.00     0.155 A 
ATOM     16  C   UNL d   1      11.487   7.691  -5.011  0.00  0.00     0.057 A 
ATOM     17  N   UNL d   1      12.358   8.539  -3.092  0.00  0.00    -0.229 NA
ATOM     18  C   UNL d   1      11.867   7.410  -3.601  0.00  0.00     0.275 A 
ATOM     19  O   UNL d   1      11.739   6.373  -2.985  0.00  0.00    -0.266 OA
ATOM     20  C   UNL d   1      10.984   6.841  -6.014  0.00  0.00     0.029 A 
ENDBRANCH  10  11
ENDBRANCH   9  10
ENDBRANCH   8   9
ENDBRANCH   7   8
ENDBRANCH   1   7
BRANCH   4  21
ATOM     21  C   UNL d   1       9.078   2.975 -15.906  0.00  0.00     0.056 A 
ATOM     22  C   UNL d   1       8.002   2.042 -15.733  0.00  0.00     0.018 A 
ATOM     23  C   UNL d   1       7.490   1.318 -16.836  0.00  0.00     0.002 A 
ATOM     24  C   UNL d   1       7.397   1.860 -14.476  0.00  0.00     0.031 A 
ATOM     25  C   UNL d   1       8.028   1.521 -18.123  0.00  0.00     0.000 A 
ATOM     26  C   UNL d   1       6.427   0.397 -16.655  0.00  0.00     0.002 A 
ATOM     27  C   UNL d   1       9.074   2.448 -18.313  0.00  0.00     0.002 A 
ATOM     28  C   UNL d   1       9.589   3.172 -17.218  0.00  0.00     0.017 A 
ATOM     29  C   UNL d   1       5.868   0.197 -15.373  0.00  0.00     0.030 A 
ATOM     30  C   UNL d   1       6.361   0.936 -14.288  0.00  0.00     0.140 A 
ATOM     31  F   UNL d   1       5.825   0.767 -13.058  0.00  0.00    -0.204 F 
ENDBRANCH   4  21
TORSDOF 6
