REMARK  7 active torsions:
REMARK  status: ('A' for Active; 'I' for Inactive)
REMARK    1  A    between atoms: C_5  and  N_6 
REMARK    2  A    between atoms: N_11  and  C_12 
REMARK    3  A    between atoms: C_12  and  C_13 
REMARK    4  A    between atoms: C_13  and  C_14 
REMARK    5  A    between atoms: C_14  and  S_15 
REMARK    6  A    between atoms: S_15  and  C_16 
REMARK    7  A    between atoms: C_19  and  C_20 
ROOT
ATOM      1  C   UNL d   1      11.803   3.724 -15.738  0.00  0.00     0.251 C 
ENDROOT
BRANCH   1   2
ATOM      2  N   UNL d   1      10.468   3.646 -15.158  0.00  0.00     0.138 N 
ATOM      3  C   UNL d   1      10.409   4.065 -13.762  0.00  0.00     0.252 C 
ATOM      4  C   UNL d   1       9.070   3.515 -13.271  0.00  0.00     0.052 C 
ATOM      5  C   UNL d   1       7.876   4.459 -13.448  0.00  0.00     0.021 C 
ATOM      6  C   UNL d   1       8.773   2.326 -14.185  0.00  0.00     0.097 C 
ATOM      7  C   UNL d   1       6.779   3.532 -13.962  0.00  0.00     0.077 C 
ATOM      8  N   UNL d   1       7.476   2.571 -14.805  0.00  0.00    -0.252 NA
ATOM      9  C   UNL d   1       9.939   2.287 -15.177  0.00  0.00     0.266 C 
BRANCH   8  10
ATOM     10  C   UNL d   1       6.760   1.411 -15.140  0.00  0.00     0.036 A 
ATOM     11  C   UNL d   1       6.676   1.011 -16.487  0.00  0.00     0.011 A 
ATOM     12  C   UNL d   1       5.932  -0.130 -16.848  0.00  0.00    -0.003 A 
ATOM     13  C   UNL d   1       5.272  -0.880 -15.854  0.00  0.00    -0.022 A 
ATOM     14  C   UNL d   1       4.485  -2.115 -16.225  0.00  0.00     0.031 C 
ATOM     15  C   UNL d   1       5.362  -0.492 -14.507  0.00  0.00    -0.003 A 
ATOM     16  C   UNL d   1       6.108   0.646 -14.144  0.00  0.00     0.011 A 
ENDBRANCH   8  10
ENDBRANCH   1   2
BRANCH   1  17
ATOM     17  C   UNL d   1      12.166   5.181 -16.069  0.00  0.00     0.047 C 
BRANCH  17  18
ATOM     18  C   UNL d   1      13.533   5.292 -16.749  0.00  0.00     0.067 C 
BRANCH  18  19
ATOM     19  S   UNL d   1      13.967   7.018 -17.126  0.00  0.00    -0.075 SA
BRANCH  19  20
ATOM     20  C   UNL d   1      15.640   6.775 -17.639  0.00  0.00     0.193 A 
ATOM     21  N   UNL d   1      16.191   7.371 -18.721  0.00  0.00    -0.287 N 
ATOM     22  C   UNL d   1      17.432   6.825 -18.749  0.00  0.00     0.186 A 
ATOM     23  C   UNL d   1      15.555   8.316 -19.636  0.00  0.00     0.134 C 
ATOM     24  N   UNL d   1      17.649   6.015 -17.701  0.00  0.00    -0.127 NA
ATOM     25  N   UNL d   1      16.486   5.991 -16.977  0.00  0.00    -0.122 NA
BRANCH  22  26
ATOM     26  C   UNL d   1      18.485   7.024 -19.760  0.00  0.00     0.136 A 
ATOM     27  N   UNL d   1      19.271   5.956 -20.049  0.00  0.00    -0.238 NA
ATOM     28  C   UNL d   1      20.255   6.121 -20.968  0.00  0.00     0.120 A 
ATOM     29  C   UNL d   1      20.443   7.357 -21.620  0.00  0.00     0.120 A 
ATOM     30  N   UNL d   1      19.669   8.430 -21.345  0.00  0.00    -0.239 NA
ATOM     31  C   UNL d   1      18.700   8.269 -20.412  0.00  0.00     0.121 A 
ENDBRANCH  22  26
ENDBRANCH  19  20
ENDBRANCH  18  19
ENDBRANCH  17  18
ENDBRANCH   1  17
TORSDOF 7
