REMARK  8 active torsions:
REMARK  status: ('A' for Active; 'I' for Inactive)
REMARK    1  A    between atoms: N_14  and  C_15 
REMARK    2  A    between atoms: C_15  and  C_16 
REMARK    3  A    between atoms: C_16  and  C_17 
REMARK    4  A    between atoms: C_17  and  C_18 
REMARK    5  A    between atoms: C_18  and  C_19 
REMARK    6  A    between atoms: C_19  and  C_20 
REMARK    7  A    between atoms: C_20  and  N_21 
REMARK    8  A    between atoms: N_24  and  C_25 
ROOT
ATOM      1  C   UNL d   1       8.792   3.725 -12.753  0.00  0.00     0.002 C 
ENDROOT
BRANCH   1   2
ATOM      2  C   UNL d   1       9.551   4.652 -13.718  0.00  0.00     0.025 C 
BRANCH   2   3
ATOM      3  C   UNL d   1       9.597   4.083 -15.139  0.00  0.00     0.118 C 
BRANCH   3   4
ATOM      4  N   UNL d   1      10.751   4.553 -15.892  0.00  0.00    -0.254 N 
ATOM      5  S   UNL d   1      12.235   3.742 -15.730  0.00  0.00     0.268 S 
ATOM      6  O   UNL d   1      11.912   2.310 -15.809  0.00  0.00    -0.200 OA
ATOM      7  O   UNL d   1      12.954   4.381 -14.616  0.00  0.00    -0.200 OA
ATOM      8  C   UNL d   1      12.776   4.357 -17.301  0.00  0.00     0.105 A 
ATOM      9  C   UNL d   1      11.765   5.101 -17.919  0.00  0.00     0.029 A 
ATOM     10  C   UNL d   1      13.998   4.166 -17.968  0.00  0.00     0.013 A 
ATOM     11  C   UNL d   1      11.898   5.679 -19.196  0.00  0.00     0.002 A 
ATOM     12  C   UNL d   1      10.612   5.190 -17.127  0.00  0.00     0.071 A 
ATOM     13  C   UNL d   1      13.132   5.488 -19.852  0.00  0.00     0.000 A 
ATOM     14  C   UNL d   1      10.784   6.389 -19.696  0.00  0.00     0.000 A 
ATOM     15  C   UNL d   1      14.171   4.741 -19.248  0.00  0.00     0.001 A 
ATOM     16  C   UNL d   1       9.596   6.482 -18.938  0.00  0.00     0.002 A 
ATOM     17  C   UNL d   1       9.514   5.876 -17.669  0.00  0.00     0.018 A 
ENDBRANCH   3   4
ENDBRANCH   2   3
ENDBRANCH   1   2
BRANCH   1  18
ATOM     18  C   UNL d   1       8.188   4.463 -11.546  0.00  0.00     0.002 C 
BRANCH  18  19
ATOM     19  C   UNL d   1       9.263   4.969 -10.571  0.00  0.00     0.035 C 
BRANCH  19  20
ATOM     20  C   UNL d   1       8.650   5.781  -9.426  0.00  0.00     0.250 C 
BRANCH  20  21
ATOM     21  N   UNL d   1       9.653   6.635  -8.793  0.00  0.00     0.141 N 
ATOM     22  C   UNL d   1       8.983   7.562  -7.879  0.00  0.00     0.274 C 
ATOM     23  C   UNL d   1       9.992   8.484  -7.197  0.00  0.00     0.137 C 
ATOM     24  N   UNL d   1      10.990   7.697  -6.492  0.00  0.00    -0.344 N 
ATOM     25  C   UNL d   1      11.637   6.692  -7.299  0.00  0.00     0.137 C 
ATOM     26  C   UNL d   1      10.562   5.832  -7.981  0.00  0.00     0.274 C 
BRANCH  24  27
ATOM     27  C   UNL d   1      11.345   7.912  -5.151  0.00  0.00     0.067 A 
ATOM     28  C   UNL d   1      11.552   9.207  -4.625  0.00  0.00     0.073 A 
ATOM     29  C   UNL d   1      11.886   9.376  -3.267  0.00  0.00     0.013 A 
ATOM     30 CL   UNL d   1      11.461  10.592  -5.644  0.00  0.00    -0.081 Cl
ATOM     31  C   UNL d   1      12.041   8.257  -2.429  0.00  0.00     0.001 A 
ATOM     32  C   UNL d   1      11.860   6.965  -2.945  0.00  0.00     0.002 A 
ATOM     33  C   UNL d   1      11.509   6.796  -4.298  0.00  0.00     0.018 A 
ENDBRANCH  24  27
ENDBRANCH  20  21
ENDBRANCH  19  20
ENDBRANCH  18  19
ENDBRANCH   1  18
TORSDOF 8
