REMARK  6 active torsions:
REMARK  status: ('A' for Active; 'I' for Inactive)
REMARK       I    between atoms: C_2  and  N_3 
REMARK    1  A    between atoms: C_2  and  C_26 
REMARK    2  A    between atoms: N_3  and  C_4 
REMARK    3  A    between atoms: C_7  and  C_8 
REMARK    4  A    between atoms: C_8  and  C_9 
REMARK    5  A    between atoms: C_9  and  N_10 
REMARK    6  A    between atoms: N_13  and  C_14 
ROOT
ATOM      1  C   UNL d   1       9.621   5.400  -9.353  0.00  0.00     0.035 C 
ENDROOT
BRANCH   1   2
ATOM      2  C   UNL d   1       9.881   6.912  -9.307  0.00  0.00     0.002 C 
ATOM      3  C   UNL d   1       9.164   7.526  -8.108  0.00  0.00     0.002 C 
ATOM      4  C   UNL d   1       9.409   9.040  -8.027  0.00  0.00     0.024 C 
ATOM      5  C   UNL d   1      10.915   9.334  -7.880  0.00  0.00     0.107 C 
ATOM      6  C   UNL d   1      11.675   8.726  -9.070  0.00  0.00     0.024 C 
ATOM      7  C   UNL d   1      11.376   7.238  -9.179  0.00  0.00     0.002 C 
BRANCH   5   8
ATOM      8  N   UNL d   1      11.420   8.803  -6.629  0.00  0.00    -0.236 NA
ATOM      9  C   UNL d   1      11.404   9.435  -5.447  0.00  0.00     0.275 C 
ATOM     10  O   UNL d   1      11.046  10.601  -5.286  0.00  0.00    -0.266 OA
BRANCH   9  11
ATOM     11  C   UNL d   1      11.858   8.608  -4.290  0.00  0.00     0.058 A 
ATOM     12  C   UNL d   1      12.248   9.228  -3.084  0.00  0.00     0.005 A 
ATOM     13  C   UNL d   1      12.649   8.461  -1.978  0.00  0.00     0.000 A 
ATOM     14  C   UNL d   1      12.645   7.058  -2.069  0.00  0.00     0.000 A 
ATOM     15  C   UNL d   1      12.250   6.450  -3.257  0.00  0.00     0.000 A 
ATOM     16  C   UNL d   1      11.851   7.202  -4.369  0.00  0.00     0.005 A 
ENDBRANCH   9  11
ENDBRANCH   5   8
ENDBRANCH   1   2
BRANCH   1  17
ATOM     17  C   UNL d   1       8.232   5.047  -9.922  0.00  0.00     0.250 C 
BRANCH  17  18
ATOM     18  N   UNL d   1       8.142   4.997 -11.391  0.00  0.00     0.141 N 
ATOM     19  C   UNL d   1       6.937   4.230 -11.767  0.00  0.00     0.274 C 
ATOM     20  C   UNL d   1       6.790   4.159 -13.300  0.00  0.00     0.137 C 
ATOM     21  N   UNL d   1       8.019   3.685 -13.926  0.00  0.00    -0.344 N 
ATOM     22  C   UNL d   1       9.232   4.362 -13.511  0.00  0.00     0.137 C 
ATOM     23  C   UNL d   1       9.333   4.387 -11.982  0.00  0.00     0.274 C 
BRANCH  21  24
ATOM     24  C   UNL d   1       8.062   2.621 -14.845  0.00  0.00     0.068 A 
ATOM     25  C   UNL d   1       8.844   2.688 -16.034  0.00  0.00     0.084 A 
ATOM     26  C   UNL d   1       8.836   1.605 -16.934  0.00  0.00     0.070 A 
ATOM     27 CL   UNL d   1       9.754   4.098 -16.504  0.00  0.00    -0.080 Cl
ATOM     28  C   UNL d   1       8.066   0.456 -16.663  0.00  0.00     0.012 A 
ATOM     29 CL   UNL d   1       9.734   1.680 -18.407  0.00  0.00    -0.081 Cl
ATOM     30  C   UNL d   1       7.301   0.385 -15.482  0.00  0.00     0.002 A 
ATOM     31  C   UNL d   1       7.301   1.460 -14.580  0.00  0.00     0.018 A 
ENDBRANCH  21  24
ENDBRANCH  17  18
ENDBRANCH   1  17
TORSDOF 6
