REMARK  3 active torsions:
REMARK  status: ('A' for Active; 'I' for Inactive)
REMARK    1  A    between atoms: C_7  and  C_8 
REMARK    2  A    between atoms: C_8  and  C_9 
REMARK    3  A    between atoms: C_9  and  N_10 
ROOT
ATOM      1  N   UNL d   1       8.777   2.252 -15.512  0.00  0.00    -0.327 N 
ATOM      2  C   UNL d   1       7.694   1.348 -15.682  0.00  0.00     0.066 A 
ATOM      3  C   UNL d   1       7.707   0.307 -16.651  0.00  0.00     0.018 A 
ATOM      4  C   UNL d   1       6.604  -0.534 -16.866  0.00  0.00     0.008 A 
ATOM      5  C   UNL d   1       5.470  -0.423 -16.056  0.00  0.00     0.035 A 
ATOM      6 BR   UNL d   1       3.957  -1.537 -16.341  0.00  0.00    -0.049 Br
ATOM      7  C   UNL d   1       5.460   0.535 -15.039  0.00  0.00     0.015 A 
ATOM      8  C   UNL d   1       6.527   1.442 -14.878  0.00  0.00     0.046 A 
ATOM      9  S   UNL d   1       6.264   2.729 -13.709  0.00  0.00    -0.084 SA
ATOM     10  C   UNL d   1       7.823   3.519 -13.594  0.00  0.00     0.046 A 
ATOM     11  C   UNL d   1       7.970   4.410 -12.504  0.00  0.00     0.015 A 
ATOM     12  C   UNL d   1       9.197   5.026 -12.270  0.00  0.00     0.035 A 
ATOM     13 BR   UNL d   1       9.449   6.174 -10.775  0.00  0.00    -0.049 Br
ATOM     14  C   UNL d   1      10.266   4.749 -13.138  0.00  0.00     0.008 A 
ATOM     15  C   UNL d   1      10.129   3.864 -14.207  0.00  0.00     0.018 A 
ATOM     16  C   UNL d   1       8.904   3.206 -14.467  0.00  0.00     0.066 A 
ENDROOT
BRANCH   1  17
ATOM     17  C   UNL d   1       9.753   2.346 -16.616  0.00  0.00     0.108 C 
BRANCH  17  18
ATOM     18  C   UNL d   1       9.319   3.371 -17.685  0.00  0.00     0.058 C 
BRANCH  18  19
ATOM     19  C   UNL d   1      10.329   3.431 -18.863  0.00  0.00     0.221 C 
ATOM     20  N   UNL d   1       9.883   2.627 -20.018  0.00  0.00     0.137 N 
ATOM     21  C   UNL d   1       9.656   1.230 -19.673  0.00  0.00     0.285 C 
ATOM     22  C   UNL d   1      10.872   2.648 -21.091  0.00  0.00     0.250 C 
ATOM     23  C   UNL d   1      11.073   4.077 -21.614  0.00  0.00     0.035 C 
ATOM     24  C   UNL d   1      11.526   5.002 -20.486  0.00  0.00     0.004 C 
ATOM     25  C   UNL d   1      10.547   4.894 -19.311  0.00  0.00     0.033 C 
ENDBRANCH  18  19
ENDBRANCH  17  18
ENDBRANCH   1  17
TORSDOF 3
