REMARK  9 active torsions:
REMARK  status: ('A' for Active; 'I' for Inactive)
REMARK    1  A    between atoms: C_2  and  C_5 
REMARK    2  A    between atoms: C_9  and  N_10 
REMARK    3  A    between atoms: N_13  and  C_14 
REMARK    4  A    between atoms: C_14  and  C_15 
REMARK    5  A    between atoms: C_15  and  C_16 
REMARK    6  A    between atoms: C_16  and  C_17 
REMARK    7  A    between atoms: C_17  and  N_18 
REMARK    8  A    between atoms: N_18  and  C_19 
REMARK    9  A    between atoms: C_21  and  C_22 
ROOT
ATOM      1  N   UNL d   1      11.050   3.267 -16.738  0.00  0.00    -0.344 N 
ATOM      2  C   UNL d   1      10.211   4.454 -16.715  0.00  0.00     0.137 C 
ATOM      3  C   UNL d   1       9.237   4.380 -15.524  0.00  0.00     0.274 C 
ATOM      4  N   UNL d   1       9.937   4.199 -14.262  0.00  0.00     0.141 N 
ATOM      5  C   UNL d   1      10.640   2.916 -14.332  0.00  0.00     0.274 C 
ATOM      6  C   UNL d   1      11.691   2.929 -15.481  0.00  0.00     0.137 C 
ENDROOT
BRANCH   4   7
ATOM      7  C   UNL d   1       8.944   4.181 -13.191  0.00  0.00     0.251 C 
BRANCH   7   8
ATOM      8  C   UNL d   1       9.592   4.564 -11.860  0.00  0.00     0.037 C 
BRANCH   8   9
ATOM      9  C   UNL d   1       8.557   4.897 -10.765  0.00  0.00     0.029 C 
BRANCH   9  10
ATOM     10  C   UNL d   1       9.203   5.326  -9.434  0.00  0.00     0.128 C 
BRANCH  10  11
ATOM     11  N   UNL d   1       9.973   6.543  -9.572  0.00  0.00    -0.247 NA
BRANCH  11  12
ATOM     12  C   UNL d   1      10.446   7.441  -8.641  0.00  0.00     0.190 A 
ATOM     13  S   UNL d   1      10.888   9.062  -9.104  0.00  0.00    -0.047 SA
ATOM     14  C   UNL d   1      11.235   9.390  -7.428  0.00  0.00     0.058 A 
ATOM     15  C   UNL d   1      11.095   8.282  -6.629  0.00  0.00     0.090 A 
ATOM     16  N   UNL d   1      10.609   7.180  -7.346  0.00  0.00    -0.221 NA
BRANCH  15  17
ATOM     17  C   UNL d   1      11.413   8.172  -5.202  0.00  0.00     0.018 A 
ATOM     18  C   UNL d   1      11.631   9.332  -4.421  0.00  0.00     0.002 A 
ATOM     19  C   UNL d   1      11.941   9.223  -3.052  0.00  0.00     0.000 A 
ATOM     20  C   UNL d   1      12.054   7.953  -2.456  0.00  0.00     0.000 A 
ATOM     21  C   UNL d   1      11.863   6.793  -3.228  0.00  0.00     0.000 A 
ATOM     22  C   UNL d   1      11.537   6.904  -4.591  0.00  0.00     0.002 A 
ENDBRANCH  15  17
ENDBRANCH  11  12
ENDBRANCH  10  11
ENDBRANCH   9  10
ENDBRANCH   8   9
ENDBRANCH   7   8
ENDBRANCH   4   7
BRANCH   1  23
ATOM     23  C   UNL d   1      11.182   2.467 -17.885  0.00  0.00     0.056 A 
ATOM     24  C   UNL d   1      10.060   2.161 -18.682  0.00  0.00     0.017 A 
ATOM     25  C   UNL d   1      10.198   1.365 -19.835  0.00  0.00     0.001 A 
ATOM     26  C   UNL d   1      11.472   0.883 -20.206  0.00  0.00     0.004 A 
ATOM     27  C   UNL d   1      12.607   1.192 -19.434  0.00  0.00     0.073 A 
ATOM     28  C   UNL d   1      12.455   1.967 -18.267  0.00  0.00     0.021 A 
BRANCH  27  29
ATOM     29  C   UNL d   1      13.966   0.678 -19.854  0.00  0.00     0.419 C 
ATOM     30  F   UNL d   1      14.067  -0.608 -19.534  0.00  0.00    -0.166 F 
ATOM     31  F   UNL d   1      14.951   1.347 -19.257  0.00  0.00    -0.166 F 
ATOM     32  F   UNL d   1      14.121   0.800 -21.172  0.00  0.00    -0.166 F 
ENDBRANCH  27  29
ENDBRANCH   1  23
TORSDOF 9
