REMARK  6 active torsions:
REMARK  status: ('A' for Active; 'I' for Inactive)
REMARK    1  A    between atoms: C_11  and  C_12 
REMARK    2  A    between atoms: C_12  and  C_13 
REMARK    3  A    between atoms: C_13  and  C_14 
REMARK    4  A    between atoms: C_14  and  C_15 
REMARK    5  A    between atoms: C_15  and  N_16 
REMARK    6  A    between atoms: N_19  and  C_20 
ROOT
ATOM      1  C   UNL d   1       8.366   5.979 -11.286  0.00  0.00     0.035 C 
ENDROOT
BRANCH   1   2
ATOM      2  C   UNL d   1       9.270   5.790 -10.052  0.00  0.00     0.003 C 
BRANCH   2   3
ATOM      3  C   UNL d   1       9.420   7.078  -9.226  0.00  0.00     0.008 C 
BRANCH   3   4
ATOM      4  C   UNL d   1      10.768   7.166  -8.500  0.00  0.00     0.066 A 
ATOM      5  C   UNL d   1      11.051   8.594  -8.017  0.00  0.00     0.173 A 
ATOM      6  O   UNL d   1      11.058   9.574  -8.761  0.00  0.00    -0.291 OA
ATOM      7  C   UNL d   1      11.313   8.553  -6.577  0.00  0.00     0.031 A 
ATOM      8  C   UNL d   1      11.206   7.244  -6.124  0.00  0.00    -0.018 A 
ATOM      9  C   UNL d   1      11.660   9.606  -5.704  0.00  0.00     0.003 A 
ATOM     10  C   UNL d   1      11.461   6.914  -4.782  0.00  0.00     0.007 A 
ATOM     11  C   UNL d   1      10.858   6.285  -7.226  0.00  0.00     0.034 A 
ATOM     12  C   UNL d   1      11.838   7.946  -3.896  0.00  0.00     0.057 A 
ATOM     13  C   UNL d   1      11.909   9.280  -4.348  0.00  0.00     0.011 A 
ATOM     14 CL   UNL d   1      12.183   7.582  -2.248  0.00  0.00    -0.082 Cl
ENDBRANCH   3   4
ENDBRANCH   2   3
ENDBRANCH   1   2
BRANCH   1  15
ATOM     15  C   UNL d   1       8.214   4.688 -12.092  0.00  0.00     0.250 C 
BRANCH  15  16
ATOM     16  N   UNL d   1       9.300   4.562 -13.071  0.00  0.00     0.141 N 
ATOM     17  C   UNL d   1       9.845   3.207 -13.042  0.00  0.00     0.274 C 
ATOM     18  C   UNL d   1      10.995   3.054 -14.058  0.00  0.00     0.138 C 
ATOM     19  N   UNL d   1      10.547   3.430 -15.395  0.00  0.00    -0.330 N 
ATOM     20  C   UNL d   1       9.880   4.727 -15.470  0.00  0.00     0.138 C 
ATOM     21  C   UNL d   1       8.767   4.816 -14.408  0.00  0.00     0.274 C 
BRANCH  19  22
ATOM     22  C   UNL d   1      10.704   2.586 -16.515  0.00  0.00     0.140 A 
ATOM     23  N   UNL d   1      10.824   1.254 -16.291  0.00  0.00    -0.227 NA
ATOM     24  C   UNL d   1      10.964   0.424 -17.344  0.00  0.00     0.101 A 
ATOM     25  C   UNL d   1      10.995   0.868 -18.678  0.00  0.00     0.021 A 
ATOM     26  C   UNL d   1      10.879   2.249 -18.917  0.00  0.00     0.005 A 
ATOM     27  C   UNL d   1      10.733   3.122 -17.824  0.00  0.00     0.037 A 
ENDBRANCH  19  22
ENDBRANCH  15  16
ENDBRANCH   1  15
TORSDOF 6
