REMARK  6 active torsions:
REMARK  status: ('A' for Active; 'I' for Inactive)
REMARK    1  A    between atoms: C_2  and  C_5 
REMARK    2  A    between atoms: C_9  and  N_10 
REMARK    3  A    between atoms: N_13  and  C_14 
REMARK    4  A    between atoms: C_14  and  C_15 
REMARK    5  A    between atoms: C_15  and  O_16 
REMARK    6  A    between atoms: O_16  and  C_17 
ROOT
ATOM      1  N   UNL d   1       8.902   5.489 -12.097  0.00  0.00    -0.344 N 
ATOM      2  C   UNL d   1       8.229   5.075 -10.868  0.00  0.00     0.137 C 
ATOM      3  C   UNL d   1       9.094   5.479  -9.667  0.00  0.00     0.274 C 
ATOM      4  N   UNL d   1       9.349   6.920  -9.749  0.00  0.00     0.144 N 
ATOM      5  C   UNL d   1      10.115   7.264 -10.918  0.00  0.00     0.274 C 
ATOM      6  C   UNL d   1       9.283   6.898 -12.157  0.00  0.00     0.137 C 
ENDROOT
BRANCH   4   7
ATOM      7  C   UNL d   1      10.086   7.335  -8.583  0.00  0.00     0.283 C 
BRANCH   7   8
ATOM      8  C   UNL d   1      10.076   8.823  -8.200  0.00  0.00     0.184 C 
BRANCH   8   9
ATOM      9  O   UNL d   1      11.231   9.229  -7.440  0.00  0.00    -0.329 OA
BRANCH   9  10
ATOM     10  C   UNL d   1      11.450   8.639  -6.210  0.00  0.00     0.096 A 
ATOM     11  C   UNL d   1      11.977   9.414  -5.150  0.00  0.00     0.045 A 
ATOM     12  C   UNL d   1      12.181   8.792  -3.894  0.00  0.00     0.103 A 
ATOM     13  C   UNL d   1      11.866   7.425  -3.655  0.00  0.00     0.101 A 
ATOM     14  N   UNL d   1      12.657   9.203  -2.669  0.00  0.00    -0.223 NA
ATOM     15  C   UNL d   1      11.364   6.681  -4.715  0.00  0.00     0.023 A 
ATOM     16  N   UNL d   1      12.150   7.013  -2.369  0.00  0.00    -0.223 NA
ATOM     17  C   UNL d   1      11.218   7.262  -5.968  0.00  0.00     0.026 A 
ATOM     18  C   UNL d   1      12.603   8.139  -1.859  0.00  0.00     0.199 A 
ENDBRANCH   9  10
ENDBRANCH   8   9
ENDBRANCH   7   8
ENDBRANCH   4   7
BRANCH   1  19
ATOM     19  C   UNL d   1       9.127   4.597 -13.146  0.00  0.00     0.056 A 
ATOM     20  C   UNL d   1      10.297   4.665 -13.932  0.00  0.00     0.017 A 
ATOM     21  C   UNL d   1      10.528   3.736 -14.962  0.00  0.00     0.001 A 
ATOM     22  C   UNL d   1       9.577   2.734 -15.225  0.00  0.00     0.004 A 
ATOM     23  C   UNL d   1       8.395   2.656 -14.460  0.00  0.00     0.073 A 
ATOM     24  C   UNL d   1       8.183   3.592 -13.424  0.00  0.00     0.021 A 
BRANCH  23  25
ATOM     25  C   UNL d   1       7.372   1.569 -14.734  0.00  0.00     0.419 C 
ATOM     26  F   UNL d   1       7.087   1.529 -16.035  0.00  0.00    -0.166 F 
ATOM     27  F   UNL d   1       6.239   1.781 -14.062  0.00  0.00    -0.166 F 
ATOM     28  F   UNL d   1       7.868   0.390 -14.360  0.00  0.00    -0.166 F 
ENDBRANCH  23  25
ENDBRANCH   1  19
TORSDOF 6
