REMARK  6 active torsions:
REMARK  status: ('A' for Active; 'I' for Inactive)
REMARK    1  A    between atoms: C_2  and  O_4 
REMARK    2  A    between atoms: O_4  and  C_5 
REMARK    3  A    between atoms: C_10  and  N_11 
REMARK    4  A    between atoms: N_14  and  C_15 
REMARK    5  A    between atoms: C_18  and  N_19 
REMARK       I    between atoms: N_19  and  C_20 
REMARK       I    between atoms: C_20  and  N_22 
REMARK    6  A    between atoms: N_22  and  C_23 
ROOT
ATOM      1  C   UNL d   1       9.009   3.589 -15.066  0.00  0.00     0.220 C 
ATOM      2  C   UNL d   1      10.270   3.678 -14.213  0.00  0.00     0.035 C 
ATOM      3  C   UNL d   1      10.109   4.790 -13.180  0.00  0.00     0.026 C 
ATOM      4  C   UNL d   1       8.875   4.593 -12.281  0.00  0.00     0.108 C 
ATOM      5  C   UNL d   1       7.611   4.533 -13.129  0.00  0.00     0.026 C 
ATOM      6  C   UNL d   1       7.742   3.427 -14.177  0.00  0.00     0.035 C 
ENDROOT
BRANCH   1   7
ATOM      7  N   UNL d   1       9.186   2.516 -16.067  0.00  0.00     0.139 N 
ATOM      8  C   UNL d   1       8.772   1.208 -15.534  0.00  0.00     0.274 C 
ATOM      9  C   UNL d   1       9.059   0.102 -16.528  0.00  0.00     0.137 C 
ATOM     10  N   UNL d   1       8.348   0.375 -17.765  0.00  0.00    -0.343 N 
ATOM     11  C   UNL d   1       8.602   1.678 -18.348  0.00  0.00     0.137 C 
ATOM     12  C   UNL d   1       8.368   2.750 -17.272  0.00  0.00     0.274 C 
BRANCH  10  13
ATOM     13  C   UNL d   1       7.404  -0.510 -18.350  0.00  0.00     0.079 A 
ATOM     14  C   UNL d   1       6.370  -1.123 -17.597  0.00  0.00     0.109 A 
ATOM     15  C   UNL d   1       5.556  -2.109 -18.233  0.00  0.00     0.026 A 
ATOM     16  C   UNL d   1       5.692  -2.382 -19.605  0.00  0.00     0.002 A 
ATOM     17  C   UNL d   1       6.682  -1.731 -20.358  0.00  0.00     0.002 A 
ATOM     18  C   UNL d   1       7.539  -0.797 -19.726  0.00  0.00     0.019 A 
BRANCH  14  19
ATOM     19  O   UNL d   1       6.260  -0.868 -16.240  0.00  0.00    -0.332 OA
BRANCH  19  20
ATOM     20  C   UNL d   1       5.098  -0.200 -15.740  0.00  0.00     0.122 C 
ATOM     21  C   UNL d   1       5.413   0.288 -14.304  0.00  0.00     0.033 C 
ATOM     22  C   UNL d   1       3.872  -1.122 -15.706  0.00  0.00     0.033 C 
ENDBRANCH  19  20
ENDBRANCH  14  19
ENDBRANCH  10  13
ENDBRANCH   1   7
BRANCH   4  23
ATOM     23  N   UNL d   1       8.743   5.683 -11.314  0.00  0.00    -0.219 NA
ATOM     24  C   UNL d   1       9.245   5.642 -10.073  0.00  0.00     0.364 C 
ATOM     25  O   UNL d   1       9.797   4.656  -9.608  0.00  0.00    -0.243 OA
ATOM     26  N   UNL d   1       9.049   6.817  -9.432  0.00  0.00    -0.191 NA
BRANCH  26  27
ATOM     27  C   UNL d   1       9.796   7.282  -8.283  0.00  0.00     0.088 A 
ATOM     28  C   UNL d   1      10.386   6.411  -7.348  0.00  0.00     0.051 A 
ATOM     29  C   UNL d   1      11.075   6.899  -6.236  0.00  0.00     0.169 A 
ATOM     30  C   UNL d   1      11.169   8.287  -6.015  0.00  0.00     0.168 A 
ATOM     31  F   UNL d   1      11.660   6.038  -5.382  0.00  0.00    -0.202 F 
ATOM     32  C   UNL d   1      10.571   9.177  -6.935  0.00  0.00     0.034 A 
ATOM     33  F   UNL d   1      11.842   8.758  -4.945  0.00  0.00    -0.202 F 
ATOM     34  C   UNL d   1       9.874   8.681  -8.063  0.00  0.00     0.022 A 
ENDBRANCH  26  27
ENDBRANCH   4  23
TORSDOF 6
