REMARK  3 active torsions:
REMARK  status: ('A' for Active; 'I' for Inactive)
REMARK    1  A    between atoms: C_8  and  N_9 
REMARK    2  A    between atoms: N_12  and  C_13 
REMARK    3  A    between atoms: C_13  and  C_14 
ROOT
ATOM      1 CL   UNL d   1       5.074   1.167 -13.219  0.00  0.00    -0.082 Cl
ATOM      2  C   UNL d   1       6.625   1.434 -13.923  0.00  0.00     0.058 A 
ATOM      3  C   UNL d   1       7.396   0.314 -14.244  0.00  0.00     0.013 A 
ATOM      4  C   UNL d   1       8.722   0.473 -14.653  0.00  0.00     0.020 A 
ATOM      5  C   UNL d   1       9.300   1.758 -14.747  0.00  0.00     0.086 A 
ATOM      6  C   UNL d   1       8.523   2.894 -14.393  0.00  0.00     0.052 A 
ATOM      7  C   UNL d   1       7.176   2.724 -14.006  0.00  0.00     0.016 A 
ATOM      8  C   UNL d   1       9.120   4.288 -14.322  0.00  0.00     0.142 C 
ATOM      9  N   UNL d   1       9.957   4.795 -15.172  0.00  0.00    -0.226 NA
ATOM     10  C   UNL d   1      10.480   4.109 -16.283  0.00  0.00     0.119 A 
ATOM     11  C   UNL d   1      10.758   4.887 -17.413  0.00  0.00     0.024 A 
ATOM     12  C   UNL d   1      11.386   4.297 -18.522  0.00  0.00     0.022 A 
ATOM     13  C   UNL d   1      11.732   2.937 -18.438  0.00  0.00     0.101 A 
ATOM     14  N   UNL d   1      11.477   2.174 -17.361  0.00  0.00    -0.224 NA
ATOM     15  C   UNL d   1      10.859   2.737 -16.307  0.00  0.00     0.180 A 
ATOM     16  N   UNL d   1      10.589   1.863 -15.268  0.00  0.00    -0.225 NA
ENDROOT
BRANCH   8  17
ATOM     17  N   UNL d   1       8.745   4.999 -13.184  0.00  0.00    -0.330 N 
ATOM     18  C   UNL d   1       8.010   6.257 -13.151  0.00  0.00     0.138 C 
ATOM     19  C   UNL d   1       8.779   7.386 -12.437  0.00  0.00     0.275 C 
ATOM     20  N   UNL d   1       9.061   6.956 -11.049  0.00  0.00     0.145 N 
ATOM     21  C   UNL d   1       9.777   5.696 -11.109  0.00  0.00     0.275 C 
ATOM     22  C   UNL d   1       9.100   4.577 -11.866  0.00  0.00     0.138 C 
BRANCH  20  23
ATOM     23  C   UNL d   1       9.755   8.041 -10.343  0.00  0.00     0.277 C 
BRANCH  23  24
ATOM     24  C   UNL d   1       9.922   7.820  -8.834  0.00  0.00     0.011 A 
ATOM     25  C   UNL d   1       9.304   8.652  -7.891  0.00  0.00    -0.002 A 
ATOM     26  C   UNL d   1       9.479   8.398  -6.498  0.00  0.00    -0.000 A 
ATOM     27  C   UNL d   1      10.222   7.278  -6.046  0.00  0.00    -0.000 A 
ATOM     28  C   UNL d   1      10.856   6.479  -6.982  0.00  0.00    -0.000 A 
ATOM     29  C   UNL d   1      10.707   6.766  -8.372  0.00  0.00    -0.002 A 
ENDBRANCH  23  24
ENDBRANCH  20  23
ENDBRANCH   8  17
TORSDOF 3
