REMARK  7 active torsions:
REMARK  status: ('A' for Active; 'I' for Inactive)
REMARK    1  A    between atoms: O_2  and  C_3 
REMARK    2  A    between atoms: C_8  and  N_9 
REMARK    3  A    between atoms: N_12  and  C_13 
REMARK    4  A    between atoms: C_13  and  C_14 
REMARK    5  A    between atoms: C_14  and  C_15 
REMARK    6  A    between atoms: C_15  and  C_16 
REMARK    7  A    between atoms: C_16  and  N_17 
ROOT
ATOM      1  N   UNL d   1       9.011   3.372 -14.902  0.00  0.00    -0.343 N 
ATOM      2  C   UNL d   1       8.081   3.077 -13.820  0.00  0.00     0.137 C 
ATOM      3  C   UNL d   1       8.650   3.608 -12.494  0.00  0.00     0.274 C 
ATOM      4  N   UNL d   1       8.931   5.022 -12.610  0.00  0.00     0.141 N 
ATOM      5  C   UNL d   1       9.999   5.200 -13.598  0.00  0.00     0.274 C 
ATOM      6  C   UNL d   1       9.461   4.761 -14.972  0.00  0.00     0.137 C 
ENDROOT
BRANCH   4   7
ATOM      7  C   UNL d   1       9.292   5.489 -11.278  0.00  0.00     0.251 C 
BRANCH   7   8
ATOM      8  C   UNL d   1       9.291   7.012 -11.200  0.00  0.00     0.037 C 
BRANCH   8   9
ATOM      9  C   UNL d   1       9.603   7.360  -9.742  0.00  0.00     0.026 C 
BRANCH   9  10
ATOM     10  C   UNL d   1       9.588   8.867  -9.447  0.00  0.00     0.097 C 
BRANCH  10  11
ATOM     11  N   UNL d   1       9.785   9.154  -8.019  0.00  0.00    -0.368 N 
ATOM     12  C   UNL d   1      11.194   9.470  -7.682  0.00  0.00     0.102 C 
ATOM     13  C   UNL d   1      11.390   9.840  -6.182  0.00  0.00     0.058 C 
ATOM     14  C   UNL d   1      11.389   8.644  -5.292  0.00  0.00     0.024 A 
ATOM     15  C   UNL d   1      10.700   7.462  -5.528  0.00  0.00     0.064 A 
ATOM     16  S   UNL d   1      12.394   8.567  -3.839  0.00  0.00    -0.069 SA
ATOM     17  C   UNL d   1       9.709   7.087  -6.617  0.00  0.00     0.070 C 
ATOM     18  N   UNL d   1      11.051   6.484  -4.618  0.00  0.00    -0.241 NA
ATOM     19  C   UNL d   1       8.956   8.353  -7.083  0.00  0.00     0.103 C 
ATOM     20  C   UNL d   1      11.908   6.878  -3.688  0.00  0.00     0.134 A 
ENDBRANCH  10  11
ENDBRANCH   9  10
ENDBRANCH   8   9
ENDBRANCH   7   8
ENDBRANCH   4   7
BRANCH   1  21
ATOM     21  C   UNL d   1       9.476   2.353 -15.761  0.00  0.00     0.079 A 
ATOM     22  C   UNL d   1      10.836   2.292 -16.154  0.00  0.00     0.110 A 
ATOM     23  C   UNL d   1      11.244   1.282 -17.068  0.00  0.00     0.026 A 
ATOM     24  C   UNL d   1      10.329   0.325 -17.541  0.00  0.00     0.002 A 
ATOM     25  C   UNL d   1       8.992   0.364 -17.112  0.00  0.00     0.002 A 
ATOM     26  C   UNL d   1       8.570   1.379 -16.230  0.00  0.00     0.019 A 
BRANCH  22  27
ATOM     27  O   UNL d   1      11.721   3.189 -15.601  0.00  0.00    -0.327 OA
ATOM     28  C   UNL d   1      12.814   3.597 -16.407  0.00  0.00     0.181 C 
ENDBRANCH  22  27
ENDBRANCH   1  21
TORSDOF 7
