REMARK  5 active torsions:
REMARK  status: ('A' for Active; 'I' for Inactive)
REMARK    1  A    between atoms: C_4  and  C_5 
REMARK    2  A    between atoms: C_15  and  C_16 
REMARK    3  A    between atoms: C_16  and  C_17 
REMARK    4  A    between atoms: C_17  and  N_18 
REMARK    5  A    between atoms: N_21  and  C_22 
ROOT
ATOM      1  O   UNL d   1      12.538   4.409 -14.030  0.00  0.00    -0.270 OA
ATOM      2  C   UNL d   1      11.401   3.990 -14.239  0.00  0.00     0.256 C 
ATOM      3  C   UNL d   1      11.113   3.147 -15.471  0.00  0.00     0.099 C 
ATOM      4  C   UNL d   1       9.990   2.118 -15.224  0.00  0.00     0.055 C 
ATOM      5  C   UNL d   1       8.808   2.716 -14.466  0.00  0.00    -0.001 A 
ATOM      6  C   UNL d   1       7.505   2.192 -14.579  0.00  0.00    -0.003 A 
ATOM      7  C   UNL d   1       6.444   2.760 -13.848  0.00  0.00    -0.001 A 
ATOM      8  C   UNL d   1       6.682   3.835 -12.972  0.00  0.00    -0.003 A 
ATOM      9  C   UNL d   1       7.988   4.346 -12.832  0.00  0.00    -0.003 A 
ATOM     10  C   UNL d   1       9.047   3.793 -13.589  0.00  0.00     0.077 A 
ATOM     11  N   UNL d   1      10.370   4.288 -13.439  0.00  0.00    -0.212 NA
ENDROOT
BRANCH   9  12
ATOM     12  C   UNL d   1       8.218   5.464 -11.825  0.00  0.00     0.063 C 
BRANCH  12  13
ATOM     13  C   UNL d   1       9.209   5.077 -10.716  0.00  0.00     0.255 C 
BRANCH  13  14
ATOM     14  N   UNL d   1       9.018   5.890  -9.531  0.00  0.00     0.141 N 
ATOM     15  C   UNL d   1       9.355   7.293  -9.777  0.00  0.00     0.274 C 
ATOM     16  C   UNL d   1       9.121   8.118  -8.486  0.00  0.00     0.138 C 
ATOM     17  N   UNL d   1       9.931   7.570  -7.421  0.00  0.00    -0.329 N 
ATOM     18  C   UNL d   1       9.706   6.152  -7.193  0.00  0.00     0.138 C 
ATOM     19  C   UNL d   1       9.903   5.386  -8.497  0.00  0.00     0.274 C 
BRANCH  17  20
ATOM     20  C   UNL d   1      10.730   8.377  -6.630  0.00  0.00     0.148 A 
ATOM     21  C   UNL d   1      11.211   8.012  -5.315  0.00  0.00     0.042 A 
ATOM     22  C   UNL d   1      12.027   9.072  -4.821  0.00  0.00     0.050 A 
ATOM     23  C   UNL d   1      11.061   6.888  -4.452  0.00  0.00     0.004 A 
ATOM     24  S   UNL d   1      12.055  10.333  -6.047  0.00  0.00     0.015 SA
ATOM     25  C   UNL d   1      12.669   9.013  -3.578  0.00  0.00     0.008 A 
ATOM     26  N   UNL d   1      11.074   9.545  -7.110  0.00  0.00    -0.192 NA
ATOM     27  C   UNL d   1      12.542   7.864  -2.774  0.00  0.00     0.001 A 
ATOM     28  C   UNL d   1      11.730   6.812  -3.222  0.00  0.00     0.000 A 
ENDBRANCH  17  20
ENDBRANCH  13  14
ENDBRANCH  12  13
ENDBRANCH   9  12
BRANCH   4  29
ATOM     29  C   UNL d   1       9.552   1.487 -16.537  0.00  0.00    -0.018 A 
ATOM     30  C   UNL d   1       9.605   0.088 -16.714  0.00  0.00    -0.004 A 
ATOM     31  C   UNL d   1       9.159  -0.490 -17.922  0.00  0.00    -0.000 A 
ATOM     32  C   UNL d   1       8.664   0.331 -18.954  0.00  0.00    -0.000 A 
ATOM     33  C   UNL d   1       8.611   1.728 -18.785  0.00  0.00    -0.000 A 
ATOM     34  C   UNL d   1       9.046   2.302 -17.578  0.00  0.00    -0.004 A 
ENDBRANCH   4  29
TORSDOF 5
