REMARK  3 active torsions:
REMARK  status: ('A' for Active; 'I' for Inactive)
REMARK    1  A    between atoms: N_5  and  C_6 
REMARK    2  A    between atoms: C_12  and  S_13 
REMARK    3  A    between atoms: S_13  and  C_16 
ROOT
ATOM      1  C   UNL d   1       9.121   2.883 -14.241  0.00  0.00     0.056 A 
ATOM      2  C   UNL d   1      10.413   2.368 -14.104  0.00  0.00     0.018 A 
ATOM      3  C   UNL d   1      10.851   1.340 -14.956  0.00  0.00     0.022 A 
ATOM      4  C   UNL d   1      10.000   0.797 -15.919  0.00  0.00     0.105 A 
ATOM      5  N   UNL d   1      10.142  -0.237 -16.837  0.00  0.00    -0.147 NA
ATOM      6  N   UNL d   1       9.014  -0.495 -17.537  0.00  0.00    -0.136 NA
ATOM      7  C   UNL d   1       8.148   0.378 -17.085  0.00  0.00     0.192 A 
ATOM      8  C   UNL d   1       8.697   1.288 -16.103  0.00  0.00     0.051 A 
ATOM      9  C   UNL d   1       8.306   2.396 -15.292  0.00  0.00     0.021 A 
ENDROOT
BRANCH   7  10
ATOM     10  S   UNL d   1       6.479   0.451 -17.609  0.00  0.00     0.228 S 
ATOM     11  O   UNL d   1       6.281   1.882 -17.760  0.00  0.00    -0.216 OA
ATOM     12  O   UNL d   1       6.346  -0.465 -18.770  0.00  0.00    -0.216 OA
BRANCH  10  13
ATOM     13  C   UNL d   1       5.435  -0.109 -16.241  0.00  0.00     0.089 A 
ATOM     14  C   UNL d   1       5.723   0.306 -14.909  0.00  0.00     0.011 A 
ATOM     15  C   UNL d   1       4.836  -0.037 -13.885  0.00  0.00     0.001 A 
ATOM     16  C   UNL d   1       3.679  -0.827 -14.127  0.00  0.00     0.000 A 
ATOM     17  C   UNL d   1       3.425  -1.258 -15.461  0.00  0.00     0.001 A 
ATOM     18  C   UNL d   1       4.271  -0.891 -16.543  0.00  0.00     0.011 A 
ENDBRANCH  10  13
ENDBRANCH   7  10
BRANCH   1  19
ATOM     19  N   UNL d   1       8.612   3.815 -13.316  0.00  0.00    -0.344 N 
ATOM     20  C   UNL d   1       7.605   4.792 -13.655  0.00  0.00     0.137 C 
ATOM     21  C   UNL d   1       8.135   6.169 -13.257  0.00  0.00     0.274 C 
ATOM     22  N   UNL d   1       8.427   6.264 -11.839  0.00  0.00     0.143 N 
ATOM     23  C   UNL d   1       8.978   7.587 -11.605  0.00  0.00     0.286 C 
ATOM     24  C   UNL d   1       9.475   5.287 -11.544  0.00  0.00     0.274 C 
ATOM     25  C   UNL d   1       8.982   3.891 -11.910  0.00  0.00     0.137 C 
ENDBRANCH   1  19
TORSDOF 3
