REMARK  4 active torsions:
REMARK  status: ('A' for Active; 'I' for Inactive)
REMARK    1  A    between atoms: S_2  and  C_4 
REMARK    2  A    between atoms: S_2  and  C_11 
REMARK    3  A    between atoms: C_14  and  C_15 
REMARK    4  A    between atoms: C_16  and  C_17 
ROOT
ATOM      1  C   UNL d   1       9.243   6.077 -11.135  0.00  0.00     0.107 A 
ATOM      2  C   UNL d   1       9.379   4.942 -10.345  0.00  0.00     0.015 A 
ATOM      3  C   UNL d   1       9.743   5.101  -9.009  0.00  0.00     0.020 A 
ATOM      4  C   UNL d   1      10.008   6.391  -8.526  0.00  0.00     0.082 A 
ATOM      5  N   UNL d   1       9.940   7.485  -9.308  0.00  0.00    -0.243 NA
ATOM      6  C   UNL d   1       9.512   7.338 -10.580  0.00  0.00     0.110 A 
ENDROOT
BRANCH   1   7
ATOM      7  S   UNL d   1       8.711   5.915 -12.806  0.00  0.00     0.211 S 
ATOM      8  O   UNL d   1       9.912   5.576 -13.619  0.00  0.00    -0.217 OA
ATOM      9  O   UNL d   1       7.840   7.052 -13.062  0.00  0.00    -0.217 OA
BRANCH   7  10
ATOM     10  C   UNL d   1       7.618   4.517 -12.918  0.00  0.00     0.088 A 
ATOM     11  C   UNL d   1       7.696   3.588 -13.981  0.00  0.00     0.014 A 
ATOM     12  C   UNL d   1       6.765   2.524 -14.036  0.00  0.00     0.030 A 
ATOM     13  C   UNL d   1       5.803   2.412 -13.006  0.00  0.00     0.140 A 
ATOM     14  C   UNL d   1       5.700   3.399 -12.018  0.00  0.00     0.030 A 
ATOM     15  F   UNL d   1       5.055   1.301 -12.906  0.00  0.00    -0.204 F 
ATOM     16  C   UNL d   1       6.596   4.458 -11.969  0.00  0.00     0.014 A 
ENDBRANCH   7  10
ENDBRANCH   1   7
BRANCH   4  17
ATOM     17  C   UNL d   1      10.469   6.523  -7.146  0.00  0.00     0.019 C 
ATOM     18  C   UNL d   1      10.899   7.666  -6.577  0.00  0.00     0.002 C 
BRANCH  18  19
ATOM     19  C   UNL d   1      11.361   7.827  -5.190  0.00  0.00     0.000 A 
ATOM     20  C   UNL d   1      11.503   6.734  -4.309  0.00  0.00     0.002 A 
ATOM     21  C   UNL d   1      11.938   6.919  -2.983  0.00  0.00     0.030 A 
ATOM     22  C   UNL d   1      12.230   8.213  -2.523  0.00  0.00     0.140 A 
ATOM     23  C   UNL d   1      12.054   9.313  -3.378  0.00  0.00     0.030 A 
ATOM     24  F   UNL d   1      12.676   8.391  -1.260  0.00  0.00    -0.204 F 
ATOM     25  C   UNL d   1      11.633   9.123  -4.709  0.00  0.00     0.002 A 
ENDBRANCH  18  19
ENDBRANCH   4  17
TORSDOF 4
