REMARK  6 active torsions:
REMARK  status: ('A' for Active; 'I' for Inactive)
REMARK    1  A    between atoms: C_6  and  S_7 
REMARK    2  A    between atoms: S_7  and  N_10 
REMARK    3  A    between atoms: N_10  and  C_11 
REMARK    4  A    between atoms: C_11  and  C_12 
REMARK    5  A    between atoms: C_12  and  N_13 
REMARK    6  A    between atoms: N_16  and  C_17 
ROOT
ATOM      1  N   UNL d   1       9.612   6.250  -9.601  0.00  0.00     0.143 N 
ATOM      2  C   UNL d   1       9.285   5.948  -8.210  0.00  0.00     0.274 C 
ATOM      3  C   UNL d   1      10.503   6.225  -7.355  0.00  0.00     0.138 C 
ATOM      4  N   UNL d   1      10.957   7.601  -7.490  0.00  0.00    -0.329 N 
ATOM      5  C   UNL d   1      11.133   8.050  -8.878  0.00  0.00     0.138 C 
ATOM      6  C   UNL d   1       9.904   7.686  -9.710  0.00  0.00     0.274 C 
ENDROOT
BRANCH   1   7
ATOM      7  C   UNL d   1       8.454   5.984 -10.423  0.00  0.00     0.277 C 
BRANCH   7   8
ATOM      8  C   UNL d   1       8.261   4.485 -10.653  0.00  0.00     0.174 C 
BRANCH   8   9
ATOM      9  N   UNL d   1       7.082   4.204 -11.456  0.00  0.00    -0.183 NA
BRANCH   9  10
ATOM     10  S   UNL d   1       6.992   4.574 -13.118  0.00  0.00     0.281 S 
ATOM     11  O   UNL d   1       7.858   5.741 -13.379  0.00  0.00    -0.199 OA
ATOM     12  O   UNL d   1       5.563   4.568 -13.453  0.00  0.00    -0.199 OA
BRANCH  10  13
ATOM     13  C   UNL d   1       7.779   3.204 -13.929  0.00  0.00     0.105 A 
ATOM     14  C   UNL d   1       6.992   2.146 -14.421  0.00  0.00     0.013 A 
ATOM     15  C   UNL d   1       7.618   1.072 -15.080  0.00  0.00     0.000 A 
ATOM     16  C   UNL d   1       9.016   1.074 -15.262  0.00  0.00    -0.004 A 
ATOM     17  C   UNL d   1       9.799   2.147 -14.784  0.00  0.00    -0.021 A 
ATOM     18  C   UNL d   1      11.300   2.154 -14.985  0.00  0.00     0.031 C 
ATOM     19  C   UNL d   1       9.175   3.215 -14.108  0.00  0.00     0.009 A 
ENDBRANCH  10  13
ENDBRANCH   9  10
ENDBRANCH   8   9
ENDBRANCH   7   8
ENDBRANCH   1   7
BRANCH   4  20
ATOM     20  C   UNL d   1      11.058   8.435  -6.374  0.00  0.00     0.148 A 
ATOM     21  C   UNL d   1      11.462   7.982  -5.047  0.00  0.00     0.042 A 
ATOM     22  C   UNL d   1      11.495   9.077  -4.155  0.00  0.00     0.050 A 
ATOM     23  C   UNL d   1      11.857   6.737  -4.512  0.00  0.00     0.004 A 
ATOM     24  S   UNL d   1      10.980  10.449  -5.051  0.00  0.00     0.015 SA
ATOM     25  C   UNL d   1      11.889   8.965  -2.816  0.00  0.00     0.008 A 
ATOM     26  N   UNL d   1      10.823   9.722  -6.512  0.00  0.00    -0.192 NA
ATOM     27  C   UNL d   1      12.265   7.708  -2.312  0.00  0.00     0.001 A 
ATOM     28  C   UNL d   1      12.242   6.601  -3.173  0.00  0.00     0.000 A 
ENDBRANCH   4  20
TORSDOF 6
