REMARK  7 active torsions:
REMARK  status: ('A' for Active; 'I' for Inactive)
REMARK    1  A    between atoms: O_2  and  C_3 
REMARK    2  A    between atoms: C_6  and  O_7 
REMARK    3  A    between atoms: O_7  and  C_8 
REMARK    4  A    between atoms: C_8  and  C_9 
REMARK    5  A    between atoms: C_9  and  N_10 
REMARK       I    between atoms: N_13  and  C_14 
REMARK    6  A    between atoms: C_14  and  C_16 
REMARK    7  A    between atoms: C_21  and  O_22 
ROOT
ATOM      1  N   UNL d   1       8.573   5.136 -12.123  0.00  0.00     0.144 N 
ATOM      2  C   UNL d   1       9.149   4.883 -10.803  0.00  0.00     0.274 C 
ATOM      3  C   UNL d   1       8.851   6.085  -9.931  0.00  0.00     0.140 C 
ATOM      4  N   UNL d   1       9.524   7.280 -10.449  0.00  0.00    -0.311 N 
ATOM      5  C   UNL d   1      10.384   8.117  -9.796  0.00  0.00     0.275 C 
ATOM      6  O   UNL d   1      10.910   9.086 -10.354  0.00  0.00    -0.266 OA
ATOM      7  C   UNL d   1       9.034   7.556 -11.811  0.00  0.00     0.140 C 
ATOM      8  C   UNL d   1       9.218   6.313 -12.686  0.00  0.00     0.274 C 
ENDROOT
BRANCH   5   9
ATOM      9  C   UNL d   1      10.681   7.929  -8.344  0.00  0.00     0.137 A 
ATOM     10  N   UNL d   1      11.251   9.007  -7.652  0.00  0.00    -0.241 NA
ATOM     11  C   UNL d   1      11.466   8.690  -6.326  0.00  0.00     0.084 A 
ATOM     12  C   UNL d   1      11.019   7.359  -6.198  0.00  0.00     0.019 A 
ATOM     13  C   UNL d   1      12.009   9.365  -5.216  0.00  0.00     0.043 A 
ATOM     14  C   UNL d   1      10.579   6.895  -7.441  0.00  0.00     0.025 A 
ATOM     15  C   UNL d   1      11.082   6.722  -4.966  0.00  0.00     0.004 A 
ATOM     16  C   UNL d   1      11.621   7.362  -3.866  0.00  0.00     0.024 A 
ATOM     17  C   UNL d   1      12.082   8.691  -3.978  0.00  0.00     0.096 A 
BRANCH  17  18
ATOM     18  O   UNL d   1      12.591   9.340  -2.896  0.00  0.00    -0.328 OA
ATOM     19  C   UNL d   1      12.523   8.646  -1.671  0.00  0.00     0.181 C 
ENDBRANCH  17  18
ENDBRANCH   5   9
BRANCH   1  20
ATOM     20  C   UNL d   1       8.876   4.001 -12.979  0.00  0.00     0.283 C 
BRANCH  20  21
ATOM     21  C   UNL d   1       8.178   4.092 -14.337  0.00  0.00     0.184 C 
BRANCH  21  22
ATOM     22  O   UNL d   1       8.422   2.930 -15.106  0.00  0.00    -0.329 OA
BRANCH  22  23
ATOM     23  C   UNL d   1       7.445   1.968 -15.156  0.00  0.00     0.094 A 
ATOM     24  C   UNL d   1       7.447   1.126 -16.282  0.00  0.00     0.026 A 
ATOM     25  C   UNL d   1       6.473   0.122 -16.432  0.00  0.00     0.026 A 
ATOM     26  C   UNL d   1       5.486  -0.071 -15.435  0.00  0.00     0.094 A 
ATOM     27  C   UNL d   1       5.505   0.754 -14.294  0.00  0.00     0.026 A 
ATOM     28  C   UNL d   1       6.462   1.776 -14.157  0.00  0.00     0.026 A 
BRANCH  26  29
ATOM     29  O   UNL d   1       4.494  -1.023 -15.500  0.00  0.00    -0.328 OA
ATOM     30  C   UNL d   1       4.232  -1.619 -16.763  0.00  0.00     0.181 C 
ENDBRANCH  26  29
ENDBRANCH  22  23
ENDBRANCH  21  22
ENDBRANCH  20  21
ENDBRANCH   1  20
TORSDOF 7
