REMARK  6 active torsions:
REMARK  status: ('A' for Active; 'I' for Inactive)
REMARK    1  A    between atoms: C_2  and  C_3 
REMARK       I    between atoms: C_3  and  N_5 
REMARK    2  A    between atoms: N_5  and  C_6 
REMARK    3  A    between atoms: C_10  and  C_11 
REMARK    4  A    between atoms: N_13  and  S_14 
REMARK    5  A    between atoms: S_14  and  C_17 
REMARK    6  A    between atoms: C_30  and  O_31 
ROOT
ATOM      1  C   UNL d   1       7.696   3.305 -13.973  0.00  0.00     0.039 A 
ATOM      2  C   UNL d   1       7.452   4.400 -13.178  0.00  0.00     0.093 A 
ATOM      3  N   UNL d   1       8.544   5.273 -13.204  0.00  0.00    -0.231 N 
ATOM      4  C   UNL d   1       9.501   4.778 -14.091  0.00  0.00     0.075 A 
ATOM      5  C   UNL d   1      10.710   5.321 -14.567  0.00  0.00     0.020 A 
ATOM      6  C   UNL d   1      11.476   4.620 -15.499  0.00  0.00     0.026 A 
ATOM      7  C   UNL d   1      11.038   3.374 -15.996  0.00  0.00     0.094 A 
ATOM      8  C   UNL d   1       9.811   2.837 -15.531  0.00  0.00     0.026 A 
ATOM      9  C   UNL d   1       9.003   3.527 -14.576  0.00  0.00     0.022 A 
ENDROOT
BRANCH   3  10
ATOM     10  S   UNL d   1       8.541   6.770 -12.324  0.00  0.00     0.271 S 
ATOM     11  O   UNL d   1       9.626   7.587 -12.836  0.00  0.00    -0.200 OA
ATOM     12  O   UNL d   1       7.137   7.208 -12.430  0.00  0.00    -0.200 OA
BRANCH  10  13
ATOM     13  C   UNL d   1       8.957   6.375 -10.638  0.00  0.00     0.104 A 
ATOM     14  C   UNL d   1       9.752   7.244  -9.800  0.00  0.00     0.012 A 
ATOM     15  C   UNL d   1      10.001   6.834  -8.462  0.00  0.00     0.001 A 
ATOM     16  C   UNL d   1      10.278   8.502 -10.181  0.00  0.00     0.001 A 
ATOM     17  C   UNL d   1       9.474   5.640  -7.973  0.00  0.00     0.000 A 
ATOM     18  C   UNL d   1      10.742   7.618  -7.538  0.00  0.00     0.000 A 
ATOM     19  C   UNL d   1       8.715   4.782  -8.802  0.00  0.00     0.001 A 
ATOM     20  C   UNL d   1       8.452   5.151 -10.132  0.00  0.00     0.013 A 
ATOM     21  C   UNL d   1      11.295   8.839  -7.947  0.00  0.00     0.000 A 
ATOM     22  C   UNL d   1      11.068   9.250  -9.280  0.00  0.00     0.000 A 
ENDBRANCH  10  13
ENDBRANCH   3  10
BRANCH   1  23
ATOM     23  C   UNL d   1       6.805   2.188 -14.134  0.00  0.00     0.115 A 
ATOM     24  C   UNL d   1       5.835   1.706 -13.290  0.00  0.00     0.096 A 
ATOM     25  N   UNL d   1       5.333   0.510 -13.804  0.00  0.00    -0.062 NA
ATOM     26  C   UNL d   1       5.356   2.317 -12.006  0.00  0.00     0.054 C 
ATOM     27  C   UNL d   1       5.993   0.381 -14.974  0.00  0.00     0.752 A 
ATOM     28  N   UNL d   1       6.883   1.339 -15.207  0.00  0.00    -0.058 NA
BRANCH  27  29
ATOM     29  N   UNL d   1       5.744  -0.653 -15.890  0.00  0.00    -0.023 NA
ATOM     30  C   UNL d   1       5.799  -0.518 -17.241  0.00  0.00     0.272 C 
ATOM     31  O   UNL d   1       6.048   0.535 -17.824  0.00  0.00    -0.270 OA
BRANCH  30  32
ATOM     32  C   UNL d   1       5.517  -1.798 -18.037  0.00  0.00     0.091 C 
ATOM     33  C   UNL d   1       4.683  -1.548 -19.303  0.00  0.00     0.010 C 
ENDBRANCH  30  32
ENDBRANCH  27  29
ENDBRANCH   1  23
BRANCH   7  34
ATOM     34  O   UNL d   1      11.710   2.655 -16.977  0.00  0.00    -0.328 OA
ATOM     35  C   UNL d   1      12.928   3.221 -17.478  0.00  0.00     0.181 C 
ENDBRANCH   7  34
TORSDOF 6
