REMARK  6 active torsions:
REMARK  status: ('A' for Active; 'I' for Inactive)
REMARK    1  A    between atoms: C_5  and  O_6 
REMARK    2  A    between atoms: O_6  and  C_7 
REMARK    3  A    between atoms: C_7  and  C_8 
REMARK    4  A    between atoms: C_8  and  C_9 
REMARK    5  A    between atoms: C_9  and  N_10 
REMARK    6  A    between atoms: N_13  and  C_14 
ROOT
ATOM      1  N   UNL d   1       8.580   5.592 -11.815  0.00  0.00     0.141 N 
ATOM      2  C   UNL d   1       7.296   4.993 -11.448  0.00  0.00     0.274 C 
ATOM      3  C   UNL d   1       6.476   4.663 -12.705  0.00  0.00     0.137 C 
ATOM      4  N   UNL d   1       7.234   3.784 -13.598  0.00  0.00    -0.344 N 
ATOM      5  C   UNL d   1       8.583   4.263 -13.911  0.00  0.00     0.137 C 
ATOM      6  C   UNL d   1       9.343   4.627 -12.616  0.00  0.00     0.274 C 
ENDROOT
BRANCH   1   7
ATOM      7  C   UNL d   1       9.312   5.937 -10.592  0.00  0.00     0.253 C 
BRANCH   7   8
ATOM      8  C   UNL d   1       9.862   7.370 -10.656  0.00  0.00     0.068 C 
BRANCH   8   9
ATOM      9  C   UNL d   1      11.018   7.625  -9.690  0.00  0.00     0.151 C 
BRANCH   9  10
ATOM     10  O   UNL d   1      10.661   7.127  -8.400  0.00  0.00    -0.331 OA
BRANCH  10  11
ATOM     11  C   UNL d   1      11.069   7.782  -7.258  0.00  0.00     0.094 A 
ATOM     12  C   UNL d   1      11.065   7.044  -6.053  0.00  0.00     0.026 A 
ATOM     13  C   UNL d   1      11.461   7.641  -4.835  0.00  0.00     0.032 A 
ATOM     14  C   UNL d   1      11.850   8.993  -4.812  0.00  0.00     0.140 A 
ATOM     15  F   UNL d   1      12.214   9.576  -3.641  0.00  0.00    -0.204 F 
ATOM     16  C   UNL d   1      11.844   9.741  -6.008  0.00  0.00     0.032 A 
ATOM     17  C   UNL d   1      11.449   9.144  -7.222  0.00  0.00     0.026 A 
ENDBRANCH  10  11
ENDBRANCH   9  10
ENDBRANCH   8   9
ENDBRANCH   7   8
ENDBRANCH   1   7
BRANCH   4  18
ATOM     18  C   UNL d   1       6.745   2.541 -14.034  0.00  0.00     0.056 A 
ATOM     19  C   UNL d   1       5.798   1.826 -13.257  0.00  0.00     0.018 A 
ATOM     20  C   UNL d   1       5.282   0.592 -13.697  0.00  0.00     0.013 A 
ATOM     21  C   UNL d   1       5.710   0.043 -14.915  0.00  0.00     0.058 A 
ATOM     22  C   UNL d   1       6.666   0.724 -15.689  0.00  0.00     0.013 A 
ATOM     23 CL   UNL d   1       5.047  -1.451 -15.457  0.00  0.00    -0.082 Cl
ATOM     24  C   UNL d   1       7.186   1.962 -15.248  0.00  0.00     0.018 A 
ENDBRANCH   4  18
TORSDOF 6
