REMARK  7 active torsions:
REMARK  status: ('A' for Active; 'I' for Inactive)
REMARK    1  A    between atoms: C_4  and  C_5 
REMARK    2  A    between atoms: C_5  and  C_6 
REMARK       I    between atoms: C_6  and  N_8 
REMARK    3  A    between atoms: N_8  and  C_9 
REMARK    4  A    between atoms: C_12  and  C_13 
REMARK    5  A    between atoms: C_13  and  C_14 
REMARK    6  A    between atoms: C_14  and  N_15 
REMARK    7  A    between atoms: C_18  and  C_19 
ROOT
ATOM      1  C   UNL d   1       9.208   5.340 -11.909  0.00  0.00     0.035 C 
ENDROOT
BRANCH   1   2
ATOM      2  C   UNL d   1       9.171   4.093 -12.816  0.00  0.00     0.002 C 
ATOM      3  C   UNL d   1       7.781   3.870 -13.431  0.00  0.00     0.002 C 
ATOM      4  C   UNL d   1       7.781   2.650 -14.362  0.00  0.00     0.024 C 
ATOM      5  C   UNL d   1       8.882   2.749 -15.441  0.00  0.00     0.106 C 
ATOM      6  C   UNL d   1      10.265   2.970 -14.819  0.00  0.00     0.024 C 
ATOM      7  C   UNL d   1      10.246   4.204 -13.917  0.00  0.00     0.002 C 
BRANCH   5   8
ATOM      8  N   UNL d   1       8.891   1.536 -16.248  0.00  0.00    -0.240 NA
ATOM      9  C   UNL d   1       8.321   1.413 -17.456  0.00  0.00     0.258 C 
ATOM     10  O   UNL d   1       7.858   2.362 -18.090  0.00  0.00    -0.270 OA
BRANCH   9  11
ATOM     11  C   UNL d   1       8.230  -0.002 -18.025  0.00  0.00     0.143 C 
BRANCH  11  12
ATOM     12  C   UNL d   1       6.824  -0.510 -17.971  0.00  0.00     0.113 A 
ATOM     13  C   UNL d   1       5.991  -1.032 -18.918  0.00  0.00     0.040 A 
ATOM     14  C   UNL d   1       4.804  -1.337 -18.196  0.00  0.00     0.088 A 
ATOM     15  C   UNL d   1       3.533  -1.946 -18.709  0.00  0.00     0.055 C 
ATOM     16  N   UNL d   1       4.911  -1.008 -16.919  0.00  0.00    -0.131 NA
ATOM     17  O   UNL d   1       6.200  -0.487 -16.762  0.00  0.00    -0.215 OA
ENDBRANCH  11  12
ENDBRANCH   9  11
ENDBRANCH   5   8
ENDBRANCH   1   2
BRANCH   1  18
ATOM     18  C   UNL d   1       8.607   5.108 -10.504  0.00  0.00     0.250 C 
BRANCH  18  19
ATOM     19  N   UNL d   1       9.050   6.103  -9.516  0.00  0.00     0.137 N 
ATOM     20  C   UNL d   1       8.547   5.694  -8.201  0.00  0.00     0.251 C 
ATOM     21  C   UNL d   1       8.920   6.731  -7.122  0.00  0.00     0.040 C 
ATOM     22  C   UNL d   1      10.438   6.925  -7.053  0.00  0.00     0.028 C 
ATOM     23  C   UNL d   1      10.973   7.221  -8.447  0.00  0.00     0.040 C 
ATOM     24  C   UNL d   1      10.504   6.174  -9.450  0.00  0.00     0.251 C 
BRANCH  22  25
ATOM     25  C   UNL d   1      10.816   8.036  -6.121  0.00  0.00     0.004 A 
ATOM     26  C   UNL d   1      11.379   7.932  -4.811  0.00  0.00     0.021 A 
ATOM     27  C   UNL d   1      11.525   9.260  -4.339  0.00  0.00     0.100 A 
ATOM     28  C   UNL d   1      11.763   6.888  -3.933  0.00  0.00     0.002 A 
ATOM     29  O   UNL d   1      11.090  10.146  -5.300  0.00  0.00    -0.305 OA
ATOM     30  C   UNL d   1      12.020   9.567  -3.070  0.00  0.00     0.025 A 
ATOM     31  C   UNL d   1      10.684   9.389  -6.361  0.00  0.00     0.118 A 
ATOM     32  C   UNL d   1      12.396   8.513  -2.217  0.00  0.00     0.002 A 
ATOM     33  C   UNL d   1      12.262   7.175  -2.643  0.00  0.00     0.000 A 
ENDBRANCH  22  25
ENDBRANCH  18  19
ENDBRANCH   1  18
TORSDOF 7
