REMARK  5 active torsions:
REMARK  status: ('A' for Active; 'I' for Inactive)
REMARK    1  A    between atoms: C_2  and  C_5 
REMARK    2  A    between atoms: C_16  and  C_17 
REMARK    3  A    between atoms: C_17  and  N_18 
REMARK    4  A    between atoms: N_18  and  C_19 
REMARK    5  A    between atoms: C_19  and  C_20 
ROOT
ATOM      1  C   UNL d   1       9.430   1.159 -16.237  0.00  0.00     0.235 A 
ATOM      2  N   UNL d   1       9.637   2.265 -15.496  0.00  0.00    -0.220 NA
ATOM      3  C   UNL d   1       8.436   2.407 -14.758  0.00  0.00     0.122 A 
ATOM      4  C   UNL d   1       7.971   3.353 -13.787  0.00  0.00     0.109 A 
ATOM      5  C   UNL d   1       6.663   3.195 -13.265  0.00  0.00     0.002 A 
ATOM      6  C   UNL d   1       5.854   2.097 -13.648  0.00  0.00    -0.001 A 
ATOM      7  C   UNL d   1       6.286   1.159 -14.585  0.00  0.00     0.021 A 
ATOM      8  C   UNL d   1       7.553   1.332 -15.128  0.00  0.00     0.102 A 
ATOM      9  N   UNL d   1       8.224   0.604 -16.070  0.00  0.00    -0.222 NA
ATOM     10  C   UNL d   1       6.082   4.124 -12.239  0.00  0.00     0.031 C 
ATOM     11  C   UNL d   1       6.871   5.398 -12.067  0.00  0.00     0.037 C 
ATOM     12  C   UNL d   1       8.374   5.062 -12.115  0.00  0.00     0.158 C 
ATOM     13  O   UNL d   1       8.783   4.395 -13.347  0.00  0.00    -0.330 OA
ENDROOT
BRANCH  12  14
ATOM     14  C   UNL d   1       9.158   6.368 -11.901  0.00  0.00     0.320 C 
BRANCH  14  15
ATOM     15  N   UNL d   1       9.179   6.748 -10.495  0.00  0.00     0.346 N 
BRANCH  15  16
ATOM     16  C   UNL d   1      10.024   7.912 -10.259  0.00  0.00     0.317 C 
BRANCH  16  17
ATOM     17  C   UNL d   1      10.353   8.127  -8.792  0.00  0.00     0.014 A 
ATOM     18  C   UNL d   1      11.555   8.770  -8.418  0.00  0.00    -0.002 A 
ATOM     19  C   UNL d   1      11.850   8.988  -7.058  0.00  0.00    -0.000 A 
ATOM     20  C   UNL d   1      10.953   8.558  -6.061  0.00  0.00    -0.000 A 
ATOM     21  C   UNL d   1       9.762   7.908  -6.434  0.00  0.00    -0.000 A 
ATOM     22  C   UNL d   1       9.459   7.700  -7.785  0.00  0.00    -0.002 A 
ENDBRANCH  16  17
ENDBRANCH  15  16
ENDBRANCH  14  15
ENDBRANCH  12  14
BRANCH   1  23
ATOM     23  C   UNL d   1      10.322   0.481 -17.255  0.00  0.00     0.453 C 
ATOM     24  F   UNL d   1      10.238  -0.839 -17.117  0.00  0.00    -0.163 F 
ATOM     25  F   UNL d   1      11.617   0.796 -17.191  0.00  0.00    -0.163 F 
ATOM     26  F   UNL d   1       9.892   0.726 -18.488  0.00  0.00    -0.163 F 
ENDBRANCH   1  23
TORSDOF 5
