REMARK  4 active torsions:
REMARK  status: ('A' for Active; 'I' for Inactive)
REMARK    1  A    between atoms: C_2  and  C_3 
REMARK    2  A    between atoms: C_3  and  C_4 
REMARK    3  A    between atoms: C_4  and  N_5 
REMARK       I    between atoms: N_5  and  C_6 
REMARK    4  A    between atoms: C_6  and  C_8 
ROOT
ATOM      1  C   UNL d   1      10.381   7.216  -7.318  0.00  0.00     0.139 A 
ATOM      2  C   UNL d   1      10.328   8.555  -7.011  0.00  0.00     0.025 A 
ATOM      3  C   UNL d   1      10.903   8.697  -5.703  0.00  0.00     0.019 A 
ATOM      4  C   UNL d   1      11.140   9.786  -4.836  0.00  0.00     0.002 A 
ATOM      5  C   UNL d   1      11.725   9.585  -3.568  0.00  0.00     0.000 A 
ATOM      6  C   UNL d   1      12.091   8.301  -3.137  0.00  0.00     0.002 A 
ATOM      7  C   UNL d   1      11.861   7.193  -3.974  0.00  0.00     0.019 A 
ATOM      8  C   UNL d   1      11.286   7.403  -5.238  0.00  0.00     0.082 A 
ATOM      9  N   UNL d   1      10.950   6.543  -6.255  0.00  0.00    -0.241 NA
ENDROOT
BRANCH   1  10
ATOM     10  C   UNL d   1       9.950   6.423  -8.484  0.00  0.00     0.293 C 
ATOM     11  N   UNL d   1       9.658   7.124  -9.582  0.00  0.00    -0.233 NA
ATOM     12  O   UNL d   1       9.926   5.193  -8.442  0.00  0.00    -0.264 OA
BRANCH  11  13
ATOM     13  C   UNL d   1       9.330   6.582 -10.896  0.00  0.00     0.129 C 
BRANCH  13  14
ATOM     14  C   UNL d   1       8.162   5.576 -10.871  0.00  0.00     0.026 C 
BRANCH  14  15
ATOM     15  C   UNL d   1       7.657   5.198 -12.264  0.00  0.00     0.002 C 
ATOM     16  C   UNL d   1       6.395   4.331 -12.184  0.00  0.00     0.000 C 
ENDBRANCH  14  15
ENDBRANCH  13  14
ENDBRANCH  11  13
ENDBRANCH   1  10
TORSDOF 4
