REMARK  8 active torsions:
REMARK  status: ('A' for Active; 'I' for Inactive)
REMARK    1  A    between atoms: O_2  and  C_3 
REMARK    2  A    between atoms: C_8  and  N_9 
REMARK    3  A    between atoms: N_12  and  C_13 
REMARK    4  A    between atoms: C_13  and  C_14 
REMARK    5  A    between atoms: C_14  and  C_15 
REMARK    6  A    between atoms: C_15  and  C_16 
REMARK    7  A    between atoms: C_16  and  N_17 
REMARK       I    between atoms: N_17  and  C_18 
REMARK    8  A    between atoms: C_18  and  C_20 
ROOT
ATOM      1  C   UNL d   1       8.771   7.295 -12.298  0.00  0.00     0.037 C 
ENDROOT
BRANCH   1   2
ATOM      2  C   UNL d   1       8.242   5.906 -12.730  0.00  0.00     0.251 C 
BRANCH   2   3
ATOM      3  N   UNL d   1       9.269   4.930 -13.089  0.00  0.00     0.141 N 
ATOM      4  C   UNL d   1       8.607   3.667 -13.438  0.00  0.00     0.274 C 
ATOM      5  C   UNL d   1       9.681   2.597 -13.758  0.00  0.00     0.137 C 
ATOM      6  N   UNL d   1      10.526   3.047 -14.857  0.00  0.00    -0.343 N 
ATOM      7  C   UNL d   1      11.121   4.353 -14.652  0.00  0.00     0.137 C 
ATOM      8  C   UNL d   1      10.040   5.357 -14.255  0.00  0.00     0.274 C 
BRANCH   6   9
ATOM      9  C   UNL d   1      10.708   2.349 -16.064  0.00  0.00     0.079 A 
ATOM     10  C   UNL d   1       9.635   1.675 -16.702  0.00  0.00     0.110 A 
ATOM     11  C   UNL d   1       9.892   0.936 -17.887  0.00  0.00     0.026 A 
ATOM     12  C   UNL d   1      11.185   0.901 -18.446  0.00  0.00     0.002 A 
ATOM     13  C   UNL d   1      12.233   1.605 -17.835  0.00  0.00     0.002 A 
ATOM     14  C   UNL d   1      11.991   2.326 -16.651  0.00  0.00     0.019 A 
BRANCH  10  15
ATOM     15  O   UNL d   1       8.373   1.799 -16.154  0.00  0.00    -0.327 OA
ATOM     16  C   UNL d   1       7.318   1.024 -16.688  0.00  0.00     0.181 C 
ENDBRANCH  10  15
ENDBRANCH   6   9
ENDBRANCH   2   3
ENDBRANCH   1   2
BRANCH   1  17
ATOM     17  C   UNL d   1       9.329   7.279 -10.874  0.00  0.00     0.029 C 
BRANCH  17  18
ATOM     18  C   UNL d   1       9.592   8.708 -10.368  0.00  0.00     0.129 C 
BRANCH  18  19
ATOM     19  N   UNL d   1       9.906   8.736  -8.948  0.00  0.00    -0.233 NA
ATOM     20  C   UNL d   1      11.030   8.238  -8.418  0.00  0.00     0.293 C 
ATOM     21  O   UNL d   1      11.887   7.643  -9.065  0.00  0.00    -0.264 OA
BRANCH  20  22
ATOM     22  C   UNL d   1      11.204   8.496  -6.960  0.00  0.00     0.139 A 
ATOM     23  N   UNL d   1      11.408   7.442  -6.139  0.00  0.00    -0.241 NA
ATOM     24  C   UNL d   1      11.616   7.673  -4.827  0.00  0.00     0.082 A 
ATOM     25  C   UNL d   1      11.627   8.982  -4.280  0.00  0.00     0.018 A 
ATOM     26  C   UNL d   1      11.857   6.597  -3.955  0.00  0.00     0.019 A 
ATOM     27  C   UNL d   1      11.401  10.068  -5.142  0.00  0.00     0.003 A 
ATOM     28  C   UNL d   1      11.871   9.202  -2.914  0.00  0.00     0.002 A 
ATOM     29  C   UNL d   1      11.206   9.826  -6.502  0.00  0.00     0.024 A 
ATOM     30  C   UNL d   1      12.100   8.108  -2.062  0.00  0.00     0.000 A 
ATOM     31  C   UNL d   1      12.082   6.802  -2.582  0.00  0.00     0.002 A 
ENDBRANCH  20  22
ENDBRANCH  18  19
ENDBRANCH  17  18
ENDBRANCH   1  17
TORSDOF 8
