REMARK  6 active torsions:
REMARK  status: ('A' for Active; 'I' for Inactive)
REMARK    1  A    between atoms: O_2  and  C_3 
REMARK    2  A    between atoms: C_7  and  N_8 
REMARK    3  A    between atoms: N_11  and  C_12 
REMARK    4  A    between atoms: C_12  and  C_13 
REMARK    5  A    between atoms: C_13  and  O_14 
REMARK    6  A    between atoms: O_14  and  C_15 
ROOT
ATOM      1  N   UNL d   1      10.992   7.932  -7.131  0.00  0.00    -0.344 N 
ATOM      2  C   UNL d   1      10.838   8.756  -8.341  0.00  0.00     0.137 C 
ATOM      3  C   UNL d   1       9.648   8.192  -9.131  0.00  0.00     0.274 C 
ATOM      4  N   UNL d   1       9.898   6.793  -9.523  0.00  0.00     0.144 N 
ATOM      5  C   UNL d   1      10.057   6.011  -8.286  0.00  0.00     0.274 C 
ATOM      6  C   UNL d   1      11.222   6.544  -7.410  0.00  0.00     0.137 C 
ENDROOT
BRANCH   4   7
ATOM      7  C   UNL d   1       8.770   6.238 -10.271  0.00  0.00     0.283 C 
BRANCH   7   8
ATOM      8  C   UNL d   1       8.647   6.888 -11.671  0.00  0.00     0.184 C 
BRANCH   8   9
ATOM      9  O   UNL d   1       7.524   6.356 -12.357  0.00  0.00    -0.329 OA
BRANCH   9  10
ATOM     10  C   UNL d   1       7.634   5.139 -12.975  0.00  0.00     0.096 A 
ATOM     11  C   UNL d   1       8.844   4.664 -13.550  0.00  0.00     0.045 A 
ATOM     12  C   UNL d   1       8.794   3.421 -14.190  0.00  0.00     0.103 A 
ATOM     13  C   UNL d   1       7.635   2.682 -14.277  0.00  0.00     0.102 A 
ATOM     14  N   UNL d   1       9.784   2.688 -14.843  0.00  0.00    -0.216 NA
ATOM     15  C   UNL d   1       6.423   3.122 -13.725  0.00  0.00     0.023 A 
ATOM     16  N   UNL d   1       7.969   1.514 -14.965  0.00  0.00    -0.216 NA
ATOM     17  C   UNL d   1       6.441   4.373 -13.069  0.00  0.00     0.026 A 
ATOM     18  C   UNL d   1       9.281   1.520 -15.313  0.00  0.00     0.221 A 
ATOM     19  S   UNL d   1      10.109   0.356 -16.146  0.00  0.00    -0.037 SA
ENDBRANCH   9  10
ENDBRANCH   8   9
ENDBRANCH   7   8
ENDBRANCH   4   7
BRANCH   1  20
ATOM     20  C   UNL d   1      11.232   8.454  -5.851  0.00  0.00     0.058 A 
ATOM     21  C   UNL d   1      10.785   9.761  -5.577  0.00  0.00     0.017 A 
ATOM     22  C   UNL d   1      10.877  10.245  -4.296  0.00  0.00     0.004 A 
ATOM     23  C   UNL d   1      11.470   9.533  -3.258  0.00  0.00     0.024 A 
ATOM     24  C   UNL d   1      11.974   8.239  -3.517  0.00  0.00     0.096 A 
ATOM     25  C   UNL d   1      11.863   7.688  -4.810  0.00  0.00     0.041 A 
BRANCH  24  26
ATOM     26  O   UNL d   1      12.571   7.461  -2.542  0.00  0.00    -0.328 OA
ATOM     27  C   UNL d   1      12.709   8.072  -1.276  0.00  0.00     0.181 C 
ENDBRANCH  24  26
ENDBRANCH   1  20
TORSDOF 6
