REMARK  10 active torsions:
REMARK  status: ('A' for Active; 'I' for Inactive)
REMARK    1  A    between atoms: O_2  and  C_3 
REMARK    2  A    between atoms: C_8  and  N_9 
REMARK    3  A    between atoms: N_12  and  C_13 
REMARK    4  A    between atoms: C_13  and  C_14 
REMARK    5  A    between atoms: C_14  and  C_15 
REMARK    6  A    between atoms: C_15  and  N_16 
REMARK       I    between atoms: N_16  and  C_17 
REMARK       I    between atoms: C_17  and  N_19 
REMARK    7  A    between atoms: N_19  and  N_20 
REMARK    8  A    between atoms: N_20  and  C_21 
REMARK    9  A    between atoms: N_20  and  C_29 
REMARK   10  A    between atoms: C_21  and  C_22 
ROOT
ATOM      1  N   UNL d   1       9.418   2.928 -15.482  0.00  0.00    -0.216 NA
ATOM      2  C   UNL d   1      10.550   2.211 -15.432  0.00  0.00     0.381 C 
ATOM      3  O   UNL d   1      11.570   2.596 -14.883  0.00  0.00    -0.241 OA
ATOM      4  N   UNL d   1      10.438   0.990 -16.015  0.00  0.00    -0.110 NA
ENDROOT
BRANCH   1   5
ATOM      5  C   UNL d   1       9.166   4.176 -14.801  0.00  0.00     0.133 C 
BRANCH   5   6
ATOM      6  C   UNL d   1       8.933   3.923 -13.296  0.00  0.00     0.062 C 
BRANCH   6   7
ATOM      7  C   UNL d   1       8.539   5.234 -12.568  0.00  0.00     0.253 C 
BRANCH   7   8
ATOM      8  N   UNL d   1       8.560   5.091 -11.119  0.00  0.00     0.141 N 
ATOM      9  C   UNL d   1       9.850   4.815 -10.627  0.00  0.00     0.274 C 
ATOM     10  C   UNL d   1       9.963   4.648  -9.107  0.00  0.00     0.137 C 
ATOM     11  N   UNL d   1       9.502   5.867  -8.472  0.00  0.00    -0.343 N 
ATOM     12  C   UNL d   1       8.235   6.283  -8.949  0.00  0.00     0.137 C 
ATOM     13  C   UNL d   1       8.230   6.399 -10.513  0.00  0.00     0.274 C 
BRANCH  11  14
ATOM     14  C   UNL d   1      10.223   6.668  -7.605  0.00  0.00     0.079 C 
ATOM     15  C   UNL d   1      11.211   7.598  -8.011  0.00  0.00     0.110 C 
ATOM     16  C   UNL d   1      11.872   8.391  -7.015  0.00  0.00     0.026 C 
ATOM     17  C   UNL d   1      11.614   8.152  -5.636  0.00  0.00     0.002 C 
ATOM     18  C   UNL d   1      10.671   7.193  -5.257  0.00  0.00     0.002 C 
ATOM     19  C   UNL d   1       9.895   6.605  -6.238  0.00  0.00     0.019 C 
BRANCH  15  20
ATOM     20  O   UNL d   1      11.399   7.729  -9.366  0.00  0.00    -0.327 OA
ATOM     21  C   UNL d   1      12.213   8.800  -9.775  0.00  0.00     0.181 C 
ENDBRANCH  15  20
ENDBRANCH  11  14
ENDBRANCH   7   8
ENDBRANCH   6   7
ENDBRANCH   5   6
ENDBRANCH   1   5
BRANCH   4  22
ATOM     22  N   UNL d   1       9.365   0.589 -16.859  0.00  0.00    -0.242 N 
BRANCH  22  23
ATOM     23  C   UNL d   1       9.416   1.274 -18.165  0.00  0.00     0.156 C 
BRANCH  23  24
ATOM     24  C   UNL d   1      10.742   1.174 -18.901  0.00  0.00     0.030 A 
ATOM     25  C   UNL d   1      11.284  -0.090 -19.211  0.00  0.00     0.138 A 
ATOM     26  C   UNL d   1      12.505  -0.186 -19.905  0.00  0.00     0.029 A 
ATOM     27  F   UNL d   1      10.633  -1.217 -18.842  0.00  0.00    -0.204 F 
ATOM     28  C   UNL d   1      13.186   0.982 -20.299  0.00  0.00     0.002 A 
ATOM     29  C   UNL d   1      12.648   2.247 -19.993  0.00  0.00    -0.000 A 
ATOM     30  C   UNL d   1      11.428   2.344 -19.295  0.00  0.00    -0.000 A 
ENDBRANCH  23  24
ENDBRANCH  22  23
BRANCH  22  31
ATOM     31  C   UNL d   1       8.093   0.251 -16.320  0.00  0.00     0.079 A 
ATOM     32  C   UNL d   1       7.065  -0.253 -17.157  0.00  0.00     0.019 A 
ATOM     33  C   UNL d   1       5.785  -0.540 -16.631  0.00  0.00     0.008 A 
ATOM     34  C   UNL d   1       5.515  -0.327 -15.265  0.00  0.00     0.035 A 
ATOM     35  C   UNL d   1       6.525   0.162 -14.424  0.00  0.00     0.008 A 
ATOM     36 BR   UNL d   1       3.799  -0.730 -14.535  0.00  0.00    -0.049 Br
ATOM     37  C   UNL d   1       7.809   0.413 -14.941  0.00  0.00     0.019 A 
ENDBRANCH  22  31
ENDBRANCH   4  22
TORSDOF 10
