REMARK  6 active torsions:
REMARK  status: ('A' for Active; 'I' for Inactive)
REMARK    1  A    between atoms: C_4  and  N_5 
REMARK    2  A    between atoms: N_5  and  C_6 
REMARK    3  A    between atoms: C_6  and  C_7 
REMARK    4  A    between atoms: C_7  and  C_8 
REMARK    5  A    between atoms: C_18  and  N_19 
REMARK    6  A    between atoms: N_22  and  C_23 
ROOT
ATOM      1  N   UNL d   1       8.683   9.184 -12.077  0.00  0.00     0.063 N 
ATOM      2  C   UNL d   1       9.119   7.960 -11.733  0.00  0.00     0.799 C 
ATOM      3  N   UNL d   1       9.786   7.867 -10.572  0.00  0.00     0.136 NA
ATOM      4  C   UNL d   1       9.866   6.582 -10.213  0.00  0.00     0.776 C 
ATOM      5  N   UNL d   1       9.593   5.489 -10.938  0.00  0.00     0.133 NA
ATOM      6  C   UNL d   1       9.115   5.773 -12.154  0.00  0.00     0.758 C 
ATOM      7  N   UNL d   1       8.762   7.000 -12.571  0.00  0.00     0.135 NA
ENDROOT
BRANCH   4   8
ATOM      8  N   UNL d   1      10.291   6.284  -8.950  0.00  0.00    -0.085 NA
BRANCH   8   9
ATOM      9  C   UNL d   1      10.994   7.203  -8.095  0.00  0.00     0.150 C 
BRANCH   9  10
ATOM     10  C   UNL d   1       9.976   7.814  -7.157  0.00  0.00     0.055 C 
BRANCH  10  11
ATOM     11  C   UNL d   1      10.623   8.596  -6.091  0.00  0.00     0.000 C 
ATOM     12  C   UNL d   1      11.240   8.110  -4.892  0.00  0.00     0.015 A 
ATOM     13  C   UNL d   1      11.629   9.238  -4.121  0.00  0.00     0.081 A 
ATOM     14  C   UNL d   1      11.462   6.837  -4.329  0.00  0.00     0.001 A 
ATOM     15  N   UNL d   1      11.239  10.334  -4.857  0.00  0.00    -0.244 NA
ATOM     16  C   UNL d   1      12.243   9.117  -2.867  0.00  0.00     0.019 A 
ATOM     17  C   UNL d   1      10.732   9.953  -6.069  0.00  0.00     0.095 C 
ATOM     18  C   UNL d   1      12.463   7.843  -2.332  0.00  0.00     0.002 A 
ATOM     19  C   UNL d   1      12.065   6.705  -3.059  0.00  0.00     0.000 A 
ENDBRANCH  10  11
ENDBRANCH   9  10
ENDBRANCH   8   9
ENDBRANCH   4   8
BRANCH   6  20
ATOM     20  N   UNL d   1       9.161   4.799 -13.144  0.00  0.00    -0.178 N 
ATOM     21  C   UNL d   1       9.552   3.408 -12.903  0.00  0.00     0.144 C 
ATOM     22  C   UNL d   1      10.515   2.887 -13.987  0.00  0.00     0.126 C 
ATOM     23  N   UNL d   1       9.963   3.105 -15.327  0.00  0.00    -0.344 N 
ATOM     24  C   UNL d   1       9.490   4.462 -15.589  0.00  0.00     0.126 C 
ATOM     25  C   UNL d   1       8.543   4.948 -14.461  0.00  0.00     0.144 C 
BRANCH  23  26
ATOM     26  C   UNL d   1       9.741   2.036 -16.235  0.00  0.00     0.056 A 
ATOM     27  C   UNL d   1      10.574   0.892 -16.217  0.00  0.00     0.017 A 
ATOM     28  C   UNL d   1      10.367  -0.167 -17.134  0.00  0.00     0.002 A 
ATOM     29  C   UNL d   1       9.345  -0.104 -18.079  0.00  0.00     0.000 A 
ATOM     30  C   UNL d   1       8.511   1.014 -18.122  0.00  0.00     0.002 A 
ATOM     31  C   UNL d   1       8.699   2.080 -17.202  0.00  0.00     0.017 A 
ENDBRANCH  23  26
ENDBRANCH   6  20
TORSDOF 6
