REMARK  7 active torsions:
REMARK  status: ('A' for Active; 'I' for Inactive)
REMARK    1  A    between atoms: C_2  and  C_3 
REMARK    2  A    between atoms: C_9  and  N_10 
REMARK    3  A    between atoms: C_12  and  C_13 
REMARK    4  A    between atoms: C_13  and  C_14 
REMARK    5  A    between atoms: C_14  and  C_15 
REMARK    6  A    between atoms: C_15  and  N_16 
REMARK    7  A    between atoms: N_19  and  C_20 
ROOT
ATOM      1  C   UNL d   1       8.394   5.574 -12.898  0.00  0.00     0.051 C 
ENDROOT
BRANCH   1   2
ATOM      2  C   UNL d   1       8.454   4.298 -13.670  0.00  0.00     0.101 A 
ATOM      3  C   UNL d   1       7.445   3.455 -14.031  0.00  0.00     0.119 A 
ATOM      4  N   UNL d   1       8.080   2.493 -14.797  0.00  0.00    -0.209 N 
ATOM      5  N   UNL d   1       9.410   2.749 -14.883  0.00  0.00    -0.060 NA
ATOM      6  N   UNL d   1       9.639   3.848 -14.244  0.00  0.00    -0.133 NA
BRANCH   4   7
ATOM      7  C   UNL d   1       7.513   1.394 -15.491  0.00  0.00     0.088 A 
ATOM      8  C   UNL d   1       8.164   0.828 -16.627  0.00  0.00     0.040 A 
ATOM      9  C   UNL d   1       7.609  -0.233 -17.301  0.00  0.00     0.102 A 
ATOM     10  N   UNL d   1       6.416  -0.733 -16.881  0.00  0.00    -0.228 N 
ATOM     11  N   UNL d   1       5.751  -1.783 -17.462  0.00  0.00    -0.164 NA
ATOM     12  C   UNL d   1       5.726  -0.222 -15.762  0.00  0.00     0.089 A 
ATOM     13  C   UNL d   1       4.692  -1.946 -16.698  0.00  0.00     0.125 A 
ATOM     14  C   UNL d   1       4.600  -0.996 -15.652  0.00  0.00     0.081 A 
ATOM     15  C   UNL d   1       6.301   0.880 -15.073  0.00  0.00     0.039 A 
BRANCH  14  16
ATOM     16  C   UNL d   1       3.570  -0.831 -14.653  0.00  0.00     0.237 C 
ATOM     17  O   UNL d   1       3.657  -0.141 -13.641  0.00  0.00    -0.283 OA
ENDBRANCH  14  16
ENDBRANCH   4   7
ENDBRANCH   1   2
BRANCH   1  18
ATOM     18  C   UNL d   1       9.332   5.538 -11.689  0.00  0.00     0.042 C 
BRANCH  18  19
ATOM     19  C   UNL d   1       9.358   6.869 -10.963  0.00  0.00     0.251 C 
BRANCH  19  20
ATOM     20  N   UNL d   1      10.210   6.796  -9.764  0.00  0.00     0.141 N 
ATOM     21  C   UNL d   1      10.940   8.061  -9.608  0.00  0.00     0.274 C 
ATOM     22  C   UNL d   1      11.866   8.026  -8.376  0.00  0.00     0.137 C 
ATOM     23  N   UNL d   1      11.102   7.668  -7.191  0.00  0.00    -0.344 N 
ATOM     24  C   UNL d   1      10.272   6.478  -7.311  0.00  0.00     0.137 C 
ATOM     25  C   UNL d   1       9.383   6.572  -8.570  0.00  0.00     0.274 C 
BRANCH  23  26
ATOM     26  C   UNL d   1      11.186   8.430  -6.005  0.00  0.00     0.068 A 
ATOM     27  C   UNL d   1      11.533   7.881  -4.751  0.00  0.00     0.084 A 
ATOM     28  C   UNL d   1      11.670   8.634  -3.590  0.00  0.00     0.070 A 
ATOM     29 CL   UNL d   1      11.853   6.253  -4.564  0.00  0.00    -0.080 Cl
ATOM     30  C   UNL d   1      11.400   9.990  -3.647  0.00  0.00     0.012 A 
ATOM     31 CL   UNL d   1      12.165   7.902  -2.102  0.00  0.00    -0.081 Cl
ATOM     32  C   UNL d   1      11.030  10.578  -4.886  0.00  0.00     0.002 A 
ATOM     33  C   UNL d   1      10.964   9.817  -6.065  0.00  0.00     0.018 A 
ENDBRANCH  23  26
ENDBRANCH  19  20
ENDBRANCH  18  19
ENDBRANCH   1  18
TORSDOF 7
