REMARK  6 active torsions:
REMARK  status: ('A' for Active; 'I' for Inactive)
REMARK    1  A    between atoms: C_2  and  S_3 
REMARK    2  A    between atoms: S_3  and  C_6 
REMARK    3  A    between atoms: C_9  and  O_10 
REMARK    4  A    between atoms: C_12  and  C_13 
REMARK    5  A    between atoms: C_16  and  C_17 
REMARK    6  A    between atoms: C_17  and  N_19 
ROOT
ATOM      1  C   UNL d   1       8.989   5.172 -10.550  0.00  0.00     0.083 A 
ATOM      2  C   UNL d   1       8.664   4.696  -9.306  0.00  0.00     0.020 A 
ATOM      3  C   UNL d   1       9.062   5.678  -8.350  0.00  0.00     0.018 A 
ATOM      4  C   UNL d   1       9.687   6.678  -8.989  0.00  0.00     0.090 A 
ATOM      5  N   UNL d   1       9.642   6.383 -10.343  0.00  0.00    -0.248 NA
ENDROOT
BRANCH   1   6
ATOM      6  C   UNL d   1       8.776   4.654 -11.903  0.00  0.00     0.041 A 
ATOM      7  C   UNL d   1       7.472   4.422 -12.426  0.00  0.00     0.096 A 
ATOM      8  C   UNL d   1       7.267   3.847 -13.677  0.00  0.00     0.025 A 
ATOM      9  C   UNL d   1       8.374   3.537 -14.498  0.00  0.00     0.013 A 
ATOM     10  C   UNL d   1       9.666   3.809 -14.007  0.00  0.00     0.084 A 
ATOM     11  C   UNL d   1       9.867   4.345 -12.743  0.00  0.00     0.015 A 
BRANCH   7  12
ATOM     12  O   UNL d   1       6.431   4.844 -11.664  0.00  0.00    -0.328 OA
ATOM     13  C   UNL d   1       5.161   4.378 -12.023  0.00  0.00     0.181 C 
ENDBRANCH   7  12
BRANCH  10  14
ATOM     14  S   UNL d   1      11.105   3.400 -14.962  0.00  0.00     0.190 S 
ATOM     15  O   UNL d   1      12.218   4.195 -14.402  0.00  0.00    -0.222 OA
ATOM     16  O   UNL d   1      10.722   3.549 -16.365  0.00  0.00    -0.222 OA
BRANCH  14  17
ATOM     17  C   UNL d   1      11.407   1.673 -14.616  0.00  0.00     0.127 C 
ATOM     18  C   UNL d   1      10.245   0.755 -14.932  0.00  0.00     0.018 C 
ENDBRANCH  14  17
ENDBRANCH  10  14
ENDBRANCH   1   6
BRANCH   4  19
ATOM     19  C   UNL d   1      10.263   7.985  -8.518  0.00  0.00     0.259 C 
ATOM     20  C   UNL d   1       9.133   9.007  -8.203  0.00  0.00     0.042 C 
BRANCH  19  21
ATOM     21  N   UNL d   1      11.237   7.870  -7.409  0.00  0.00     0.141 N 
ATOM     22  C   UNL d   1      10.682   7.304  -6.169  0.00  0.00     0.251 C 
ATOM     23  C   UNL d   1      11.508   7.337  -4.895  0.00  0.00     0.035 C 
ATOM     24  C   UNL d   1      11.367   8.674  -4.160  0.00  0.00     0.002 C 
ATOM     25  C   UNL d   1      11.983   9.883  -4.831  0.00  0.00     0.002 C 
ATOM     26  C   UNL d   1      11.491  10.111  -6.249  0.00  0.00     0.035 C 
ATOM     27  C   UNL d   1      12.052   9.085  -7.257  0.00  0.00     0.251 C 
ENDBRANCH  19  21
ENDBRANCH   4  19
TORSDOF 6
