REMARK  7 active torsions:
REMARK  status: ('A' for Active; 'I' for Inactive)
REMARK    1  A    between atoms: C_2  and  C_3 
REMARK       I    between atoms: C_2  and  N_8 
REMARK    2  A    between atoms: C_3  and  C_4 
REMARK    3  A    between atoms: N_8  and  C_9 
REMARK    4  A    between atoms: C_12  and  C_13 
REMARK    5  A    between atoms: C_13  and  C_14 
REMARK    6  A    between atoms: C_14  and  N_15 
REMARK    7  A    between atoms: C_18  and  C_19 
ROOT
ATOM      1  C   UNL d   1       8.878   5.449 -13.420  0.00  0.00     0.250 C 
ENDROOT
BRANCH   1   2
ATOM      2  C   UNL d   1       8.747   4.997 -11.975  0.00  0.00     0.035 C 
BRANCH   2   3
ATOM      3  C   UNL d   1       8.299   6.108 -11.011  0.00  0.00     0.002 C 
ATOM      4  C   UNL d   1       8.266   5.483  -9.589  0.00  0.00     0.002 C 
ATOM      5  C   UNL d   1       9.634   5.292  -8.930  0.00  0.00     0.024 C 
ATOM      6  C   UNL d   1      10.408   6.614  -8.980  0.00  0.00     0.106 C 
ATOM      7  C   UNL d   1      10.515   7.184 -10.402  0.00  0.00     0.024 C 
ATOM      8  C   UNL d   1       9.161   7.400 -11.069  0.00  0.00     0.002 C 
BRANCH   6   9
ATOM      9  N   UNL d   1       9.825   7.555  -8.053  0.00  0.00    -0.240 NA
ATOM     10  C   UNL d   1      10.627   8.406  -7.400  0.00  0.00     0.260 C 
ATOM     11  O   UNL d   1      11.750   8.687  -7.773  0.00  0.00    -0.270 OA
BRANCH  10  12
ATOM     12  C   UNL d   1      10.100   8.854  -6.058  0.00  0.00     0.193 C 
BRANCH  12  13
ATOM     13  C   UNL d   1      11.019   9.840  -5.300  0.00  0.00     0.407 C 
ATOM     14  F   UNL d   1      10.357  10.380  -4.305  0.00  0.00    -0.170 F 
ATOM     15  F   UNL d   1      12.069   9.184  -4.815  0.00  0.00    -0.170 F 
ATOM     16  F   UNL d   1      11.465  10.813  -6.079  0.00  0.00    -0.170 F 
ENDBRANCH  12  13
ENDBRANCH  10  12
ENDBRANCH   6   9
ENDBRANCH   2   3
ENDBRANCH   1   2
BRANCH   1  17
ATOM     17  N   UNL d   1       9.272   4.380 -14.329  0.00  0.00     0.137 N 
ATOM     18  C   UNL d   1       9.539   4.987 -15.625  0.00  0.00     0.251 C 
ATOM     19  C   UNL d   1       9.780   3.909 -16.674  0.00  0.00     0.040 C 
ATOM     20  C   UNL d   1      10.952   2.994 -16.257  0.00  0.00     0.028 C 
ATOM     21  C   UNL d   1      10.767   2.506 -14.818  0.00  0.00     0.040 C 
ATOM     22  C   UNL d   1      10.478   3.659 -13.888  0.00  0.00     0.251 C 
BRANCH  20  23
ATOM     23  C   UNL d   1      11.141   1.825 -17.205  0.00  0.00     0.002 A 
ATOM     24  C   UNL d   1      10.099   0.913 -17.451  0.00  0.00     0.115 A 
ATOM     25  C   UNL d   1      10.267  -0.157 -18.311  0.00  0.00     0.119 A 
ATOM     26  O   UNL d   1       8.839   0.903 -16.948  0.00  0.00    -0.300 OA
ATOM     27  C   UNL d   1      11.480  -0.386 -18.968  0.00  0.00     0.026 A 
ATOM     28  O   UNL d   1       9.096  -0.861 -18.373  0.00  0.00    -0.300 OA
ATOM     29  C   UNL d   1      12.541   0.515 -18.731  0.00  0.00     0.002 A 
ATOM     30  C   UNL d   1      12.373   1.612 -17.860  0.00  0.00    -0.002 A 
ATOM     31  C   UNL d   1       8.185  -0.173 -17.543  0.00  0.00     0.304 A 
ENDBRANCH  20  23
ENDBRANCH   1  17
TORSDOF 7
