REMARK  8 active torsions:
REMARK  status: ('A' for Active; 'I' for Inactive)
REMARK    1  A    between atoms: O_2  and  C_3 
REMARK    2  A    between atoms: C_8  and  N_9 
REMARK    3  A    between atoms: N_12  and  C_13 
REMARK    4  A    between atoms: C_13  and  C_14 
REMARK    5  A    between atoms: C_14  and  C_15 
REMARK    6  A    between atoms: C_15  and  C_16 
REMARK    7  A    between atoms: C_16  and  N_17 
REMARK       I    between atoms: N_17  and  C_18 
REMARK    8  A    between atoms: C_18  and  C_20 
ROOT
ATOM      1  C   UNL d   1       7.184   5.816 -12.298  0.00  0.00     0.037 C 
ENDROOT
BRANCH   1   2
ATOM      2  C   UNL d   1       5.925   4.915 -12.369  0.00  0.00     0.251 C 
BRANCH   2   3
ATOM      3  N   UNL d   1       6.264   3.535 -12.675  0.00  0.00     0.141 N 
ATOM      4  C   UNL d   1       5.118   2.644 -12.451  0.00  0.00     0.274 C 
ATOM      5  C   UNL d   1       5.484   1.163 -12.742  0.00  0.00     0.137 C 
ATOM      6  N   UNL d   1       6.016   1.047 -14.090  0.00  0.00    -0.343 N 
ATOM      7  C   UNL d   1       7.086   1.994 -14.399  0.00  0.00     0.137 C 
ATOM      8  C   UNL d   1       6.660   3.412 -14.078  0.00  0.00     0.274 C 
BRANCH   6   9
ATOM      9  C   UNL d   1       5.537   0.099 -15.015  0.00  0.00     0.079 A 
ATOM     10  C   UNL d   1       6.369  -0.411 -16.058  0.00  0.00     0.110 A 
ATOM     11  C   UNL d   1       5.824  -1.302 -17.012  0.00  0.00     0.026 A 
ATOM     12  C   UNL d   1       4.481  -1.709 -16.940  0.00  0.00     0.002 A 
ATOM     13  C   UNL d   1       3.668  -1.222 -15.908  0.00  0.00     0.002 A 
ATOM     14  C   UNL d   1       4.186  -0.339 -14.954  0.00  0.00     0.019 A 
BRANCH  10  15
ATOM     15  O   UNL d   1       7.710  -0.084 -16.049  0.00  0.00    -0.327 OA
ATOM     16  C   UNL d   1       8.461  -0.228 -17.233  0.00  0.00     0.181 C 
ENDBRANCH  10  15
ENDBRANCH   6   9
ENDBRANCH   2   3
ENDBRANCH   1   2
BRANCH   1  17
ATOM     17  C   UNL d   1       7.898   5.728 -10.940  0.00  0.00     0.029 C 
BRANCH  17  18
ATOM     18  C   UNL d   1       9.105   6.682 -10.858  0.00  0.00     0.129 C 
BRANCH  18  19
ATOM     19  N   UNL d   1       9.651   6.746  -9.501  0.00  0.00    -0.234 NA
ATOM     20  C   UNL d   1      10.163   7.851  -8.917  0.00  0.00     0.280 C 
ATOM     21  O   UNL d   1      10.258   8.911  -9.542  0.00  0.00    -0.265 OA
BRANCH  20  22
ATOM     22  C   UNL d   1      10.578   7.685  -7.515  0.00  0.00     0.121 A 
ATOM     23  C   UNL d   1      10.853   8.816  -6.585  0.00  0.00     0.204 A 
ATOM     24  C   UNL d   1      11.306   8.495  -5.222  0.00  0.00     0.062 A 
ATOM     25  O   UNL d   1      10.725   9.988  -6.887  0.00  0.00    -0.286 OA
ATOM     26  C   UNL d   1      11.478   7.148  -4.865  0.00  0.00     0.103 A 
ATOM     27  C   UNL d   1      11.581   9.516  -4.290  0.00  0.00     0.005 A 
ATOM     28  O   UNL d   1      11.294   6.156  -5.783  0.00  0.00    -0.305 OA
ATOM     29  C   UNL d   1      11.924   6.824  -3.573  0.00  0.00     0.025 A 
ATOM     30  C   UNL d   1      10.813   6.441  -7.033  0.00  0.00     0.131 A 
ATOM     31  C   UNL d   1      12.218   7.839  -2.644  0.00  0.00     0.002 A 
ATOM     32  C   UNL d   1      12.044   9.190  -3.004  0.00  0.00     0.000 A 
ENDBRANCH  20  22
ENDBRANCH  18  19
ENDBRANCH  17  18
ENDBRANCH   1  17
TORSDOF 8
