REMARK  6 active torsions:
REMARK  status: ('A' for Active; 'I' for Inactive)
REMARK    1  A    between atoms: C_3  and  C_4 
REMARK    2  A    between atoms: C_3  and  C_19 
REMARK    3  A    between atoms: C_4  and  C_5 
REMARK    4  A    between atoms: C_5  and  C_6 
REMARK    5  A    between atoms: C_6  and  N_7 
REMARK    6  A    between atoms: N_10  and  C_11 
ROOT
ATOM      1  C   UNL d   1       5.716   4.679 -12.730  0.00  0.00     0.251 C 
ENDROOT
BRANCH   1   2
ATOM      2  C   UNL d   1       5.684   3.168 -13.023  0.00  0.00     0.042 C 
BRANCH   2   3
ATOM      3  C   UNL d   1       6.588   2.723 -14.202  0.00  0.00     0.050 C 
BRANCH   3   4
ATOM      4  C   UNL d   1       6.632   1.220 -14.438  0.00  0.00     0.088 C 
ATOM      5  N   UNL d   1       5.725   0.476 -13.939  0.00  0.00    -0.101 NA
ATOM      6  O   UNL d   1       5.962  -0.901 -14.249  0.00  0.00    -0.061 OA
BRANCH   4   7
ATOM      7  C   UNL d   1       7.756   0.763 -15.287  0.00  0.00     0.016 A 
ATOM      8  C   UNL d   1       7.495   0.241 -16.573  0.00  0.00     0.004 A 
ATOM      9  C   UNL d   1       8.550  -0.213 -17.386  0.00  0.00     0.030 A 
ATOM     10  C   UNL d   1       9.877  -0.143 -16.924  0.00  0.00     0.140 A 
ATOM     11  C   UNL d   1      10.150   0.393 -15.650  0.00  0.00     0.030 A 
ATOM     12  F   UNL d   1      10.890  -0.597 -17.699  0.00  0.00    -0.204 F 
ATOM     13  C   UNL d   1       9.093   0.850 -14.839  0.00  0.00     0.004 A 
ENDBRANCH   4   7
ENDBRANCH   3   4
ENDBRANCH   2   3
ENDBRANCH   1   2
BRANCH   1  14
ATOM     14  N   UNL d   1       7.070   5.217 -12.576  0.00  0.00     0.141 N 
ATOM     15  C   UNL d   1       6.989   6.640 -12.259  0.00  0.00     0.274 C 
ATOM     16  C   UNL d   1       8.416   7.232 -12.123  0.00  0.00     0.138 C 
ATOM     17  N   UNL d   1       9.219   6.483 -11.159  0.00  0.00    -0.330 N 
ATOM     18  C   UNL d   1       9.208   5.047 -11.339  0.00  0.00     0.138 C 
ATOM     19  C   UNL d   1       7.765   4.571 -11.465  0.00  0.00     0.274 C 
BRANCH  17  20
ATOM     20  C   UNL d   1       9.842   7.088 -10.052  0.00  0.00     0.140 A 
ATOM     21  N   UNL d   1      10.000   6.352  -8.926  0.00  0.00    -0.227 NA
ATOM     22  C   UNL d   1      10.617   6.913  -7.869  0.00  0.00     0.101 A 
ATOM     23  C   UNL d   1      11.130   8.223  -7.883  0.00  0.00     0.021 A 
ATOM     24  C   UNL d   1      10.975   8.986  -9.053  0.00  0.00     0.005 A 
ATOM     25  C   UNL d   1      10.314   8.414 -10.151  0.00  0.00     0.037 A 
ENDBRANCH  17  20
ENDBRANCH   1  14
TORSDOF 6
