REMARK  1 active torsions:
REMARK  status: ('A' for Active; 'I' for Inactive)
REMARK    1  A    between atoms: C_4  and  C_5 
ROOT
ATOM      1  C   UNL d   1      10.400   3.761 -17.556  0.00  0.00     0.061 C 
ATOM      2  C   UNL d   1      11.716   3.339 -18.239  0.00  0.00     0.042 C 
ATOM      3  C   UNL d   1      12.834   3.921 -17.374  0.00  0.00     0.251 C 
ATOM      4  N   UNL d   1      12.170   3.973 -16.102  0.00  0.00     0.141 N 
ATOM      5  C   UNL d   1      12.855   4.682 -15.053  0.00  0.00     0.255 C 
ATOM      6  C   UNL d   1      12.186   4.338 -13.713  0.00  0.00     0.063 C 
ATOM      7  C   UNL d   1      10.691   4.545 -13.794  0.00  0.00    -0.003 A 
ATOM      8  C   UNL d   1      10.141   4.635 -15.029  0.00  0.00     0.086 A 
ATOM      9  N   UNL d   1       8.790   4.797 -14.897  0.00  0.00    -0.248 NA
ATOM     10  C   UNL d   1       8.386   4.758 -13.589  0.00  0.00     0.081 A 
ATOM     11  C   UNL d   1       7.092   4.796 -13.044  0.00  0.00     0.019 A 
ATOM     12  C   UNL d   1       6.932   4.892 -11.667  0.00  0.00     0.002 A 
ATOM     13  C   UNL d   1       8.097   4.841 -10.854  0.00  0.00     0.000 A 
ATOM     14  C   UNL d   1       9.387   4.717 -11.430  0.00  0.00     0.001 A 
ATOM     15  C   UNL d   1       9.589   4.673 -12.831  0.00  0.00     0.015 A 
ATOM     16  C   UNL d   1      10.877   4.609 -16.349  0.00  0.00     0.263 C 
ENDROOT
BRANCH   1  17
ATOM     17  C   UNL d   1       9.498   2.554 -17.258  0.00  0.00    -0.020 A 
ATOM     18  C   UNL d   1       9.716   1.706 -16.151  0.00  0.00    -0.004 A 
ATOM     19  C   UNL d   1       8.823   0.656 -15.868  0.00  0.00    -0.000 A 
ATOM     20  C   UNL d   1       7.744   0.400 -16.728  0.00  0.00    -0.000 A 
ATOM     21  C   UNL d   1       7.554   1.198 -17.874  0.00  0.00    -0.000 A 
ATOM     22  C   UNL d   1       8.437   2.262 -18.145  0.00  0.00    -0.004 A 
ENDBRANCH   1  17
TORSDOF 1
