REMARK  3 active torsions:
REMARK  status: ('A' for Active; 'I' for Inactive)
REMARK    1  A    between atoms: C_11  and  N_12 
REMARK    2  A    between atoms: N_15  and  C_16 
REMARK    3  A    between atoms: C_16  and  C_17 
ROOT
ATOM      1  N   UNL d   1       9.590   7.152  -9.479  0.00  0.00     0.149 N 
ATOM      2  C   UNL d   1      10.226   7.329 -10.796  0.00  0.00     0.286 C 
ATOM      3  C   UNL d   1       9.248   7.137 -11.955  0.00  0.00     0.286 C 
ATOM      4  N   UNL d   1       8.719   5.775 -11.971  0.00  0.00     0.146 N 
ATOM      5  C   UNL d   1       8.064   5.579 -10.678  0.00  0.00     0.286 C 
ATOM      6  C   UNL d   1       8.987   5.807  -9.479  0.00  0.00     0.286 C 
ENDROOT
BRANCH   1   7
ATOM      7  C   UNL d   1      10.494   7.381  -8.322  0.00  0.00     0.303 C 
ATOM      8  C   UNL d   1      10.954   8.867  -8.228  0.00  0.00     0.287 C 
ATOM      9  O   UNL d   1      11.010   9.597  -9.209  0.00  0.00    -0.268 OA
ATOM     10  N   UNL d   1      11.415   9.322  -7.036  0.00  0.00    -0.210 NA
ATOM     11  C   UNL d   1      11.483   8.579  -5.837  0.00  0.00     0.080 A 
ATOM     12  C   UNL d   1      10.792   7.359  -5.753  0.00  0.00    -0.002 A 
ATOM     13  C   UNL d   1      12.266   9.028  -4.741  0.00  0.00     0.019 A 
ATOM     14  C   UNL d   1      10.986   6.549  -4.615  0.00  0.00    -0.003 A 
ATOM     15  C   UNL d   1       9.928   6.926  -6.932  0.00  0.00     0.071 C 
ATOM     16  C   UNL d   1      11.755   6.978  -3.515  0.00  0.00    -0.000 A 
ATOM     17  C   UNL d   1      12.403   8.238  -3.567  0.00  0.00     0.002 A 
ENDBRANCH   1   7
BRANCH   4  18
ATOM     18  C   UNL d   1       7.797   5.661 -13.083  0.00  0.00     0.277 C 
BRANCH  18  19
ATOM     19  C   UNL d   1       7.096   4.319 -13.199  0.00  0.00     0.011 A 
ATOM     20  C   UNL d   1       5.981   4.018 -12.389  0.00  0.00    -0.002 A 
ATOM     21  C   UNL d   1       5.387   2.748 -12.444  0.00  0.00     0.011 A 
ATOM     22  C   UNL d   1       5.850   1.796 -13.367  0.00  0.00     0.058 A 
ATOM     23  C   UNL d   1       6.953   2.095 -14.196  0.00  0.00     0.011 A 
ATOM     24 CL   UNL d   1       5.163   0.222 -13.412  0.00  0.00    -0.082 Cl
ATOM     25  C   UNL d   1       7.601   3.346 -14.091  0.00  0.00    -0.002 A 
ENDBRANCH  18  19
ENDBRANCH   4  18
TORSDOF 3
