REMARK  6 active torsions:
REMARK  status: ('A' for Active; 'I' for Inactive)
REMARK    1  A    between atoms: C_2  and  C_3 
REMARK    2  A    between atoms: C_3  and  C_4 
REMARK    3  A    between atoms: C_4  and  C_5 
REMARK    4  A    between atoms: C_5  and  C_6 
REMARK    5  A    between atoms: C_6  and  N_7 
REMARK       I    between atoms: N_7  and  C_8 
REMARK       I    between atoms: C_8  and  N_10 
REMARK       I    between atoms: C_11  and  N_13 
REMARK    6  A    between atoms: N_13  and  C_14 
ROOT
ATOM      1  N   UNL d   1       9.088   6.505  -8.348  0.00  0.00    -0.217 NA
ATOM      2  C   UNL d   1       9.771   6.508  -9.493  0.00  0.00     0.367 C 
ATOM      3  O   UNL d   1      10.894   7.010  -9.603  0.00  0.00    -0.243 OA
ATOM      4  N   UNL d   1       9.041   5.899 -10.502  0.00  0.00    -0.159 NA
ATOM      5  C   UNL d   1       8.891   6.501 -11.641  0.00  0.00     0.237 C 
ATOM      6  N   UNL d   1       9.362   7.757 -11.998  0.00  0.00    -0.060 NA
ATOM      7  N   UNL d   1       8.223   5.888 -12.683  0.00  0.00    -0.242 NA
ENDROOT
BRANCH   7   8
ATOM      8  C   UNL d   1       7.618   4.563 -12.628  0.00  0.00     0.111 C 
ATOM      9  C   UNL d   1       8.140   3.725 -13.809  0.00  0.00     0.059 C 
ATOM     10  C   UNL d   1       7.289   2.530 -14.064  0.00  0.00     0.025 A 
ATOM     11  C   UNL d   1       6.029   2.347 -13.528  0.00  0.00     0.063 A 
ATOM     12  S   UNL d   1       7.784   1.170 -15.019  0.00  0.00    -0.057 SA
ATOM     13  C   UNL d   1       5.355   3.323 -12.617  0.00  0.00     0.048 C 
ATOM     14  N   UNL d   1       5.465   1.115 -13.844  0.00  0.00    -0.230 NA
ATOM     15  C   UNL d   1       6.076   4.681 -12.574  0.00  0.00     0.031 C 
ATOM     16  C   UNL d   1       6.237   0.407 -14.657  0.00  0.00     0.180 A 
ATOM     17  N   UNL d   1       5.867  -0.816 -15.197  0.00  0.00    -0.072 NA
ENDBRANCH   7   8
BRANCH   1  18
ATOM     18  C   UNL d   1       9.538   6.912  -7.016  0.00  0.00     0.131 C 
BRANCH  18  19
ATOM     19  C   UNL d   1      10.748   7.860  -7.023  0.00  0.00     0.026 C 
BRANCH  19  20
ATOM     20  C   UNL d   1      11.235   8.278  -5.636  0.00  0.00     0.002 C 
BRANCH  20  21
ATOM     21  C   UNL d   1      11.709   7.075  -4.798  0.00  0.00     0.000 C 
BRANCH  21  22
ATOM     22  C   UNL d   1      12.619   7.487  -3.640  0.00  0.00     0.000 C 
ATOM     23  C   UNL d   1      11.882   8.298  -2.572  0.00  0.00     0.000 C 
ENDBRANCH  21  22
ENDBRANCH  20  21
ENDBRANCH  19  20
ENDBRANCH  18  19
ENDBRANCH   1  18
TORSDOF 6
