REMARK  7 active torsions:
REMARK  status: ('A' for Active; 'I' for Inactive)
REMARK    1  A    between atoms: C_2  and  C_3 
REMARK    2  A    between atoms: C_3  and  C_4 
REMARK    3  A    between atoms: C_4  and  C_5 
REMARK    4  A    between atoms: C_5  and  O_7 
REMARK    5  A    between atoms: O_7  and  C_8 
REMARK    6  A    between atoms: N_22  and  C_23 
REMARK    7  A    between atoms: C_23  and  C_24 
ROOT
ATOM      1  C   UNL d   1      10.748   3.099 -16.497  0.00  0.00     0.103 A 
ATOM      2  C   UNL d   1      11.584   2.302 -17.314  0.00  0.00     0.025 A 
ATOM      3  C   UNL d   1      11.553   0.910 -17.238  0.00  0.00     0.002 A 
ATOM      4  C   UNL d   1      10.665   0.291 -16.351  0.00  0.00    -0.004 A 
ATOM      5  C   UNL d   1       9.833   1.079 -15.521  0.00  0.00    -0.018 A 
ATOM      6  C   UNL d   1       9.873   2.491 -15.547  0.00  0.00     0.019 A 
ATOM      7  C   UNL d   1       8.957   3.221 -14.621  0.00  0.00    -0.001 A 
ATOM      8  C   UNL d   1       9.203   4.528 -14.131  0.00  0.00    -0.000 A 
ATOM      9  C   UNL d   1       8.322   5.213 -13.272  0.00  0.00    -0.000 A 
ATOM     10  C   UNL d   1       7.137   4.605 -12.837  0.00  0.00    -0.004 A 
ATOM     11  C   UNL d   1       6.851   3.292 -13.248  0.00  0.00    -0.022 A 
ATOM     12  C   UNL d   1       7.776   2.627 -14.095  0.00  0.00     0.005 A 
ATOM     13  C   UNL d   1       7.517   1.169 -14.538  0.00  0.00     0.245 C 
ATOM     14  C   UNL d   1       8.841   0.379 -14.628  0.00  0.00     0.064 C 
ATOM     15  N   UNL d   1       6.543   0.429 -13.738  0.00  0.00     0.140 N 
ATOM     16  C   UNL d   1       5.372   1.257 -13.630  0.00  0.00     0.255 C 
ATOM     17  C   UNL d   1       5.679   2.474 -12.745  0.00  0.00     0.061 C 
ENDROOT
BRANCH   1  18
ATOM     18  O   UNL d   1      10.752   4.447 -16.716  0.00  0.00    -0.276 OA
BRANCH  18  19
ATOM     19  C   UNL d   1      11.798   5.186 -16.306  0.00  0.00     0.276 C 
ATOM     20  O   UNL d   1      12.700   4.805 -15.557  0.00  0.00    -0.264 OA
BRANCH  19  21
ATOM     21  C   UNL d   1      11.716   6.608 -16.852  0.00  0.00     0.096 C 
BRANCH  21  22
ATOM     22  C   UNL d   1      12.924   7.506 -16.526  0.00  0.00     0.010 C 
BRANCH  22  23
ATOM     23  C   UNL d   1      14.217   7.039 -17.223  0.00  0.00     0.001 C 
ATOM     24  C   UNL d   1      14.150   7.160 -18.750  0.00  0.00     0.000 C 
ENDBRANCH  22  23
ENDBRANCH  21  22
ENDBRANCH  19  21
ENDBRANCH  18  19
ENDBRANCH   1  18
BRANCH  15  25
ATOM     25  C   UNL d   1       6.128  -0.863 -14.323  0.00  0.00     0.251 C 
BRANCH  25  26
ATOM     26  C   UNL d   1       5.539  -0.728 -15.756  0.00  0.00     0.035 C 
ATOM     27  C   UNL d   1       5.021  -2.061 -16.321  0.00  0.00     0.002 C 
ENDBRANCH  25  26
ENDBRANCH  15  25
TORSDOF 7
