REMARK  3 active torsions:
REMARK  status: ('A' for Active; 'I' for Inactive)
REMARK    1  A    between atoms: C_5  and  C_6 
REMARK    2  A    between atoms: C_6  and  N_7 
REMARK    3  A    between atoms: N_10  and  C_11 
ROOT
ATOM      1  C   UNL d   1       9.633   4.992 -13.718  0.00  0.00     0.142 C 
ATOM      2  N   UNL d   1      10.658   5.512 -14.337  0.00  0.00    -0.227 NA
ATOM      3  C   UNL d   1      11.198   5.150 -15.577  0.00  0.00     0.101 A 
ATOM      4  C   UNL d   1      11.782   6.190 -16.347  0.00  0.00     0.032 A 
ATOM      5  C   UNL d   1      12.440   5.921 -17.561  0.00  0.00     0.059 A 
ATOM      6 CL   UNL d   1      13.126   7.209 -18.488  0.00  0.00    -0.082 Cl
ATOM      7  C   UNL d   1      12.547   4.595 -18.017  0.00  0.00     0.013 A 
ATOM      8  C   UNL d   1      11.987   3.549 -17.256  0.00  0.00     0.021 A 
ATOM      9  C   UNL d   1      11.307   3.821 -16.054  0.00  0.00     0.099 A 
ATOM     10  N   UNL d   1      10.716   2.753 -15.379  0.00  0.00    -0.244 NA
ATOM     11  C   UNL d   1       9.374   2.784 -15.001  0.00  0.00     0.084 A 
ATOM     12  C   UNL d   1       8.568   1.685 -15.376  0.00  0.00     0.019 A 
ATOM     13  C   UNL d   1       7.195   1.685 -15.072  0.00  0.00     0.002 A 
ATOM     14  C   UNL d   1       6.623   2.771 -14.401  0.00  0.00     0.000 A 
ATOM     15  C   UNL d   1       7.415   3.867 -14.027  0.00  0.00     0.004 A 
ATOM     16  C   UNL d   1       8.808   3.865 -14.286  0.00  0.00     0.051 A 
ENDROOT
BRANCH   1  17
ATOM     17  N   UNL d   1       9.255   5.451 -12.452  0.00  0.00    -0.330 N 
ATOM     18  C   UNL d   1       8.561   4.656 -11.436  0.00  0.00     0.138 C 
ATOM     19  C   UNL d   1       9.272   4.669 -10.110  0.00  0.00     0.275 C 
ATOM     20  N   UNL d   1       9.464   6.025  -9.634  0.00  0.00     0.145 N 
ATOM     21  C   UNL d   1      10.206   6.813 -10.617  0.00  0.00     0.275 C 
ATOM     22  C   UNL d   1       9.459   6.815 -11.960  0.00  0.00     0.138 C 
BRANCH  20  23
ATOM     23  C   UNL d   1      10.139   5.879  -8.352  0.00  0.00     0.277 C 
BRANCH  23  24
ATOM     24  C   UNL d   1      10.616   7.184  -7.767  0.00  0.00     0.007 A 
ATOM     25  C   UNL d   1      11.839   7.703  -8.180  0.00  0.00    -0.003 A 
ATOM     26  C   UNL d   1      12.320   8.900  -7.690  0.00  0.00    -0.004 A 
ATOM     27  C   UNL d   1      11.537   9.662  -6.813  0.00  0.00    -0.022 A 
ATOM     28  C   UNL d   1      11.953  11.032  -6.398  0.00  0.00     0.031 C 
ATOM     29  C   UNL d   1      10.336   9.143  -6.325  0.00  0.00    -0.009 A 
ATOM     30  C   UNL d   1       9.870   7.922  -6.821  0.00  0.00    -0.024 A 
ATOM     31  C   UNL d   1       8.531   7.458  -6.440  0.00  0.00     0.031 C 
ENDBRANCH  23  24
ENDBRANCH  20  23
ENDBRANCH   1  17
TORSDOF 3
