REMARK  4 active torsions:
REMARK  status: ('A' for Active; 'I' for Inactive)
REMARK    1  A    between atoms: N_3  and  C_4 
REMARK    2  A    between atoms: C_4  and  C_5 
REMARK    3  A    between atoms: C_5  and  N_6 
REMARK    4  A    between atoms: N_15  and  C_16 
ROOT
ATOM      1  O   UNL d   1      10.210   5.339 -13.477  0.00  0.00    -0.247 OA
ATOM      2  C   UNL d   1       9.036   5.266 -13.091  0.00  0.00     0.328 A 
ATOM      3  N   UNL d   1       8.375   6.206 -12.400  0.00  0.00    -0.298 N 
ATOM      4  C   UNL d   1       7.007   5.817 -12.073  0.00  0.00     0.131 A 
ATOM      5  C   UNL d   1       6.874   4.458 -12.750  0.00  0.00     0.135 A 
ATOM      6  N   UNL d   1       8.209   4.229 -13.309  0.00  0.00    -0.280 N 
ENDROOT
BRANCH   3   7
ATOM      7  C   UNL d   1       8.943   7.468 -11.933  0.00  0.00     0.141 C 
BRANCH   7   8
ATOM      8  C   UNL d   1       9.433   7.263 -10.495  0.00  0.00     0.274 C 
BRANCH   8   9
ATOM      9  N   UNL d   1       9.837   8.509  -9.841  0.00  0.00     0.139 N 
ATOM     10  C   UNL d   1       9.514   8.524  -8.417  0.00  0.00     0.250 C 
ATOM     11  C   UNL d   1      10.033   7.273  -7.674  0.00  0.00     0.035 C 
ATOM     12  C   UNL d   1      11.477   7.420  -7.175  0.00  0.00     0.002 C 
ATOM     13  C   UNL d   1      12.465   8.138  -8.135  0.00  0.00     0.002 C 
ATOM     14  C   UNL d   1      12.255   8.000  -9.646  0.00  0.00     0.035 C 
ATOM     15  C   UNL d   1      11.187   8.955 -10.151  0.00  0.00     0.250 C 
ENDBRANCH   8   9
ENDBRANCH   7   8
ENDBRANCH   3   7
BRANCH   6  16
ATOM     16  C   UNL d   1       8.550   3.068 -14.056  0.00  0.00     0.065 A 
ATOM     17  C   UNL d   1       7.583   2.373 -14.828  0.00  0.00     0.029 A 
ATOM     18  C   UNL d   1       7.935   1.240 -15.596  0.00  0.00     0.059 A 
ATOM     19  C   UNL d   1       9.269   0.766 -15.597  0.00  0.00     0.011 A 
ATOM     20 CL   UNL d   1       6.739   0.431 -16.560  0.00  0.00    -0.082 Cl
ATOM     21  C   UNL d   1      10.238   1.442 -14.829  0.00  0.00     0.002 A 
ATOM     22  C   UNL d   1       9.880   2.570 -14.060  0.00  0.00     0.017 A 
ENDBRANCH   6  16
TORSDOF 4
