REMARK  3 active torsions:
REMARK  status: ('A' for Active; 'I' for Inactive)
REMARK    1  A    between atoms: C_4  and  C_5 
REMARK    2  A    between atoms: C_5  and  C_6 
REMARK    3  A    between atoms: C_6  and  N_7 
ROOT
ATOM      1  C   UNL d   1       9.415   6.878 -10.724  0.00  0.00     0.255 C 
ENDROOT
BRANCH   1   2
ATOM      2  C   UNL d   1      10.621   6.641  -9.799  0.00  0.00     0.062 C 
BRANCH   2   3
ATOM      3  C   UNL d   1      10.624   7.538  -8.576  0.00  0.00    -0.020 A 
ATOM      4  C   UNL d   1       9.472   7.625  -7.763  0.00  0.00    -0.004 A 
ATOM      5  C   UNL d   1       9.473   8.447  -6.625  0.00  0.00    -0.000 A 
ATOM      6  C   UNL d   1      10.626   9.182  -6.282  0.00  0.00    -0.000 A 
ATOM      7  C   UNL d   1      11.783   9.085  -7.080  0.00  0.00    -0.000 A 
ATOM      8  C   UNL d   1      11.783   8.265  -8.224  0.00  0.00    -0.004 A 
ENDBRANCH   2   3
ENDBRANCH   1   2
BRANCH   1   9
ATOM      9  N   UNL d   1       9.455   5.970 -11.873  0.00  0.00     0.133 N 
ATOM     10  C   UNL d   1       8.378   6.169 -12.839  0.00  0.00     0.219 C 
ATOM     11  C   UNL d   1       8.830   5.142 -13.885  0.00  0.00     0.035 C 
ATOM     12  C   UNL d   1       7.100   5.660 -12.141  0.00  0.00     0.035 C 
ATOM     13  C   UNL d   1       9.367   4.002 -13.010  0.00  0.00     0.035 C 
ATOM     14  C   UNL d   1       9.152   4.565 -11.600  0.00  0.00     0.219 C 
ATOM     15  C   UNL d   1       7.648   4.547 -11.248  0.00  0.00     0.035 C 
ENDBRANCH   1   9
TORSDOF 3
