REMARK  2 active torsions:
REMARK  status: ('A' for Active; 'I' for Inactive)
REMARK    1  A    between atoms: N_2  and  C_4 
REMARK    2  A    between atoms: C_4  and  C_5 
ROOT
ATOM      1  C   UNL d   1       6.449   0.910 -16.047  0.00  0.00     0.180 C 
ATOM      2  C   UNL d   1       7.910   0.449 -16.024  0.00  0.00     0.064 C 
ATOM      3  C   UNL d   1       8.611   1.642 -15.390  0.00  0.00     0.136 C 
ATOM      4  C   UNL d   1       9.126   2.689 -16.385  0.00  0.00     0.014 A 
ATOM      5  C   UNL d   1       8.890   2.644 -17.786  0.00  0.00     0.000 A 
ATOM      6  C   UNL d   1       9.437   3.652 -18.598  0.00  0.00     0.020 A 
ATOM      7  C   UNL d   1      10.192   4.670 -17.995  0.00  0.00     0.099 A 
ATOM      8  N   UNL d   1      10.414   4.734 -16.666  0.00  0.00    -0.248 NA
ATOM      9  C   UNL d   1       9.883   3.762 -15.891  0.00  0.00     0.061 A 
ATOM     10  C   UNL d   1      10.081   3.896 -14.399  0.00  0.00     0.073 C 
ATOM     11  C   UNL d   1       8.758   4.233 -13.721  0.00  0.00     0.002 A 
ATOM     12  C   UNL d   1       8.680   5.456 -13.025  0.00  0.00    -0.002 A 
ATOM     13  C   UNL d   1       7.489   5.842 -12.384  0.00  0.00    -0.000 A 
ATOM     14  C   UNL d   1       6.368   4.999 -12.441  0.00  0.00     0.002 A 
ATOM     15  C   UNL d   1       6.431   3.782 -13.134  0.00  0.00     0.019 A 
ATOM     16  C   UNL d   1       7.618   3.377 -13.799  0.00  0.00     0.079 A 
ATOM     17  N   UNL d   1       7.619   2.119 -14.439  0.00  0.00    -0.237 N 
ATOM     18  O   UNL d   1       6.331   1.576 -14.795  0.00  0.00    -0.258 OA
ENDROOT
BRANCH   1  19
ATOM     19  C   UNL d   1       5.413  -0.228 -16.171  0.00  0.00     0.282 C 
BRANCH  19  20
ATOM     20  N   UNL d   1       5.172  -0.643 -17.557  0.00  0.00     0.144 N 
ATOM     21  C   UNL d   1       4.069  -1.580 -17.626  0.00  0.00     0.286 C 
ATOM     22  C   UNL d   1       6.364  -1.282 -18.133  0.00  0.00     0.286 C 
ENDBRANCH  19  20
ENDBRANCH   1  19
TORSDOF 2
