REMARK  7 active torsions:
REMARK  status: ('A' for Active; 'I' for Inactive)
REMARK    1  A    between atoms: O_2  and  C_3 
REMARK    2  A    between atoms: C_5  and  C_6 
REMARK    3  A    between atoms: C_6  and  N_7 
REMARK    4  A    between atoms: N_10  and  C_11 
REMARK    5  A    between atoms: C_22  and  O_23 
REMARK    6  A    between atoms: O_23  and  C_24 
REMARK    7  A    between atoms: C_24  and  C_25 
ROOT
ATOM      1  N   UNL d   1       9.262   6.327 -11.178  0.00  0.00     0.145 N 
ATOM      2  C   UNL d   1       8.777   5.790  -9.897  0.00  0.00     0.275 C 
ATOM      3  C   UNL d   1       9.926   5.639  -8.889  0.00  0.00     0.137 C 
ATOM      4  N   UNL d   1      10.640   6.911  -8.735  0.00  0.00    -0.344 N 
ATOM      5  C   UNL d   1      11.068   7.517  -9.990  0.00  0.00     0.137 C 
ATOM      6  C   UNL d   1       9.858   7.646 -10.949  0.00  0.00     0.275 C 
ENDROOT
BRANCH   1   7
ATOM      7  C   UNL d   1       8.156   6.476 -12.127  0.00  0.00     0.277 C 
BRANCH   7   8
ATOM      8  C   UNL d   1       7.639   5.135 -12.646  0.00  0.00     0.013 A 
ATOM      9  C   UNL d   1       8.425   4.373 -13.546  0.00  0.00     0.024 A 
ATOM     10  C   UNL d   1       7.954   3.139 -14.040  0.00  0.00     0.116 A 
ATOM     11  C   UNL d   1       6.670   2.685 -13.678  0.00  0.00     0.116 A 
ATOM     12  C   UNL d   1       5.871   3.444 -12.800  0.00  0.00     0.026 A 
ATOM     13  C   UNL d   1       6.366   4.664 -12.279  0.00  0.00    -0.000 A 
BRANCH  10  14
ATOM     14  O   UNL d   1       8.707   2.471 -14.975  0.00  0.00    -0.326 OA
ATOM     15  C   UNL d   1       9.724   1.615 -14.447  0.00  0.00     0.181 C 
ENDBRANCH  10  14
BRANCH  11  16
ATOM     16  O   UNL d   1       6.133   1.529 -14.203  0.00  0.00    -0.326 OA
BRANCH  16  17
ATOM     17  C   UNL d   1       6.408   0.311 -13.481  0.00  0.00     0.187 C 
BRANCH  17  18
ATOM     18  C   UNL d   1       5.718  -0.850 -14.203  0.00  0.00     0.226 C 
ATOM     19  F   UNL d   1       4.391  -0.823 -14.098  0.00  0.00    -0.232 F 
ENDBRANCH  17  18
ENDBRANCH  16  17
ENDBRANCH  11  16
ENDBRANCH   7   8
ENDBRANCH   1   7
BRANCH   4  20
ATOM     20  C   UNL d   1      10.880   7.539  -7.500  0.00  0.00     0.056 A 
ATOM     21  C   UNL d   1      10.945   8.942  -7.367  0.00  0.00     0.018 A 
ATOM     22  C   UNL d   1      11.210   9.533  -6.107  0.00  0.00     0.013 A 
ATOM     23  C   UNL d   1      11.409   8.725  -4.976  0.00  0.00     0.058 A 
ATOM     24  C   UNL d   1      11.323   7.330  -5.090  0.00  0.00     0.013 A 
ATOM     25 CL   UNL d   1      11.751   9.448  -3.450  0.00  0.00    -0.082 Cl
ATOM     26  C   UNL d   1      11.075   6.743  -6.349  0.00  0.00     0.018 A 
ENDBRANCH   4  20
TORSDOF 7
