REMARK  3 active torsions:
REMARK  status: ('A' for Active; 'I' for Inactive)
REMARK    1  A    between atoms: C_2  and  C_3 
REMARK    2  A    between atoms: C_3  and  N_4 
REMARK    3  A    between atoms: C_11  and  C_12 
ROOT
ATOM      1  N   UNL d   1       8.471   5.609 -10.288  0.00  0.00     0.140 N 
ATOM      2  C   UNL d   1       9.453   4.581 -10.490  0.00  0.00     0.282 C 
ATOM      3  C   UNL d   1       9.861   4.027  -9.114  0.00  0.00     0.178 C 
ATOM      4  O   UNL d   1      10.501   5.090  -8.422  0.00  0.00    -0.348 OA
ATOM      5  C   UNL d   1       9.643   6.149  -8.096  0.00  0.00     0.169 C 
ATOM      6  C   UNL d   1      10.379   7.207  -7.278  0.00  0.00     0.003 A 
ATOM      7  C   UNL d   1      10.708   6.939  -5.925  0.00  0.00     0.003 A 
ATOM      8  C   UNL d   1      11.437   7.874  -5.130  0.00  0.00     0.059 A 
ATOM      9  C   UNL d   1      11.798   9.099  -5.712  0.00  0.00     0.004 A 
ATOM     10  C   UNL d   1      11.458   9.384  -7.042  0.00  0.00    -0.004 A 
ATOM     11  C   UNL d   1      10.791   8.442  -7.842  0.00  0.00    -0.024 A 
ATOM     12  C   UNL d   1      10.523   8.782  -9.299  0.00  0.00     0.028 C 
ATOM     13  C   UNL d   1      10.094   7.589 -10.148  0.00  0.00     0.041 C 
ATOM     14  C   UNL d   1       9.048   6.689  -9.414  0.00  0.00     0.251 C 
ENDROOT
BRANCH   1  15
ATOM     15  C   UNL d   1       7.828   6.060 -11.544  0.00  0.00     0.250 C 
BRANCH  15  16
ATOM     16  C   UNL d   1       7.258   4.949 -12.467  0.00  0.00     0.035 C 
ATOM     17  C   UNL d   1       6.184   4.085 -11.805  0.00  0.00     0.002 C 
ENDBRANCH  15  16
ENDBRANCH   1  15
BRANCH   8  18
ATOM     18  C   UNL d   1      11.820   7.560  -3.712  0.00  0.00     0.297 C 
ATOM     19  N   UNL d   1      11.960   8.615  -2.909  0.00  0.00    -0.102 N 
ATOM     20  O   UNL d   1      11.893   6.412  -3.297  0.00  0.00    -0.264 OA
ENDBRANCH   8  18
TORSDOF 3
