REMARK  6 active torsions:
REMARK  status: ('A' for Active; 'I' for Inactive)
REMARK    1  A    between atoms: C_2  and  C_3 
REMARK    2  A    between atoms: C_6  and  O_7 
REMARK    3  A    between atoms: C_9  and  C_10 
REMARK       I    between atoms: C_10  and  N_12 
REMARK    4  A    between atoms: N_12  and  C_13 
REMARK    5  A    between atoms: C_13  and  C_14 
REMARK    6  A    between atoms: N_18  and  C_19 
ROOT
ATOM      1  C   UNL d   1      10.165   7.284  -7.933  0.00  0.00    -0.011 A 
ATOM      2  C   UNL d   1      10.320   8.659  -8.184  0.00  0.00    -0.001 A 
ATOM      3  C   UNL d   1      10.072   9.173  -9.470  0.00  0.00     0.024 A 
ATOM      4  C   UNL d   1       9.672   8.318 -10.518  0.00  0.00     0.100 A 
ATOM      5  C   UNL d   1       9.500   6.942 -10.278  0.00  0.00     0.090 A 
ATOM      6  C   UNL d   1       9.736   6.428  -8.970  0.00  0.00     0.060 A 
ATOM      7 CL   UNL d   1       9.503   4.752  -8.620  0.00  0.00    -0.083 Cl
ENDROOT
BRANCH   5   8
ATOM      8  C   UNL d   1       9.050   6.063 -11.393  0.00  0.00     0.278 C 
ATOM      9  O   UNL d   1       9.548   6.120 -12.528  0.00  0.00    -0.265 OA
ATOM     10  N   UNL d   1       8.085   5.210 -11.069  0.00  0.00    -0.232 NA
BRANCH  10  11
ATOM     11  C   UNL d   1       7.766   4.106 -11.915  0.00  0.00     0.162 C 
BRANCH  11  12
ATOM     12  C   UNL d   1       7.062   4.575 -13.214  0.00  0.00     0.243 C 
ATOM     13  N   UNL d   1       6.939   3.483 -14.180  0.00  0.00     0.137 N 
ATOM     14  C   UNL d   1       5.831   2.685 -13.719  0.00  0.00     0.250 C 
ATOM     15  C   UNL d   1       4.831   3.749 -13.251  0.00  0.00     0.037 C 
ATOM     16  C   UNL d   1       5.625   4.982 -12.882  0.00  0.00     0.037 C 
BRANCH  13  17
ATOM     17  C   UNL d   1       8.176   2.742 -14.447  0.00  0.00     0.250 C 
ATOM     18  C   UNL d   1       8.076   1.884 -15.712  0.00  0.00     0.037 C 
ENDBRANCH  13  17
ENDBRANCH  11  12
ENDBRANCH  10  11
ENDBRANCH   5   8
BRANCH   4  19
ATOM     19  O   UNL d   1       9.409   8.807 -11.773  0.00  0.00    -0.328 OA
ATOM     20  C   UNL d   1       8.056   9.174 -12.012  0.00  0.00     0.181 C 
ENDBRANCH   4  19
BRANCH   1  21
ATOM     21  C   UNL d   1      10.480   6.758  -6.543  0.00  0.00     0.027 C 
ATOM     22  C   UNL d   1      11.826   6.018  -6.517  0.00  0.00     0.005 C 
ENDBRANCH   1  21
TORSDOF 6
