REMARK  1 active torsions:
REMARK  status: ('A' for Active; 'I' for Inactive)
REMARK       I    between atoms: N_4  and  C_5 
REMARK    1  A    between atoms: C_5  and  C_7 
ROOT
ATOM      1  C   UNL d   1      11.278   7.984  -5.808  0.00  0.00     0.171 A 
ATOM      2  N   UNL d   1      11.515   7.054  -4.856  0.00  0.00    -0.224 NA
ATOM      3  C   UNL d   1      11.843   7.506  -3.630  0.00  0.00     0.176 A 
ATOM      4 CL   UNL d   1      12.266   6.417  -2.396  0.00  0.00    -0.058 Cl
ATOM      5  C   UNL d   1      11.866   8.872  -3.337  0.00  0.00     0.213 A 
ATOM      6  N   UNL d   1      12.251   9.324  -2.093  0.00  0.00    -0.124 N 
ATOM      7  N   UNL d   1      11.565   9.807  -4.247  0.00  0.00    -0.207 NA
ATOM      8  C   UNL d   1      11.291   9.374  -5.491  0.00  0.00     0.175 A 
ATOM      9  N   UNL d   1      11.082  10.384  -6.410  0.00  0.00    -0.078 NA
ENDROOT
BRANCH   1  10
ATOM     10  C   UNL d   1      10.926   7.460  -7.170  0.00  0.00     0.302 C 
ATOM     11  N   UNL d   1      11.494   8.167  -8.218  0.00  0.00    -0.173 NA
ATOM     12  C   UNL d   1      10.991   8.087  -9.403  0.00  0.00     0.259 C 
ATOM     13  N   UNL d   1       9.898   7.360  -9.839  0.00  0.00    -0.058 NA
ATOM     14  N   UNL d   1      11.588   8.815 -10.388  0.00  0.00    -0.111 N 
ATOM     15  O   UNL d   1      10.198   6.462  -7.243  0.00  0.00    -0.263 OA
ENDBRANCH   1  10
TORSDOF 1
