REMARK  7 active torsions:
REMARK  status: ('A' for Active; 'I' for Inactive)
REMARK    1  A    between atoms: S_2  and  N_4 
REMARK    2  A    between atoms: S_2  and  C_21 
REMARK    3  A    between atoms: N_4  and  C_5 
REMARK    4  A    between atoms: N_8  and  C_9 
REMARK    5  A    between atoms: C_9  and  C_10 
REMARK    6  A    between atoms: C_10  and  O_11 
REMARK    7  A    between atoms: O_11  and  C_12 
ROOT
ATOM      1  C   UNL d   1       8.988   5.819 -10.756  0.00  0.00     0.151 C 
ATOM      2  C   UNL d   1       8.788   4.461 -10.154  0.00  0.00     0.063 C 
ATOM      3  C   UNL d   1       9.490   4.471  -8.829  0.00  0.00     0.253 C 
ATOM      4  N   UNL d   1       9.479   5.889  -8.502  0.00  0.00     0.142 N 
ATOM      5  C   UNL d   1       9.837   6.544  -9.758  0.00  0.00     0.275 C 
ENDROOT
BRANCH   4   6
ATOM      6  C   UNL d   1      10.438   6.200  -7.490  0.00  0.00     0.283 C 
BRANCH   6   7
ATOM      7  C   UNL d   1      10.176   7.538  -6.819  0.00  0.00     0.184 C 
BRANCH   7   8
ATOM      8  O   UNL d   1      11.448   8.035  -6.422  0.00  0.00    -0.328 OA
BRANCH   8   9
ATOM      9  C   UNL d   1      11.615   8.192  -5.076  0.00  0.00     0.105 A 
ATOM     10  C   UNL d   1      11.516   9.457  -4.501  0.00  0.00     0.080 A 
ATOM     11  C   UNL d   1      11.832   9.690  -3.147  0.00  0.00     0.014 A 
ATOM     12 CL   UNL d   1      11.078  10.761  -5.525  0.00  0.00    -0.080 Cl
ATOM     13  C   UNL d   1      12.235   8.604  -2.338  0.00  0.00     0.012 A 
ATOM     14  C   UNL d   1      12.289   7.319  -2.921  0.00  0.00     0.060 A 
ATOM     15  C   UNL d   1      12.006   7.107  -4.278  0.00  0.00     0.036 A 
ATOM     16 CL   UNL d   1      12.727   5.998  -2.040  0.00  0.00    -0.082 Cl
ENDBRANCH   8   9
ENDBRANCH   7   8
ENDBRANCH   6   7
ENDBRANCH   4   6
BRANCH   1  17
ATOM     17  N   UNL d   1       9.677   5.604 -12.027  0.00  0.00    -0.184 NA
BRANCH  17  18
ATOM     18  S   UNL d   1       8.656   5.537 -13.350  0.00  0.00     0.287 S 
ATOM     19  O   UNL d   1       7.864   6.789 -13.226  0.00  0.00    -0.198 OA
ATOM     20  O   UNL d   1       9.483   5.219 -14.493  0.00  0.00    -0.198 OA
BRANCH  18  21
ATOM     21  C   UNL d   1       7.537   4.190 -13.213  0.00  0.00     0.135 A 
ATOM     22  S   UNL d   1       7.504   2.778 -14.270  0.00  0.00    -0.062 SA
ATOM     23  C   UNL d   1       6.108   2.170 -13.409  0.00  0.00     0.088 A 
ATOM     24  C   UNL d   1       5.704   3.013 -12.412  0.00  0.00     0.019 A 
ATOM     25 CL   UNL d   1       5.568   0.556 -13.695  0.00  0.00    -0.075 Cl
ATOM     26  C   UNL d   1       6.489   4.185 -12.346  0.00  0.00     0.021 A 
ENDBRANCH  18  21
ENDBRANCH  17  18
ENDBRANCH   1  17
TORSDOF 7
