REMARK  5 active torsions:
REMARK  status: ('A' for Active; 'I' for Inactive)
REMARK    1  A    between atoms: O_2  and  C_3 
REMARK    2  A    between atoms: C_8  and  N_9 
REMARK    3  A    between atoms: N_12  and  C_13 
REMARK    4  A    between atoms: C_13  and  C_14 
REMARK    5  A    between atoms: C_14  and  C_15 
ROOT
ATOM      1  N   UNL d   1       9.608   3.938 -13.673  0.00  0.00    -0.343 N 
ATOM      2  C   UNL d   1       9.425   5.337 -14.015  0.00  0.00     0.137 C 
ATOM      3  C   UNL d   1       8.114   5.845 -13.381  0.00  0.00     0.274 C 
ATOM      4  N   UNL d   1       8.078   5.595 -11.949  0.00  0.00     0.141 N 
ATOM      5  C   UNL d   1       8.066   4.150 -11.749  0.00  0.00     0.274 C 
ATOM      6  C   UNL d   1       9.410   3.570 -12.276  0.00  0.00     0.137 C 
ENDROOT
BRANCH   4   7
ATOM      7  C   UNL d   1       9.146   6.310 -11.251  0.00  0.00     0.251 C 
BRANCH   7   8
ATOM      8  C   UNL d   1       9.034   6.111  -9.727  0.00  0.00     0.038 C 
BRANCH   8   9
ATOM      9  C   UNL d   1      10.100   6.884  -8.952  0.00  0.00     0.037 C 
ATOM     10  C   UNL d   1       9.993   6.621  -7.440  0.00  0.00     0.174 C 
ATOM     11  C   UNL d   1      10.875   7.520  -6.589  0.00  0.00     0.005 A 
ATOM     12  O   UNL d   1       8.658   6.782  -7.009  0.00  0.00    -0.219 OA
ATOM     13  C   UNL d   1      11.443   8.703  -7.114  0.00  0.00    -0.024 A 
ATOM     14  C   UNL d   1      11.067   7.185  -5.234  0.00  0.00     0.012 A 
ATOM     15  C   UNL d   1      11.280   9.060  -8.582  0.00  0.00     0.026 C 
ATOM     16  C   UNL d   1      12.175   9.557  -6.267  0.00  0.00    -0.003 A 
ATOM     17  C   UNL d   1      10.104   8.374  -9.265  0.00  0.00     0.008 C 
ATOM     18  C   UNL d   1      12.366   9.219  -4.913  0.00  0.00     0.014 A 
ATOM     19  C   UNL d   1      11.829   8.026  -4.394  0.00  0.00     0.070 A 
ATOM     20  N   UNL d   1      12.055   7.676  -3.070  0.00  0.00    -0.101 NA
ENDBRANCH   8   9
ENDBRANCH   7   8
ENDBRANCH   4   7
BRANCH   1  21
ATOM     21  C   UNL d   1       9.912   2.985 -14.650  0.00  0.00     0.079 A 
ATOM     22  C   UNL d   1      10.960   3.234 -15.562  0.00  0.00     0.110 A 
ATOM     23  C   UNL d   1      11.242   2.251 -16.558  0.00  0.00     0.026 A 
ATOM     24  C   UNL d   1      10.498   1.062 -16.613  0.00  0.00     0.002 A 
ATOM     25  C   UNL d   1       9.470   0.817 -15.691  0.00  0.00     0.002 A 
ATOM     26  C   UNL d   1       9.177   1.788 -14.708  0.00  0.00     0.019 A 
BRANCH  22  27
ATOM     27  O   UNL d   1      11.667   4.409 -15.436  0.00  0.00    -0.327 OA
ATOM     28  C   UNL d   1      12.730   4.675 -16.336  0.00  0.00     0.181 C 
ENDBRANCH  22  27
ENDBRANCH   1  21
TORSDOF 5
