REMARK  7 active torsions:
REMARK  status: ('A' for Active; 'I' for Inactive)
REMARK    1  A    between atoms: C_6  and  C_7 
REMARK    2  A    between atoms: C_10  and  S_11 
REMARK    3  A    between atoms: S_11  and  C_12 
REMARK    4  A    between atoms: C_12  and  C_13 
REMARK    5  A    between atoms: C_13  and  C_14 
REMARK    6  A    between atoms: C_14  and  N_15 
REMARK    7  A    between atoms: C_22  and  C_23 
ROOT
ATOM      1  C   UNL d   1      11.007   1.224 -19.294  0.00  0.00     0.047 C 
ENDROOT
BRANCH   1   2
ATOM      2  C   UNL d   1      11.058  -0.294 -19.052  0.00  0.00     0.067 C 
BRANCH   2   3
ATOM      3  S   UNL d   1       9.438  -0.963 -18.565  0.00  0.00    -0.075 SA
BRANCH   3   4
ATOM      4  C   UNL d   1       9.264  -0.161 -17.005  0.00  0.00     0.193 A 
ATOM      5  N   UNL d   1      10.258  -0.046 -16.120  0.00  0.00    -0.122 NA
ATOM      6  N   UNL d   1       9.713   0.618 -15.051  0.00  0.00    -0.128 NA
ATOM      7  C   UNL d   1       8.440   0.876 -15.383  0.00  0.00     0.167 A 
ATOM      8  N   UNL d   1       8.099   0.380 -16.597  0.00  0.00    -0.289 N 
ATOM      9  C   UNL d   1       6.822   0.425 -17.308  0.00  0.00     0.134 C 
BRANCH   7  10
ATOM     10  C   UNL d   1       7.541   1.614 -14.502  0.00  0.00     0.037 A 
ATOM     11  C   UNL d   1       7.820   2.937 -14.058  0.00  0.00     0.021 A 
ATOM     12  C   UNL d   1       8.998   3.632 -14.437  0.00  0.00     0.003 A 
ATOM     13  C   UNL d   1       6.902   3.608 -13.198  0.00  0.00     0.081 A 
ATOM     14  C   UNL d   1       9.232   4.917 -13.922  0.00  0.00     0.015 A 
ATOM     15  C   UNL d   1       8.271   5.484 -13.063  0.00  0.00     0.059 A 
ATOM     16  C   UNL d   1       8.463   6.868 -12.479  0.00  0.00     0.052 C 
ATOM     17  N   UNL d   1       7.131   4.852 -12.729  0.00  0.00    -0.250 NA
ATOM     18  C   UNL d   1       5.726   2.941 -12.804  0.00  0.00     0.019 A 
ATOM     19  C   UNL d   1       5.460   1.628 -13.232  0.00  0.00     0.002 A 
ATOM     20  C   UNL d   1       6.364   0.966 -14.076  0.00  0.00     0.003 A 
ENDBRANCH   7  10
ENDBRANCH   3   4
ENDBRANCH   2   3
ENDBRANCH   1   2
BRANCH   1  21
ATOM     21  C   UNL d   1      12.301   1.737 -19.939  0.00  0.00     0.251 C 
BRANCH  21  22
ATOM     22  N   UNL d   1      12.256   3.183 -20.168  0.00  0.00     0.138 N 
ATOM     23  C   UNL d   1      12.407   4.017 -18.971  0.00  0.00     0.255 C 
ATOM     24  C   UNL d   1      13.784   3.938 -18.274  0.00  0.00     0.061 C 
ATOM     25  C   UNL d   1      14.862   4.764 -18.959  0.00  0.00    -0.022 A 
ATOM     26  C   UNL d   1      15.242   4.522 -20.306  0.00  0.00    -0.022 A 
ATOM     27  C   UNL d   1      15.497   5.788 -18.224  0.00  0.00     0.022 A 
ATOM     28  C   UNL d   1      14.585   3.423 -21.126  0.00  0.00     0.061 C 
ATOM     29  C   UNL d   1      16.250   5.316 -20.912  0.00  0.00     0.017 A 
ATOM     30  C   UNL d   1      13.067   3.611 -21.307  0.00  0.00     0.255 C 
ATOM     31  C   UNL d   1      16.873   6.358 -20.191  0.00  0.00     0.106 A 
ATOM     32  C   UNL d   1      16.488   6.553 -18.852  0.00  0.00     0.119 A 
ATOM     33  N   UNL d   1      17.849   7.278 -20.521  0.00  0.00    -0.224 NA
ATOM     34  O   UNL d   1      17.253   7.574 -18.328  0.00  0.00    -0.292 OA
ATOM     35  C   UNL d   1      17.994   8.002 -19.399  0.00  0.00     0.158 A 
BRANCH  35  36
ATOM     36  C   UNL d   1      19.036   9.066 -19.163  0.00  0.00     0.057 C 
ATOM     37  C   UNL d   1      19.139   9.995 -20.384  0.00  0.00     0.008 C 
ATOM     38  C   UNL d   1      20.397   8.400 -18.901  0.00  0.00     0.008 C 
ATOM     39  C   UNL d   1      18.656   9.935 -17.942  0.00  0.00     0.008 C 
ENDBRANCH  35  36
ENDBRANCH  21  22
ENDBRANCH   1  21
TORSDOF 7
