REMARK  2 active torsions:
REMARK  status: ('A' for Active; 'I' for Inactive)
REMARK    1  A    between atoms: C_8  and  C_9 
REMARK       I    between atoms: C_9  and  N_11 
REMARK    2  A    between atoms: N_11  and  C_12 
ROOT
ATOM      1  C   UNL d   1       9.323   1.556 -15.167  0.00  0.00     0.134 C 
ATOM      2  N   UNL d   1       9.721   2.903 -14.736  0.00  0.00    -0.293 N 
ATOM      3  C   UNL d   1      10.893   3.436 -15.154  0.00  0.00     0.268 C 
ATOM      4  O   UNL d   1      11.704   2.844 -15.865  0.00  0.00    -0.269 OA
ATOM      5  C   UNL d   1      11.182   4.884 -14.743  0.00  0.00     0.236 C 
ATOM      6  O   UNL d   1      10.656   5.184 -13.453  0.00  0.00    -0.319 OA
ATOM      7  C   UNL d   1       9.351   4.815 -13.235  0.00  0.00     0.115 A 
ATOM      8  C   UNL d   1       8.540   5.531 -12.324  0.00  0.00     0.082 A 
ATOM      9  C   UNL d   1       7.215   5.115 -12.090  0.00  0.00     0.018 A 
ATOM     10  C   UNL d   1       6.705   3.998 -12.779  0.00  0.00     0.059 A 
ATOM     11 CL   UNL d   1       5.087   3.467 -12.552  0.00  0.00    -0.082 Cl
ATOM     12  C   UNL d   1       7.515   3.276 -13.668  0.00  0.00     0.031 A 
ATOM     13  C   UNL d   1       8.853   3.664 -13.892  0.00  0.00     0.086 A 
ENDROOT
BRANCH   8  14
ATOM     14  C   UNL d   1       9.070   6.743 -11.627  0.00  0.00     0.277 C 
ATOM     15  O   UNL d   1       9.450   7.721 -12.261  0.00  0.00    -0.266 OA
ATOM     16  N   UNL d   1       9.122   6.637 -10.293  0.00  0.00    -0.234 NA
BRANCH  16  17
ATOM     17  C   UNL d   1       9.612   7.663  -9.363  0.00  0.00     0.140 C 
ATOM     18  C   UNL d   1       8.985   7.526  -7.952  0.00  0.00     0.029 C 
ATOM     19  C   UNL d   1       9.344   6.151  -7.400  0.00  0.00     0.037 C 
ATOM     20  C   UNL d   1       9.611   8.584  -7.040  0.00  0.00     0.037 C 
ATOM     21  C   UNL d   1      10.881   6.029  -7.376  0.00  0.00     0.250 C 
ATOM     22  N   UNL d   1      11.547   7.265  -7.824  0.00  0.00     0.139 N 
ATOM     23  C   UNL d   1      11.160   7.555  -9.219  0.00  0.00     0.274 C 
ATOM     24  C   UNL d   1      11.136   8.372  -6.955  0.00  0.00     0.250 C 
ENDBRANCH  16  17
ENDBRANCH   8  14
TORSDOF 2
