REMARK  5 active torsions:
REMARK  status: ('A' for Active; 'I' for Inactive)
REMARK    1  A    between atoms: C_2  and  C_4 
REMARK    2  A    between atoms: C_7  and  S_8 
REMARK    3  A    between atoms: S_8  and  N_11 
REMARK    4  A    between atoms: N_11  and  C_12 
REMARK    5  A    between atoms: C_15  and  C_16 
ROOT
ATOM      1  N   UNL d   1       8.285   5.071 -11.040  0.00  0.00    -0.158 NA
ENDROOT
BRANCH   1   2
ATOM      2  S   UNL d   1       8.060   5.359 -12.724  0.00  0.00     0.285 S 
ATOM      3  O   UNL d   1       9.409   5.484 -13.295  0.00  0.00    -0.198 OA
ATOM      4  O   UNL d   1       7.077   6.449 -12.820  0.00  0.00    -0.198 OA
BRANCH   2   5
ATOM      5  C   UNL d   1       7.319   3.843 -13.281  0.00  0.00     0.105 A 
ATOM      6  C   UNL d   1       6.033   3.493 -12.831  0.00  0.00     0.013 A 
ATOM      7  C   UNL d   1       5.478   2.259 -13.225  0.00  0.00    -0.004 A 
ATOM      8  C   UNL d   1       6.192   1.393 -14.085  0.00  0.00    -0.022 A 
ATOM      9  C   UNL d   1       7.482   1.761 -14.530  0.00  0.00    -0.004 A 
ATOM     10  C   UNL d   1       8.050   2.984 -14.125  0.00  0.00     0.013 A 
BRANCH   8  11
ATOM     11  C   UNL d   1       5.564   0.078 -14.532  0.00  0.00     0.022 C 
ATOM     12  C   UNL d   1       6.270  -1.118 -13.890  0.00  0.00     0.005 C 
ATOM     13  C   UNL d   1       5.526  -0.054 -16.063  0.00  0.00     0.005 C 
ENDBRANCH   8  11
ENDBRANCH   2   5
ENDBRANCH   1   2
BRANCH   1  14
ATOM     14  C   UNL d   1       9.060   5.820 -10.158  0.00  0.00     0.094 A 
ATOM     15  C   UNL d   1       9.697   7.008 -10.572  0.00  0.00     0.020 A 
ATOM     16  C   UNL d   1      10.494   7.725  -9.666  0.00  0.00    -0.003 A 
ATOM     17  C   UNL d   1      10.667   7.293  -8.334  0.00  0.00    -0.021 A 
ATOM     18  C   UNL d   1      10.033   6.091  -7.942  0.00  0.00    -0.003 A 
ATOM     19  C   UNL d   1       9.219   5.370  -8.837  0.00  0.00     0.020 A 
BRANCH  17  20
ATOM     20  C   UNL d   1      11.547   8.104  -7.401  0.00  0.00     0.055 A 
ATOM     21  C   UNL d   1      11.626   9.579  -7.591  0.00  0.00     0.042 A 
ATOM     22  C   UNL d   1      11.430  10.230  -6.249  0.00  0.00     0.290 C 
ATOM     23  C   UNL d   1      12.821   8.732  -7.931  0.00  0.00     0.009 A 
ATOM     24  N   UNL d   1      10.736   9.212  -5.473  0.00  0.00     0.339 N 
ATOM     25  C   UNL d   1      11.296   7.934  -5.901  0.00  0.00     0.294 C 
ENDBRANCH  17  20
ENDBRANCH   1  14
TORSDOF 5
