REMARK  6 active torsions:
REMARK  status: ('A' for Active; 'I' for Inactive)
REMARK    1  A    between atoms: C_2  and  C_3 
REMARK    2  A    between atoms: C_3  and  N_4 
REMARK    3  A    between atoms: C_11  and  C_12 
REMARK       I    between atoms: C_12  and  N_14 
REMARK    4  A    between atoms: N_14  and  C_15 
REMARK    5  A    between atoms: C_15  and  C_16 
REMARK    6  A    between atoms: C_19  and  O_20 
ROOT
ATOM      1  N   UNL d   1       9.930   2.663 -16.162  0.00  0.00     0.140 N 
ATOM      2  C   UNL d   1      11.330   3.094 -16.217  0.00  0.00     0.282 C 
ATOM      3  C   UNL d   1      11.533   4.566 -15.797  0.00  0.00     0.178 C 
ATOM      4  O   UNL d   1      10.988   4.790 -14.499  0.00  0.00    -0.348 OA
ATOM      5  C   UNL d   1       9.606   4.444 -14.410  0.00  0.00     0.169 C 
ATOM      6  C   UNL d   1       9.027   4.720 -13.035  0.00  0.00     0.003 A 
ATOM      7  C   UNL d   1       9.695   5.517 -12.088  0.00  0.00     0.003 A 
ATOM      8  C   UNL d   1       9.158   5.765 -10.817  0.00  0.00     0.057 A 
ATOM      9  C   UNL d   1       7.904   5.187 -10.505  0.00  0.00     0.004 A 
ATOM     10  C   UNL d   1       7.214   4.396 -11.460  0.00  0.00    -0.004 A 
ATOM     11  C   UNL d   1       7.772   4.162 -12.719  0.00  0.00    -0.024 A 
ATOM     12  C   UNL d   1       7.068   3.279 -13.735  0.00  0.00     0.028 C 
ATOM     13  C   UNL d   1       8.044   2.328 -14.459  0.00  0.00     0.041 C 
ATOM     14  C   UNL d   1       9.434   2.946 -14.804  0.00  0.00     0.251 C 
ENDROOT
BRANCH   8  15
ATOM     15  C   UNL d   1       9.859   6.689  -9.842  0.00  0.00     0.275 C 
ATOM     16  O   UNL d   1      11.016   7.072 -10.038  0.00  0.00    -0.266 OA
ATOM     17  N   UNL d   1       9.125   7.161  -8.830  0.00  0.00    -0.229 NA
BRANCH  17  18
ATOM     18  C   UNL d   1       9.456   8.399  -8.132  0.00  0.00     0.155 C 
BRANCH  18  19
ATOM     19  C   UNL d   1      10.291   8.236  -6.878  0.00  0.00     0.002 A 
ATOM     20  C   UNL d   1      11.073   9.302  -6.356  0.00  0.00    -0.000 A 
ATOM     21  C   UNL d   1      11.837   9.100  -5.179  0.00  0.00     0.024 A 
ATOM     22  C   UNL d   1      11.818   7.858  -4.513  0.00  0.00     0.094 A 
ATOM     23  C   UNL d   1      11.043   6.803  -5.050  0.00  0.00     0.024 A 
ATOM     24  C   UNL d   1      10.276   7.011  -6.213  0.00  0.00    -0.000 A 
BRANCH  22  25
ATOM     25  O   UNL d   1      12.563   7.729  -3.359  0.00  0.00    -0.328 OA
ATOM     26  C   UNL d   1      12.421   6.507  -2.645  0.00  0.00     0.181 C 
ENDBRANCH  22  25
ENDBRANCH  18  19
ENDBRANCH  17  18
ENDBRANCH   8  15
BRANCH   1  27
ATOM     27  C   UNL d   1       9.093   3.242 -17.232  0.00  0.00     0.250 C 
BRANCH  27  28
ATOM     28  C   UNL d   1       9.449   2.836 -18.672  0.00  0.00     0.035 C 
ATOM     29  C   UNL d   1       9.125   1.363 -18.951  0.00  0.00     0.002 C 
ENDBRANCH  27  28
ENDBRANCH   1  27
TORSDOF 6
