REMARK  7 active torsions:
REMARK  status: ('A' for Active; 'I' for Inactive)
REMARK    1  A    between atoms: C_2  and  C_3 
REMARK    2  A    between atoms: C_3  and  N_4 
REMARK    3  A    between atoms: N_4  and  C_5 
REMARK    4  A    between atoms: N_4  and  C_8 
REMARK    5  A    between atoms: C_5  and  C_6 
REMARK    6  A    between atoms: N_19  and  C_20 
REMARK    7  A    between atoms: C_20  and  C_21 
ROOT
ATOM      1  C   UNL d   1       6.460   3.579 -13.379  0.00  0.00     0.246 C 
ATOM      2  C   UNL d   1       5.645   2.328 -12.882  0.00  0.00     0.063 C 
ATOM      3  C   UNL d   1       5.522   1.200 -13.909  0.00  0.00    -0.003 A 
ATOM      4  C   UNL d   1       4.536   0.192 -14.008  0.00  0.00    -0.003 A 
ATOM      5  C   UNL d   1       4.539  -0.714 -15.109  0.00  0.00     0.001 A 
ATOM      6  C   UNL d   1       5.536  -0.644 -16.128  0.00  0.00     0.019 A 
ATOM      7  C   UNL d   1       6.513   0.356 -16.021  0.00  0.00     0.080 A 
ATOM      8  C   UNL d   1       6.449   1.217 -14.949  0.00  0.00     0.076 A 
ATOM      9  N   UNL d   1       7.482   2.140 -15.143  0.00  0.00    -0.279 N 
ATOM     10  C   UNL d   1       8.187   1.829 -16.237  0.00  0.00     0.332 A 
ATOM     11  O   UNL d   1       9.220   2.408 -16.634  0.00  0.00    -0.246 OA
ATOM     12  N   UNL d   1       7.622   0.749 -16.824  0.00  0.00    -0.280 N 
ATOM     13  C   UNL d   1       7.754   3.198 -14.159  0.00  0.00     0.144 C 
ENDROOT
BRANCH   1  14
ATOM     14  N   UNL d   1       6.722   4.573 -12.322  0.00  0.00     0.137 N 
BRANCH  14  15
ATOM     15  C   UNL d   1       7.648   4.131 -11.290  0.00  0.00     0.250 C 
BRANCH  15  16
ATOM     16  C   UNL d   1       8.072   5.193 -10.250  0.00  0.00     0.035 C 
ATOM     17  C   UNL d   1       8.620   4.624  -8.950  0.00  0.00     0.002 C 
ENDBRANCH  15  16
ENDBRANCH  14  15
BRANCH  14  18
ATOM     18  C   UNL d   1       6.975   5.941 -12.759  0.00  0.00     0.250 C 
BRANCH  18  19
ATOM     19  C   UNL d   1       5.653   6.684 -12.807  0.00  0.00     0.035 C 
ATOM     20  C   UNL d   1       5.940   8.158 -12.943  0.00  0.00     0.002 C 
ENDBRANCH  18  19
ENDBRANCH  14  18
ENDBRANCH   1  14
BRANCH  12  21
ATOM     21  C   UNL d   1       8.096   0.086 -18.039  0.00  0.00     0.111 C 
BRANCH  21  22
ATOM     22  C   UNL d   1       9.081  -1.074 -17.775  0.00  0.00     0.025 C 
ATOM     23  C   UNL d   1      10.032  -0.877 -16.581  0.00  0.00     0.002 C 
ENDBRANCH  21  22
ENDBRANCH  12  21
TORSDOF 7
