REMARK  11 active torsions:
REMARK  status: ('A' for Active; 'I' for Inactive)
REMARK    1  A    between atoms: O_2  and  C_3 
REMARK    2  A    between atoms: C_7  and  C_8 
REMARK    3  A    between atoms: C_8  and  C_9 
REMARK    4  A    between atoms: C_9  and  C_10 
REMARK    5  A    between atoms: C_15  and  O_16 
REMARK    6  A    between atoms: O_16  and  C_17 
REMARK    7  A    between atoms: C_17  and  C_18 
REMARK    8  A    between atoms: C_18  and  C_19 
REMARK    9  A    between atoms: C_19  and  C_20 
REMARK   10  A    between atoms: C_20  and  C_21 
REMARK   11  A    between atoms: C_21  and  N_22 
ROOT
ATOM      1  C   UNL d   1      10.396   2.955 -15.949  0.00  0.00     0.001 A 
ATOM      2  C   UNL d   1      10.632   1.595 -16.251  0.00  0.00    -0.002 A 
ATOM      3  C   UNL d   1       9.878   0.587 -15.619  0.00  0.00    -0.000 A 
ATOM      4  C   UNL d   1       8.891   0.941 -14.686  0.00  0.00     0.002 A 
ATOM      5  C   UNL d   1       8.656   2.295 -14.376  0.00  0.00     0.024 A 
ATOM      6  C   UNL d   1       9.403   3.320 -15.000  0.00  0.00     0.090 A 
ENDROOT
BRANCH   6   7
ATOM      7  O   UNL d   1       9.191   4.663 -14.755  0.00  0.00    -0.331 OA
BRANCH   7   8
ATOM      8  C   UNL d   1       8.477   5.090 -13.595  0.00  0.00     0.149 C 
BRANCH   8   9
ATOM      9  C   UNL d   1       9.400   5.089 -12.365  0.00  0.00     0.033 C 
BRANCH   9  10
ATOM     10  C   UNL d   1       8.873   5.963 -11.214  0.00  0.00     0.005 C 
BRANCH  10  11
ATOM     11  C   UNL d   1       9.864   6.128 -10.052  0.00  0.00     0.035 C 
BRANCH  11  12
ATOM     12  C   UNL d   1       9.450   7.240  -9.077  0.00  0.00     0.250 C 
BRANCH  12  13
ATOM     13  N   UNL d   1      10.404   7.495  -7.988  0.00  0.00     0.141 N 
ATOM     14  C   UNL d   1      10.122   6.642  -6.833  0.00  0.00     0.285 C 
ATOM     15  C   UNL d   1      11.099   6.910  -5.664  0.00  0.00     0.285 C 
ATOM     16  N   UNL d   1      11.065   8.312  -5.244  0.00  0.00     0.143 N 
ATOM     17  C   UNL d   1      11.340   9.165  -6.397  0.00  0.00     0.285 C 
ATOM     18  C   UNL d   1      11.995   8.574  -4.143  0.00  0.00     0.285 C 
ATOM     19  C   UNL d   1      10.348   8.889  -7.550  0.00  0.00     0.285 C 
ENDBRANCH  12  13
ENDBRANCH  11  12
ENDBRANCH  10  11
ENDBRANCH   9  10
ENDBRANCH   8   9
ENDBRANCH   7   8
ENDBRANCH   6   7
BRANCH   1  20
ATOM     20  C   UNL d   1      11.234   4.021 -16.643  0.00  0.00     0.033 C 
BRANCH  20  21
ATOM     21  C   UNL d   1      12.384   4.528 -15.758  0.00  0.00     0.031 C 
BRANCH  21  22
ATOM     22  C   UNL d   1      13.187   5.630 -16.422  0.00  0.00    -0.020 A 
ATOM     23  C   UNL d   1      12.689   6.949 -16.449  0.00  0.00    -0.004 A 
ATOM     24  C   UNL d   1      13.434   7.968 -17.067  0.00  0.00     0.002 A 
ATOM     25  C   UNL d   1      14.678   7.676 -17.661  0.00  0.00     0.024 A 
ATOM     26  C   UNL d   1      15.199   6.358 -17.625  0.00  0.00     0.094 A 
ATOM     27  C   UNL d   1      14.439   5.346 -17.009  0.00  0.00     0.020 A 
BRANCH  26  28
ATOM     28  O   UNL d   1      16.418   5.989 -18.156  0.00  0.00    -0.328 OA
ATOM     29  C   UNL d   1      17.210   6.994 -18.773  0.00  0.00     0.181 C 
ENDBRANCH  26  28
ENDBRANCH  21  22
ENDBRANCH  20  21
ENDBRANCH   1  20
TORSDOF 11
