REMARK  8 active torsions:
REMARK  status: ('A' for Active; 'I' for Inactive)
REMARK    1  A    between atoms: C_3  and  N_4 
REMARK    2  A    between atoms: N_4  and  C_5 
REMARK    3  A    between atoms: N_4  and  C_23 
REMARK    4  A    between atoms: C_5  and  C_6 
REMARK    5  A    between atoms: C_6  and  C_7 
REMARK    6  A    between atoms: C_7  and  C_8 
REMARK    7  A    between atoms: C_8  and  N_9 
REMARK    8  A    between atoms: N_12  and  C_13 
ROOT
ATOM      1  C   UNL d   1      10.851   2.345 -17.065  0.00  0.00     0.078 C 
ATOM      2  C   UNL d   1      10.559   3.364 -16.449  0.00  0.00    -0.118 C 
ATOM      3  C   UNL d   1      10.030   4.495 -15.633  0.00  0.00     0.313 C 
ENDROOT
BRANCH   3   4
ATOM      4  N   UNL d   1       9.799   4.199 -14.193  0.00  0.00     0.147 N 
BRANCH   4   5
ATOM      5  C   UNL d   1       9.759   5.448 -13.424  0.00  0.00     0.252 C 
BRANCH   5   6
ATOM      6  C   UNL d   1       9.601   5.271 -11.880  0.00  0.00     0.037 C 
BRANCH   6   7
ATOM      7  C   UNL d   1       9.967   6.511 -11.075  0.00  0.00     0.037 C 
BRANCH   7   8
ATOM      8  C   UNL d   1       9.348   6.473  -9.665  0.00  0.00     0.251 C 
BRANCH   8   9
ATOM      9  N   UNL d   1       9.859   7.578  -8.856  0.00  0.00     0.141 N 
ATOM     10  C   UNL d   1       9.029   7.714  -7.661  0.00  0.00     0.274 C 
ATOM     11  C   UNL d   1       9.509   8.900  -6.825  0.00  0.00     0.137 C 
ATOM     12  N   UNL d   1      10.900   8.748  -6.470  0.00  0.00    -0.344 N 
ATOM     13  C   UNL d   1      11.773   8.452  -7.592  0.00  0.00     0.137 C 
ATOM     14  C   UNL d   1      11.220   7.285  -8.420  0.00  0.00     0.274 C 
BRANCH  12  15
ATOM     15  C   UNL d   1      11.355   8.767  -5.139  0.00  0.00     0.068 A 
ATOM     16  C   UNL d   1      11.842   7.612  -4.506  0.00  0.00     0.084 A 
ATOM     17  C   UNL d   1      12.290   7.632  -3.193  0.00  0.00     0.070 A 
ATOM     18 CL   UNL d   1      11.816   6.163  -5.391  0.00  0.00    -0.080 Cl
ATOM     19  C   UNL d   1      12.324   8.822  -2.471  0.00  0.00     0.012 A 
ATOM     20 CL   UNL d   1      12.764   6.193  -2.430  0.00  0.00    -0.081 Cl
ATOM     21  C   UNL d   1      11.847   9.984  -3.098  0.00  0.00     0.002 A 
ATOM     22  C   UNL d   1      11.338   9.963  -4.408  0.00  0.00     0.018 A 
ENDBRANCH  12  15
ENDBRANCH   8   9
ENDBRANCH   7   8
ENDBRANCH   6   7
ENDBRANCH   5   6
ENDBRANCH   4   5
BRANCH   4  23
ATOM     23  C   UNL d   1       8.643   3.335 -13.838  0.00  0.00     0.225 C 
ATOM     24  C   UNL d   1       8.379   2.183 -14.834  0.00  0.00     0.059 C 
ATOM     25  C   UNL d   1       7.163   1.360 -14.580  0.00  0.00    -0.022 A 
ATOM     26  C   UNL d   1       6.174   1.815 -13.694  0.00  0.00    -0.026 A 
ATOM     27  C   UNL d   1       6.999   0.160 -15.301  0.00  0.00     0.023 A 
ATOM     28  C   UNL d   1       6.278   3.158 -12.987  0.00  0.00     0.028 C 
ATOM     29  C   UNL d   1       5.048   1.017 -13.482  0.00  0.00    -0.003 A 
ATOM     30  C   UNL d   1       7.304   4.075 -13.594  0.00  0.00     0.038 C 
ATOM     31  C   UNL d   1       4.860  -0.178 -14.198  0.00  0.00     0.027 A 
ATOM     32  C   UNL d   1       5.832  -0.601 -15.111  0.00  0.00     0.131 A 
ATOM     33  O   UNL d   1       5.649  -1.761 -15.789  0.00  0.00    -0.190 OA
ENDBRANCH   4  23
ENDBRANCH   3   4
TORSDOF 8
