REMARK  6 active torsions:
REMARK  status: ('A' for Active; 'I' for Inactive)
REMARK    1  A    between atoms: C_2  and  S_3 
REMARK    2  A    between atoms: S_3  and  C_6 
REMARK    3  A    between atoms: C_9  and  O_10 
REMARK    4  A    between atoms: C_12  and  C_13 
REMARK    5  A    between atoms: C_16  and  C_17 
REMARK    6  A    between atoms: C_17  and  N_19 
ROOT
ATOM      1  C   UNL d   1       9.522   3.784 -14.201  0.00  0.00     0.084 A 
ATOM      2  C   UNL d   1       8.185   3.411 -14.406  0.00  0.00     0.013 A 
ATOM      3  C   UNL d   1       7.184   3.916 -13.557  0.00  0.00     0.025 A 
ATOM      4  C   UNL d   1       7.510   4.808 -12.512  0.00  0.00     0.096 A 
ATOM      5  C   UNL d   1       8.857   5.198 -12.317  0.00  0.00     0.041 A 
ATOM      6  C   UNL d   1       9.858   4.673 -13.164  0.00  0.00     0.015 A 
ENDROOT
BRANCH   5   7
ATOM      7  C   UNL d   1       9.245   6.122 -11.266  0.00  0.00     0.083 A 
ATOM      8  N   UNL d   1       9.374   5.705  -9.959  0.00  0.00    -0.248 NA
ATOM      9  C   UNL d   1       9.774   6.740  -9.142  0.00  0.00     0.090 A 
ATOM     10  C   UNL d   1       9.929   7.836  -9.963  0.00  0.00     0.018 A 
ATOM     11  C   UNL d   1       9.566   7.449 -11.293  0.00  0.00     0.020 A 
BRANCH   9  12
ATOM     12  C   UNL d   1       9.934   6.549  -7.657  0.00  0.00     0.259 C 
ATOM     13  C   UNL d   1       8.556   6.365  -6.974  0.00  0.00     0.042 C 
BRANCH  12  14
ATOM     14  N   UNL d   1      10.722   7.617  -7.024  0.00  0.00     0.141 N 
ATOM     15  C   UNL d   1      10.077   8.936  -7.038  0.00  0.00     0.251 C 
ATOM     16  C   UNL d   1      10.921   9.754  -6.054  0.00  0.00     0.037 C 
ATOM     17  C   UNL d   1      11.551   8.732  -5.110  0.00  0.00     0.037 C 
ATOM     18  C   UNL d   1      11.052   7.370  -5.616  0.00  0.00     0.251 C 
ENDBRANCH  12  14
ENDBRANCH   9  12
ENDBRANCH   5   7
BRANCH   4  19
ATOM     19  O   UNL d   1       6.525   5.263 -11.673  0.00  0.00    -0.328 OA
ATOM     20  C   UNL d   1       5.949   6.509 -12.014  0.00  0.00     0.181 C 
ENDBRANCH   4  19
BRANCH   1  21
ATOM     21  S   UNL d   1      10.803   3.064 -15.220  0.00  0.00     0.190 S 
ATOM     22  O   UNL d   1      12.095   3.619 -14.789  0.00  0.00    -0.222 OA
ATOM     23  O   UNL d   1      10.379   3.212 -16.620  0.00  0.00    -0.222 OA
BRANCH  21  24
ATOM     24  C   UNL d   1      10.796   1.262 -14.806  0.00  0.00     0.127 C 
ATOM     25  C   UNL d   1       9.436   0.600 -15.075  0.00  0.00     0.018 C 
ENDBRANCH  21  24
ENDBRANCH   1  21
TORSDOF 6
