REMARK  12 active torsions:
REMARK  status: ('A' for Active; 'I' for Inactive)
REMARK       I    between atoms: C_2  and  N_3 
REMARK    1  A    between atoms: C_2  and  C_35 
REMARK    2  A    between atoms: N_3  and  C_4 
REMARK    3  A    between atoms: C_4  and  C_5 
REMARK    4  A    between atoms: C_5  and  C_6 
REMARK    5  A    between atoms: C_6  and  C_7 
REMARK    6  A    between atoms: C_7  and  N_8 
REMARK    7  A    between atoms: N_8  and  C_9 
REMARK    8  A    between atoms: N_8  and  C_24 
REMARK    9  A    between atoms: C_9  and  C_10 
REMARK   10  A    between atoms: C_10  and  C_11 
REMARK   11  A    between atoms: C_11  and  N_12 
REMARK   12  A    between atoms: N_15  and  C_16 
ROOT
ATOM      1  N   UNL d   1       9.220   2.958 -14.023  0.00  0.00     0.135 N 
ENDROOT
BRANCH   1   2
ATOM      2  C   UNL d   1      10.644   2.726 -14.330  0.00  0.00     0.250 C 
BRANCH   2   3
ATOM      3  C   UNL d   1      11.078   3.299 -15.696  0.00  0.00     0.037 C 
BRANCH   3   4
ATOM      4  C   UNL d   1      12.507   3.742 -15.851  0.00  0.00     0.029 C 
BRANCH   4   5
ATOM      5  C   UNL d   1      12.772   4.191 -17.309  0.00  0.00     0.129 C 
BRANCH   5   6
ATOM      6  N   UNL d   1      14.073   4.814 -17.375  0.00  0.00    -0.234 NA
ATOM      7  C   UNL d   1      14.302   6.074 -17.761  0.00  0.00     0.275 C 
ATOM      8  O   UNL d   1      13.425   6.850 -18.140  0.00  0.00    -0.266 OA
BRANCH   7   9
ATOM      9  C   UNL d   1      15.748   6.465 -17.808  0.00  0.00     0.058 A 
ATOM     10  C   UNL d   1      16.221   7.363 -18.797  0.00  0.00     0.005 A 
ATOM     11  C   UNL d   1      17.575   7.761 -18.807  0.00  0.00     0.000 A 
ATOM     12  C   UNL d   1      18.463   7.275 -17.828  0.00  0.00     0.000 A 
ATOM     13  C   UNL d   1      17.993   6.390 -16.837  0.00  0.00     0.000 A 
ATOM     14  C   UNL d   1      16.649   5.985 -16.836  0.00  0.00     0.005 A 
ENDBRANCH   7   9
ENDBRANCH   5   6
ENDBRANCH   4   5
ENDBRANCH   3   4
ENDBRANCH   2   3
ENDBRANCH   1   2
BRANCH   1  15
ATOM     15  C   UNL d   1       9.006   4.370 -13.678  0.00  0.00     0.252 C 
BRANCH  15  16
ATOM     16  C   UNL d   1       7.868   4.625 -12.668  0.00  0.00     0.071 C 
BRANCH  16  17
ATOM     17  C   UNL d   1       8.001   6.009 -11.994  0.00  0.00     0.253 C 
BRANCH  17  18
ATOM     18  N   UNL d   1       9.130   6.026 -11.063  0.00  0.00     0.141 N 
ATOM     19  C   UNL d   1       8.665   5.683  -9.713  0.00  0.00     0.274 C 
ATOM     20  C   UNL d   1       9.842   5.680  -8.722  0.00  0.00     0.137 C 
ATOM     21  N   UNL d   1      10.524   6.975  -8.738  0.00  0.00    -0.344 N 
ATOM     22  C   UNL d   1      10.915   7.433 -10.066  0.00  0.00     0.137 C 
ATOM     23  C   UNL d   1       9.710   7.375 -11.021  0.00  0.00     0.274 C 
BRANCH  21  24
ATOM     24  C   UNL d   1      10.768   7.713  -7.570  0.00  0.00     0.056 A 
ATOM     25  C   UNL d   1      10.846   7.067  -6.317  0.00  0.00     0.017 A 
ATOM     26  C   UNL d   1      11.072   7.776  -5.133  0.00  0.00     0.002 A 
ATOM     27  C   UNL d   1      11.236   9.169  -5.170  0.00  0.00     0.000 A 
ATOM     28  C   UNL d   1      11.174   9.837  -6.407  0.00  0.00     0.002 A 
ATOM     29  C   UNL d   1      10.945   9.116  -7.592  0.00  0.00     0.017 A 
ENDBRANCH  21  24
ENDBRANCH  17  18
ENDBRANCH  16  17
ENDBRANCH  15  16
ENDBRANCH   1  15
BRANCH   1  30
ATOM     30  C   UNL d   1       8.196   2.382 -14.930  0.00  0.00     0.224 C 
ATOM     31  C   UNL d   1       7.359   1.274 -14.266  0.00  0.00     0.059 C 
ATOM     32  C   UNL d   1       6.418   0.575 -15.242  0.00  0.00    -0.022 A 
ATOM     33  C   UNL d   1       6.556   0.643 -16.651  0.00  0.00    -0.026 A 
ATOM     34  C   UNL d   1       5.370  -0.187 -14.732  0.00  0.00     0.023 A 
ATOM     35  C   UNL d   1       7.646   1.472 -17.276  0.00  0.00     0.028 C 
ATOM     36  C   UNL d   1       5.702  -0.032 -17.530  0.00  0.00    -0.003 A 
ATOM     37  C   UNL d   1       8.715   1.891 -16.294  0.00  0.00     0.038 C 
ATOM     38  C   UNL d   1       4.675  -0.807 -16.997  0.00  0.00     0.027 A 
ATOM     39  C   UNL d   1       4.517  -0.862 -15.609  0.00  0.00     0.131 A 
ATOM     40  O   UNL d   1       3.462  -1.567 -15.108  0.00  0.00    -0.190 OA
ENDBRANCH   1  30
TORSDOF 12
