REMARK  2 active torsions:
REMARK  status: ('A' for Active; 'I' for Inactive)
REMARK    1  A    between atoms: N_2  and  C_4 
REMARK    2  A    between atoms: C_4  and  C_5 
ROOT
ATOM      1  C   UNL d   1       6.395   0.147 -15.583  0.00  0.00     0.149 C 
ATOM      2  C   UNL d   1       7.894   0.390 -15.577  0.00  0.00     0.039 C 
ATOM      3  C   UNL d   1       8.112   1.238 -16.823  0.00  0.00     0.058 C 
ATOM      4  C   UNL d   1       9.497   0.991 -17.411  0.00  0.00     0.003 A 
ATOM      5  C   UNL d   1      10.549   1.864 -17.060  0.00  0.00    -0.002 A 
ATOM      6  C   UNL d   1      11.856   1.633 -17.528  0.00  0.00    -0.000 A 
ATOM      7  C   UNL d   1      12.124   0.520 -18.346  0.00  0.00     0.002 A 
ATOM      8  C   UNL d   1      11.084  -0.363 -18.692  0.00  0.00     0.024 A 
ATOM      9  C   UNL d   1       9.774  -0.129 -18.231  0.00  0.00     0.096 A 
ATOM     10  O   UNL d   1       8.773  -0.972 -18.621  0.00  0.00    -0.308 OA
ATOM     11  C   UNL d   1       7.926  -0.423 -19.540  0.00  0.00     0.098 A 
ATOM     12  C   UNL d   1       8.011  -0.818 -20.891  0.00  0.00     0.027 A 
ATOM     13  C   UNL d   1       7.177  -0.218 -21.856  0.00  0.00     0.032 A 
ATOM     14  C   UNL d   1       6.256   0.773 -21.469  0.00  0.00     0.140 A 
ATOM     15  F   UNL d   1       5.459   1.362 -22.393  0.00  0.00    -0.204 F 
ATOM     16  C   UNL d   1       6.163   1.156 -20.119  0.00  0.00     0.030 A 
ATOM     17  C   UNL d   1       7.001   0.568 -19.146  0.00  0.00     0.030 A 
ATOM     18  C   UNL d   1       6.845   0.960 -17.682  0.00  0.00     0.143 C 
ATOM     19  O   UNL d   1       6.144  -0.043 -16.965  0.00  0.00    -0.352 OA
ENDROOT
BRANCH   1  20
ATOM     20  C   UNL d   1       5.938  -1.069 -14.748  0.00  0.00     0.280 C 
BRANCH  20  21
ATOM     21  N   UNL d   1       4.512  -1.152 -14.451  0.00  0.00     0.144 N 
ATOM     22  C   UNL d   1       4.049  -0.067 -13.613  0.00  0.00     0.286 C 
ATOM     23  C   UNL d   1       3.708  -1.310 -15.659  0.00  0.00     0.286 C 
ENDBRANCH  20  21
ENDBRANCH   1  20
TORSDOF 2
