REMARK  3 active torsions:
REMARK  status: ('A' for Active; 'I' for Inactive)
REMARK    1  A    between atoms: N_5  and  C_6 
REMARK    2  A    between atoms: N_15  and  N_16 
REMARK       I    between atoms: N_16  and  C_17 
REMARK    3  A    between atoms: C_17  and  C_19 
ROOT
ATOM      1  C   UNL d   1       7.793   2.019 -14.345  0.00  0.00     0.142 C 
ATOM      2  N   UNL d   1       8.929   1.979 -14.946  0.00  0.00    -0.227 NA
ATOM      3  C   UNL d   1       9.793   3.077 -15.116  0.00  0.00     0.101 A 
ATOM      4  C   UNL d   1      10.592   3.042 -16.272  0.00  0.00     0.032 A 
ATOM      5  C   UNL d   1      11.546   4.058 -16.528  0.00  0.00     0.059 A 
ATOM      6 CL   UNL d   1      12.533   3.995 -17.939  0.00  0.00    -0.082 Cl
ATOM      7  C   UNL d   1      11.666   5.133 -15.635  0.00  0.00     0.013 A 
ATOM      8  C   UNL d   1      10.845   5.174 -14.506  0.00  0.00     0.022 A 
ATOM      9  C   UNL d   1       9.951   4.156 -14.197  0.00  0.00     0.101 A 
ATOM     10  N   UNL d   1       9.143   4.386 -13.069  0.00  0.00    -0.225 N 
ATOM     11  C   UNL d   1       7.781   4.390 -13.173  0.00  0.00     0.086 A 
ATOM     12  C   UNL d   1       6.983   5.453 -12.648  0.00  0.00     0.019 A 
ATOM     13  C   UNL d   1       5.606   5.474 -12.795  0.00  0.00     0.002 A 
ATOM     14  C   UNL d   1       5.007   4.428 -13.447  0.00  0.00     0.000 A 
ATOM     15  C   UNL d   1       5.798   3.355 -13.916  0.00  0.00     0.004 A 
ATOM     16  C   UNL d   1       7.160   3.304 -13.818  0.00  0.00     0.051 A 
ENDROOT
BRANCH  10  17
ATOM     17  N   UNL d   1       9.681   4.669 -11.795  0.00  0.00    -0.122 NA
ATOM     18  C   UNL d   1       9.661   5.899 -11.232  0.00  0.00     0.315 C 
ATOM     19  O   UNL d   1       9.466   6.958 -11.831  0.00  0.00    -0.262 OA
BRANCH  18  20
ATOM     20  C   UNL d   1       9.702   5.936  -9.745  0.00  0.00     0.169 C 
ATOM     21  N   UNL d   1      10.625   6.420  -8.938  0.00  0.00    -0.121 NA
ATOM     22  O   UNL d   1      10.114   6.234  -7.648  0.00  0.00    -0.209 OA
ATOM     23  C   UNL d   1       8.826   5.817  -7.769  0.00  0.00     0.152 C 
ATOM     24  C   UNL d   1       8.522   5.568  -9.076  0.00  0.00     0.055 C 
ENDBRANCH  18  20
ENDBRANCH  10  17
BRANCH   1  25
ATOM     25  N   UNL d   1       7.030   0.862 -14.083  0.00  0.00    -0.330 N 
ATOM     26  C   UNL d   1       6.202   0.574 -12.896  0.00  0.00     0.138 C 
ATOM     27  C   UNL d   1       4.811   0.116 -13.278  0.00  0.00     0.274 C 
ATOM     28  N   UNL d   1       4.902  -1.051 -14.115  0.00  0.00     0.143 N 
ATOM     29  C   UNL d   1       3.546  -1.442 -14.467  0.00  0.00     0.286 C 
ATOM     30  C   UNL d   1       5.650  -0.759 -15.320  0.00  0.00     0.274 C 
ATOM     31  C   UNL d   1       7.070  -0.310 -14.952  0.00  0.00     0.138 C 
ENDBRANCH   1  25
TORSDOF 3
