REMARK  3 active torsions:
REMARK  status: ('A' for Active; 'I' for Inactive)
REMARK    1  A    between atoms: O_2  and  C_3 
REMARK    2  A    between atoms: N_15  and  C_16 
REMARK    3  A    between atoms: C_16  and  C_17 
ROOT
ATOM      1  C   UNL d   1       5.935  -0.073 -14.709  0.00  0.00     0.096 A 
ATOM      2  C   UNL d   1       5.104   0.557 -13.757  0.00  0.00     0.024 A 
ATOM      3  C   UNL d   1       5.459   1.821 -13.239  0.00  0.00     0.004 A 
ATOM      4  C   UNL d   1       6.627   2.475 -13.699  0.00  0.00     0.019 A 
ATOM      5  C   UNL d   1       7.061   3.790 -13.210  0.00  0.00    -0.015 A 
ATOM      6  C   UNL d   1       8.248   4.302 -13.598  0.00  0.00     0.071 A 
ATOM      7  C   UNL d   1       9.132   3.585 -14.557  0.00  0.00     0.298 A 
ATOM      8  O   UNL d   1      10.205   4.046 -14.942  0.00  0.00    -0.259 OA
ATOM      9  O   UNL d   1       8.679   2.375 -15.007  0.00  0.00    -0.273 OA
ATOM     10  C   UNL d   1       7.487   1.815 -14.603  0.00  0.00     0.105 A 
ATOM     11  C   UNL d   1       7.139   0.545 -15.093  0.00  0.00     0.049 A 
ATOM     12  C   UNL d   1       8.774   5.624 -13.059  0.00  0.00     0.282 C 
ATOM     13  N   UNL d   1       8.141   6.040 -11.815  0.00  0.00     0.146 N 
ATOM     14  C   UNL d   1       6.683   5.953 -11.928  0.00  0.00     0.256 C 
ATOM     15  C   UNL d   1       6.203   4.509 -12.181  0.00  0.00     0.062 C 
ENDROOT
BRANCH  13  16
ATOM     16  C   UNL d   1       8.688   5.359 -10.637  0.00  0.00     0.277 C 
BRANCH  16  17
ATOM     17  C   UNL d   1       9.465   6.276  -9.704  0.00  0.00     0.011 A 
ATOM     18  C   UNL d   1       9.466   6.001  -8.322  0.00  0.00    -0.003 A 
ATOM     19  C   UNL d   1      10.191   6.816  -7.430  0.00  0.00    -0.004 A 
ATOM     20  C   UNL d   1      10.925   7.918  -7.916  0.00  0.00    -0.022 A 
ATOM     21  C   UNL d   1      10.931   8.195  -9.298  0.00  0.00    -0.004 A 
ATOM     22  C   UNL d   1      11.700   8.814  -6.974  0.00  0.00     0.031 C 
ATOM     23  C   UNL d   1      10.207   7.377 -10.186  0.00  0.00    -0.003 A 
ENDBRANCH  16  17
ENDBRANCH  13  16
BRANCH   1  24
ATOM     24  O   UNL d   1       5.653  -1.287 -15.280  0.00  0.00    -0.328 OA
ATOM     25  C   UNL d   1       4.290  -1.635 -15.460  0.00  0.00     0.181 C 
ENDBRANCH   1  24
TORSDOF 3
