REMARK  8 active torsions:
REMARK  status: ('A' for Active; 'I' for Inactive)
REMARK    1  A    between atoms: N_3  and  C_4 
REMARK    2  A    between atoms: C_4  and  C_5 
REMARK    3  A    between atoms: C_5  and  C_6 
REMARK    4  A    between atoms: C_6  and  C_7 
REMARK    5  A    between atoms: C_7  and  C_8 
REMARK    6  A    between atoms: C_8  and  C_9 
REMARK    7  A    between atoms: C_9  and  N_10 
REMARK    8  A    between atoms: N_13  and  C_14 
ROOT
ATOM      1  C   UNL d   1      12.432   4.470 -19.235  0.00  0.00     0.002 C 
ENDROOT
BRANCH   1   2
ATOM      2  C   UNL d   1      13.891   4.370 -19.662  0.00  0.00     0.002 C 
BRANCH   2   3
ATOM      3  C   UNL d   1      14.685   5.559 -19.087  0.00  0.00     0.025 C 
BRANCH   3   4
ATOM      4  C   UNL d   1      16.169   5.225 -18.861  0.00  0.00     0.111 C 
BRANCH   4   5
ATOM      5  N   UNL d   1      17.018   6.409 -18.713  0.00  0.00    -0.280 N 
ATOM      6  C   UNL d   1      17.743   6.838 -17.640  0.00  0.00     0.331 A 
ATOM      7  O   UNL d   1      17.830   6.287 -16.541  0.00  0.00    -0.246 OA
ATOM      8  N   UNL d   1      18.338   8.001 -17.978  0.00  0.00    -0.281 N 
ATOM      9  C   UNL d   1      18.001   8.352 -19.288  0.00  0.00     0.076 A 
ATOM     10  C   UNL d   1      19.213   8.854 -17.171  0.00  0.00     0.111 C 
ATOM     11  C   UNL d   1      17.192   7.338 -19.738  0.00  0.00     0.080 A 
ATOM     12  C   UNL d   1      18.414   9.478 -19.987  0.00  0.00    -0.005 A 
ATOM     13  C   UNL d   1      16.727   7.436 -21.069  0.00  0.00     0.019 A 
ATOM     14  C   UNL d   1      17.105   8.559 -21.845  0.00  0.00     0.001 A 
ATOM     15  C   UNL d   1      17.942   9.581 -21.317  0.00  0.00    -0.003 A 
ATOM     16  C   UNL d   1      19.299  10.428 -19.201  0.00  0.00     0.030 C 
ATOM     17  C   UNL d   1      20.095   9.737 -18.080  0.00  0.00     0.029 C 
ENDBRANCH   4   5
ENDBRANCH   3   4
ENDBRANCH   2   3
ENDBRANCH   1   2
BRANCH   1  18
ATOM     18  C   UNL d   1      11.552   3.298 -19.747  0.00  0.00     0.035 C 
BRANCH  18  19
ATOM     19  C   UNL d   1      10.052   3.400 -19.383  0.00  0.00     0.250 C 
BRANCH  19  20
ATOM     20  N   UNL d   1       9.764   2.757 -18.100  0.00  0.00     0.141 N 
ATOM     21  C   UNL d   1       8.324   2.536 -17.968  0.00  0.00     0.274 C 
ATOM     22  C   UNL d   1       7.976   1.856 -16.610  0.00  0.00     0.138 C 
ATOM     23  N   UNL d   1       8.531   2.611 -15.487  0.00  0.00    -0.329 N 
ATOM     24  C   UNL d   1       9.949   2.874 -15.651  0.00  0.00     0.138 C 
ATOM     25  C   UNL d   1      10.174   3.610 -16.974  0.00  0.00     0.274 C 
BRANCH  23  26
ATOM     26  C   UNL d   1       7.753   3.080 -14.403  0.00  0.00     0.148 A 
ATOM     27  C   UNL d   1       8.097   4.254 -13.594  0.00  0.00     0.042 A 
ATOM     28  C   UNL d   1       7.077   4.442 -12.604  0.00  0.00     0.050 A 
ATOM     29  C   UNL d   1       9.140   5.228 -13.597  0.00  0.00     0.004 A 
ATOM     30  S   UNL d   1       5.841   3.232 -12.843  0.00  0.00     0.015 SA
ATOM     31  C   UNL d   1       7.128   5.482 -11.656  0.00  0.00     0.008 A 
ATOM     32  N   UNL d   1       6.620   2.468 -14.112  0.00  0.00    -0.192 NA
ATOM     33  C   UNL d   1       8.213   6.369 -11.659  0.00  0.00     0.001 A 
ATOM     34  C   UNL d   1       9.203   6.243 -12.631  0.00  0.00     0.000 A 
ENDBRANCH  23  26
ENDBRANCH  19  20
ENDBRANCH  18  19
ENDBRANCH   1  18
TORSDOF 8
