REMARK  8 active torsions:
REMARK  status: ('A' for Active; 'I' for Inactive)
REMARK    1  A    between atoms: C_7  and  N_8 
REMARK    2  A    between atoms: N_11  and  C_12 
REMARK    3  A    between atoms: C_12  and  C_13 
REMARK    4  A    between atoms: C_13  and  C_14 
REMARK    5  A    between atoms: C_14  and  C_15 
REMARK    6  A    between atoms: C_15  and  C_16 
REMARK    7  A    between atoms: C_16  and  C_17 
REMARK       I    between atoms: C_17  and  N_19 
REMARK    8  A    between atoms: N_19  and  C_20 
ROOT
ATOM      1  C   UNL d   1       8.912   4.976 -11.579  0.00  0.00     0.003 C 
ENDROOT
BRANCH   1   2
ATOM      2  C   UNL d   1       8.395   6.117 -10.716  0.00  0.00     0.035 C 
BRANCH   2   3
ATOM      3  C   UNL d   1       8.553   5.846  -9.211  0.00  0.00     0.250 C 
BRANCH   3   4
ATOM      4  N   UNL d   1       9.519   6.764  -8.604  0.00  0.00     0.141 N 
ATOM      5  C   UNL d   1      10.566   5.990  -7.956  0.00  0.00     0.274 C 
ATOM      6  C   UNL d   1      11.613   6.904  -7.298  0.00  0.00     0.137 C 
ATOM      7  N   UNL d   1      10.971   7.822  -6.370  0.00  0.00    -0.343 N 
ATOM      8  C   UNL d   1       9.835   8.541  -6.924  0.00  0.00     0.137 C 
ATOM      9  C   UNL d   1       8.856   7.568  -7.574  0.00  0.00     0.274 C 
BRANCH   7  10
ATOM     10  C   UNL d   1      11.408   7.977  -5.036  0.00  0.00     0.069 A 
ATOM     11  C   UNL d   1      11.443   9.243  -4.403  0.00  0.00     0.086 A 
ATOM     12  N   UNL d   1      11.056  10.407  -5.071  0.00  0.00    -0.099 NA
ATOM     13  C   UNL d   1      11.865   9.360  -3.068  0.00  0.00     0.015 A 
ATOM     14  C   UNL d   1      12.264   8.223  -2.346  0.00  0.00     0.001 A 
ATOM     15  C   UNL d   1      12.241   6.960  -2.961  0.00  0.00     0.002 A 
ATOM     16  C   UNL d   1      11.814   6.840  -4.300  0.00  0.00     0.018 A 
ENDBRANCH   7  10
ENDBRANCH   3   4
ENDBRANCH   2   3
ENDBRANCH   1   2
BRANCH   1  17
ATOM     17  C   UNL d   1       8.633   5.202 -13.068  0.00  0.00     0.010 C 
BRANCH  17  18
ATOM     18  C   UNL d   1       9.098   4.009 -13.901  0.00  0.00     0.090 C 
BRANCH  18  19
ATOM     19  C   UNL d   1      10.609   3.941 -14.193  0.00  0.00     0.252 C 
ATOM     20  O   UNL d   1      11.387   4.744 -13.675  0.00  0.00    -0.271 OA
ATOM     21  N   UNL d   1      11.058   2.982 -15.018  0.00  0.00    -0.235 NA
BRANCH  21  22
ATOM     22  C   UNL d   1      10.258   2.091 -15.859  0.00  0.00     0.128 C 
ATOM     23  C   UNL d   1      11.073   1.458 -16.995  0.00  0.00    -0.004 A 
ATOM     24  C   UNL d   1      10.799   0.138 -17.445  0.00  0.00    -0.024 A 
ATOM     25  C   UNL d   1      12.078   2.212 -17.648  0.00  0.00    -0.003 A 
ATOM     26  C   UNL d   1       9.742  -0.735 -16.785  0.00  0.00     0.026 C 
ATOM     27  C   UNL d   1      11.535  -0.408 -18.514  0.00  0.00    -0.004 A 
ATOM     28  C   UNL d   1       8.763   0.057 -15.913  0.00  0.00     0.007 C 
ATOM     29  C   UNL d   1       9.491   1.049 -15.020  0.00  0.00     0.029 C 
ATOM     30  C   UNL d   1      12.537   0.346 -19.151  0.00  0.00    -0.000 A 
ATOM     31  C   UNL d   1      12.806   1.656 -18.717  0.00  0.00    -0.000 A 
ENDBRANCH  21  22
ENDBRANCH  18  19
ENDBRANCH  17  18
ENDBRANCH   1  17
TORSDOF 8
