REMARK  2 active torsions:
REMARK  status: ('A' for Active; 'I' for Inactive)
REMARK    1  A    between atoms: O_2  and  C_3 
REMARK    2  A    between atoms: C_8  and  O_9 
ROOT
ATOM      1  C   UNL d   1       7.945   5.346 -13.101  0.00  0.00     0.116 C 
ATOM      2  C   UNL d   1       7.883   6.719 -12.773  0.00  0.00     0.022 C 
ATOM      3  C   UNL d   1       8.784   7.236 -11.782  0.00  0.00    -0.020 C 
ATOM      4  C   UNL d   1       9.580   6.352 -11.033  0.00  0.00     0.007 C 
ATOM      5  C   UNL d   1       9.541   4.964 -11.290  0.00  0.00     0.024 C 
ATOM      6  C   UNL d   1       8.836   4.483 -12.392  0.00  0.00     0.116 C 
ATOM      7  C   UNL d   1      10.523   6.876  -9.938  0.00  0.00     0.246 C 
ATOM      8  C   UNL d   1       9.984   6.524  -8.529  0.00  0.00     0.064 C 
ATOM      9  C   UNL d   1      10.654   7.293  -7.394  0.00  0.00    -0.022 A 
ATOM     10  C   UNL d   1      10.444   6.866  -6.073  0.00  0.00    -0.002 A 
ATOM     11  C   UNL d   1      11.061   7.532  -5.008  0.00  0.00     0.027 A 
ATOM     12  C   UNL d   1      11.796   8.709  -5.235  0.00  0.00     0.131 A 
ATOM     13  O   UNL d   1      12.361   9.331  -4.158  0.00  0.00    -0.190 OA
ATOM     14  C   UNL d   1      11.987   9.174  -6.552  0.00  0.00     0.025 A 
ATOM     15  C   UNL d   1      11.443   8.437  -7.636  0.00  0.00     0.009 A 
ATOM     16  C   UNL d   1      11.775   8.788  -9.071  0.00  0.00     0.277 C 
ATOM     17  N   UNL d   1      10.797   8.303 -10.060  0.00  0.00     0.144 N 
ATOM     18  C   UNL d   1       9.530   9.009 -10.084  0.00  0.00     0.256 C 
ATOM     19  C   UNL d   1       8.889   8.746 -11.501  0.00  0.00     0.061 C 
ENDROOT
BRANCH   1  20
ATOM     20  O   UNL d   1       7.106   4.787 -14.035  0.00  0.00    -0.326 OA
ATOM     21  C   UNL d   1       6.031   3.998 -13.528  0.00  0.00     0.181 C 
ENDBRANCH   1  20
BRANCH   6  22
ATOM     22  O   UNL d   1       9.032   3.187 -12.706  0.00  0.00    -0.326 OA
ATOM     23  C   UNL d   1       9.600   2.838 -13.957  0.00  0.00     0.181 C 
ENDBRANCH   6  22
TORSDOF 2
