REMARK  7 active torsions:
REMARK  status: ('A' for Active; 'I' for Inactive)
REMARK    1  A    between atoms: O_2  and  C_3 
REMARK    2  A    between atoms: C_8  and  N_9 
REMARK    3  A    between atoms: N_12  and  C_13 
REMARK    4  A    between atoms: C_13  and  C_14 
REMARK    5  A    between atoms: C_14  and  C_16 
REMARK    6  A    between atoms: C_16  and  N_17 
REMARK    7  A    between atoms: C_21  and  C_23 
ROOT
ATOM      1  C   UNL d   1       9.464   5.683 -11.355  0.00  0.00     0.208 C 
ATOM      2  O   UNL d   1       8.425   6.638 -11.491  0.00  0.00    -0.219 OA
ENDROOT
BRANCH   1   3
ATOM      3  C   UNL d   1       8.986   4.474 -12.185  0.00  0.00     0.285 C 
BRANCH   3   4
ATOM      4  N   UNL d   1      10.034   3.689 -12.857  0.00  0.00     0.144 N 
ATOM      5  C   UNL d   1       9.450   2.713 -13.775  0.00  0.00     0.274 C 
ATOM      6  C   UNL d   1      10.513   1.831 -14.472  0.00  0.00     0.137 C 
ATOM      7  N   UNL d   1      11.503   2.704 -15.105  0.00  0.00    -0.343 N 
ATOM      8  C   UNL d   1      12.100   3.688 -14.208  0.00  0.00     0.137 C 
ATOM      9  C   UNL d   1      10.968   4.519 -13.598  0.00  0.00     0.274 C 
BRANCH   7  10
ATOM     10  C   UNL d   1      11.823   2.598 -16.456  0.00  0.00     0.079 A 
ATOM     11  C   UNL d   1      12.074   3.756 -17.242  0.00  0.00     0.110 A 
ATOM     12  C   UNL d   1      12.504   3.610 -18.591  0.00  0.00     0.026 A 
ATOM     13  C   UNL d   1      12.651   2.330 -19.163  0.00  0.00     0.002 A 
ATOM     14  C   UNL d   1      12.379   1.183 -18.401  0.00  0.00     0.002 A 
ATOM     15  C   UNL d   1      11.961   1.320 -17.057  0.00  0.00     0.019 A 
BRANCH  11  16
ATOM     16  O   UNL d   1      11.893   4.986 -16.639  0.00  0.00    -0.327 OA
ATOM     17  C   UNL d   1      12.163   6.163 -17.387  0.00  0.00     0.181 C 
ENDBRANCH  11  16
ENDBRANCH   7  10
ENDBRANCH   3   4
ENDBRANCH   1   3
BRANCH   1  18
ATOM     18  C   UNL d   1       9.713   5.393  -9.841  0.00  0.00     0.148 C 
BRANCH  18  19
ATOM     19  N   UNL d   1      10.049   6.608  -9.088  0.00  0.00    -0.247 N 
ATOM     20  C   UNL d   1       9.406   6.902  -7.949  0.00  0.00     0.265 A 
ATOM     21  C   UNL d   1      10.044   8.178  -7.444  0.00  0.00     0.179 A 
ATOM     22  O   UNL d   1       8.509   6.275  -7.364  0.00  0.00    -0.269 OA
ATOM     23  N   UNL d   1      11.034   8.448  -8.418  0.00  0.00    -0.209 NA
ATOM     24  C   UNL d   1       9.054   9.260  -7.572  0.00  0.00     0.039 C 
ATOM     25  C   UNL d   1      11.077   7.486  -9.301  0.00  0.00     0.348 A 
ATOM     26  O   UNL d   1      12.031   7.455 -10.058  0.00  0.00    -0.245 OA
BRANCH  21  27
ATOM     27  C   UNL d   1      10.704   8.050  -6.075  0.00  0.00     0.006 A 
ATOM     28  C   UNL d   1      10.921   9.187  -5.252  0.00  0.00    -0.002 A 
ATOM     29  C   UNL d   1      11.491   9.018  -3.997  0.00  0.00     0.006 A 
ATOM     30  C   UNL d   1      11.897   7.745  -3.574  0.00  0.00     0.035 A 
ATOM     31  C   UNL d   1      11.741   6.624  -4.411  0.00  0.00     0.006 A 
ATOM     32 BR   UNL d   1      12.655   7.603  -1.881  0.00  0.00    -0.049 Br
ATOM     33  C   UNL d   1      11.176   6.785  -5.676  0.00  0.00    -0.002 A 
ENDBRANCH  21  27
ENDBRANCH  18  19
ENDBRANCH   1  18
TORSDOF 7
