REMARK  8 active torsions:
REMARK  status: ('A' for Active; 'I' for Inactive)
REMARK    1  A    between atoms: C_2  and  C_3 
REMARK    2  A    between atoms: C_2  and  C_25 
REMARK    3  A    between atoms: C_3  and  C_4 
REMARK    4  A    between atoms: C_4  and  N_5 
REMARK    5  A    between atoms: N_8  and  C_9 
REMARK    6  A    between atoms: C_11  and  C_12 
REMARK    7  A    between atoms: C_17  and  C_18 
REMARK    8  A    between atoms: C_25  and  N_26 
ROOT
ATOM      1  N   UNL d   1       8.408   2.065 -15.242  0.00  0.00     0.141 N 
ATOM      2  C   UNL d   1       7.210   1.205 -15.193  0.00  0.00     0.274 C 
ATOM      3  C   UNL d   1       7.506  -0.178 -15.805  0.00  0.00     0.138 C 
ATOM      4  N   UNL d   1       8.093  -0.036 -17.135  0.00  0.00    -0.330 N 
ATOM      5  C   UNL d   1       9.212   0.877 -17.216  0.00  0.00     0.138 C 
ATOM      6  C   UNL d   1       8.770   2.210 -16.651  0.00  0.00     0.274 C 
ENDROOT
BRANCH   1   7
ATOM      7  C   UNL d   1       8.104   3.335 -14.603  0.00  0.00     0.251 C 
BRANCH   7   8
ATOM      8  C   UNL d   1       9.061   4.520 -14.992  0.00  0.00     0.037 C 
BRANCH   8   9
ATOM      9  C   UNL d   1      10.118   4.893 -13.941  0.00  0.00     0.025 C 
ATOM     10  C   UNL d   1       9.578   4.760 -12.494  0.00  0.00     0.002 C 
BRANCH   9  11
ATOM     11  C   UNL d   1      11.505   4.186 -14.075  0.00  0.00     0.109 C 
BRANCH  11  12
ATOM     12  N   UNL d   1      11.961   3.956 -15.465  0.00  0.00    -0.300 N 
ATOM     13  C   UNL d   1      12.553   5.036 -16.225  0.00  0.00     0.058 A 
ATOM     14  C   UNL d   1      13.210   4.752 -17.460  0.00  0.00    -0.006 A 
ATOM     15  C   UNL d   1      12.476   6.355 -15.778  0.00  0.00     0.017 A 
ATOM     16  C   UNL d   1      13.323   3.325 -17.948  0.00  0.00     0.038 C 
ATOM     17  C   UNL d   1      13.794   5.818 -18.196  0.00  0.00    -0.003 A 
ATOM     18  C   UNL d   1      12.145   2.490 -17.474  0.00  0.00     0.093 C 
ATOM     19  C   UNL d   1      11.858   2.698 -15.971  0.00  0.00     0.238 C 
ATOM     20  O   UNL d   1      11.505   1.712 -15.334  0.00  0.00    -0.272 OA
ATOM     21  C   UNL d   1      13.722   7.131 -17.720  0.00  0.00    -0.000 A 
ATOM     22  C   UNL d   1      13.056   7.417 -16.514  0.00  0.00     0.002 A 
ENDBRANCH  11  12
ENDBRANCH   9  11
ENDBRANCH   8   9
ENDBRANCH   7   8
ENDBRANCH   1   7
BRANCH   4  23
ATOM     23  C   UNL d   1       7.601  -0.681 -18.293  0.00  0.00     0.143 A 
ATOM     24  N   UNL d   1       6.362  -1.194 -18.238  0.00  0.00    -0.214 NA
ATOM     25  C   UNL d   1       5.896  -1.794 -19.353  0.00  0.00     0.140 A 
ATOM     26  N   UNL d   1       6.579  -1.943 -20.475  0.00  0.00    -0.227 NA
ATOM     27  C   UNL d   1       7.812  -1.425 -20.561  0.00  0.00     0.157 A 
ATOM     28  C   UNL d   1       8.395  -0.765 -19.453  0.00  0.00     0.060 A 
BRANCH  25  29
ATOM     29  C   UNL d   1       4.544  -2.494 -19.207  0.00  0.00     0.052 C 
ATOM     30  C   UNL d   1       3.507  -1.526 -18.601  0.00  0.00     0.008 C 
ATOM     31  C   UNL d   1       4.676  -3.753 -18.336  0.00  0.00     0.008 C 
ATOM     32  C   UNL d   1       4.023  -2.949 -20.591  0.00  0.00     0.008 C 
ENDBRANCH  25  29
BRANCH  27  33
ATOM     33  C   UNL d   1       8.576  -1.602 -21.859  0.00  0.00     0.435 C 
ATOM     34  F   UNL d   1       7.869  -1.098 -22.873  0.00  0.00    -0.165 F 
ATOM     35  F   UNL d   1       9.762  -0.992 -21.829  0.00  0.00    -0.165 F 
ATOM     36  F   UNL d   1       8.778  -2.903 -22.073  0.00  0.00    -0.165 F 
ENDBRANCH  27  33
ENDBRANCH   4  23
TORSDOF 8
