REMARK  9 active torsions:
REMARK  status: ('A' for Active; 'I' for Inactive)
REMARK    1  A    between atoms: O_2  and  C_3 
REMARK    2  A    between atoms: C_8  and  N_9 
REMARK    3  A    between atoms: N_12  and  C_13 
REMARK    4  A    between atoms: C_13  and  C_14 
REMARK    5  A    between atoms: C_14  and  C_15 
REMARK    6  A    between atoms: C_15  and  C_16 
REMARK    7  A    between atoms: C_16  and  N_17 
REMARK       I    between atoms: N_17  and  C_18 
REMARK    8  A    between atoms: C_18  and  C_20 
REMARK    9  A    between atoms: C_22  and  C_23 
ROOT
ATOM      1  C   UNL d   1       6.784   4.599 -12.054  0.00  0.00     0.037 C 
ENDROOT
BRANCH   1   2
ATOM      2  C   UNL d   1       7.382   4.639 -13.470  0.00  0.00     0.251 C 
BRANCH   2   3
ATOM      3  N   UNL d   1       8.246   3.490 -13.716  0.00  0.00     0.141 N 
ATOM      4  C   UNL d   1       9.245   3.825 -14.734  0.00  0.00     0.274 C 
ATOM      5  C   UNL d   1      10.187   2.629 -14.987  0.00  0.00     0.137 C 
ATOM      6  N   UNL d   1       9.409   1.449 -15.345  0.00  0.00    -0.343 N 
ATOM      7  C   UNL d   1       8.325   1.119 -14.429  0.00  0.00     0.137 C 
ATOM      8  C   UNL d   1       7.436   2.361 -14.199  0.00  0.00     0.274 C 
BRANCH   6   9
ATOM      9  C   UNL d   1       9.640   0.746 -16.543  0.00  0.00     0.079 A 
ATOM     10  C   UNL d   1       8.575   0.348 -17.395  0.00  0.00     0.110 A 
ATOM     11  C   UNL d   1       8.872  -0.390 -18.570  0.00  0.00     0.026 A 
ATOM     12  C   UNL d   1      10.201  -0.699 -18.912  0.00  0.00     0.002 A 
ATOM     13  C   UNL d   1      11.252  -0.288 -18.078  0.00  0.00     0.002 A 
ATOM     14  C   UNL d   1      10.970   0.431 -16.899  0.00  0.00     0.019 A 
BRANCH  10  15
ATOM     15  O   UNL d   1       7.291   0.737 -17.065  0.00  0.00    -0.327 OA
ATOM     16  C   UNL d   1       6.202   0.139 -17.749  0.00  0.00     0.181 C 
ENDBRANCH  10  15
ENDBRANCH   6   9
ENDBRANCH   2   3
ENDBRANCH   1   2
BRANCH   1  17
ATOM     17  C   UNL d   1       7.511   5.526 -11.073  0.00  0.00     0.029 C 
BRANCH  17  18
ATOM     18  C   UNL d   1       8.484   4.806 -10.119  0.00  0.00     0.129 C 
BRANCH  18  19
ATOM     19  N   UNL d   1       9.021   5.689  -9.085  0.00  0.00    -0.233 NA
ATOM     20  C   UNL d   1       9.765   6.788  -9.282  0.00  0.00     0.294 C 
ATOM     21  O   UNL d   1      10.061   7.230 -10.391  0.00  0.00    -0.264 OA
BRANCH  20  22
ATOM     22  C   UNL d   1      10.172   7.509  -8.072  0.00  0.00     0.162 A 
ATOM     23  N   UNL d   1      10.314   8.863  -7.975  0.00  0.00    -0.143 NA
ATOM     24  N   UNL d   1      10.792   9.224  -6.764  0.00  0.00    -0.146 NA
ATOM     25  C   UNL d   1      10.951   8.068  -6.117  0.00  0.00     0.127 A 
ATOM     26  C   UNL d   1      10.590   6.936  -6.907  0.00  0.00     0.049 A 
BRANCH  25  27
ATOM     27  C   UNL d   1      11.474   8.059  -4.760  0.00  0.00     0.119 A 
ATOM     28  O   UNL d   1      11.640   6.842  -4.168  0.00  0.00    -0.304 OA
ATOM     29  C   UNL d   1      12.119   7.078  -2.915  0.00  0.00     0.123 A 
ATOM     30  C   UNL d   1      12.261   8.419  -2.701  0.00  0.00     0.029 A 
ATOM     31  C   UNL d   1      11.855   9.055  -3.905  0.00  0.00     0.028 A 
ENDBRANCH  25  27
ENDBRANCH  20  22
ENDBRANCH  18  19
ENDBRANCH  17  18
ENDBRANCH   1  17
TORSDOF 9
