REMARK  7 active torsions:
REMARK  status: ('A' for Active; 'I' for Inactive)
REMARK    1  A    between atoms: S_2  and  N_4 
REMARK    2  A    between atoms: S_2  and  C_24 
REMARK    3  A    between atoms: N_4  and  C_5 
REMARK    4  A    between atoms: C_5  and  C_6 
REMARK    5  A    between atoms: C_6  and  C_7 
REMARK    6  A    between atoms: C_7  and  N_8 
REMARK    7  A    between atoms: C_11  and  C_12 
ROOT
ATOM      1  N   UNL d   1       9.294   5.536  -9.428  0.00  0.00     0.142 N 
ATOM      2  C   UNL d   1       9.588   6.849  -9.994  0.00  0.00     0.276 C 
ATOM      3  C   UNL d   1      10.300   7.780  -9.044  0.00  0.00     0.005 C 
ATOM      4  C   UNL d   1      10.373   7.554  -7.736  0.00  0.00    -0.021 C 
ATOM      5  C   UNL d   1       9.722   6.340  -7.146  0.00  0.00     0.061 C 
ATOM      6  C   UNL d   1       8.715   5.715  -8.104  0.00  0.00     0.255 C 
ENDROOT
BRANCH   1   7
ATOM      7  C   UNL d   1       8.323   4.877 -10.301  0.00  0.00     0.253 C 
BRANCH   7   8
ATOM      8  C   UNL d   1       9.042   4.367 -11.574  0.00  0.00     0.062 C 
BRANCH   8   9
ATOM      9  C   UNL d   1       8.066   3.991 -12.686  0.00  0.00     0.141 C 
BRANCH   9  10
ATOM     10  N   UNL d   1       8.740   3.157 -13.689  0.00  0.00    -0.185 NA
BRANCH  10  11
ATOM     11  S   UNL d   1       9.910   3.870 -14.737  0.00  0.00     0.281 S 
ATOM     12  O   UNL d   1       9.353   5.126 -15.228  0.00  0.00    -0.199 OA
ATOM     13  O   UNL d   1      11.216   3.844 -14.038  0.00  0.00    -0.199 OA
BRANCH  11  14
ATOM     14  C   UNL d   1       9.956   2.701 -16.087  0.00  0.00     0.107 A 
ATOM     15  C   UNL d   1       9.317   3.020 -17.304  0.00  0.00     0.040 A 
ATOM     16  C   UNL d   1       9.339   2.094 -18.364  0.00  0.00     0.132 A 
ATOM     17  C   UNL d   1      10.009   0.863 -18.206  0.00  0.00     0.027 A 
ATOM     18  O   UNL d   1       8.701   2.388 -19.535  0.00  0.00    -0.190 OA
ATOM     19  C   UNL d   1      10.647   0.554 -16.988  0.00  0.00     0.003 A 
ATOM     20  C   UNL d   1      10.620   1.474 -15.921  0.00  0.00     0.013 A 
ENDBRANCH  11  14
ENDBRANCH  10  11
ENDBRANCH   9  10
ENDBRANCH   8   9
ENDBRANCH   7   8
ENDBRANCH   1   7
BRANCH   4  21
ATOM     21  C   UNL d   1      11.036   8.478  -6.832  0.00  0.00     0.017 A 
ATOM     22  C   UNL d   1      11.463   8.234  -5.495  0.00  0.00     0.020 A 
ATOM     23  C   UNL d   1      12.136   9.411  -5.088  0.00  0.00     0.082 A 
ATOM     24  C   UNL d   1      11.429   7.167  -4.572  0.00  0.00     0.013 A 
ATOM     25  N   UNL d   1      12.126  10.283  -6.128  0.00  0.00    -0.244 NA
ATOM     26  C   UNL d   1      12.732   9.516  -3.850  0.00  0.00     0.020 A 
ATOM     27  C   UNL d   1      11.459   9.735  -7.186  0.00  0.00     0.099 A 
ATOM     28  C   UNL d   1      12.630   8.533  -2.912  0.00  0.00     0.013 A 
ATOM     29  C   UNL d   1      11.974   7.395  -3.289  0.00  0.00     0.058 A 
ATOM     30 CL   UNL d   1      11.826   6.355  -2.038  0.00  0.00    -0.082 Cl
ENDBRANCH   4  21
TORSDOF 7
