REMARK  8 active torsions:
REMARK  status: ('A' for Active; 'I' for Inactive)
REMARK    1  A    between atoms: C_2  and  C_3 
REMARK    2  A    between atoms: N_13  and  C_14 
REMARK    3  A    between atoms: C_14  and  C_15 
REMARK    4  A    between atoms: C_15  and  C_17 
REMARK    5  A    between atoms: C_17  and  N_18 
REMARK    6  A    between atoms: N_21  and  C_22 
REMARK    7  A    between atoms: C_22  and  C_23 
REMARK    8  A    between atoms: C_22  and  C_29 
ROOT
ATOM      1  N   UNL d   1       9.054   5.283 -11.722  0.00  0.00     0.144 N 
ATOM      2  C   UNL d   1       9.661   3.971 -11.872  0.00  0.00     0.286 C 
ATOM      3  C   UNL d   1      10.354   3.815 -13.233  0.00  0.00     0.286 C 
ATOM      4  N   UNL d   1       9.352   3.905 -14.303  0.00  0.00     0.147 N 
ATOM      5  C   UNL d   1       8.646   5.166 -14.133  0.00  0.00     0.286 C 
ATOM      6  C   UNL d   1       8.018   5.334 -12.745  0.00  0.00     0.286 C 
ENDROOT
BRANCH   1   7
ATOM      7  C   UNL d   1       8.495   5.503 -10.390  0.00  0.00     0.285 C 
BRANCH   7   8
ATOM      8  C   UNL d   1       9.460   6.090  -9.345  0.00  0.00     0.208 C 
ATOM      9  O   UNL d   1       8.743   5.963  -8.129  0.00  0.00    -0.219 OA
BRANCH   8  10
ATOM     10  C   UNL d   1       9.860   7.577  -9.631  0.00  0.00     0.148 C 
BRANCH  10  11
ATOM     11  N   UNL d   1      10.755   8.162  -8.643  0.00  0.00    -0.247 N 
ATOM     12  C   UNL d   1      12.079   8.261  -8.783  0.00  0.00     0.348 A 
ATOM     13  N   UNL d   1      12.572   8.819  -7.670  0.00  0.00    -0.209 NA
ATOM     14  O   UNL d   1      12.757   7.899  -9.743  0.00  0.00    -0.245 OA
ATOM     15  C   UNL d   1      11.558   9.212  -6.707  0.00  0.00     0.179 A 
ATOM     16  C   UNL d   1      11.585  10.733  -6.432  0.00  0.00     0.039 C 
ATOM     17  C   UNL d   1      10.331   8.714  -7.497  0.00  0.00     0.265 A 
ATOM     18  O   UNL d   1       9.165   8.763  -7.106  0.00  0.00    -0.269 OA
BRANCH  15  19
ATOM     19  C   UNL d   1      11.702   8.469  -5.378  0.00  0.00     0.006 A 
ATOM     20  C   UNL d   1      12.504   9.020  -4.337  0.00  0.00     0.000 A 
ATOM     21  C   UNL d   1      12.658   8.357  -3.109  0.00  0.00     0.029 A 
ATOM     22  C   UNL d   1      12.088   7.089  -2.946  0.00  0.00     0.140 A 
ATOM     23  C   UNL d   1      11.338   6.528  -3.980  0.00  0.00     0.029 A 
ATOM     24  F   UNL d   1      12.316   6.386  -1.816  0.00  0.00    -0.204 F 
ATOM     25  C   UNL d   1      11.112   7.199  -5.182  0.00  0.00     0.000 A 
ENDBRANCH  15  19
ENDBRANCH  10  11
ENDBRANCH   8  10
ENDBRANCH   7   8
ENDBRANCH   1   7
BRANCH   4  26
ATOM     26  C   UNL d   1       9.864   3.701 -15.684  0.00  0.00     0.264 C 
BRANCH  26  27
ATOM     27  C   UNL d   1      10.097   2.246 -16.084  0.00  0.00     0.013 A 
ATOM     28  C   UNL d   1      10.704   1.953 -17.334  0.00  0.00    -0.002 A 
ATOM     29  C   UNL d   1      10.859   0.627 -17.770  0.00  0.00    -0.000 A 
ATOM     30  C   UNL d   1      10.397  -0.419 -16.957  0.00  0.00    -0.000 A 
ATOM     31  C   UNL d   1       9.811  -0.137 -15.713  0.00  0.00    -0.000 A 
ATOM     32  C   UNL d   1       9.648   1.183 -15.273  0.00  0.00    -0.002 A 
ENDBRANCH  26  27
BRANCH  26  33
ATOM     33  C   UNL d   1      11.079   4.570 -16.027  0.00  0.00     0.013 A 
ATOM     34  C   UNL d   1      12.353   4.225 -15.552  0.00  0.00    -0.002 A 
ATOM     35  C   UNL d   1      13.454   5.051 -15.821  0.00  0.00    -0.000 A 
ATOM     36  C   UNL d   1      13.307   6.239 -16.551  0.00  0.00    -0.000 A 
ATOM     37  C   UNL d   1      12.042   6.569 -17.075  0.00  0.00    -0.000 A 
ATOM     38  C   UNL d   1      10.932   5.729 -16.828  0.00  0.00    -0.002 A 
ENDBRANCH  26  33
ENDBRANCH   4  26
TORSDOF 8
