REMARK  3 active torsions:
REMARK  status: ('A' for Active; 'I' for Inactive)
REMARK    1  A    between atoms: C_11  and  C_12 
REMARK    2  A    between atoms: C_12  and  C_13 
REMARK    3  A    between atoms: C_13  and  N_14 
ROOT
ATOM      1  C   UNL d   1       8.356   0.817 -16.714  0.00  0.00     0.043 C 
ENDROOT
BRANCH   1   2
ATOM      2  C   UNL d   1       8.377   1.032 -15.192  0.00  0.00     0.068 A 
ATOM      3  C   UNL d   1       6.995   1.453 -14.690  0.00  0.00     0.173 A 
ATOM      4  O   UNL d   1       5.971   0.778 -14.838  0.00  0.00    -0.291 OA
ATOM      5  C   UNL d   1       7.112   2.755 -14.036  0.00  0.00     0.031 A 
ATOM      6  C   UNL d   1       8.443   3.157 -14.035  0.00  0.00    -0.017 A 
ATOM      7  C   UNL d   1       6.112   3.532 -13.432  0.00  0.00     0.005 A 
ATOM      8  C   UNL d   1       8.836   4.372 -13.437  0.00  0.00     0.025 A 
ATOM      9  C   UNL d   1       9.339   2.167 -14.720  0.00  0.00     0.034 A 
ATOM     10  C   UNL d   1       7.842   5.173 -12.841  0.00  0.00     0.140 A 
ATOM     11  C   UNL d   1       6.491   4.753 -12.824  0.00  0.00     0.030 A 
ATOM     12  F   UNL d   1       8.189   6.351 -12.286  0.00  0.00    -0.204 F 
ENDBRANCH   1   2
BRANCH   1  13
ATOM     13  C   UNL d   1       9.740   0.412 -17.224  0.00  0.00     0.251 C 
BRANCH  13  14
ATOM     14  N   UNL d   1       9.797   0.255 -18.674  0.00  0.00     0.142 N 
ATOM     15  C   UNL d   1       9.741   1.530 -19.405  0.00  0.00     0.276 C 
ATOM     16  C   UNL d   1      10.986   2.397 -19.236  0.00  0.00     0.007 A 
ATOM     17  C   UNL d   1      12.219   1.807 -18.864  0.00  0.00    -0.022 A 
ATOM     18  C   UNL d   1      10.916   3.788 -19.466  0.00  0.00    -0.003 A 
ATOM     19  C   UNL d   1      12.292   0.314 -18.586  0.00  0.00     0.061 C 
ATOM     20  C   UNL d   1      13.358   2.614 -18.695  0.00  0.00    -0.004 A 
ATOM     21  C   UNL d   1      11.026  -0.436 -19.078  0.00  0.00     0.255 C 
ATOM     22  C   UNL d   1      13.283   4.002 -18.919  0.00  0.00    -0.000 A 
ATOM     23  C   UNL d   1      12.065   4.591 -19.311  0.00  0.00    -0.000 A 
ENDBRANCH  13  14
ENDBRANCH   1  13
TORSDOF 3
