REMARK  4 active torsions:
REMARK  status: ('A' for Active; 'I' for Inactive)
REMARK    1  A    between atoms: C_2  and  C_3 
REMARK    2  A    between atoms: C_3  and  N_4 
REMARK    3  A    between atoms: N_4  and  C_5 
REMARK    4  A    between atoms: C_13  and  O_14 
ROOT
ATOM      1  C   UNL d   1      11.117   8.184  -5.775  0.00  0.00     0.261 C 
ATOM      2  C   UNL d   1       9.858   7.335  -5.673  0.00  0.00     0.041 C 
ATOM      3  C   UNL d   1       9.682   6.418  -6.880  0.00  0.00     0.030 C 
ATOM      4  C   UNL d   1       9.919   7.117  -8.197  0.00  0.00    -0.004 A 
ATOM      5  C   UNL d   1      10.582   8.377  -8.240  0.00  0.00    -0.022 A 
ATOM      6  C   UNL d   1      10.791   9.004  -9.469  0.00  0.00    -0.004 A 
ATOM      7  C   UNL d   1      10.322   8.387 -10.619  0.00  0.00     0.002 A 
ATOM      8  C   UNL d   1       9.685   7.155 -10.606  0.00  0.00     0.024 A 
ATOM      9  C   UNL d   1       9.458   6.494  -9.385  0.00  0.00     0.090 A 
ATOM     10  C   UNL d   1      11.055   9.102  -6.987  0.00  0.00     0.062 C 
ENDROOT
BRANCH   1  11
ATOM     11  N   UNL d   1      11.321   8.986  -4.568  0.00  0.00     0.337 N 
BRANCH  11  12
ATOM     12  C   UNL d   1      12.655   8.813  -4.024  0.00  0.00     0.290 C 
BRANCH  12  13
ATOM     13  C   UNL d   1      12.799   7.417  -3.381  0.00  0.00     0.038 C 
ATOM     14  C   UNL d   1      12.098   7.303  -2.033  0.00  0.00     0.002 C 
ENDBRANCH  12  13
ENDBRANCH  11  12
ENDBRANCH   1  11
BRANCH   9  15
ATOM     15  O   UNL d   1       8.805   5.277  -9.306  0.00  0.00    -0.328 OA
ATOM     16  C   UNL d   1       7.971   4.938 -10.411  0.00  0.00     0.181 C 
ENDBRANCH   9  15
TORSDOF 4
