REMARK  4 active torsions:
REMARK  status: ('A' for Active; 'I' for Inactive)
REMARK    1  A    between atoms: C_2  and  C_3 
REMARK    2  A    between atoms: C_2  and  C_6 
REMARK    3  A    between atoms: C_9  and  C_10 
REMARK    4  A    between atoms: C_10  and  C_11 
ROOT
ATOM      1  C   UNL d   1      11.587   7.943  -5.062  0.00  0.00    -0.012 A 
ATOM      2  C   UNL d   1      10.589   7.023  -5.446  0.00  0.00    -0.004 A 
ATOM      3  C   UNL d   1       9.945   7.149  -6.683  0.00  0.00    -0.005 A 
ATOM      4  C   UNL d   1      10.365   8.140  -7.598  0.00  0.00    -0.022 A 
ATOM      5  C   UNL d   1      11.368   9.050  -7.227  0.00  0.00    -0.005 A 
ATOM      6  C   UNL d   1      11.967   8.972  -5.958  0.00  0.00    -0.004 A 
ENDROOT
BRANCH   4   7
ATOM      7  C   UNL d   1       9.730   8.248  -8.964  0.00  0.00     0.034 C 
BRANCH   7   8
ATOM      8  C   UNL d   1      10.017   7.032  -9.876  0.00  0.00     0.062 C 
ATOM      9  C   UNL d   1       9.384   7.171 -11.252  0.00  0.00     0.150 C 
ATOM     10  C   UNL d   1       8.611   5.921 -11.645  0.00  0.00     0.065 C 
ATOM     11  O   UNL d   1       9.460   8.168 -11.970  0.00  0.00    -0.296 OA
ATOM     12  C   UNL d   1       8.998   4.894 -10.584  0.00  0.00     0.008 C 
ATOM     13  C   UNL d   1       9.422   5.707  -9.369  0.00  0.00     0.008 C 
ENDBRANCH   7   8
ENDBRANCH   4   7
BRANCH   1  14
ATOM     14  C   UNL d   1      12.270   7.834  -3.692  0.00  0.00     0.110 C 
ATOM     15  C   UNL d   1      11.989   6.518  -2.920  0.00  0.00     0.016 C 
BRANCH  14  16
ATOM     16  C   UNL d   1      11.951   9.041  -2.792  0.00  0.00     0.189 C 
ATOM     17  O   UNL d   1      12.328   9.131  -1.629  0.00  0.00    -0.647 OA
ATOM     18  O   UNL d   1      11.227  10.008  -3.422  0.00  0.00    -0.647 OA
ENDBRANCH  14  16
ENDBRANCH   1  14
TORSDOF 4
