REMARK  4 active torsions:
REMARK  status: ('A' for Active; 'I' for Inactive)
REMARK    1  A    between atoms: C_2  and  C_5 
REMARK    2  A    between atoms: C_8  and  C_9 
REMARK    3  A    between atoms: C_9  and  N_10 
REMARK    4  A    between atoms: C_13  and  C_14 
ROOT
ATOM      1  N   UNL d   1       9.751   6.301 -11.276  0.00  0.00     0.141 N 
ATOM      2  C   UNL d   1       8.707   5.647 -10.482  0.00  0.00     0.251 C 
ATOM      3  C   UNL d   1       9.151   5.540  -9.030  0.00  0.00     0.036 C 
ATOM      4  C   UNL d   1       9.473   6.927  -8.445  0.00  0.00     0.011 C 
ATOM      5  C   UNL d   1      10.428   7.700  -9.399  0.00  0.00     0.036 C 
ATOM      6  C   UNL d   1       9.909   7.694 -10.826  0.00  0.00     0.251 C 
ENDROOT
BRANCH   1   7
ATOM      7  C   UNL d   1       9.402   6.323 -12.670  0.00  0.00     0.277 C 
BRANCH   7   8
ATOM      8  C   UNL d   1       9.217   4.940 -13.283  0.00  0.00     0.011 A 
ATOM      9  C   UNL d   1      10.337   4.114 -13.538  0.00  0.00    -0.003 A 
ATOM     10  C   UNL d   1      10.159   2.827 -14.062  0.00  0.00    -0.005 A 
ATOM     11  C   UNL d   1       8.852   2.322 -14.343  0.00  0.00    -0.023 A 
ATOM     12  C   UNL d   1       7.751   3.165 -14.082  0.00  0.00    -0.005 A 
ATOM     13  C   UNL d   1       7.932   4.458 -13.552  0.00  0.00    -0.003 A 
BRANCH  11  14
ATOM     14  C   UNL d   1       8.641   0.905 -14.912  0.00  0.00     0.019 C 
ATOM     15  C   UNL d   1       8.144   1.019 -16.362  0.00  0.00     0.004 C 
ATOM     16  C   UNL d   1       7.560   0.146 -14.090  0.00  0.00     0.004 C 
ATOM     17  C   UNL d   1       9.928   0.053 -14.911  0.00  0.00     0.004 C 
ENDBRANCH  11  14
ENDBRANCH   7   8
ENDBRANCH   1   7
BRANCH   4  18
ATOM     18  C   UNL d   1       9.977   6.874  -6.957  0.00  0.00     0.062 C 
ATOM     19  C   UNL d   1      10.119   8.275  -6.373  0.00  0.00     0.172 C 
ATOM     20  C   UNL d   1      11.035   8.458  -5.179  0.00  0.00     0.031 A 
ATOM     21  O   UNL d   1       9.523   9.177  -6.887  0.00  0.00    -0.291 OA
ATOM     22  C   UNL d   1      11.838   7.391  -4.702  0.00  0.00    -0.019 A 
ATOM     23  C   UNL d   1      11.056   9.674  -4.476  0.00  0.00     0.003 A 
ATOM     24  C   UNL d   1      11.751   6.073  -5.349  0.00  0.00     0.027 C 
ATOM     25  C   UNL d   1      12.625   7.529  -3.539  0.00  0.00    -0.004 A 
ATOM     26  C   UNL d   1      11.321   6.161  -6.858  0.00  0.00     0.012 C 
ATOM     27  C   UNL d   1      12.654   8.754  -2.866  0.00  0.00    -0.000 A 
ATOM     28  C   UNL d   1      11.863   9.816  -3.321  0.00  0.00     0.000 A 
ENDBRANCH   4  18
TORSDOF 4
