REMARK  3 active torsions:
REMARK  status: ('A' for Active; 'I' for Inactive)
REMARK    1  A    between atoms: C_4  and  C_5 
REMARK    2  A    between atoms: C_13  and  C_14 
REMARK    3  A    between atoms: C_14  and  C_15 
ROOT
ATOM      1  C   UNL d   1       8.161   6.364  -6.817  0.00  0.00     0.031 C 
ATOM      2  C   UNL d   1       8.793   6.581  -8.177  0.00  0.00    -0.026 A 
ATOM      3  C   UNL d   1       8.442   5.726  -9.232  0.00  0.00    -0.007 A 
ATOM      4  C   UNL d   1       8.730   6.013 -10.586  0.00  0.00     0.002 A 
ATOM      5  C   UNL d   1       9.476   7.168 -10.816  0.00  0.00     0.123 A 
ATOM      6  O   UNL d   1       9.841   7.497 -12.112  0.00  0.00    -0.191 OA
ATOM      7  C   UNL d   1       9.921   8.003  -9.775  0.00  0.00    -0.001 A 
ATOM      8  C   UNL d   1      10.771   9.216 -10.066  0.00  0.00     0.033 C 
ATOM      9  C   UNL d   1       9.569   7.740  -8.428  0.00  0.00    -0.021 A 
ENDROOT
BRANCH   9  10
ATOM     10  C   UNL d   1       9.965   8.704  -7.296  0.00  0.00     0.091 C 
BRANCH  10  11
ATOM     11  C   UNL d   1      10.856   8.074  -6.238  0.00  0.00     0.134 C 
ATOM     12  N   UNL d   1      11.300   6.806  -6.499  0.00  0.00    -0.255 NA
ATOM     13  C   UNL d   1      11.729   6.327  -5.240  0.00  0.00     0.153 C 
ATOM     14  C   UNL d   1      11.885   7.607  -4.400  0.00  0.00     0.153 C 
ATOM     15  N   UNL d   1      11.151   8.614  -5.134  0.00  0.00    -0.255 NA
ENDBRANCH  10  11
ENDBRANCH   9  10
BRANCH   4  16
ATOM     16  C   UNL d   1       8.247   5.056 -11.732  0.00  0.00     0.021 C 
ATOM     17  C   UNL d   1       7.755   5.777 -13.009  0.00  0.00     0.004 C 
ATOM     18  C   UNL d   1       6.999   4.223 -11.350  0.00  0.00     0.004 C 
ATOM     19  C   UNL d   1       9.400   4.112 -12.065  0.00  0.00     0.004 C 
ENDBRANCH   4  16
TORSDOF 3
