REMARK  7 active torsions:
REMARK  status: ('A' for Active; 'I' for Inactive)
REMARK    1  A    between atoms: O_2  and  C_3 
REMARK    2  A    between atoms: C_3  and  C_5 
REMARK       I    between atoms: C_5  and  N_7 
REMARK    3  A    between atoms: N_7  and  C_8 
REMARK    4  A    between atoms: C_11  and  C_12 
REMARK    5  A    between atoms: C_12  and  C_13 
REMARK    6  A    between atoms: C_13  and  N_14 
REMARK    7  A    between atoms: N_17  and  C_18 
ROOT
ATOM      1  N   UNL d   1       7.666   5.955 -12.448  0.00  0.00     0.141 N 
ATOM      2  C   UNL d   1       6.296   5.407 -12.509  0.00  0.00     0.274 C 
ATOM      3  C   UNL d   1       6.317   3.877 -12.363  0.00  0.00     0.137 C 
ATOM      4  N   UNL d   1       7.205   3.312 -13.389  0.00  0.00    -0.343 N 
ATOM      5  C   UNL d   1       8.583   3.829 -13.377  0.00  0.00     0.137 C 
ATOM      6  C   UNL d   1       8.516   5.361 -13.497  0.00  0.00     0.274 C 
ENDROOT
BRANCH   1   7
ATOM      7  C   UNL d   1       8.204   5.801 -11.102  0.00  0.00     0.250 C 
BRANCH   7   8
ATOM      8  C   UNL d   1       9.338   6.792 -10.842  0.00  0.00     0.035 C 
BRANCH   8   9
ATOM      9  C   UNL d   1       9.954   6.623  -9.439  0.00  0.00     0.002 C 
ATOM     10  C   UNL d   1      10.989   7.737  -9.199  0.00  0.00     0.002 C 
ATOM     11  C   UNL d   1      11.596   7.686  -7.790  0.00  0.00     0.024 C 
ATOM     12  C   UNL d   1      10.498   7.702  -6.722  0.00  0.00     0.106 C 
ATOM     13  C   UNL d   1       9.521   6.546  -6.934  0.00  0.00     0.024 C 
ATOM     14  C   UNL d   1       8.893   6.614  -8.312  0.00  0.00     0.002 C 
BRANCH  12  15
ATOM     15  N   UNL d   1      11.096   7.572  -5.403  0.00  0.00    -0.238 NA
ATOM     16  C   UNL d   1      11.462   8.596  -4.624  0.00  0.00     0.279 C 
ATOM     17  O   UNL d   1      11.344   9.774  -4.969  0.00  0.00    -0.268 OA
BRANCH  16  18
ATOM     18  C   UNL d   1      11.907   8.229  -3.205  0.00  0.00     0.195 C 
ATOM     19  C   UNL d   1      12.568   9.401  -2.516  0.00  0.00     0.042 C 
BRANCH  18  20
ATOM     20  O   UNL d   1      12.857   7.189  -3.285  0.00  0.00    -0.345 OA
ATOM     21  C   UNL d   1      12.735   6.245  -2.244  0.00  0.00     0.175 C 
ENDBRANCH  18  20
ENDBRANCH  16  18
ENDBRANCH  12  15
ENDBRANCH   8   9
ENDBRANCH   7   8
ENDBRANCH   1   7
BRANCH   4  22
ATOM     22  C   UNL d   1       6.845   2.184 -14.121  0.00  0.00     0.081 A 
ATOM     23  C   UNL d   1       7.439   1.895 -15.371  0.00  0.00     0.135 A 
ATOM     24  C   UNL d   1       7.067   0.819 -16.138  0.00  0.00     0.121 A 
ATOM     25  O   UNL d   1       8.403   2.592 -16.036  0.00  0.00    -0.298 OA
ATOM     26  C   UNL d   1       6.066  -0.075 -15.718  0.00  0.00     0.026 A 
ATOM     27  O   UNL d   1       7.782   0.813 -17.294  0.00  0.00    -0.299 OA
ATOM     28  C   UNL d   1       5.465   0.157 -14.460  0.00  0.00     0.004 A 
ATOM     29  C   UNL d   1       5.851   1.255 -13.666  0.00  0.00     0.019 A 
ATOM     30  C   UNL d   1       8.641   1.915 -17.227  0.00  0.00     0.304 A 
ENDBRANCH   4  22
TORSDOF 7
