REMARK  4 active torsions:
REMARK  status: ('A' for Active; 'I' for Inactive)
REMARK    1  A    between atoms: N_5  and  C_6 
REMARK    2  A    between atoms: C_19  and  O_20 
REMARK    3  A    between atoms: O_20  and  S_21 
REMARK    4  A    between atoms: S_21  and  C_24 
ROOT
ATOM      1  C   UNL d   1      10.342   4.660 -18.228  0.00  0.00     0.142 C 
ATOM      2  N   UNL d   1       9.454   3.825 -17.769  0.00  0.00    -0.227 NA
ATOM      3  C   UNL d   1       9.717   2.574 -17.190  0.00  0.00     0.101 A 
ATOM      4  C   UNL d   1       8.798   2.142 -16.210  0.00  0.00     0.032 A 
ATOM      5  C   UNL d   1       8.893   0.866 -15.628  0.00  0.00     0.059 A 
ATOM      6 CL   UNL d   1       7.744   0.386 -14.439  0.00  0.00    -0.082 Cl
ATOM      7  C   UNL d   1       9.915  -0.013 -16.027  0.00  0.00     0.013 A 
ATOM      8  C   UNL d   1      10.834   0.392 -17.013  0.00  0.00     0.021 A 
ATOM      9  C   UNL d   1      10.741   1.671 -17.594  0.00  0.00     0.099 A 
ATOM     10  N   UNL d   1      11.702   2.024 -18.535  0.00  0.00    -0.244 NA
ATOM     11  C   UNL d   1      12.435   3.194 -18.390  0.00  0.00     0.084 A 
ATOM     12  C   UNL d   1      13.829   3.072 -18.424  0.00  0.00     0.021 A 
ATOM     13  C   UNL d   1      14.655   4.169 -18.179  0.00  0.00     0.027 A 
ATOM     14  C   UNL d   1      14.088   5.452 -17.979  0.00  0.00     0.114 A 
ATOM     15  C   UNL d   1      12.682   5.573 -17.922  0.00  0.00     0.030 A 
ATOM     16  C   UNL d   1      11.835   4.453 -18.148  0.00  0.00     0.053 A 
ENDROOT
BRANCH  14  17
ATOM     17  O   UNL d   1      14.860   6.593 -17.887  0.00  0.00    -0.224 OA
BRANCH  17  18
ATOM     18  S   UNL d   1      16.547   6.488 -18.070  0.00  0.00     0.374 S 
ATOM     19  O   UNL d   1      17.112   6.080 -16.768  0.00  0.00    -0.189 OA
ATOM     20  O   UNL d   1      16.826   5.701 -19.279  0.00  0.00    -0.189 OA
BRANCH  18  21
ATOM     21  C   UNL d   1      16.960   8.254 -18.417  0.00  0.00     0.524 C 
ATOM     22  F   UNL d   1      17.283   8.357 -19.698  0.00  0.00    -0.155 F 
ATOM     23  F   UNL d   1      15.911   9.031 -18.151  0.00  0.00    -0.155 F 
ATOM     24  F   UNL d   1      18.001   8.618 -17.660  0.00  0.00    -0.155 F 
ENDBRANCH  18  21
ENDBRANCH  17  18
ENDBRANCH  14  17
BRANCH   1  25
ATOM     25  N   UNL d   1       9.953   5.821 -18.897  0.00  0.00    -0.330 N 
ATOM     26  C   UNL d   1       8.819   6.644 -18.486  0.00  0.00     0.138 C 
ATOM     27  C   UNL d   1       7.861   6.889 -19.658  0.00  0.00     0.274 C 
ATOM     28  N   UNL d   1       8.578   7.501 -20.778  0.00  0.00     0.143 N 
ATOM     29  C   UNL d   1       7.653   7.740 -21.868  0.00  0.00     0.286 C 
ATOM     30  C   UNL d   1       9.619   6.576 -21.226  0.00  0.00     0.274 C 
ATOM     31  C   UNL d   1      10.622   6.337 -20.094  0.00  0.00     0.138 C 
ENDBRANCH   1  25
TORSDOF 4
