REMARK  7 active torsions:
REMARK  status: ('A' for Active; 'I' for Inactive)
REMARK       I    between atoms: C_2  and  N_3 
REMARK    1  A    between atoms: C_2  and  C_21 
REMARK    2  A    between atoms: N_3  and  C_4 
REMARK    3  A    between atoms: C_4  and  C_5 
REMARK    4  A    between atoms: C_5  and  C_6 
REMARK    5  A    between atoms: C_6  and  C_7 
REMARK    6  A    between atoms: C_7  and  N_8 
REMARK    7  A    between atoms: C_24  and  C_25 
ROOT
ATOM      1  C   UNL d   1       8.040   1.627 -16.063  0.00  0.00     0.129 C 
ENDROOT
BRANCH   1   2
ATOM      2  N   UNL d   1       8.252   2.611 -15.002  0.00  0.00    -0.234 NA
ATOM      3  C   UNL d   1       9.433   2.908 -14.442  0.00  0.00     0.275 C 
ATOM      4  O   UNL d   1      10.483   2.320 -14.671  0.00  0.00    -0.266 OA
BRANCH   3   5
ATOM      5  C   UNL d   1       9.349   3.995 -13.405  0.00  0.00     0.058 C 
ATOM      6  C   UNL d   1       9.764   3.693 -12.113  0.00  0.00     0.005 C 
ATOM      7  C   UNL d   1       9.638   4.580 -11.051  0.00  0.00     0.000 C 
ATOM      8  C   UNL d   1       9.320   5.903 -11.290  0.00  0.00     0.000 C 
ATOM      9  C   UNL d   1       8.913   6.255 -12.606  0.00  0.00     0.000 C 
ATOM     10  C   UNL d   1       8.891   5.290 -13.656  0.00  0.00     0.005 C 
BRANCH   8  11
ATOM     11  C   UNL d   1       9.499   6.852 -10.176  0.00  0.00     0.000 A 
ATOM     12  C   UNL d   1       9.176   6.474  -8.845  0.00  0.00     0.000 A 
ATOM     13  C   UNL d   1       9.181   7.423  -7.806  0.00  0.00     0.000 A 
ATOM     14  C   UNL d   1       9.553   8.751  -8.087  0.00  0.00     0.000 A 
ATOM     15  C   UNL d   1       9.938   9.109  -9.389  0.00  0.00     0.000 A 
ATOM     16  C   UNL d   1       9.926   8.164 -10.427  0.00  0.00     0.000 A 
ENDBRANCH   8  11
ENDBRANCH   3   5
ENDBRANCH   1   2
BRANCH   1  17
ATOM     17  C   UNL d   1       8.851   1.923 -17.340  0.00  0.00     0.029 C 
BRANCH  17  18
ATOM     18  C   UNL d   1       8.577   3.329 -17.875  0.00  0.00     0.037 C 
BRANCH  18  19
ATOM     19  C   UNL d   1       9.367   3.672 -19.155  0.00  0.00     0.250 C 
BRANCH  19  20
ATOM     20  N   UNL d   1       9.107   5.047 -19.573  0.00  0.00     0.135 N 
ATOM     21  C   UNL d   1       9.456   5.284 -20.976  0.00  0.00     0.224 C 
ATOM     22  C   UNL d   1       9.834   6.784 -21.083  0.00  0.00     0.055 C 
ATOM     23  C   UNL d   1       8.330   4.827 -21.927  0.00  0.00     0.038 C 
ATOM     24  C   UNL d   1       9.790   7.277 -19.644  0.00  0.00     0.042 C 
ATOM     25  C   UNL d   1       8.974   7.641 -22.013  0.00  0.00    -0.025 A 
ATOM     26  C   UNL d   1       9.904   6.006 -18.816  0.00  0.00     0.251 C 
ATOM     27  C   UNL d   1       7.703   7.202 -22.452  0.00  0.00    -0.026 A 
ATOM     28  C   UNL d   1       9.448   8.899 -22.436  0.00  0.00    -0.004 A 
ATOM     29  C   UNL d   1       6.908   8.022 -23.277  0.00  0.00    -0.005 A 
ATOM     30  C   UNL d   1       7.191   5.849 -22.030  0.00  0.00     0.028 C 
ATOM     31  C   UNL d   1       7.389   9.275 -23.692  0.00  0.00    -0.000 A 
ATOM     32  C   UNL d   1       8.665   9.701 -23.289  0.00  0.00    -0.000 A 
ENDBRANCH  19  20
ENDBRANCH  18  19
ENDBRANCH  17  18
ENDBRANCH   1  17
TORSDOF 7
