REMARK  5 active torsions:
REMARK  status: ('A' for Active; 'I' for Inactive)
REMARK    1  A    between atoms: P_2  and  N_3 
REMARK    2  A    between atoms: N_3  and  C_4 
REMARK    3  A    between atoms: C_4  and  C_5 
REMARK    4  A    between atoms: N_11  and  C_12 
REMARK    5  A    between atoms: C_12  and  C_13 
ROOT
ATOM      1  O   UNL d   1      11.049  10.393  -6.497  0.00  0.00    -0.240 OA
ATOM      2  P   UNL d   1      11.267   8.953  -6.766  0.00  0.00     0.411 P 
ATOM      3  O   UNL d   1      12.479   8.658  -7.812  0.00  0.00    -0.283 OA
ATOM      4  C   UNL d   1      12.235   8.763  -9.209  0.00  0.00     0.155 C 
ATOM      5  C   UNL d   1      11.137   7.801  -9.643  0.00  0.00     0.057 C 
ATOM      6  C   UNL d   1       9.834   8.178  -8.944  0.00  0.00     0.109 C 
ATOM      7  N   UNL d   1      10.020   8.014  -7.503  0.00  0.00    -0.291 N 
ENDROOT
BRANCH   2   8
ATOM      8  N   UNL d   1      11.737   8.191  -5.329  0.00  0.00    -0.208 NA
BRANCH   8   9
ATOM      9  C   UNL d   1      11.610   6.766  -5.094  0.00  0.00     0.148 C 
BRANCH   9  10
ATOM     10  C   UNL d   1      11.778   6.417  -3.606  0.00  0.00     0.121 C 
ATOM     11 CL   UNL d   1      12.402   7.724  -2.561  0.00  0.00    -0.112 Cl
ENDBRANCH   9  10
ENDBRANCH   8   9
ENDBRANCH   2   8
BRANCH   7  12
ATOM     12  C   UNL d   1       8.739   7.910  -6.846  0.00  0.00     0.124 C 
BRANCH  12  13
ATOM     13  C   UNL d   1       8.181   6.495  -6.670  0.00  0.00     0.119 C 
ATOM     14 CL   UNL d   1       8.385   5.428  -8.085  0.00  0.00    -0.112 Cl
ENDBRANCH  12  13
ENDBRANCH   7  12
TORSDOF 5
