REMARK  6 active torsions:
REMARK  status: ('A' for Active; 'I' for Inactive)
REMARK    1  A    between atoms: O_2  and  N_3 
REMARK    2  A    between atoms: C_4  and  C_5 
REMARK    3  A    between atoms: C_4  and  C_19 
REMARK    4  A    between atoms: C_5  and  C_6 
REMARK    5  A    between atoms: C_6  and  N_7 
REMARK    6  A    between atoms: N_10  and  C_11 
ROOT
ATOM      1  C   UNL d   1       8.876   3.833 -13.424  0.00  0.00     0.257 C 
ENDROOT
BRANCH   1   2
ATOM      2  C   UNL d   1       9.376   4.196 -14.843  0.00  0.00     0.083 C 
BRANCH   2   3
ATOM      3  C   UNL d   1       9.574   2.993 -15.800  0.00  0.00     0.087 C 
ATOM      4  N   UNL d   1      10.568   2.886 -16.591  0.00  0.00    -0.136 NA
BRANCH   4   5
ATOM      5  O   UNL d   1      11.465   3.964 -16.497  0.00  0.00    -0.234 OA
ATOM      6  C   UNL d   1      12.647   3.630 -17.199  0.00  0.00     0.211 C 
ENDBRANCH   4   5
BRANCH   3   7
ATOM      7  C   UNL d   1       8.505   1.954 -15.805  0.00  0.00     0.017 A 
ATOM      8  C   UNL d   1       7.766   1.711 -16.989  0.00  0.00     0.013 A 
ATOM      9  C   UNL d   1       6.705   0.770 -17.005  0.00  0.00     0.058 A 
ATOM     10  C   UNL d   1       6.377   0.072 -15.826  0.00  0.00     0.011 A 
ATOM     11 CL   UNL d   1       5.839   0.463 -18.471  0.00  0.00    -0.082 Cl
ATOM     12  C   UNL d   1       7.116   0.309 -14.643  0.00  0.00     0.001 A 
ATOM     13  C   UNL d   1       8.198   1.215 -14.635  0.00  0.00     0.001 A 
ENDBRANCH   3   7
ENDBRANCH   2   3
ENDBRANCH   1   2
BRANCH   1  14
ATOM     14  N   UNL d   1       8.635   4.999 -12.575  0.00  0.00     0.141 N 
ATOM     15  C   UNL d   1       8.445   4.477 -11.220  0.00  0.00     0.274 C 
ATOM     16  C   UNL d   1       8.132   5.578 -10.211  0.00  0.00     0.138 C 
ATOM     17  N   UNL d   1       9.195   6.568 -10.280  0.00  0.00    -0.330 N 
ATOM     18  C   UNL d   1       9.440   7.097 -11.610  0.00  0.00     0.138 C 
ATOM     19  C   UNL d   1       9.746   5.945 -12.557  0.00  0.00     0.274 C 
BRANCH  17  20
ATOM     20  C   UNL d   1       9.846   7.102  -9.159  0.00  0.00     0.140 A 
ATOM     21  N   UNL d   1      11.031   7.717  -9.377  0.00  0.00    -0.227 NA
ATOM     22  C   UNL d   1      11.681   8.252  -8.340  0.00  0.00     0.101 A 
ATOM     23  C   UNL d   1      11.204   8.185  -7.010  0.00  0.00     0.021 A 
ATOM     24  C   UNL d   1       9.962   7.552  -6.788  0.00  0.00     0.005 A 
ATOM     25  C   UNL d   1       9.267   7.015  -7.869  0.00  0.00     0.037 A 
ENDBRANCH  17  20
ENDBRANCH   1  14
TORSDOF 6
