REMARK  7 active torsions:
REMARK  status: ('A' for Active; 'I' for Inactive)
REMARK    1  A    between atoms: O_2  and  C_3 
REMARK    2  A    between atoms: C_7  and  N_8 
REMARK    3  A    between atoms: N_11  and  C_12 
REMARK    4  A    between atoms: C_12  and  C_13 
REMARK    5  A    between atoms: N_16  and  C_17 
REMARK    6  A    between atoms: C_23  and  O_24 
REMARK    7  A    between atoms: C_26  and  O_27 
ROOT
ATOM      1  C   UNL d   1       9.584   4.834 -12.162  0.00  0.00     0.058 C 
ATOM      2  C   UNL d   1       8.778   5.830 -12.977  0.00  0.00     0.028 C 
ATOM      3  C   UNL d   1       8.900   5.263 -14.400  0.00  0.00     0.103 C 
ATOM      4  N   UNL d   1       8.990   3.850 -14.221  0.00  0.00    -0.334 N 
ATOM      5  C   UNL d   1       9.460   3.524 -12.906  0.00  0.00     0.105 C 
ENDROOT
BRANCH   1   6
ATOM      6  C   UNL d   1       9.167   4.754 -10.667  0.00  0.00     0.252 C 
BRANCH   6   7
ATOM      7  N   UNL d   1       9.236   6.044  -9.980  0.00  0.00     0.141 N 
ATOM      8  C   UNL d   1      10.588   6.594  -9.966  0.00  0.00     0.274 C 
ATOM      9  C   UNL d   1      10.721   7.933  -9.272  0.00  0.00     0.137 C 
ATOM     10  N   UNL d   1      10.231   7.732  -7.925  0.00  0.00    -0.344 N 
ATOM     11  C   UNL d   1       8.899   7.184  -7.820  0.00  0.00     0.137 C 
ATOM     12  C   UNL d   1       8.817   5.854  -8.585  0.00  0.00     0.274 C 
BRANCH  10  13
ATOM     13  C   UNL d   1      10.878   8.229  -6.796  0.00  0.00     0.058 A 
ATOM     14  C   UNL d   1      11.462   9.496  -6.828  0.00  0.00     0.017 A 
ATOM     15  C   UNL d   1      12.155   9.966  -5.704  0.00  0.00     0.004 A 
ATOM     16  C   UNL d   1      12.257   9.182  -4.542  0.00  0.00     0.024 A 
ATOM     17  C   UNL d   1      11.666   7.896  -4.503  0.00  0.00     0.096 A 
ATOM     18  C   UNL d   1      10.966   7.436  -5.639  0.00  0.00     0.041 A 
BRANCH  17  19
ATOM     19  O   UNL d   1      11.747   7.029  -3.441  0.00  0.00    -0.328 OA
ATOM     20  C   UNL d   1      12.376   7.507  -2.273  0.00  0.00     0.181 C 
ENDBRANCH  17  19
ENDBRANCH  10  13
ENDBRANCH   6   7
ENDBRANCH   1   6
BRANCH   4  21
ATOM     21  C   UNL d   1       8.947   2.940 -15.292  0.00  0.00     0.143 A 
ATOM     22  C   UNL d   1       7.996   1.911 -15.324  0.00  0.00     0.054 A 
ATOM     23  C   UNL d   1       8.013   1.053 -16.455  0.00  0.00     0.088 A 
ATOM     24  C   UNL d   1       7.011   1.722 -14.319  0.00  0.00     0.031 A 
ATOM     25  N   UNL d   1       8.891   1.269 -17.459  0.00  0.00    -0.224 NA
ATOM     26  C   UNL d   1       7.070   0.004 -16.525  0.00  0.00     0.045 A 
ATOM     27  C   UNL d   1       9.727   2.297 -17.344  0.00  0.00     0.200 A 
ATOM     28  N   UNL d   1       9.792   3.157 -16.318  0.00  0.00    -0.207 NA
ATOM     29  C   UNL d   1       6.127  -0.204 -15.489  0.00  0.00     0.118 A 
ATOM     30  C   UNL d   1       6.115   0.639 -14.374  0.00  0.00     0.117 A 
BRANCH  29  31
ATOM     31  O   UNL d   1       5.201  -1.222 -15.489  0.00  0.00    -0.326 OA
ATOM     32  C   UNL d   1       5.061  -2.000 -16.660  0.00  0.00     0.181 C 
ENDBRANCH  29  31
BRANCH  30  33
ATOM     33  O   UNL d   1       5.162   0.410 -13.398  0.00  0.00    -0.326 OA
ATOM     34  C   UNL d   1       5.571   0.629 -12.059  0.00  0.00     0.181 C 
ENDBRANCH  30  33
ENDBRANCH   4  21
TORSDOF 7
