REMARK  6 active torsions:
REMARK  status: ('A' for Active; 'I' for Inactive)
REMARK    1  A    between atoms: C_2  and  C_3 
REMARK    2  A    between atoms: C_3  and  N_4 
REMARK    3  A    between atoms: N_4  and  C_5 
REMARK    4  A    between atoms: N_4  and  C_8 
REMARK    5  A    between atoms: C_5  and  C_6 
REMARK    6  A    between atoms: C_13  and  O_14 
ROOT
ATOM      1  C   UNL d   1       6.119   0.525 -16.558  0.00  0.00     0.224 C 
ATOM      2  C   UNL d   1       6.108   1.325 -17.864  0.00  0.00     0.040 C 
ATOM      3  C   UNL d   1       7.149   0.807 -18.869  0.00  0.00     0.048 C 
ATOM      4  C   UNL d   1       8.519   0.581 -18.235  0.00  0.00     0.057 A 
ATOM      5  N   UNL d   1       9.548   0.398 -19.097  0.00  0.00    -0.227 NA
ATOM      6  C   UNL d   1      10.777   0.200 -18.586  0.00  0.00     0.178 A 
ATOM      7  C   UNL d   1      11.029   0.160 -17.189  0.00  0.00     0.044 A 
ATOM      8  C   UNL d   1       9.967   0.324 -16.302  0.00  0.00     0.001 A 
ATOM      9  C   UNL d   1       8.676   0.538 -16.814  0.00  0.00    -0.006 A 
ATOM     10  C   UNL d   1       7.500   0.721 -15.867  0.00  0.00     0.061 C 
ENDROOT
BRANCH   1  11
ATOM     11  N   UNL d   1       5.754  -0.883 -16.692  0.00  0.00     0.135 N 
BRANCH  11  12
ATOM     12  C   UNL d   1       5.593  -1.512 -15.360  0.00  0.00     0.250 C 
BRANCH  12  13
ATOM     13  C   UNL d   1       4.492  -0.834 -14.505  0.00  0.00     0.035 C 
ATOM     14  C   UNL d   1       4.985   0.341 -13.651  0.00  0.00     0.002 C 
ENDBRANCH  12  13
ENDBRANCH  11  12
BRANCH  11  15
ATOM     15  C   UNL d   1       4.577  -1.155 -17.548  0.00  0.00     0.250 C 
BRANCH  15  16
ATOM     16  C   UNL d   1       4.563  -2.618 -18.031  0.00  0.00     0.035 C 
ATOM     17  C   UNL d   1       3.377  -2.803 -18.984  0.00  0.00     0.002 C 
ENDBRANCH  15  16
ENDBRANCH  11  15
ENDBRANCH   1  11
BRANCH   6  18
ATOM     18  O   UNL d   1      11.747   0.051 -19.542  0.00  0.00    -0.312 OA
ATOM     19  C   UNL d   1      13.068  -0.175 -19.095  0.00  0.00     0.183 C 
ENDBRANCH   6  18
TORSDOF 6
