REMARK  10 active torsions:
REMARK  status: ('A' for Active; 'I' for Inactive)
REMARK    1  A    between atoms: C_2  and  C_4 
REMARK    2  A    between atoms: C_9  and  O_10 
REMARK    3  A    between atoms: O_10  and  C_11 
REMARK    4  A    between atoms: C_11  and  C_12 
REMARK    5  A    between atoms: C_12  and  N_13 
REMARK    6  A    between atoms: C_16  and  N_17 
REMARK    7  A    between atoms: N_17  and  C_18 
REMARK    8  A    between atoms: N_17  and  S_22 
REMARK    9  A    between atoms: C_18  and  C_19 
REMARK   10  A    between atoms: S_22  and  C_25 
ROOT
ATOM      1  N   UNL d   1      10.566   3.702 -15.374  0.00  0.00     0.140 N 
ATOM      2  C   UNL d   1      10.867   4.104 -16.758  0.00  0.00     0.252 C 
ATOM      3  C   UNL d   1      11.111   2.850 -17.627  0.00  0.00     0.058 C 
ATOM      4  C   UNL d   1       9.918   1.900 -17.572  0.00  0.00     0.096 C 
ATOM      5  C   UNL d   1       9.605   1.567 -16.090  0.00  0.00     0.058 C 
ATOM      6  C   UNL d   1       9.372   2.873 -15.338  0.00  0.00     0.252 C 
ENDROOT
BRANCH   4   7
ATOM      7  N   UNL d   1      10.114   0.673 -18.381  0.00  0.00    -0.276 N 
BRANCH   7   8
ATOM      8  C   UNL d   1      11.308  -0.153 -18.103  0.00  0.00     0.113 C 
BRANCH   8   9
ATOM      9  C   UNL d   1      12.486   0.209 -19.014  0.00  0.00     0.023 A 
ATOM     10  C   UNL d   1      13.586  -0.799 -19.243  0.00  0.00     0.002 A 
ATOM     11  C   UNL d   1      12.646  -0.440 -20.368  0.00  0.00     0.002 A 
ENDBRANCH   8   9
ENDBRANCH   7   8
BRANCH   7  12
ATOM     12  S   UNL d   1       8.909   0.151 -19.553  0.00  0.00     0.264 S 
ATOM     13  O   UNL d   1       8.441   1.358 -20.265  0.00  0.00    -0.200 OA
ATOM     14  O   UNL d   1       9.458  -0.974 -20.307  0.00  0.00    -0.200 OA
BRANCH  12  15
ATOM     15  C   UNL d   1       7.527  -0.437 -18.582  0.00  0.00     0.106 A 
ATOM     16  C   UNL d   1       7.075   0.350 -17.484  0.00  0.00     0.043 A 
ATOM     17  C   UNL d   1       6.092  -0.185 -16.631  0.00  0.00     0.141 A 
ATOM     18  C   UNL d   1       5.456  -1.402 -16.913  0.00  0.00     0.030 A 
ATOM     19  F   UNL d   1       5.800   0.489 -15.499  0.00  0.00    -0.204 F 
ATOM     20  C   UNL d   1       5.842  -2.135 -18.072  0.00  0.00     0.003 A 
ATOM     21  C   UNL d   1       6.900  -1.662 -18.901  0.00  0.00     0.013 A 
ENDBRANCH  12  15
ENDBRANCH   7  12
ENDBRANCH   4   7
BRANCH   1  22
ATOM     22  C   UNL d   1      10.390   4.918 -14.567  0.00  0.00     0.283 C 
BRANCH  22  23
ATOM     23  C   UNL d   1      10.005   4.615 -13.108  0.00  0.00     0.184 C 
BRANCH  23  24
ATOM     24  O   UNL d   1       9.806   5.848 -12.431  0.00  0.00    -0.329 OA
BRANCH  24  25
ATOM     25  C   UNL d   1       9.545   5.824 -11.081  0.00  0.00     0.090 A 
ATOM     26  C   UNL d   1       9.607   7.024 -10.341  0.00  0.00    -0.000 A 
ATOM     27  C   UNL d   1       9.438   6.982  -8.941  0.00  0.00    -0.002 A 
ATOM     28  C   UNL d   1       9.140   5.781  -8.270  0.00  0.00    -0.000 A 
ATOM     29  C   UNL d   1       9.057   4.590  -9.003  0.00  0.00     0.002 A 
ATOM     30  C   UNL d   1       9.273   4.622 -10.395  0.00  0.00     0.024 A 
BRANCH  26  31
ATOM     31  C   UNL d   1       9.974   8.326 -11.052  0.00  0.00     0.024 C 
ATOM     32  C   UNL d   1      11.076   9.086 -10.273  0.00  0.00     0.005 C 
ATOM     33  C   UNL d   1       8.764   9.166 -11.459  0.00  0.00     0.005 C 
ENDBRANCH  26  31
ENDBRANCH  24  25
ENDBRANCH  23  24
ENDBRANCH  22  23
ENDBRANCH   1  22
TORSDOF 10
