REMARK  7 active torsions:
REMARK  status: ('A' for Active; 'I' for Inactive)
REMARK    1  A    between atoms: C_2  and  N_4 
REMARK    2  A    between atoms: N_4  and  C_5 
REMARK       I    between atoms: N_4  and  C_22 
REMARK    3  A    between atoms: C_5  and  C_6 
REMARK    4  A    between atoms: C_6  and  C_7 
REMARK    5  A    between atoms: C_7  and  N_8 
REMARK    6  A    between atoms: N_11  and  C_12 
REMARK    7  A    between atoms: C_22  and  C_24 
ROOT
ATOM      1  C   UNL d   1       8.521   5.521  -8.694  0.00  0.00     0.252 C 
ENDROOT
BRANCH   1   2
ATOM      2  C   UNL d   1       9.115   6.725  -7.976  0.00  0.00     0.060 C 
BRANCH   2   3
ATOM      3  C   UNL d   1      10.695   6.830  -8.095  0.00  0.00     0.106 C 
BRANCH   3   4
ATOM      4  N   UNL d   1      11.106   8.248  -8.048  0.00  0.00    -0.319 N 
ATOM      5  C   UNL d   1      11.198   9.015  -6.913  0.00  0.00     0.257 C 
ATOM      6  O   UNL d   1      11.265  10.235  -6.918  0.00  0.00    -0.267 OA
BRANCH   4   7
ATOM      7  C   UNL d   1      11.354   8.826  -9.419  0.00  0.00     0.084 C 
ATOM      8  C   UNL d   1      10.244   8.503 -10.461  0.00  0.00     0.024 C 
ATOM      9  C   UNL d   1      12.722   8.315  -9.981  0.00  0.00     0.024 C 
ENDBRANCH   4   7
BRANCH   5  10
ATOM     10  C   UNL d   1      11.447   8.374  -5.580  0.00  0.00     0.056 C 
ATOM     11  C   UNL d   1      12.336   9.069  -4.698  0.00  0.00     0.005 C 
ATOM     12  C   UNL d   1      12.662   8.543  -3.400  0.00  0.00     0.000 C 
ATOM     13  C   UNL d   1      12.163   7.257  -3.047  0.00  0.00     0.000 C 
ATOM     14  C   UNL d   1      11.317   6.609  -3.951  0.00  0.00     0.000 C 
ATOM     15  C   UNL d   1      10.869   7.147  -5.167  0.00  0.00     0.005 C 
ENDBRANCH   5  10
ENDBRANCH   3   4
ENDBRANCH   2   3
ENDBRANCH   1   2
BRANCH   1  16
ATOM     16  N   UNL d   1       8.631   5.681 -10.127  0.00  0.00     0.141 N 
ATOM     17  C   UNL d   1       9.665   4.829 -10.617  0.00  0.00     0.274 C 
ATOM     18  C   UNL d   1       9.852   5.141 -12.097  0.00  0.00     0.137 C 
ATOM     19  N   UNL d   1       8.661   4.957 -12.902  0.00  0.00    -0.344 N 
ATOM     20  C   UNL d   1       7.495   5.630 -12.359  0.00  0.00     0.137 C 
ATOM     21  C   UNL d   1       7.411   5.329 -10.841  0.00  0.00     0.274 C 
BRANCH  19  22
ATOM     22  C   UNL d   1       8.646   4.066 -13.980  0.00  0.00     0.068 A 
ATOM     23  C   UNL d   1       9.667   4.054 -14.985  0.00  0.00     0.084 A 
ATOM     24  C   UNL d   1       9.562   3.134 -16.045  0.00  0.00     0.070 A 
ATOM     25 CL   UNL d   1      10.998   5.170 -15.002  0.00  0.00    -0.080 Cl
ATOM     26  C   UNL d   1       8.476   2.252 -16.113  0.00  0.00     0.012 A 
ATOM     27 CL   UNL d   1      10.728   3.155 -17.312  0.00  0.00    -0.081 Cl
ATOM     28  C   UNL d   1       7.484   2.243 -15.127  0.00  0.00     0.002 A 
ATOM     29  C   UNL d   1       7.574   3.149 -14.053  0.00  0.00     0.018 A 
ENDBRANCH  19  22
ENDBRANCH   1  16
TORSDOF 7
