REMARK  9 active torsions:
REMARK  status: ('A' for Active; 'I' for Inactive)
REMARK    1  A    between atoms: O_2  and  C_3 
REMARK    2  A    between atoms: C_8  and  N_9 
REMARK    3  A    between atoms: N_12  and  C_13 
REMARK    4  A    between atoms: C_13  and  C_14 
REMARK    5  A    between atoms: C_14  and  N_15 
REMARK       I    between atoms: N_15  and  C_16 
REMARK       I    between atoms: C_16  and  N_18 
REMARK    6  A    between atoms: N_18  and  N_19 
REMARK    7  A    between atoms: N_19  and  C_20 
REMARK    8  A    between atoms: N_19  and  C_27 
REMARK    9  A    between atoms: C_20  and  C_21 
ROOT
ATOM      1  N   UNL d   1       8.026   4.881 -11.411  0.00  0.00    -0.214 NA
ATOM      2  C   UNL d   1       8.882   4.556 -12.378  0.00  0.00     0.381 C 
ATOM      3  O   UNL d   1      10.023   5.026 -12.435  0.00  0.00    -0.241 OA
ATOM      4  N   UNL d   1       8.371   3.664 -13.249  0.00  0.00    -0.110 NA
ENDROOT
BRANCH   1   5
ATOM      5  C   UNL d   1       8.328   5.930 -10.450  0.00  0.00     0.166 C 
BRANCH   5   6
ATOM      6  C   UNL d   1       8.983   5.383  -9.179  0.00  0.00     0.277 C 
BRANCH   6   7
ATOM      7  N   UNL d   1       9.829   6.415  -8.583  0.00  0.00     0.143 N 
ATOM      8  C   UNL d   1       9.030   7.357  -7.789  0.00  0.00     0.274 C 
ATOM      9  C   UNL d   1       9.968   8.420  -7.178  0.00  0.00     0.137 C 
ATOM     10  N   UNL d   1      11.030   7.794  -6.382  0.00  0.00    -0.343 N 
ATOM     11  C   UNL d   1      11.742   6.747  -7.075  0.00  0.00     0.137 C 
ATOM     12  C   UNL d   1      10.703   5.763  -7.623  0.00  0.00     0.274 C 
BRANCH  10  13
ATOM     13  C   UNL d   1      11.337   8.122  -5.065  0.00  0.00     0.079 A 
ATOM     14  C   UNL d   1      11.312   9.452  -4.589  0.00  0.00     0.110 A 
ATOM     15  C   UNL d   1      11.566   9.714  -3.232  0.00  0.00     0.026 A 
ATOM     16  C   UNL d   1      11.855   8.676  -2.358  0.00  0.00     0.002 A 
ATOM     17  C   UNL d   1      11.905   7.354  -2.803  0.00  0.00     0.002 A 
ATOM     18  C   UNL d   1      11.633   7.066  -4.161  0.00  0.00     0.019 A 
BRANCH  14  19
ATOM     19  O   UNL d   1      11.020  10.548  -5.358  0.00  0.00    -0.327 OA
ATOM     20  C   UNL d   1      11.900  10.820  -6.429  0.00  0.00     0.181 C 
ENDBRANCH  14  19
ENDBRANCH  10  13
ENDBRANCH   6   7
ENDBRANCH   5   6
ENDBRANCH   1   5
BRANCH   4  21
ATOM     21  N   UNL d   1       9.156   2.875 -14.108  0.00  0.00    -0.243 N 
BRANCH  21  22
ATOM     22  C   UNL d   1       8.635   1.496 -14.277  0.00  0.00     0.154 C 
BRANCH  22  23
ATOM     23  C   UNL d   1       8.347   1.032 -15.693  0.00  0.00     0.002 A 
ATOM     24  C   UNL d   1       9.398   0.486 -16.475  0.00  0.00    -0.002 A 
ATOM     25  C   UNL d   1       9.123   0.182 -17.846  0.00  0.00    -0.000 A 
ATOM     26  C   UNL d   1       7.818   0.345 -18.401  0.00  0.00    -0.000 A 
ATOM     27  C   UNL d   1       6.777   0.816 -17.579  0.00  0.00    -0.000 A 
ATOM     28  C   UNL d   1       7.035   1.167 -16.244  0.00  0.00    -0.002 A 
ENDBRANCH  22  23
ENDBRANCH  21  22
BRANCH  21  29
ATOM     29  C   UNL d   1      10.097   3.412 -14.997  0.00  0.00     0.079 A 
ATOM     30  C   UNL d   1      11.189   2.637 -15.470  0.00  0.00     0.021 A 
ATOM     31  C   UNL d   1      12.059   3.192 -16.444  0.00  0.00     0.031 A 
ATOM     32  C   UNL d   1      11.887   4.534 -16.899  0.00  0.00     0.140 A 
ATOM     33  C   UNL d   1      10.841   5.312 -16.387  0.00  0.00     0.031 A 
ATOM     34  F   UNL d   1      12.736   5.053 -17.819  0.00  0.00    -0.204 F 
ATOM     35  C   UNL d   1       9.943   4.760 -15.470  0.00  0.00     0.021 A 
ENDBRANCH  21  29
ENDBRANCH   4  21
TORSDOF 9
