REMARK  6 active torsions:
REMARK  status: ('A' for Active; 'I' for Inactive)
REMARK    1  A    between atoms: C_5  and  N_6 
REMARK    2  A    between atoms: N_9  and  C_10 
REMARK    3  A    between atoms: C_10  and  C_11 
REMARK    4  A    between atoms: C_11  and  C_12 
REMARK    5  A    between atoms: C_12  and  C_13 
REMARK    6  A    between atoms: C_13  and  C_14 
ROOT
ATOM      1  N   UNL d   1       6.960   3.182 -14.078  0.00  0.00    -0.330 N 
ATOM      2  C   UNL d   1       8.279   3.784 -14.075  0.00  0.00     0.138 C 
ATOM      3  C   UNL d   1       8.687   4.123 -12.639  0.00  0.00     0.274 C 
ATOM      4  N   UNL d   1       7.669   4.980 -12.010  0.00  0.00     0.141 N 
ATOM      5  C   UNL d   1       6.357   4.300 -11.991  0.00  0.00     0.274 C 
ATOM      6  C   UNL d   1       5.913   3.939 -13.416  0.00  0.00     0.138 C 
ENDROOT
BRANCH   4   7
ATOM      7  C   UNL d   1       8.031   5.322 -10.638  0.00  0.00     0.250 C 
BRANCH   7   8
ATOM      8  C   UNL d   1       9.222   6.293 -10.551  0.00  0.00     0.036 C 
BRANCH   8   9
ATOM      9  C   UNL d   1       9.529   6.683  -9.106  0.00  0.00     0.007 C 
BRANCH   9  10
ATOM     10  C   UNL d   1      10.761   7.605  -8.980  0.00  0.00     0.026 C 
BRANCH  10  11
ATOM     11  C   UNL d   1      11.107   7.965  -7.539  0.00  0.00    -0.022 A 
ATOM     12  C   UNL d   1      11.122   6.993  -6.515  0.00  0.00    -0.002 A 
ATOM     13  C   UNL d   1      11.429   7.365  -5.189  0.00  0.00     0.029 A 
ATOM     14  C   UNL d   1      11.743   8.703  -4.878  0.00  0.00     0.140 A 
ATOM     15  C   UNL d   1      11.746   9.669  -5.903  0.00  0.00     0.029 A 
ATOM     16  F   UNL d   1      12.052   9.054  -3.603  0.00  0.00    -0.204 F 
ATOM     17  C   UNL d   1      11.422   9.299  -7.225  0.00  0.00    -0.002 A 
ENDBRANCH  10  11
ENDBRANCH   9  10
ENDBRANCH   8   9
ENDBRANCH   7   8
ENDBRANCH   4   7
BRANCH   1  18
ATOM     18  C   UNL d   1       6.701   1.960 -14.708  0.00  0.00     0.140 A 
ATOM     19  C   UNL d   1       5.862   1.008 -14.091  0.00  0.00     0.036 A 
ATOM     20  C   UNL d   1       5.577  -0.184 -14.778  0.00  0.00     0.000 A 
ATOM     21  C   UNL d   1       6.115  -0.378 -16.061  0.00  0.00    -0.003 A 
ATOM     22  C   UNL d   1       5.836  -1.650 -16.833  0.00  0.00     0.033 C 
ATOM     23  C   UNL d   1       6.941   0.629 -16.588  0.00  0.00     0.096 A 
ATOM     24  N   UNL d   1       7.253   1.761 -15.928  0.00  0.00    -0.228 NA
ENDBRANCH   1  18
TORSDOF 6
