REMARK  7 active torsions:
REMARK  status: ('A' for Active; 'I' for Inactive)
REMARK       I    between atoms: C_2  and  N_3 
REMARK    1  A    between atoms: C_2  and  C_24 
REMARK    2  A    between atoms: N_3  and  C_4 
REMARK    3  A    between atoms: C_4  and  C_5 
REMARK    4  A    between atoms: C_5  and  C_6 
REMARK    5  A    between atoms: C_6  and  C_7 
REMARK    6  A    between atoms: C_7  and  N_8 
REMARK    7  A    between atoms: N_11  and  C_12 
ROOT
ATOM      1  C   UNL d   1      10.238   3.148 -15.282  0.00  0.00     0.251 C 
ENDROOT
BRANCH   1   2
ATOM      2  C   UNL d   1       9.448   1.934 -15.797  0.00  0.00     0.037 C 
BRANCH   2   3
ATOM      3  C   UNL d   1      10.269   1.062 -16.746  0.00  0.00     0.029 C 
BRANCH   3   4
ATOM      4  C   UNL d   1       9.824  -0.411 -16.694  0.00  0.00     0.129 C 
BRANCH   4   5
ATOM      5  N   UNL d   1       8.702  -0.671 -17.581  0.00  0.00    -0.233 NA
ATOM      6  C   UNL d   1       8.834  -1.007 -18.870  0.00  0.00     0.293 C 
ATOM      7  O   UNL d   1       9.883  -0.875 -19.501  0.00  0.00    -0.264 OA
BRANCH   6   8
ATOM      8  C   UNL d   1       7.588  -1.568 -19.497  0.00  0.00     0.139 A 
ATOM      9  N   UNL d   1       7.408  -1.356 -20.820  0.00  0.00    -0.239 NA
ATOM     10  C   UNL d   1       6.328  -1.899 -21.420  0.00  0.00     0.099 A 
ATOM     11  C   UNL d   1       5.380  -2.686 -20.740  0.00  0.00     0.019 A 
ATOM     12  C   UNL d   1       5.574  -2.918 -19.360  0.00  0.00     0.003 A 
ATOM     13  C   UNL d   1       4.262  -3.236 -21.398  0.00  0.00     0.002 A 
ATOM     14  C   UNL d   1       6.697  -2.356 -18.729  0.00  0.00     0.024 A 
ATOM     15  C   UNL d   1       4.652  -3.701 -18.640  0.00  0.00     0.000 A 
ATOM     16  C   UNL d   1       3.530  -4.246 -19.294  0.00  0.00     0.000 A 
ATOM     17  C   UNL d   1       3.339  -4.018 -20.671  0.00  0.00     0.000 A 
ENDBRANCH   6   8
ENDBRANCH   4   5
ENDBRANCH   3   4
ENDBRANCH   2   3
ENDBRANCH   1   2
BRANCH   1  18
ATOM     18  N   UNL d   1       9.426   3.992 -14.405  0.00  0.00     0.141 N 
ATOM     19  C   UNL d   1       9.056   3.294 -13.165  0.00  0.00     0.274 C 
ATOM     20  C   UNL d   1       8.206   4.200 -12.261  0.00  0.00     0.137 C 
ATOM     21  N   UNL d   1       8.952   5.399 -11.937  0.00  0.00    -0.343 N 
ATOM     22  C   UNL d   1       9.386   6.099 -13.139  0.00  0.00     0.137 C 
ATOM     23  C   UNL d   1      10.224   5.154 -14.030  0.00  0.00     0.274 C 
BRANCH  21  24
ATOM     24  C   UNL d   1       9.157   5.886 -10.604  0.00  0.00     0.076 A 
ATOM     25  C   UNL d   1       9.860   7.081 -10.363  0.00  0.00     0.020 A 
ATOM     26  C   UNL d   1      10.073   7.511  -9.035  0.00  0.00     0.019 A 
ATOM     27  C   UNL d   1       9.544   6.735  -7.968  0.00  0.00     0.082 A 
ATOM     28  C   UNL d   1      10.796   8.690  -8.800  0.00  0.00     0.002 A 
ATOM     29  N   UNL d   1       8.873   5.594  -8.188  0.00  0.00    -0.243 NA
ATOM     30  C   UNL d   1       9.763   7.191  -6.654  0.00  0.00     0.019 A 
ATOM     31  C   UNL d   1       8.671   5.198  -9.468  0.00  0.00     0.116 A 
ATOM     32  C   UNL d   1      10.483   8.380  -6.409  0.00  0.00     0.002 A 
ATOM     33  C   UNL d   1      11.006   9.129  -7.486  0.00  0.00     0.000 A 
ENDBRANCH  21  24
ENDBRANCH   1  18
TORSDOF 7
