REMARK  4 active torsions:
REMARK  status: ('A' for Active; 'I' for Inactive)
REMARK    1  A    between atoms: C_2  and  C_3 
REMARK    2  A    between atoms: C_3  and  N_4 
REMARK    3  A    between atoms: N_4  and  C_5 
REMARK    4  A    between atoms: C_5  and  C_6 
ROOT
ATOM      1  C   UNL d   1       9.759   6.991  -8.496  0.00  0.00     0.077 A 
ATOM      2  C   UNL d   1      10.073   6.591  -7.252  0.00  0.00     0.005 A 
ATOM      3  C   UNL d   1      10.798   7.444  -6.325  0.00  0.00     0.023 A 
ATOM      4  C   UNL d   1      11.143   7.032  -5.022  0.00  0.00     0.002 A 
ATOM      5  C   UNL d   1      11.859   7.909  -4.182  0.00  0.00     0.000 A 
ATOM      6  C   UNL d   1      12.223   9.188  -4.645  0.00  0.00     0.002 A 
ATOM      7  C   UNL d   1      11.877   9.591  -5.950  0.00  0.00     0.025 A 
ATOM      8  C   UNL d   1      11.166   8.718  -6.792  0.00  0.00     0.103 A 
ATOM      9  O   UNL d   1      10.847   9.138  -8.063  0.00  0.00    -0.273 OA
ATOM     10  C   UNL d   1      10.147   8.369  -8.957  0.00  0.00     0.298 A 
ATOM     11  O   UNL d   1       9.866   8.818 -10.068  0.00  0.00    -0.259 OA
ENDROOT
BRANCH   1  12
ATOM     12  C   UNL d   1       8.967   6.077  -9.438  0.00  0.00     0.322 C 
BRANCH  12  13
ATOM     13  N   UNL d   1       9.461   6.111 -10.803  0.00  0.00     0.344 N 
BRANCH  13  14
ATOM     14  C   UNL d   1       8.579   5.383 -11.695  0.00  0.00     0.291 C 
BRANCH  14  15
ATOM     15  C   UNL d   1       9.133   5.483 -13.124  0.00  0.00     0.038 C 
ATOM     16  C   UNL d   1       9.963   4.255 -13.510  0.00  0.00     0.002 C 
ENDBRANCH  14  15
ENDBRANCH  13  14
ENDBRANCH  12  13
ENDBRANCH   1  12
TORSDOF 4
