REMARK  4 active torsions:
REMARK  status: ('A' for Active; 'I' for Inactive)
REMARK    1  A    between atoms: O_2  and  C_3 
REMARK    2  A    between atoms: N_12  and  C_13 
REMARK    3  A    between atoms: C_13  and  C_14 
REMARK    4  A    between atoms: C_14  and  C_15 
ROOT
ATOM      1  C   UNL d   1       5.949  -0.859 -18.978  0.00  0.00     0.090 A 
ATOM      2  C   UNL d   1       4.651  -1.242 -19.390  0.00  0.00     0.024 A 
ATOM      3  C   UNL d   1       3.630  -1.431 -18.450  0.00  0.00     0.002 A 
ATOM      4  C   UNL d   1       3.876  -1.222 -17.086  0.00  0.00    -0.004 A 
ATOM      5  C   UNL d   1       5.140  -0.817 -16.646  0.00  0.00    -0.024 A 
ATOM      6  C   UNL d   1       6.195  -0.644 -17.596  0.00  0.00    -0.002 A 
ATOM      7  C   UNL d   1       7.583  -0.284 -17.074  0.00  0.00     0.057 C 
ATOM      8  C   UNL d   1       8.500   0.603 -17.910  0.00  0.00     0.042 C 
ATOM      9  C   UNL d   1       9.428   1.262 -16.887  0.00  0.00     0.251 C 
ATOM     10  N   UNL d   1       8.894   0.888 -15.581  0.00  0.00     0.136 N 
ATOM     11  C   UNL d   1       7.499   0.512 -15.794  0.00  0.00     0.224 C 
ATOM     12  C   UNL d   1       6.779  -0.268 -14.679  0.00  0.00     0.038 C 
ATOM     13  C   UNL d   1       5.337  -0.565 -15.142  0.00  0.00     0.028 C 
ENDROOT
BRANCH  10  14
ATOM     14  C   UNL d   1       9.154   1.908 -14.559  0.00  0.00     0.255 C 
BRANCH  14  15
ATOM     15  C   UNL d   1       8.342   3.209 -14.771  0.00  0.00     0.062 C 
BRANCH  15  16
ATOM     16  C   UNL d   1       8.287   4.093 -13.550  0.00  0.00    -0.020 A 
ATOM     17  C   UNL d   1       7.027   4.396 -12.991  0.00  0.00    -0.004 A 
ATOM     18  C   UNL d   1       6.941   5.232 -11.869  0.00  0.00    -0.000 A 
ATOM     19  C   UNL d   1       8.116   5.749 -11.295  0.00  0.00    -0.000 A 
ATOM     20  C   UNL d   1       9.371   5.443 -11.853  0.00  0.00    -0.000 A 
ATOM     21  C   UNL d   1       9.464   4.610 -12.982  0.00  0.00    -0.004 A 
ENDBRANCH  15  16
ENDBRANCH  14  15
ENDBRANCH  10  14
BRANCH   1  22
ATOM     22  O   UNL d   1       7.001  -0.704 -19.863  0.00  0.00    -0.328 OA
ATOM     23  C   UNL d   1       6.756  -0.897 -21.247  0.00  0.00     0.181 C 
ENDBRANCH   1  22
TORSDOF 4
