REMARK  6 active torsions:
REMARK  status: ('A' for Active; 'I' for Inactive)
REMARK    1  A    between atoms: O_2  and  C_3 
REMARK    2  A    between atoms: C_7  and  C_8 
REMARK    3  A    between atoms: C_11  and  C_12 
REMARK    4  A    between atoms: C_12  and  N_13 
REMARK    5  A    between atoms: N_16  and  C_17 
REMARK    6  A    between atoms: C_22  and  O_23 
ROOT
ATOM      1  N   UNL d   1       9.461   7.195  -9.474  0.00  0.00     0.148 N 
ATOM      2  C   UNL d   1      10.495   6.312  -8.962  0.00  0.00     0.275 C 
ATOM      3  C   UNL d   1      10.275   6.026  -7.468  0.00  0.00     0.137 C 
ATOM      4  N   UNL d   1      10.147   7.260  -6.703  0.00  0.00    -0.343 N 
ATOM      5  C   UNL d   1       9.169   8.206  -7.241  0.00  0.00     0.137 C 
ATOM      6  C   UNL d   1       9.484   8.461  -8.731  0.00  0.00     0.275 C 
ENDROOT
BRANCH   1   7
ATOM      7  C   UNL d   1       9.605   7.433 -10.909  0.00  0.00     0.302 C 
BRANCH   7   8
ATOM      8  C   UNL d   1       9.088   6.322 -11.783  0.00  0.00     0.122 A 
ATOM      9  S   UNL d   1       7.385   5.897 -11.929  0.00  0.00    -0.068 SA
ATOM     10  C   UNL d   1       7.805   4.679 -13.090  0.00  0.00     0.056 A 
ATOM     11  C   UNL d   1       9.152   4.650 -13.350  0.00  0.00     0.088 A 
ATOM     12  N   UNL d   1       9.856   5.590 -12.591  0.00  0.00    -0.241 NA
BRANCH  11  13
ATOM     13  C   UNL d   1       9.857   3.760 -14.277  0.00  0.00     0.020 A 
ATOM     14  C   UNL d   1       9.412   2.429 -14.404  0.00  0.00     0.002 A 
ATOM     15  C   UNL d   1      10.055   1.550 -15.296  0.00  0.00     0.002 A 
ATOM     16  C   UNL d   1      11.132   1.998 -16.077  0.00  0.00     0.024 A 
ATOM     17  C   UNL d   1      11.590   3.337 -15.978  0.00  0.00     0.094 A 
ATOM     18  C   UNL d   1      10.948   4.210 -15.063  0.00  0.00     0.026 A 
BRANCH  17  19
ATOM     19  O   UNL d   1      12.627   3.833 -16.741  0.00  0.00    -0.328 OA
ATOM     20  C   UNL d   1      13.140   3.006 -17.777  0.00  0.00     0.181 C 
ENDBRANCH  17  19
ENDBRANCH  11  13
ENDBRANCH   7   8
ENDBRANCH   1   7
BRANCH   4  21
ATOM     21  C   UNL d   1      10.977   7.558  -5.612  0.00  0.00     0.079 A 
ATOM     22  C   UNL d   1      11.608   8.822  -5.493  0.00  0.00     0.110 A 
ATOM     23  C   UNL d   1      12.397   9.084  -4.335  0.00  0.00     0.026 A 
ATOM     24  C   UNL d   1      12.557   8.120  -3.325  0.00  0.00     0.002 A 
ATOM     25  C   UNL d   1      11.971   6.853  -3.469  0.00  0.00     0.002 A 
ATOM     26  C   UNL d   1      11.195   6.581  -4.614  0.00  0.00     0.019 A 
BRANCH  22  27
ATOM     27  O   UNL d   1      11.437   9.715  -6.531  0.00  0.00    -0.327 OA
ATOM     28  C   UNL d   1      11.885  11.043  -6.341  0.00  0.00     0.181 C 
ENDBRANCH  22  27
ENDBRANCH   4  21
TORSDOF 6
