REMARK  7 active torsions:
REMARK  status: ('A' for Active; 'I' for Inactive)
REMARK    1  A    between atoms: C_6  and  C_7 
REMARK    2  A    between atoms: C_10  and  S_11 
REMARK    3  A    between atoms: S_11  and  C_12 
REMARK    4  A    between atoms: C_12  and  C_13 
REMARK    5  A    between atoms: C_13  and  C_14 
REMARK    6  A    between atoms: C_14  and  N_15 
REMARK    7  A    between atoms: N_20  and  C_21 
ROOT
ATOM      1  N   UNL d   1      10.284   2.980 -15.892  0.00  0.00     0.138 N 
ATOM      2  C   UNL d   1      11.518   3.755 -15.832  0.00  0.00     0.252 C 
ATOM      3  C   UNL d   1      12.494   2.922 -16.670  0.00  0.00     0.052 C 
ATOM      4  C   UNL d   1      13.431   3.703 -17.594  0.00  0.00     0.021 C 
ATOM      5  C   UNL d   1      13.411   2.871 -18.870  0.00  0.00     0.077 C 
ATOM      6  N   UNL d   1      12.067   2.327 -18.960  0.00  0.00    -0.252 NA
ATOM      7  C   UNL d   1      11.607   2.093 -17.590  0.00  0.00     0.097 C 
ATOM      8  C   UNL d   1      10.190   2.588 -17.286  0.00  0.00     0.266 C 
ENDROOT
BRANCH   1   9
ATOM      9  C   UNL d   1       9.110   3.746 -15.501  0.00  0.00     0.251 C 
BRANCH   9  10
ATOM     10  C   UNL d   1       9.048   3.965 -13.984  0.00  0.00     0.047 C 
BRANCH  10  11
ATOM     11  C   UNL d   1       7.793   4.753 -13.585  0.00  0.00     0.067 C 
BRANCH  11  12
ATOM     12  S   UNL d   1       7.505   4.728 -11.800  0.00  0.00    -0.075 SA
BRANCH  12  13
ATOM     13  C   UNL d   1       8.624   5.970 -11.257  0.00  0.00     0.193 A 
ATOM     14  N   UNL d   1       9.065   6.971 -12.017  0.00  0.00    -0.122 NA
ATOM     15  N   UNL d   1       9.833   7.746 -11.195  0.00  0.00    -0.126 NA
ATOM     16  C   UNL d   1       9.815   7.160  -9.998  0.00  0.00     0.191 A 
ATOM     17  N   UNL d   1       9.085   6.018  -9.999  0.00  0.00    -0.287 N 
ATOM     18  C   UNL d   1       8.793   5.112  -8.889  0.00  0.00     0.134 C 
BRANCH  16  19
ATOM     19  C   UNL d   1      10.554   7.731  -8.880  0.00  0.00     0.151 A 
ATOM     20  C   UNL d   1      10.291   7.949  -7.553  0.00  0.00     0.087 A 
ATOM     21  C   UNL d   1       9.076   7.634  -6.727  0.00  0.00     0.054 C 
ATOM     22  N   UNL d   1      11.387   8.559  -6.973  0.00  0.00    -0.221 NA
ATOM     23  C   UNL d   1      12.260   8.687  -7.966  0.00  0.00     0.225 A 
ATOM     24  O   UNL d   1      11.816   8.199  -9.151  0.00  0.00    -0.282 OA
ENDBRANCH  16  19
ENDBRANCH  12  13
ENDBRANCH  11  12
ENDBRANCH  10  11
ENDBRANCH   9  10
ENDBRANCH   1   9
BRANCH   6  25
ATOM     25  C   UNL d   1      11.804   1.299 -19.894  0.00  0.00     0.038 A 
ATOM     26  C   UNL d   1      10.561   0.630 -19.892  0.00  0.00     0.023 A 
ATOM     27  C   UNL d   1      10.299  -0.417 -20.788  0.00  0.00     0.060 A 
ATOM     28  C   UNL d   1      11.276  -0.809 -21.715  0.00  0.00     0.023 A 
ATOM     29 CL   UNL d   1       8.777  -1.225 -20.720  0.00  0.00    -0.082 Cl
ATOM     30  C   UNL d   1      12.517  -0.148 -21.747  0.00  0.00     0.060 A 
ATOM     31  C   UNL d   1      12.780   0.907 -20.850  0.00  0.00     0.023 A 
ATOM     32 CL   UNL d   1      13.733  -0.631 -22.872  0.00  0.00    -0.082 Cl
ENDBRANCH   6  25
TORSDOF 7
