REMARK  7 active torsions:
REMARK  status: ('A' for Active; 'I' for Inactive)
REMARK       I    between atoms: C_2  and  N_4 
REMARK    1  A    between atoms: N_7  and  C_8 
REMARK    2  A    between atoms: C_11  and  O_12 
REMARK    3  A    between atoms: O_12  and  C_13 
REMARK    4  A    between atoms: C_13  and  C_14 
REMARK    5  A    between atoms: C_17  and  C_18 
REMARK    6  A    between atoms: C_17  and  C_24 
REMARK    7  A    between atoms: C_18  and  N_19 
ROOT
ATOM      1  C   UNL d   1       9.414   3.618 -16.337  0.00  0.00     0.178 C 
ATOM      2  C   UNL d   1       8.811   4.160 -17.648  0.00  0.00     0.177 C 
ATOM      3  O   UNL d   1       9.828   3.831 -18.561  0.00  0.00    -0.327 OA
ATOM      4  C   UNL d   1      11.048   3.930 -17.869  0.00  0.00     0.230 C 
ATOM      5  O   UNL d   1      10.791   3.941 -16.500  0.00  0.00    -0.327 OA
ENDROOT
BRANCH   1   6
ATOM      6  C   UNL d   1       8.904   4.274 -15.038  0.00  0.00     0.181 C 
BRANCH   6   7
ATOM      7  O   UNL d   1       9.782   3.889 -13.994  0.00  0.00    -0.328 OA
BRANCH   7   8
ATOM      8  C   UNL d   1       9.646   4.582 -12.813  0.00  0.00     0.094 A 
ATOM      9  C   UNL d   1       9.711   3.894 -11.619  0.00  0.00     0.026 A 
ATOM     10  C   UNL d   1       9.605   4.532 -10.354  0.00  0.00     0.019 A 
ATOM     11  C   UNL d   1       9.461   5.946 -10.276  0.00  0.00     0.056 A 
ATOM     12  C   UNL d   1       9.365   6.654 -11.508  0.00  0.00     0.019 A 
ATOM     13  C   UNL d   1       9.441   5.962 -12.734  0.00  0.00     0.026 A 
BRANCH  11  14
ATOM     14  N   UNL d   1       9.570   6.609  -9.025  0.00  0.00    -0.344 N 
ATOM     15  C   UNL d   1       9.466   8.071  -8.880  0.00  0.00     0.126 C 
ATOM     16  C   UNL d   1      10.668   8.622  -8.100  0.00  0.00     0.128 C 
ATOM     17  N   UNL d   1      10.816   7.915  -6.825  0.00  0.00    -0.316 N 
ATOM     18  C   UNL d   1      10.806   8.550  -5.635  0.00  0.00     0.234 C 
ATOM     19  C   UNL d   1      10.942   6.452  -6.983  0.00  0.00     0.128 C 
ATOM     20  C   UNL d   1      11.251   7.782  -4.388  0.00  0.00     0.098 C 
ATOM     21  O   UNL d   1      10.483   9.739  -5.503  0.00  0.00    -0.272 OA
ATOM     22  C   UNL d   1       9.718   5.887  -7.753  0.00  0.00     0.126 C 
ENDBRANCH  11  14
ENDBRANCH   7   8
ENDBRANCH   6   7
ENDBRANCH   1   6
BRANCH   4  23
ATOM     23  C   UNL d   1      11.915   2.692 -18.231  0.00  0.00     0.169 C 
BRANCH  23  24
ATOM     24  N   UNL d   1      11.303   1.413 -17.910  0.00  0.00    -0.303 N 
ATOM     25  C   UNL d   1      10.967   0.428 -18.761  0.00  0.00     0.179 A 
ATOM     26  N   UNL d   1      10.363  -0.608 -18.199  0.00  0.00    -0.223 NA
ATOM     27  C   UNL d   1      10.338  -0.282 -16.846  0.00  0.00     0.119 A 
ATOM     28  C   UNL d   1      10.970   0.926 -16.647  0.00  0.00     0.098 A 
ENDBRANCH  23  24
ENDBRANCH   4  23
BRANCH   4  29
ATOM     29  C   UNL d   1      11.739   5.243 -18.287  0.00  0.00     0.041 A 
ATOM     30  C   UNL d   1      12.819   5.802 -17.548  0.00  0.00     0.059 A 
ATOM     31  C   UNL d   1      13.486   6.955 -18.005  0.00  0.00     0.023 A 
ATOM     32 CL   UNL d   1      13.423   5.076 -16.102  0.00  0.00    -0.083 Cl
ATOM     33  C   UNL d   1      13.104   7.569 -19.210  0.00  0.00     0.059 A 
ATOM     34  C   UNL d   1      12.033   7.040 -19.954  0.00  0.00     0.011 A 
ATOM     35 CL   UNL d   1      13.959   8.953 -19.784  0.00  0.00    -0.082 Cl
ATOM     36  C   UNL d   1      11.363   5.885 -19.497  0.00  0.00     0.002 A 
ENDBRANCH   4  29
TORSDOF 7
