REMARK  6 active torsions:
REMARK  status: ('A' for Active; 'I' for Inactive)
REMARK       I    between atoms: C_2  and  N_3 
REMARK    1  A    between atoms: C_2  and  C_27 
REMARK    2  A    between atoms: N_3  and  C_4 
REMARK    3  A    between atoms: C_7  and  C_8 
REMARK    4  A    between atoms: C_8  and  C_9 
REMARK    5  A    between atoms: C_9  and  N_10 
REMARK    6  A    between atoms: N_13  and  C_14 
ROOT
ATOM      1  N   UNL d   1       7.903   4.985 -11.953  0.00  0.00     0.141 N 
ATOM      2  C   UNL d   1       8.901   4.137 -12.612  0.00  0.00     0.274 C 
ATOM      3  C   UNL d   1       8.462   3.831 -14.052  0.00  0.00     0.137 C 
ATOM      4  N   UNL d   1       7.142   3.219 -14.040  0.00  0.00    -0.343 N 
ATOM      5  C   UNL d   1       6.114   3.949 -13.309  0.00  0.00     0.137 C 
ATOM      6  C   UNL d   1       6.615   4.274 -11.889  0.00  0.00     0.274 C 
ENDROOT
BRANCH   1   7
ATOM      7  C   UNL d   1       8.356   5.295 -10.607  0.00  0.00     0.250 C 
BRANCH   7   8
ATOM      8  C   UNL d   1       9.400   6.428 -10.607  0.00  0.00     0.035 C 
BRANCH   8   9
ATOM      9  C   UNL d   1      10.027   6.676  -9.225  0.00  0.00     0.002 C 
ATOM     10  C   UNL d   1      10.948   7.917  -9.267  0.00  0.00     0.002 C 
ATOM     11  C   UNL d   1      11.557   8.225  -7.888  0.00  0.00     0.024 C 
ATOM     12  C   UNL d   1      10.453   8.381  -6.828  0.00  0.00     0.106 C 
ATOM     13  C   UNL d   1       9.556   7.129  -6.771  0.00  0.00     0.024 C 
ATOM     14  C   UNL d   1       8.953   6.831  -8.128  0.00  0.00     0.002 C 
BRANCH  12  15
ATOM     15  N   UNL d   1      11.001   8.753  -5.530  0.00  0.00    -0.238 NA
ATOM     16  C   UNL d   1      11.533   7.935  -4.613  0.00  0.00     0.279 C 
ATOM     17  O   UNL d   1      11.733   6.737  -4.792  0.00  0.00    -0.268 OA
BRANCH  16  18
ATOM     18  C   UNL d   1      11.876   8.584  -3.321  0.00  0.00     0.199 A 
ATOM     19  C   UNL d   1      13.084   8.096  -2.580  0.00  0.00     0.043 A 
ATOM     20  C   UNL d   1      11.725   7.818  -2.029  0.00  0.00     0.043 A 
ATOM     21  O   UNL d   1      11.667   9.985  -3.242  0.00  0.00    -0.216 OA
ENDBRANCH  16  18
ENDBRANCH  12  15
ENDBRANCH   8   9
ENDBRANCH   7   8
ENDBRANCH   1   7
BRANCH   4  22
ATOM     22  C   UNL d   1       6.878   1.984 -14.674  0.00  0.00     0.081 A 
ATOM     23  C   UNL d   1       7.533   1.586 -15.863  0.00  0.00     0.135 A 
ATOM     24  C   UNL d   1       7.227   0.393 -16.486  0.00  0.00     0.121 A 
ATOM     25  O   UNL d   1       8.489   2.232 -16.595  0.00  0.00    -0.298 OA
ATOM     26  C   UNL d   1       6.250  -0.477 -15.980  0.00  0.00     0.026 A 
ATOM     27  O   UNL d   1       7.984   0.243 -17.603  0.00  0.00    -0.299 OA
ATOM     28  C   UNL d   1       5.591  -0.114 -14.789  0.00  0.00     0.004 A 
ATOM     29  C   UNL d   1       5.907   1.100 -14.139  0.00  0.00     0.019 A 
ATOM     30  C   UNL d   1       8.790   1.388 -17.678  0.00  0.00     0.304 A 
ENDBRANCH   4  22
TORSDOF 6
