REMARK  4 active torsions:
REMARK  status: ('A' for Active; 'I' for Inactive)
REMARK    1  A    between atoms: N_9  and  C_10 
REMARK    2  A    between atoms: C_10  and  C_11 
REMARK    3  A    between atoms: C_11  and  C_12 
REMARK    4  A    between atoms: C_12  and  C_13 
ROOT
ATOM      1  C   UNL d   1      10.479   8.175  -8.804  0.00  0.00     0.251 C 
ENDROOT
BRANCH   1   2
ATOM      2  N   UNL d   1      10.650   7.845  -7.389  0.00  0.00     0.142 N 
ATOM      3  C   UNL d   1      11.668   6.808  -7.235  0.00  0.00     0.255 C 
ATOM      4  C   UNL d   1      11.730   6.336  -5.773  0.00  0.00     0.061 C 
ATOM      5  C   UNL d   1      11.795   7.455  -4.769  0.00  0.00    -0.022 A 
ATOM      6  C   UNL d   1      11.441   8.753  -5.191  0.00  0.00     0.007 A 
ATOM      7  C   UNL d   1      12.160   7.199  -3.431  0.00  0.00    -0.004 A 
ATOM      8  C   UNL d   1      11.457   9.801  -4.261  0.00  0.00    -0.003 A 
ATOM      9  C   UNL d   1      11.100   9.027  -6.653  0.00  0.00     0.276 C 
ATOM     10  C   UNL d   1      11.860   9.563  -2.932  0.00  0.00    -0.000 A 
ATOM     11  C   UNL d   1      12.201   8.264  -2.510  0.00  0.00    -0.000 A 
ENDBRANCH   1   2
BRANCH   1  12
ATOM     12  C   UNL d   1       9.597   7.134  -9.514  0.00  0.00     0.043 C 
BRANCH  12  13
ATOM     13  C   UNL d   1       9.343   7.481 -10.998  0.00  0.00     0.068 C 
BRANCH  13  14
ATOM     14  C   UNL d   1       8.777   6.335 -11.775  0.00  0.00     0.139 A 
ATOM     15  N   UNL d   1       7.488   5.989 -11.637  0.00  0.00    -0.229 NA
ATOM     16  C   UNL d   1       7.266   4.898 -12.460  0.00  0.00     0.100 A 
ATOM     17  C   UNL d   1       8.540   4.663 -13.059  0.00  0.00     0.100 A 
ATOM     18  C   UNL d   1       6.149   4.094 -12.761  0.00  0.00     0.021 A 
ATOM     19  N   UNL d   1       9.486   5.572 -12.608  0.00  0.00    -0.229 NA
ATOM     20  C   UNL d   1       8.663   3.598 -13.978  0.00  0.00     0.021 A 
ATOM     21  C   UNL d   1       7.550   2.788 -14.287  0.00  0.00     0.002 A 
ATOM     22  C   UNL d   1       6.300   3.034 -13.678  0.00  0.00     0.002 A 
ENDBRANCH  13  14
ENDBRANCH  12  13
ENDBRANCH   1  12
TORSDOF 4
