REMARK  8 active torsions:
REMARK  status: ('A' for Active; 'I' for Inactive)
REMARK    1  A    between atoms: C_5  and  C_6 
REMARK    2  A    between atoms: C_6  and  C_7 
REMARK    3  A    between atoms: C_6  and  N_14 
REMARK    4  A    between atoms: N_17  and  C_18 
REMARK    5  A    between atoms: C_18  and  C_19 
REMARK    6  A    between atoms: C_19  and  C_20 
REMARK    7  A    between atoms: C_20  and  C_21 
REMARK    8  A    between atoms: C_21  and  C_22 
ROOT
ATOM      1  N   UNL d   1       7.718   0.394 -18.376  0.00  0.00     0.147 N 
ATOM      2  C   UNL d   1       8.301  -0.091 -17.124  0.00  0.00     0.286 C 
ATOM      3  C   UNL d   1       8.402   1.022 -16.065  0.00  0.00     0.285 C 
ATOM      4  N   UNL d   1       9.214   2.140 -16.545  0.00  0.00     0.141 N 
ATOM      5  C   UNL d   1       8.657   2.625 -17.805  0.00  0.00     0.285 C 
ATOM      6  C   UNL d   1       8.545   1.501 -18.860  0.00  0.00     0.286 C 
ENDROOT
BRANCH   1   7
ATOM      7  C   UNL d   1       7.594  -0.684 -19.378  0.00  0.00     0.264 C 
BRANCH   7   8
ATOM      8  C   UNL d   1       6.951  -0.237 -20.688  0.00  0.00     0.013 A 
ATOM      9  C   UNL d   1       7.317  -0.872 -21.895  0.00  0.00     0.000 A 
ATOM     10  C   UNL d   1       6.725  -0.482 -23.113  0.00  0.00     0.029 A 
ATOM     11  C   UNL d   1       5.770   0.551 -23.130  0.00  0.00     0.140 A 
ATOM     12  F   UNL d   1       5.201   0.932 -24.298  0.00  0.00    -0.204 F 
ATOM     13  C   UNL d   1       5.400   1.187 -21.931  0.00  0.00     0.029 A 
ATOM     14  C   UNL d   1       5.975   0.785 -20.710  0.00  0.00     0.000 A 
ENDBRANCH   7   8
BRANCH   7  15
ATOM     15  C   UNL d   1       6.837  -1.913 -18.874  0.00  0.00     0.013 A 
ATOM     16  C   UNL d   1       7.338  -3.201 -19.161  0.00  0.00     0.000 A 
ATOM     17  C   UNL d   1       6.662  -4.350 -18.707  0.00  0.00     0.029 A 
ATOM     18  C   UNL d   1       5.473  -4.216 -17.973  0.00  0.00     0.140 A 
ATOM     19  C   UNL d   1       4.958  -2.935 -17.688  0.00  0.00     0.029 A 
ATOM     20  F   UNL d   1       4.830  -5.331 -17.552  0.00  0.00    -0.204 F 
ATOM     21  C   UNL d   1       5.637  -1.789 -18.142  0.00  0.00     0.000 A 
ENDBRANCH   7  15
ENDBRANCH   1   7
BRANCH   4  22
ATOM     22  C   UNL d   1       9.303   3.210 -15.549  0.00  0.00     0.250 C 
BRANCH  22  23
ATOM     23  C   UNL d   1       9.954   2.804 -14.222  0.00  0.00     0.036 C 
BRANCH  23  24
ATOM     24  C   UNL d   1      10.659   3.971 -13.524  0.00  0.00     0.009 C 
BRANCH  24  25
ATOM     25  C   UNL d   1      12.129   4.138 -13.963  0.00  0.00     0.053 C 
BRANCH  25  26
ATOM     26  C   UNL d   1      12.296   4.650 -15.354  0.00  0.00     0.088 A 
ATOM     27  S   UNL d   1      12.245   3.567 -16.735  0.00  0.00    -0.071 SA
ATOM     28  C   UNL d   1      12.367   4.984 -17.792  0.00  0.00     0.048 A 
ATOM     29  C   UNL d   1      12.490   6.158 -16.994  0.00  0.00     0.087 A 
ATOM     30  C   UNL d   1      12.345   5.049 -19.198  0.00  0.00     0.008 A 
ATOM     31  N   UNL d   1      12.421   5.957 -15.618  0.00  0.00    -0.243 NA
ATOM     32  C   UNL d   1      12.661   7.392 -17.663  0.00  0.00     0.020 A 
ATOM     33  C   UNL d   1      12.680   7.461 -19.070  0.00  0.00     0.002 A 
ATOM     34  C   UNL d   1      12.507   6.292 -19.838  0.00  0.00     0.001 A 
ENDBRANCH  25  26
ENDBRANCH  24  25
ENDBRANCH  23  24
ENDBRANCH  22  23
ENDBRANCH   4  22
TORSDOF 8
