REMARK  9 active torsions:
REMARK  status: ('A' for Active; 'I' for Inactive)
REMARK    1  A    between atoms: C_2  and  N_3 
REMARK       I    between atoms: N_3  and  C_4 
REMARK    2  A    between atoms: C_4  and  C_6 
REMARK    3  A    between atoms: C_10  and  O_11 
REMARK    4  A    between atoms: O_11  and  C_12 
REMARK    5  A    between atoms: C_12  and  C_13 
REMARK    6  A    between atoms: C_13  and  C_14 
REMARK    7  A    between atoms: C_14  and  C_15 
REMARK    8  A    between atoms: C_15  and  N_16 
REMARK    9  A    between atoms: N_19  and  C_20 
ROOT
ATOM      1  C   UNL d   1       6.937   3.517 -12.941  0.00  0.00     0.038 C 
ENDROOT
BRANCH   1   2
ATOM      2  C   UNL d   1       5.926   3.082 -14.019  0.00  0.00     0.035 C 
BRANCH   2   3
ATOM      3  C   UNL d   1       5.614   1.542 -13.914  0.00  0.00     0.149 C 
BRANCH   3   4
ATOM      4  O   UNL d   1       5.567   0.768 -15.125  0.00  0.00    -0.331 OA
BRANCH   4   5
ATOM      5  C   UNL d   1       6.719   0.669 -15.891  0.00  0.00     0.094 A 
ATOM      6  C   UNL d   1       6.631  -0.027 -17.130  0.00  0.00     0.024 A 
ATOM      7  C   UNL d   1       7.804  -0.241 -17.906  0.00  0.00     0.002 A 
ATOM      8  C   UNL d   1       9.052   0.302 -17.474  0.00  0.00     0.005 A 
ATOM      9  C   UNL d   1       9.126   1.081 -16.286  0.00  0.00     0.059 A 
ATOM     10  C   UNL d   1       7.964   1.199 -15.510  0.00  0.00     0.029 A 
BRANCH   9  11
ATOM     11  C   UNL d   1      10.413   1.689 -15.807  0.00  0.00     0.275 C 
ATOM     12  N   UNL d   1      10.355   2.825 -15.097  0.00  0.00    -0.234 NA
ATOM     13  O   UNL d   1      11.469   1.161 -16.138  0.00  0.00    -0.266 OA
BRANCH  12  14
ATOM     14  C   UNL d   1      11.498   3.615 -14.652  0.00  0.00     0.129 C 
ATOM     15  C   UNL d   1      11.379   5.066 -15.126  0.00  0.00     0.029 C 
ENDBRANCH  12  14
ENDBRANCH   9  11
ENDBRANCH   4   5
ENDBRANCH   3   4
ENDBRANCH   2   3
ENDBRANCH   1   2
BRANCH   1  16
ATOM     16  C   UNL d   1       7.342   4.975 -12.909  0.00  0.00     0.251 C 
BRANCH  16  17
ATOM     17  N   UNL d   1       8.448   5.165 -11.981  0.00  0.00     0.141 N 
ATOM     18  C   UNL d   1       8.054   4.830 -10.616  0.00  0.00     0.274 C 
ATOM     19  C   UNL d   1       9.211   4.971  -9.628  0.00  0.00     0.137 C 
ATOM     20  N   UNL d   1       9.651   6.372  -9.666  0.00  0.00    -0.344 N 
ATOM     21  C   UNL d   1       9.881   6.913 -10.994  0.00  0.00     0.137 C 
ATOM     22  C   UNL d   1       8.736   6.597 -11.974  0.00  0.00     0.274 C 
BRANCH  20  23
ATOM     23  C   UNL d   1       9.767   7.155  -8.548  0.00  0.00     0.068 C 
ATOM     24  C   UNL d   1      10.918   8.012  -8.256  0.00  0.00     0.084 C 
ATOM     25  C   UNL d   1      10.932   8.779  -7.082  0.00  0.00     0.070 C 
ATOM     26 CL   UNL d   1      12.300   8.065  -9.309  0.00  0.00    -0.080 Cl
ATOM     27  C   UNL d   1       9.842   8.750  -6.256  0.00  0.00     0.012 C 
ATOM     28 CL   UNL d   1      12.259   9.691  -6.483  0.00  0.00    -0.081 Cl
ATOM     29  C   UNL d   1       8.726   7.955  -6.536  0.00  0.00     0.002 C 
ATOM     30  C   UNL d   1       8.687   7.073  -7.604  0.00  0.00     0.018 C 
ENDBRANCH  20  23
ENDBRANCH  16  17
ENDBRANCH   1  16
TORSDOF 9
