REMARK  5 active torsions:
REMARK  status: ('A' for Active; 'I' for Inactive)
REMARK    1  A    between atoms: N_2  and  C_4 
REMARK    2  A    between atoms: C_12  and  C_13 
REMARK    3  A    between atoms: C_13  and  C_14 
REMARK    4  A    between atoms: C_14  and  N_15 
REMARK    5  A    between atoms: C_18  and  C_19 
ROOT
ATOM      1  N   UNL d   1       8.937   6.139  -9.609  0.00  0.00     0.137 N 
ATOM      2  C   UNL d   1      10.368   6.385  -9.710  0.00  0.00     0.251 C 
ATOM      3  C   UNL d   1      10.828   7.423  -8.691  0.00  0.00     0.041 C 
ATOM      4  C   UNL d   1      10.446   7.010  -7.260  0.00  0.00     0.047 C 
ATOM      5  C   UNL d   1       8.956   6.645  -7.200  0.00  0.00     0.041 C 
ATOM      6  C   UNL d   1       8.594   5.620  -8.285  0.00  0.00     0.251 C 
ENDROOT
BRANCH   1   7
ATOM      7  C   UNL d   1       8.491   5.200 -10.631  0.00  0.00     0.250 C 
BRANCH   7   8
ATOM      8  C   UNL d   1       8.434   5.844 -12.033  0.00  0.00     0.038 C 
BRANCH   8   9
ATOM      9  C   UNL d   1       8.040   4.861 -13.154  0.00  0.00     0.037 C 
ATOM     10  C   UNL d   1       9.175   3.872 -13.495  0.00  0.00     0.174 C 
ATOM     11  C   UNL d   1       8.745   2.752 -14.437  0.00  0.00     0.005 A 
ATOM     12  O   UNL d   1      10.272   4.610 -14.010  0.00  0.00    -0.219 OA
ATOM     13  C   UNL d   1       7.381   2.446 -14.669  0.00  0.00    -0.024 A 
ATOM     14  C   UNL d   1       9.743   1.990 -15.072  0.00  0.00     0.021 A 
ATOM     15  C   UNL d   1       7.042   1.395 -15.542  0.00  0.00    -0.003 A 
ATOM     16  C   UNL d   1       6.262   3.256 -14.030  0.00  0.00     0.026 C 
ATOM     17  C   UNL d   1       8.049   0.645 -16.176  0.00  0.00     0.023 A 
ATOM     18  C   UNL d   1       9.409   0.936 -15.947  0.00  0.00     0.126 A 
ATOM     19  C   UNL d   1       6.724   4.117 -12.853  0.00  0.00     0.008 C 
BRANCH  18  20
ATOM     20  N   UNL d   1      10.471   0.170 -16.619  0.00  0.00    -0.114 N 
ATOM     21  O   UNL d   1      11.522   0.748 -16.861  0.00  0.00    -0.532 OA
ATOM     22  O   UNL d   1      10.252  -1.004 -16.900  0.00  0.00    -0.532 OA
ENDBRANCH  18  20
ENDBRANCH   8   9
ENDBRANCH   7   8
ENDBRANCH   1   7
BRANCH   4  23
ATOM     23  C   UNL d   1      10.795   8.094  -6.276  0.00  0.00     0.087 A 
ATOM     24  C   UNL d   1      11.394   8.027  -5.003  0.00  0.00     0.041 A 
ATOM     25  C   UNL d   1      11.470   9.314  -4.470  0.00  0.00     0.129 A 
ATOM     26  C   UNL d   1      11.861   6.933  -4.247  0.00  0.00     0.006 A 
ATOM     27  O   UNL d   1      10.917  10.147  -5.420  0.00  0.00    -0.211 OA
ATOM     28  C   UNL d   1      12.006   9.583  -3.205  0.00  0.00     0.057 A 
ATOM     29  N   UNL d   1      10.490   9.367  -6.531  0.00  0.00    -0.131 NA
ATOM     30  C   UNL d   1      12.487   8.494  -2.454  0.00  0.00     0.142 A 
ATOM     31  F   UNL d   1      13.046   8.709  -1.241  0.00  0.00    -0.204 F 
ATOM     32  C   UNL d   1      12.405   7.176  -2.967  0.00  0.00     0.030 A 
ENDBRANCH   4  23
TORSDOF 5
