REMARK  7 active torsions:
REMARK  status: ('A' for Active; 'I' for Inactive)
REMARK    1  A    between atoms: C_2  and  C_3 
REMARK    2  A    between atoms: C_3  and  N_4 
REMARK    3  A    between atoms: C_7  and  C_8 
REMARK    4  A    between atoms: C_8  and  N_9 
REMARK       I    between atoms: N_9  and  C_10 
REMARK    5  A    between atoms: C_10  and  C_12 
REMARK    6  A    between atoms: C_15  and  C_16 
REMARK    7  A    between atoms: C_21  and  O_22 
ROOT
ATOM      1  C   UNL d   1       8.743   5.048 -12.803  0.00  0.00     0.106 A 
ATOM      2  C   UNL d   1       9.604   4.554 -13.817  0.00  0.00     0.134 A 
ATOM      3  O   UNL d   1      10.833   5.113 -14.030  0.00  0.00    -0.190 OA
ATOM      4  C   UNL d   1       9.204   3.463 -14.628  0.00  0.00     0.004 A 
ATOM      5  C   UNL d   1       7.936   2.884 -14.438  0.00  0.00     0.011 A 
ATOM      6  C   UNL d   1       7.063   3.392 -13.458  0.00  0.00     0.080 A 
ATOM      7 CL   UNL d   1       5.528   2.653 -13.191  0.00  0.00    -0.080 Cl
ATOM      8  C   UNL d   1       7.461   4.470 -12.645  0.00  0.00     0.111 A 
ENDROOT
BRANCH   1   9
ATOM      9  C   UNL d   1       9.138   6.210 -11.933  0.00  0.00     0.279 C 
ATOM     10  N   UNL d   1       9.145   5.958 -10.622  0.00  0.00    -0.234 NA
ATOM     11  O   UNL d   1       9.379   7.313 -12.427  0.00  0.00    -0.265 OA
BRANCH  10  12
ATOM     12  C   UNL d   1       9.237   6.966  -9.582  0.00  0.00     0.131 C 
BRANCH  12  13
ATOM     13  C   UNL d   1      10.589   6.963  -8.885  0.00  0.00     0.060 C 
ATOM     14  C   UNL d   1      11.653   7.810  -9.601  0.00  0.00     0.039 C 
ATOM     15  C   UNL d   1      12.081   8.802  -8.530  0.00  0.00     0.250 C 
ATOM     16  N   UNL d   1      11.810   8.146  -7.263  0.00  0.00     0.137 N 
ATOM     17  C   UNL d   1      10.496   7.566  -7.484  0.00  0.00     0.252 C 
BRANCH  16  18
ATOM     18  C   UNL d   1      11.842   9.084  -6.148  0.00  0.00     0.250 C 
BRANCH  18  19
ATOM     19  C   UNL d   1      11.564   8.365  -4.816  0.00  0.00     0.035 C 
ATOM     20  C   UNL d   1      11.662   9.300  -3.603  0.00  0.00     0.002 C 
ENDBRANCH  18  19
ENDBRANCH  16  18
ENDBRANCH  12  13
ENDBRANCH  10  12
ENDBRANCH   1   9
BRANCH   8  21
ATOM     21  O   UNL d   1       6.593   4.911 -11.678  0.00  0.00    -0.327 OA
ATOM     22  C   UNL d   1       5.865   6.079 -12.026  0.00  0.00     0.181 C 
ENDBRANCH   8  21
BRANCH   4  23
ATOM     23  C   UNL d   1      10.102   2.930 -15.737  0.00  0.00     0.029 C 
ATOM     24  C   UNL d   1      11.286   2.096 -15.212  0.00  0.00     0.005 C 
ENDBRANCH   4  23
TORSDOF 7
