REMARK  8 active torsions:
REMARK  status: ('A' for Active; 'I' for Inactive)
REMARK    1  A    between atoms: O_2  and  C_3 
REMARK    2  A    between atoms: C_8  and  N_9 
REMARK    3  A    between atoms: N_12  and  C_13 
REMARK    4  A    between atoms: C_13  and  C_14 
REMARK    5  A    between atoms: C_14  and  C_15 
REMARK    6  A    between atoms: C_15  and  C_16 
REMARK    7  A    between atoms: C_16  and  N_17 
REMARK       I    between atoms: N_17  and  C_18 
REMARK    8  A    between atoms: C_18  and  C_20 
ROOT
ATOM      1  N   UNL d   1      10.141   3.627 -15.076  0.00  0.00    -0.343 N 
ATOM      2  C   UNL d   1       9.267   4.788 -15.016  0.00  0.00     0.137 C 
ATOM      3  C   UNL d   1       9.389   5.525 -13.662  0.00  0.00     0.274 C 
ATOM      4  N   UNL d   1       9.192   4.604 -12.543  0.00  0.00     0.141 N 
ATOM      5  C   UNL d   1      10.185   3.537 -12.643  0.00  0.00     0.274 C 
ATOM      6  C   UNL d   1      10.046   2.728 -13.934  0.00  0.00     0.137 C 
ENDROOT
BRANCH   4   7
ATOM      7  C   UNL d   1       9.330   5.394 -11.312  0.00  0.00     0.251 C 
BRANCH   7   8
ATOM      8  C   UNL d   1       9.185   4.565 -10.031  0.00  0.00     0.037 C 
BRANCH   8   9
ATOM      9  C   UNL d   1       9.579   5.305  -8.754  0.00  0.00     0.029 C 
BRANCH   9  10
ATOM     10  C   UNL d   1       8.928   6.677  -8.605  0.00  0.00     0.129 C 
BRANCH  10  11
ATOM     11  N   UNL d   1       9.270   7.271  -7.321  0.00  0.00    -0.234 NA
ATOM     12  C   UNL d   1      10.219   8.212  -7.158  0.00  0.00     0.275 C 
ATOM     13  O   UNL d   1      10.653   8.934  -8.053  0.00  0.00    -0.266 OA
BRANCH  12  14
ATOM     14  C   UNL d   1      10.788   8.284  -5.782  0.00  0.00     0.058 A 
ATOM     15  C   UNL d   1      10.979   9.536  -5.157  0.00  0.00     0.006 A 
ATOM     16  C   UNL d   1      11.542   9.582  -3.864  0.00  0.00     0.012 A 
ATOM     17  C   UNL d   1      11.968   8.401  -3.232  0.00  0.00     0.058 A 
ATOM     18  C   UNL d   1      11.805   7.156  -3.865  0.00  0.00     0.012 A 
ATOM     19 CL   UNL d   1      12.657   8.456  -1.662  0.00  0.00    -0.082 Cl
ATOM     20  C   UNL d   1      11.205   7.102  -5.135  0.00  0.00     0.006 A 
ENDBRANCH  12  14
ENDBRANCH  10  11
ENDBRANCH   9  10
ENDBRANCH   8   9
ENDBRANCH   7   8
ENDBRANCH   4   7
BRANCH   1  21
ATOM     21  C   UNL d   1      11.094   3.422 -16.088  0.00  0.00     0.079 A 
ATOM     22  C   UNL d   1      11.950   4.467 -16.536  0.00  0.00     0.110 A 
ATOM     23  C   UNL d   1      12.860   4.200 -17.595  0.00  0.00     0.026 A 
ATOM     24  C   UNL d   1      12.933   2.919 -18.171  0.00  0.00     0.002 A 
ATOM     25  C   UNL d   1      12.113   1.879 -17.699  0.00  0.00     0.002 A 
ATOM     26  C   UNL d   1      11.204   2.136 -16.654  0.00  0.00     0.019 A 
BRANCH  22  27
ATOM     27  O   UNL d   1      11.869   5.685 -15.893  0.00  0.00    -0.327 OA
ATOM     28  C   UNL d   1      12.647   6.763 -16.376  0.00  0.00     0.181 C 
ENDBRANCH  22  27
ENDBRANCH   1  21
TORSDOF 8
