REMARK  10 active torsions:
REMARK  status: ('A' for Active; 'I' for Inactive)
REMARK    1  A    between atoms: O_2  and  C_3 
REMARK    2  A    between atoms: C_9  and  C_10 
REMARK    3  A    between atoms: C_12  and  C_13 
REMARK    4  A    between atoms: C_13  and  N_14 
REMARK    5  A    between atoms: N_14  and  C_15 
REMARK    6  A    between atoms: C_15  and  C_16 
REMARK    7  A    between atoms: C_16  and  C_17 
REMARK    8  A    between atoms: C_17  and  C_18 
REMARK    9  A    between atoms: C_18  and  O_19 
REMARK   10  A    between atoms: O_19  and  C_20 
ROOT
ATOM      1  C   UNL d   1       9.452   6.402 -12.303  0.00  0.00     0.290 C 
ENDROOT
BRANCH   1   2
ATOM      2  N   UNL d   1       8.253   5.787 -12.828  0.00  0.00     0.339 N 
BRANCH   2   3
ATOM      3  C   UNL d   1       8.160   4.427 -12.304  0.00  0.00     0.290 C 
BRANCH   3   4
ATOM      4  C   UNL d   1       6.684   4.013 -12.363  0.00  0.00     0.041 A 
ATOM      5  C   UNL d   1       6.221   2.907 -13.302  0.00  0.00     0.026 A 
ATOM      6  C   UNL d   1       5.776   4.311 -13.554  0.00  0.00     0.007 A 
BRANCH   5   7
ATOM      7  C   UNL d   1       7.192   2.225 -14.241  0.00  0.00     0.001 A 
ATOM      8  C   UNL d   1       7.133   0.833 -14.469  0.00  0.00     0.090 A 
ATOM      9  C   UNL d   1       8.132   0.248 -15.289  0.00  0.00     0.025 A 
ATOM     10  C   UNL d   1       9.150   0.992 -15.894  0.00  0.00     0.013 A 
ATOM     11  C   UNL d   1       9.180   2.373 -15.681  0.00  0.00     0.058 A 
ATOM     12 CL   UNL d   1      10.429   3.351 -16.354  0.00  0.00    -0.082 Cl
ATOM     13  C   UNL d   1       8.218   2.959 -14.874  0.00  0.00     0.009 A 
BRANCH   8  14
ATOM     14  O   UNL d   1       6.147   0.120 -13.820  0.00  0.00    -0.328 OA
ATOM     15  C   UNL d   1       5.919  -1.214 -14.228  0.00  0.00     0.181 C 
ENDBRANCH   8  14
ENDBRANCH   5   7
ENDBRANCH   3   4
ENDBRANCH   2   3
ENDBRANCH   1   2
BRANCH   1  16
ATOM     16  C   UNL d   1       9.035   7.367 -11.205  0.00  0.00     0.041 C 
BRANCH  16  17
ATOM     17  C   UNL d   1      10.239   8.012 -10.524  0.00  0.00     0.035 C 
BRANCH  17  18
ATOM     18  C   UNL d   1       9.822   9.053  -9.469  0.00  0.00     0.149 C 
BRANCH  18  19
ATOM     19  O   UNL d   1      10.946   9.426  -8.682  0.00  0.00    -0.331 OA
BRANCH  19  20
ATOM     20  C   UNL d   1      11.138   8.718  -7.519  0.00  0.00     0.096 A 
ATOM     21  C   UNL d   1      11.371   9.450  -6.329  0.00  0.00     0.043 A 
ATOM     22  C   UNL d   1      11.581   8.774  -5.110  0.00  0.00     0.087 A 
ATOM     23  C   UNL d   1      11.579   7.374  -5.071  0.00  0.00     0.018 A 
ATOM     24  N   UNL d   1      11.839   9.463  -3.908  0.00  0.00    -0.208 NA
ATOM     25  C   UNL d   1      11.392   6.662  -6.260  0.00  0.00     0.004 A 
ATOM     26  C   UNL d   1      11.853   6.704  -3.803  0.00  0.00     0.006 A 
ATOM     27  C   UNL d   1      11.143   7.302  -7.477  0.00  0.00     0.024 A 
ATOM     28  C   UNL d   1      12.092   7.416  -2.692  0.00  0.00     0.063 A 
ATOM     29  C   UNL d   1      12.091   8.870  -2.725  0.00  0.00     0.279 A 
ATOM     30  O   UNL d   1      12.229   9.538  -1.714  0.00  0.00    -0.265 OA
ENDBRANCH  19  20
ENDBRANCH  18  19
ENDBRANCH  17  18
ENDBRANCH  16  17
ENDBRANCH   1  16
TORSDOF 10
