REMARK  16 active torsions:
REMARK  status: ('A' for Active; 'I' for Inactive)
REMARK    1  A    between atoms: O_2  and  C_3 
REMARK    2  A    between atoms: C_8  and  N_9 
REMARK    3  A    between atoms: N_12  and  C_13 
REMARK    4  A    between atoms: C_13  and  C_14 
REMARK    5  A    between atoms: C_15  and  C_16 
REMARK    6  A    between atoms: C_16  and  N_17 
REMARK       I    between atoms: N_17  and  C_18 
REMARK    7  A    between atoms: C_18  and  C_20 
REMARK    8  A    between atoms: C_24  and  O_25 
REMARK    9  A    between atoms: O_25  and  C_26 
REMARK   10  A    between atoms: C_26  and  C_27 
REMARK   11  A    between atoms: C_27  and  O_28 
REMARK   12  A    between atoms: O_28  and  C_29 
REMARK   13  A    between atoms: C_29  and  C_30 
REMARK   14  A    between atoms: C_30  and  O_31 
REMARK   15  A    between atoms: O_31  and  C_32 
REMARK   16  A    between atoms: C_32  and  C_33 
ROOT
ATOM      1  N   UNL d   1      10.144   0.881 -18.001  0.00  0.00    -0.228 NA
ATOM      2  C   UNL d   1       9.692   0.167 -16.964  0.00  0.00     0.293 C 
ATOM      3  O   UNL d   1       9.892  -1.036 -16.829  0.00  0.00    -0.264 OA
ENDROOT
BRANCH   2   4
ATOM      4  C   UNL d   1       8.845   0.905 -16.009  0.00  0.00     0.139 A 
ATOM      5  N   UNL d   1       7.745   0.271 -15.442  0.00  0.00    -0.241 NA
ATOM      6  C   UNL d   1       7.064   1.135 -14.598  0.00  0.00     0.082 A 
ATOM      7  C   UNL d   1       7.758   2.361 -14.693  0.00  0.00     0.021 A 
ATOM      8  C   UNL d   1       5.910   0.984 -13.798  0.00  0.00     0.021 A 
ATOM      9  C   UNL d   1       8.901   2.188 -15.520  0.00  0.00     0.026 A 
ATOM     10  C   UNL d   1       7.241   3.439 -13.980  0.00  0.00     0.026 A 
ATOM     11  C   UNL d   1       6.136   3.319 -13.098  0.00  0.00     0.094 A 
ATOM     12  C   UNL d   1       5.468   2.082 -13.026  0.00  0.00     0.026 A 
BRANCH  11  13
ATOM     13  O   UNL d   1       5.697   4.314 -12.245  0.00  0.00    -0.328 OA
BRANCH  13  14
ATOM     14  C   UNL d   1       6.362   5.570 -12.230  0.00  0.00     0.181 C 
BRANCH  14  15
ATOM     15  C   UNL d   1       7.875   5.486 -11.888  0.00  0.00     0.175 C 
BRANCH  15  16
ATOM     16  O   UNL d   1       8.070   5.206 -10.518  0.00  0.00    -0.349 OA
BRANCH  16  17
ATOM     17  C   UNL d   1       9.452   4.990 -10.276  0.00  0.00     0.174 C 
BRANCH  17  18
ATOM     18  C   UNL d   1       9.611   5.141  -8.789  0.00  0.00     0.174 C 
BRANCH  18  19
ATOM     19  O   UNL d   1       9.507   6.523  -8.498  0.00  0.00    -0.349 OA
BRANCH  19  20
ATOM     20  C   UNL d   1       9.011   6.772  -7.195  0.00  0.00     0.180 C 
BRANCH  20  21
ATOM     21  C   UNL d   1       8.873   8.280  -6.972  0.00  0.00     0.225 C 
ATOM     22  F   UNL d   1      10.071   8.838  -6.808  0.00  0.00    -0.232 F 
ENDBRANCH  20  21
ENDBRANCH  19  20
ENDBRANCH  18  19
ENDBRANCH  17  18
ENDBRANCH  16  17
ENDBRANCH  15  16
ENDBRANCH  14  15
ENDBRANCH  13  14
ENDBRANCH  11  13
ENDBRANCH   2   4
BRANCH   1  23
ATOM     23  C   UNL d   1      10.843   0.300 -19.134  0.00  0.00     0.155 C 
BRANCH  23  24
ATOM     24  C   UNL d   1      11.277   1.385 -20.090  0.00  0.00    -0.003 C 
ATOM     25  C   UNL d   1      12.553   1.640 -20.420  0.00  0.00     0.006 C 
BRANCH  25  26
ATOM     26  C   UNL d   1      12.979   2.731 -21.389  0.00  0.00     0.276 C 
BRANCH  26  27
ATOM     27  N   UNL d   1      13.914   3.679 -20.793  0.00  0.00     0.145 N 
ATOM     28  C   UNL d   1      13.243   4.453 -19.737  0.00  0.00     0.275 C 
ATOM     29  C   UNL d   1      14.220   5.454 -19.089  0.00  0.00     0.137 C 
ATOM     30  N   UNL d   1      14.792   6.310 -20.119  0.00  0.00    -0.343 N 
ATOM     31  C   UNL d   1      15.394   5.619 -21.250  0.00  0.00     0.137 C 
ATOM     32  C   UNL d   1      14.386   4.607 -21.833  0.00  0.00     0.275 C 
BRANCH  30  33
ATOM     33  C   UNL d   1      14.771   7.708 -20.003  0.00  0.00     0.079 A 
ATOM     34  C   UNL d   1      14.354   8.549 -21.072  0.00  0.00     0.110 A 
ATOM     35  C   UNL d   1      14.343   9.954 -20.869  0.00  0.00     0.026 A 
ATOM     36  C   UNL d   1      14.735  10.503 -19.639  0.00  0.00     0.002 A 
ATOM     37  C   UNL d   1      15.143   9.671 -18.586  0.00  0.00     0.002 A 
ATOM     38  C   UNL d   1      15.158   8.279 -18.768  0.00  0.00     0.019 A 
BRANCH  34  39
ATOM     39  O   UNL d   1      13.953   7.960 -22.251  0.00  0.00    -0.327 OA
ATOM     40  C   UNL d   1      13.404   8.784 -23.272  0.00  0.00     0.181 C 
ENDBRANCH  34  39
ENDBRANCH  30  33
ENDBRANCH  26  27
ENDBRANCH  25  26
ENDBRANCH  23  24
ENDBRANCH   1  23
TORSDOF 16
