REMARK  1 active torsions:
REMARK  status: ('A' for Active; 'I' for Inactive)
REMARK       I    between atoms: C_2  and  N_4 
REMARK    1  A    between atoms: N_4  and  C_5 
ROOT
ATOM      1  C   UNL d   1      11.202   8.392  -6.386  0.00  0.00     0.086 A 
ATOM      2  C   UNL d   1      10.003   7.637  -6.438  0.00  0.00     0.019 A 
ATOM      3  C   UNL d   1       9.449   7.275  -7.676  0.00  0.00     0.004 A 
ATOM      4  C   UNL d   1      10.079   7.668  -8.869  0.00  0.00     0.028 A 
ATOM      5  C   UNL d   1      11.271   8.419  -8.829  0.00  0.00     0.133 A 
ATOM      6  O   UNL d   1      11.858   8.797 -10.006  0.00  0.00    -0.190 OA
ATOM      7  C   UNL d   1      11.828   8.788  -7.588  0.00  0.00     0.047 A 
ENDROOT
BRANCH   1   8
ATOM      8  N   UNL d   1      11.756   8.798  -5.144  0.00  0.00    -0.212 NA
ATOM      9  C   UNL d   1      11.865   8.029  -4.048  0.00  0.00     0.256 C 
ATOM     10  C   UNL d   1      12.399   8.696  -2.788  0.00  0.00     0.100 C 
ATOM     11  O   UNL d   1      11.590   6.831  -4.020  0.00  0.00    -0.270 OA
ENDBRANCH   1   8
TORSDOF 1
