REMARK  4 active torsions:
REMARK  status: ('A' for Active; 'I' for Inactive)
REMARK    1  A    between atoms: C_2  and  C_3 
REMARK    2  A    between atoms: C_8  and  N_9 
REMARK    3  A    between atoms: N_20  and  S_21 
REMARK    4  A    between atoms: S_21  and  C_24 
ROOT
ATOM      1  C   UNL d   1      11.185   2.770 -16.608  0.00  0.00     0.105 C 
ATOM      2  C   UNL d   1      11.902   3.098 -15.300  0.00  0.00     0.093 C 
ATOM      3  C   UNL d   1      11.023   3.859 -14.348  0.00  0.00     0.177 C 
ATOM      4  O   UNL d   1      11.559   4.747 -13.680  0.00  0.00    -0.291 OA
ATOM      5  C   UNL d   1       9.573   3.463 -14.356  0.00  0.00     0.061 A 
ATOM      6  C   UNL d   1       8.619   4.043 -13.452  0.00  0.00     0.041 A 
ATOM      7  C   UNL d   1       7.258   3.675 -13.492  0.00  0.00     0.011 A 
ATOM      8  C   UNL d   1       6.812   2.749 -14.425  0.00  0.00     0.003 A 
ATOM      9  C   UNL d   1       7.713   2.219 -15.353  0.00  0.00     0.018 A 
ATOM     10  C   UNL d   1       9.091   2.559 -15.349  0.00  0.00     0.074 A 
ATOM     11  N   UNL d   1       9.903   2.051 -16.418  0.00  0.00    -0.255 N 
ENDROOT
BRANCH  11  12
ATOM     12  S   UNL d   1       9.259   1.067 -17.741  0.00  0.00     0.268 S 
ATOM     13  O   UNL d   1       8.776  -0.187 -17.126  0.00  0.00    -0.200 OA
ATOM     14  O   UNL d   1       8.342   1.930 -18.488  0.00  0.00    -0.200 OA
BRANCH  12  15
ATOM     15  C   UNL d   1      10.623   0.652 -18.775  0.00  0.00     0.104 A 
ATOM     16  C   UNL d   1      10.874   1.406 -19.930  0.00  0.00     0.013 A 
ATOM     17  C   UNL d   1      11.986   1.085 -20.725  0.00  0.00     0.001 A 
ATOM     18  C   UNL d   1      12.814  -0.015 -20.373  0.00  0.00     0.000 A 
ATOM     19  C   UNL d   1      12.278   1.856 -21.867  0.00  0.00     0.000 A 
ATOM     20  C   UNL d   1      12.534  -0.774 -19.216  0.00  0.00     0.001 A 
ATOM     21  C   UNL d   1      13.912  -0.350 -21.184  0.00  0.00     0.000 A 
ATOM     22  C   UNL d   1      11.427  -0.437 -18.419  0.00  0.00     0.013 A 
ATOM     23  C   UNL d   1      14.189   0.412 -22.334  0.00  0.00     0.000 A 
ATOM     24  C   UNL d   1      13.380   1.515 -22.673  0.00  0.00     0.000 A 
ENDBRANCH  12  15
ENDBRANCH  11  12
BRANCH   1  25
ATOM     25  C   UNL d   1      11.080   3.998 -17.571  0.00  0.00     0.024 C 
ATOM     26  C   UNL d   1       9.880   4.939 -17.349  0.00  0.00     0.002 C 
ENDBRANCH   1  25
BRANCH   6  27
ATOM     27  N   UNL d   1       9.021   4.970 -12.487  0.00  0.00    -0.248 NA
ATOM     28  C   UNL d   1       8.967   4.424 -11.156  0.00  0.00     0.112 C 
ATOM     29  C   UNL d   1       9.611   5.371 -10.128  0.00  0.00     0.268 C 
ATOM     30  N   UNL d   1       9.073   6.702 -10.256  0.00  0.00     0.142 N 
ATOM     31  C   UNL d   1       9.171   7.232 -11.613  0.00  0.00     0.268 C 
ATOM     32  C   UNL d   1       9.594   7.621  -9.276  0.00  0.00     0.285 C 
ATOM     33  C   UNL d   1       8.450   6.298 -12.614  0.00  0.00     0.112 C 
ENDBRANCH   6  27
TORSDOF 4
