REMARK  8 active torsions:
REMARK  status: ('A' for Active; 'I' for Inactive)
REMARK    1  A    between atoms: C_2  and  S_3 
REMARK    2  A    between atoms: S_3  and  C_6 
REMARK    3  A    between atoms: C_9  and  O_10 
REMARK    4  A    between atoms: C_12  and  C_13 
REMARK    5  A    between atoms: C_16  and  C_17 
REMARK    6  A    between atoms: C_17  and  N_18 
REMARK    7  A    between atoms: C_24  and  C_25 
REMARK    8  A    between atoms: C_28  and  O_29 
ROOT
ATOM      1  C   UNL d   1       7.308   1.539 -15.971  0.00  0.00     0.083 A 
ATOM      2  C   UNL d   1       6.993   0.415 -16.694  0.00  0.00     0.020 A 
ATOM      3  C   UNL d   1       7.778   0.352 -17.822  0.00  0.00     0.018 A 
ATOM      4  C   UNL d   1       8.547   1.498 -17.895  0.00  0.00     0.092 A 
ATOM      5  N   UNL d   1       8.255   2.209 -16.745  0.00  0.00    -0.248 NA
ENDROOT
BRANCH   4   6
ATOM      6  C   UNL d   1       9.492   2.022 -18.915  0.00  0.00     0.296 C 
BRANCH   6   7
ATOM      7  N   UNL d   1      10.783   1.312 -18.947  0.00  0.00     0.145 N 
ATOM      8  C   UNL d   1      11.736   2.127 -19.705  0.00  0.00     0.242 C 
ATOM      9  C   UNL d   1      13.053   1.433 -20.108  0.00  0.00     0.038 C 
ATOM     10  C   UNL d   1      13.640   0.481 -19.063  0.00  0.00     0.002 C 
ATOM     11  C   UNL d   1      13.034  -0.927 -19.132  0.00  0.00     0.002 C 
ATOM     12  C   UNL d   1      11.566  -0.975 -18.688  0.00  0.00     0.035 C 
ATOM     13  C   UNL d   1      10.645  -0.045 -19.478  0.00  0.00     0.251 C 
BRANCH   8  14
ATOM     14  C   UNL d   1      12.042   3.404 -18.951  0.00  0.00     0.009 A 
ATOM     15  C   UNL d   1      12.306   3.382 -17.564  0.00  0.00    -0.000 A 
ATOM     16  C   UNL d   1      12.563   4.573 -16.866  0.00  0.00     0.024 A 
ATOM     17  C   UNL d   1      12.567   5.814 -17.564  0.00  0.00     0.094 A 
ATOM     18  C   UNL d   1      12.290   5.812 -18.953  0.00  0.00     0.024 A 
ATOM     19  C   UNL d   1      12.033   4.625 -19.642  0.00  0.00    -0.000 A 
BRANCH  17  20
ATOM     20  O   UNL d   1      12.852   6.965 -16.860  0.00  0.00    -0.328 OA
ATOM     21  C   UNL d   1      13.088   8.134 -17.633  0.00  0.00     0.181 C 
ENDBRANCH  17  20
ENDBRANCH   8  14
ENDBRANCH   6   7
ENDBRANCH   4   6
BRANCH   1  22
ATOM     22  C   UNL d   1       6.879   2.088 -14.683  0.00  0.00     0.041 A 
ATOM     23  C   UNL d   1       5.871   1.463 -13.884  0.00  0.00     0.096 A 
ATOM     24  C   UNL d   1       5.434   2.110 -12.704  0.00  0.00     0.025 A 
ATOM     25  C   UNL d   1       5.974   3.329 -12.261  0.00  0.00     0.013 A 
ATOM     26  C   UNL d   1       6.998   3.905 -13.019  0.00  0.00     0.084 A 
ATOM     27  C   UNL d   1       7.457   3.290 -14.195  0.00  0.00     0.015 A 
BRANCH  23  28
ATOM     28  O   UNL d   1       5.284   0.268 -14.209  0.00  0.00    -0.328 OA
ATOM     29  C   UNL d   1       6.102  -0.893 -14.124  0.00  0.00     0.181 C 
ENDBRANCH  23  28
BRANCH  26  30
ATOM     30  S   UNL d   1       7.770   5.397 -12.426  0.00  0.00     0.190 S 
ATOM     31  O   UNL d   1       6.716   6.199 -11.833  0.00  0.00    -0.222 OA
ATOM     32  O   UNL d   1       8.578   5.936 -13.545  0.00  0.00    -0.222 OA
BRANCH  30  33
ATOM     33  C   UNL d   1       8.978   4.835 -11.147  0.00  0.00     0.127 C 
ATOM     34  C   UNL d   1       8.319   4.690  -9.772  0.00  0.00     0.018 C 
ENDBRANCH  30  33
ENDBRANCH  26  30
ENDBRANCH   1  22
TORSDOF 8
