REMARK  5 active torsions:
REMARK  status: ('A' for Active; 'I' for Inactive)
REMARK    1  A    between atoms: C_2  and  C_3 
REMARK    2  A    between atoms: C_2  and  C_11 
REMARK    3  A    between atoms: C_3  and  C_4 
REMARK    4  A    between atoms: C_4  and  C_5 
REMARK    5  A    between atoms: C_11  and  N_12 
ROOT
ATOM      1  N   UNL d   1       9.079   6.211 -10.663  0.00  0.00     0.140 N 
ATOM      2  C   UNL d   1       9.500   4.915 -11.154  0.00  0.00     0.253 C 
ATOM      3  C   UNL d   1       8.385   4.132 -11.830  0.00  0.00     0.063 C 
ATOM      4  C   UNL d   1       7.784   4.935 -12.998  0.00  0.00     0.103 C 
ATOM      5  C   UNL d   1       6.567   4.188 -13.598  0.00  0.00     0.033 C 
ATOM      6  C   UNL d   1       6.966   2.817 -14.150  0.00  0.00     0.031 C 
ATOM      7  C   UNL d   1       8.315   2.847 -14.841  0.00  0.00     0.002 A 
ATOM      8  C   UNL d   1       8.750   1.730 -15.592  0.00  0.00     0.027 A 
ATOM      9  C   UNL d   1       9.989   1.760 -16.270  0.00  0.00     0.140 A 
ATOM     10  F   UNL d   1      10.379   0.714 -17.010  0.00  0.00    -0.204 F 
ATOM     11  C   UNL d   1      10.800   2.918 -16.192  0.00  0.00     0.032 A 
ATOM     12  C   UNL d   1      10.379   4.025 -15.434  0.00  0.00     0.026 A 
ATOM     13  C   UNL d   1       9.145   4.013 -14.739  0.00  0.00     0.090 A 
ATOM     14  O   UNL d   1       8.791   5.095 -14.015  0.00  0.00    -0.336 OA
ATOM     15  C   UNL d   1       7.382   6.331 -12.462  0.00  0.00     0.063 C 
ATOM     16  C   UNL d   1       8.589   6.998 -11.782  0.00  0.00     0.253 C 
ENDROOT
BRANCH   1  17
ATOM     17  C   UNL d   1      10.184   6.896  -9.989  0.00  0.00     0.283 C 
BRANCH  17  18
ATOM     18  C   UNL d   1       9.710   7.926  -8.971  0.00  0.00     0.186 C 
ATOM     19  O   UNL d   1       9.467   9.130  -9.656  0.00  0.00    -0.221 OA
BRANCH  18  20
ATOM     20  C   UNL d   1      10.768   8.172  -7.897  0.00  0.00     0.040 C 
BRANCH  20  21
ATOM     21  C   UNL d   1      10.627   7.219  -6.682  0.00  0.00     0.029 C 
BRANCH  21  22
ATOM     22  C   UNL d   1      11.190   7.753  -5.365  0.00  0.00    -0.022 A 
ATOM     23  C   UNL d   1      11.056   9.116  -5.001  0.00  0.00    -0.004 A 
ATOM     24  C   UNL d   1      11.579   9.588  -3.784  0.00  0.00    -0.000 A 
ATOM     25  C   UNL d   1      12.236   8.712  -2.904  0.00  0.00    -0.000 A 
ATOM     26  C   UNL d   1      12.338   7.345  -3.234  0.00  0.00    -0.000 A 
ATOM     27  C   UNL d   1      11.822   6.870  -4.458  0.00  0.00    -0.004 A 
ENDBRANCH  21  22
ENDBRANCH  20  21
ENDBRANCH  18  20
ENDBRANCH  17  18
ENDBRANCH   1  17
TORSDOF 5
