REMARK  8 active torsions:
REMARK  status: ('A' for Active; 'I' for Inactive)
REMARK    1  A    between atoms: C_2  and  C_3 
REMARK    2  A    between atoms: C_7  and  N_8 
REMARK    3  A    between atoms: N_11  and  C_12 
REMARK    4  A    between atoms: C_12  and  C_13 
REMARK    5  A    between atoms: C_13  and  C_15 
REMARK    6  A    between atoms: C_15  and  C_16 
REMARK    7  A    between atoms: C_16  and  N_17 
REMARK       I    between atoms: N_17  and  C_18 
REMARK    8  A    between atoms: C_18  and  C_20 
ROOT
ATOM      1  C   UNL d   1       7.673   2.439 -15.470  0.00  0.00     0.283 C 
ENDROOT
BRANCH   1   2
ATOM      2  N   UNL d   1       7.897   2.838 -14.079  0.00  0.00     0.144 N 
ATOM      3  C   UNL d   1       9.299   3.243 -13.897  0.00  0.00     0.274 C 
ATOM      4  C   UNL d   1       9.618   3.686 -12.461  0.00  0.00     0.137 C 
ATOM      5  N   UNL d   1       8.659   4.692 -12.032  0.00  0.00    -0.344 N 
ATOM      6  C   UNL d   1       7.247   4.395 -12.219  0.00  0.00     0.137 C 
ATOM      7  C   UNL d   1       7.017   3.941 -13.676  0.00  0.00     0.274 C 
BRANCH   5   8
ATOM      8  C   UNL d   1       9.066   5.883 -11.419  0.00  0.00     0.067 A 
ATOM      9  C   UNL d   1       9.056   7.060 -12.185  0.00  0.00     0.018 A 
ATOM     10  C   UNL d   1       9.458   8.283 -11.618  0.00  0.00     0.001 A 
ATOM     11  C   UNL d   1       9.867   8.332 -10.272  0.00  0.00    -0.003 A 
ATOM     12  C   UNL d   1       9.861   7.164  -9.482  0.00  0.00    -0.010 A 
ATOM     13  C   UNL d   1       9.458   5.931 -10.062  0.00  0.00     0.069 A 
ATOM     14 CL   UNL d   1       9.408   4.501  -9.089  0.00  0.00    -0.081 Cl
BRANCH  12  15
ATOM     15  C   UNL d   1      10.269   7.258  -8.018  0.00  0.00     0.027 C 
ATOM     16  C   UNL d   1       9.060   7.408  -7.083  0.00  0.00     0.005 C 
ENDBRANCH  12  15
ENDBRANCH   5   8
ENDBRANCH   1   2
BRANCH   1  17
ATOM     17  C   UNL d   1       8.011   0.972 -15.783  0.00  0.00     0.188 C 
ATOM     18  O   UNL d   1       8.897   0.911 -16.878  0.00  0.00    -0.221 OA
BRANCH  17  19
ATOM     19  C   UNL d   1       6.758   0.114 -16.092  0.00  0.00     0.061 C 
BRANCH  19  20
ATOM     20  C   UNL d   1       6.020   0.425 -17.413  0.00  0.00     0.132 C 
BRANCH  20  21
ATOM     21  N   UNL d   1       5.294  -0.735 -17.916  0.00  0.00    -0.233 NA
ATOM     22  C   UNL d   1       5.014  -0.938 -19.212  0.00  0.00     0.293 C 
ATOM     23  O   UNL d   1       5.292  -0.131 -20.099  0.00  0.00    -0.264 OA
BRANCH  22  24
ATOM     24  C   UNL d   1       4.398  -2.239 -19.527  0.00  0.00     0.139 A 
ATOM     25  N   UNL d   1       4.274  -2.620 -20.853  0.00  0.00    -0.241 NA
ATOM     26  C   UNL d   1       3.650  -3.848 -20.962  0.00  0.00     0.082 A 
ATOM     27  C   UNL d   1       3.376  -4.250 -19.624  0.00  0.00     0.019 A 
ATOM     28  C   UNL d   1       3.286  -4.633 -22.071  0.00  0.00     0.019 A 
ATOM     29  C   UNL d   1       3.857  -3.222 -18.743  0.00  0.00     0.025 A 
ATOM     30  C   UNL d   1       2.721  -5.491 -19.444  0.00  0.00     0.002 A 
ATOM     31  C   UNL d   1       2.357  -6.291 -20.547  0.00  0.00     0.000 A 
ATOM     32  C   UNL d   1       2.637  -5.864 -21.860  0.00  0.00     0.002 A 
ENDBRANCH  22  24
ENDBRANCH  20  21
ENDBRANCH  19  20
ENDBRANCH  17  19
ENDBRANCH   1  17
TORSDOF 8
