REMARK  11 active torsions:
REMARK  status: ('A' for Active; 'I' for Inactive)
REMARK    1  A    between atoms: C_2  and  C_3 
REMARK       I    between atoms: C_2  and  N_26 
REMARK    2  A    between atoms: C_3  and  C_4 
REMARK    3  A    between atoms: C_4  and  O_5 
REMARK    4  A    between atoms: O_5  and  C_6 
REMARK    5  A    between atoms: C_6  and  C_7 
REMARK    6  A    between atoms: C_7  and  N_8 
REMARK    7  A    between atoms: N_11  and  C_12 
REMARK    8  A    between atoms: C_17  and  C_18 
REMARK    9  A    between atoms: N_26  and  C_27 
REMARK   10  A    between atoms: C_27  and  C_28 
REMARK   11  A    between atoms: C_31  and  C_32 
ROOT
ATOM      1  C   UNL d   1       9.774   3.920 -13.717  0.00  0.00     0.282 C 
ENDROOT
BRANCH   1   2
ATOM      2  C   UNL d   1       8.969   4.524 -12.561  0.00  0.00     0.178 C 
BRANCH   2   3
ATOM      3  O   UNL d   1       9.339   5.882 -12.444  0.00  0.00    -0.352 OA
BRANCH   3   4
ATOM      4  C   UNL d   1       8.946   6.438 -11.199  0.00  0.00     0.152 C 
BRANCH   4   5
ATOM      5  C   UNL d   1      10.064   6.208 -10.173  0.00  0.00     0.122 C 
BRANCH   5   6
ATOM      6  C   UNL d   1       9.854   7.085  -8.956  0.00  0.00     0.254 C 
ATOM      7  O   UNL d   1       9.045   6.756  -8.082  0.00  0.00    -0.270 OA
ATOM      8  N   UNL d   1      10.630   8.180  -8.858  0.00  0.00    -0.233 NA
BRANCH   8   9
ATOM      9  C   UNL d   1      10.604   9.149  -7.768  0.00  0.00     0.155 C 
BRANCH   9  10
ATOM     10  C   UNL d   1      11.027   8.640  -6.390  0.00  0.00     0.002 A 
ATOM     11  C   UNL d   1      11.153   7.256  -6.110  0.00  0.00    -0.002 A 
ATOM     12  C   UNL d   1      11.482   6.836  -4.817  0.00  0.00     0.004 A 
ATOM     13  C   UNL d   1      11.763   7.772  -3.800  0.00  0.00     0.071 A 
ATOM     14  C   UNL d   1      11.643   9.158  -4.066  0.00  0.00     0.004 A 
ATOM     15  C   UNL d   1      11.259   9.588  -5.360  0.00  0.00    -0.002 A 
BRANCH  13  16
ATOM     16  C   UNL d   1      12.140   7.264  -2.427  0.00  0.00     0.419 C 
ATOM     17  F   UNL d   1      11.027   6.788  -1.873  0.00  0.00    -0.166 F 
ATOM     18  F   UNL d   1      13.022   6.265  -2.510  0.00  0.00    -0.166 F 
ATOM     19  F   UNL d   1      12.647   8.238  -1.662  0.00  0.00    -0.166 F 
ENDBRANCH  13  16
ENDBRANCH   9  10
ENDBRANCH   8   9
ENDBRANCH   5   6
ENDBRANCH   4   5
ENDBRANCH   3   4
ENDBRANCH   2   3
ENDBRANCH   1   2
BRANCH   1  20
ATOM     20  N   UNL d   1       9.284   2.636 -14.155  0.00  0.00     0.144 N 
ATOM     21  C   UNL d   1      10.309   1.902 -14.912  0.00  0.00     0.274 C 
ATOM     22  C   UNL d   1       9.830   0.516 -15.365  0.00  0.00     0.138 C 
ATOM     23  N   UNL d   1       8.573   0.638 -16.082  0.00  0.00    -0.330 N 
ATOM     24  C   UNL d   1       7.549   1.460 -15.421  0.00  0.00     0.138 C 
ATOM     25  C   UNL d   1       8.095   2.788 -14.996  0.00  0.00     0.274 C 
BRANCH  23  26
ATOM     26  C   UNL d   1       8.363   0.012 -17.334  0.00  0.00     0.140 A 
ATOM     27  C   UNL d   1       7.146  -0.665 -17.673  0.00  0.00     0.034 A 
ATOM     28  C   UNL d   1       7.088  -1.187 -18.986  0.00  0.00     0.005 A 
ATOM     29  C   UNL d   1       8.159  -1.042 -19.883  0.00  0.00     0.021 A 
ATOM     30  C   UNL d   1       9.314  -0.395 -19.421  0.00  0.00     0.101 A 
ATOM     31  N   UNL d   1       9.413   0.121 -18.183  0.00  0.00    -0.227 NA
BRANCH  27  32
ATOM     32  C   UNL d   1       5.994  -0.878 -16.743  0.00  0.00     0.003 C 
ATOM     33  C   UNL d   1       6.154  -0.938 -15.339  0.00  0.00     0.000 C 
ATOM     34  C   UNL d   1       5.091  -1.035 -14.451  0.00  0.00     0.000 C 
ATOM     35  C   UNL d   1       3.804  -1.253 -14.945  0.00  0.00     0.000 C 
ATOM     36  C   UNL d   1       3.620  -1.351 -16.340  0.00  0.00     0.000 C 
ATOM     37  C   UNL d   1       4.690  -1.119 -17.229  0.00  0.00     0.000 C 
ENDBRANCH  27  32
ENDBRANCH  23  26
ENDBRANCH   1  20
TORSDOF 11
