REMARK  12 active torsions:
REMARK  status: ('A' for Active; 'I' for Inactive)
REMARK    1  A    between atoms: C_2  and  C_3 
REMARK    2  A    between atoms: C_3  and  N_4 
REMARK    3  A    between atoms: N_4  and  C_5 
REMARK    4  A    between atoms: N_4  and  C_21 
REMARK    5  A    between atoms: C_5  and  C_6 
REMARK    6  A    between atoms: C_6  and  C_7 
REMARK    7  A    between atoms: C_7  and  C_8 
REMARK    8  A    between atoms: C_8  and  N_9 
REMARK       I    between atoms: N_9  and  C_10 
REMARK    9  A    between atoms: C_10  and  C_12 
REMARK   10  A    between atoms: C_21  and  C_22 
REMARK   11  A    between atoms: C_24  and  C_25 
REMARK   12  A    between atoms: C_31  and  O_32 
ROOT
ATOM      1  N   UNL d   1       9.283   2.905 -14.741  0.00  0.00     0.137 N 
ENDROOT
BRANCH   1   2
ATOM      2  C   UNL d   1       8.819   1.532 -14.519  0.00  0.00     0.250 C 
BRANCH   2   3
ATOM      3  C   UNL d   1       8.065   0.888 -15.701  0.00  0.00     0.035 C 
ATOM      4  C   UNL d   1       6.647   1.446 -15.836  0.00  0.00     0.002 C 
ENDBRANCH   2   3
ENDBRANCH   1   2
BRANCH   1   5
ATOM      5  C   UNL d   1       9.900   3.389 -13.500  0.00  0.00     0.250 C 
BRANCH   5   6
ATOM      6  C   UNL d   1       8.874   4.204 -12.708  0.00  0.00     0.037 C 
BRANCH   6   7
ATOM      7  C   UNL d   1       9.505   4.832 -11.466  0.00  0.00     0.029 C 
BRANCH   7   8
ATOM      8  C   UNL d   1       8.473   5.485 -10.542  0.00  0.00     0.129 C 
BRANCH   8   9
ATOM      9  N   UNL d   1       9.095   6.090  -9.371  0.00  0.00    -0.233 NA
ATOM     10  C   UNL d   1       9.862   7.191  -9.395  0.00  0.00     0.293 C 
ATOM     11  O   UNL d   1      10.105   7.826 -10.419  0.00  0.00    -0.264 OA
BRANCH  10  12
ATOM     12  C   UNL d   1      10.414   7.645  -8.101  0.00  0.00     0.139 A 
ATOM     13  N   UNL d   1      10.476   6.783  -7.015  0.00  0.00    -0.241 NA
ATOM     14  C   UNL d   1      11.056   7.404  -5.927  0.00  0.00     0.082 A 
ATOM     15  C   UNL d   1      11.354   8.727  -6.360  0.00  0.00     0.019 A 
ATOM     16  C   UNL d   1      11.351   6.956  -4.630  0.00  0.00     0.019 A 
ATOM     17  C   UNL d   1      10.958   8.846  -7.733  0.00  0.00     0.025 A 
ATOM     18  C   UNL d   1      11.956   9.592  -5.414  0.00  0.00     0.002 A 
ATOM     19  C   UNL d   1      12.238   9.159  -4.101  0.00  0.00     0.000 A 
ATOM     20  C   UNL d   1      11.939   7.842  -3.707  0.00  0.00     0.002 A 
ENDBRANCH  10  12
ENDBRANCH   8   9
ENDBRANCH   7   8
ENDBRANCH   6   7
ENDBRANCH   5   6
ENDBRANCH   1   5
BRANCH   1  21
ATOM     21  C   UNL d   1      10.186   2.957 -15.898  0.00  0.00     0.251 C 
BRANCH  21  22
ATOM     22  C   UNL d   1      10.904   4.279 -16.064  0.00  0.00     0.038 A 
ATOM     23  C   UNL d   1      12.079   4.374 -17.007  0.00  0.00     0.026 A 
ATOM     24  C   UNL d   1      12.299   4.438 -15.511  0.00  0.00     0.007 A 
BRANCH  23  25
ATOM     25  C   UNL d   1      12.278   5.602 -17.834  0.00  0.00     0.002 A 
ATOM     26  C   UNL d   1      11.280   6.039 -18.737  0.00  0.00     0.090 A 
ATOM     27  C   UNL d   1      11.486   7.240 -19.465  0.00  0.00     0.026 A 
ATOM     28  C   UNL d   1      12.667   7.985 -19.292  0.00  0.00     0.032 A 
ATOM     29  C   UNL d   1      13.662   7.539 -18.402  0.00  0.00     0.140 A 
ATOM     30  C   UNL d   1      13.467   6.347 -17.681  0.00  0.00     0.027 A 
ATOM     31  F   UNL d   1      14.795   8.260 -18.221  0.00  0.00    -0.204 F 
BRANCH  26  32
ATOM     32  O   UNL d   1      10.145   5.263 -18.841  0.00  0.00    -0.328 OA
ATOM     33  C   UNL d   1       9.089   5.721 -19.668  0.00  0.00     0.181 C 
ENDBRANCH  26  32
ENDBRANCH  23  25
ENDBRANCH  21  22
ENDBRANCH   1  21
TORSDOF 12
