REMARK  5 active torsions:
REMARK  status: ('A' for Active; 'I' for Inactive)
REMARK    1  A    between atoms: C_5  and  N_6 
REMARK    2  A    between atoms: N_6  and  C_7 
REMARK    3  A    between atoms: C_9  and  N_10 
REMARK    4  A    between atoms: N_13  and  C_14 
REMARK    5  A    between atoms: C_14  and  C_15 
ROOT
ATOM      1  C   UNL d   1       7.408   0.914 -16.622  0.00  0.00     0.182 A 
ATOM      2  N   UNL d   1       7.717   1.857 -15.707  0.00  0.00    -0.042 NA
ATOM      3  C   UNL d   1       6.933   1.958 -14.629  0.00  0.00     0.729 A 
ATOM      4  N   UNL d   1       5.866   1.198 -14.358  0.00  0.00    -0.061 NA
ATOM      5  C   UNL d   1       5.506   0.274 -15.277  0.00  0.00     0.103 A 
ATOM      6  C   UNL d   1       4.326  -0.472 -15.095  0.00  0.00     0.020 A 
ATOM      7  C   UNL d   1       3.925  -1.418 -16.060  0.00  0.00     0.002 A 
ATOM      8  C   UNL d   1       4.717  -1.638 -17.203  0.00  0.00     0.000 A 
ATOM      9  C   UNL d   1       5.893  -0.892 -17.404  0.00  0.00     0.005 A 
ATOM     10  C   UNL d   1       6.270   0.088 -16.459  0.00  0.00     0.055 A 
ENDROOT
BRANCH   1  11
ATOM     11  N   UNL d   1       8.262   0.782 -17.722  0.00  0.00    -0.227 NA
BRANCH  11  12
ATOM     12  C   UNL d   1       9.555   1.305 -17.895  0.00  0.00     0.079 A 
ATOM     13  C   UNL d   1       9.829   2.017 -19.085  0.00  0.00     0.018 A 
ATOM     14  C   UNL d   1      11.100   2.569 -19.325  0.00  0.00    -0.003 A 
ATOM     15  C   UNL d   1      12.126   2.408 -18.377  0.00  0.00    -0.022 A 
ATOM     16  C   UNL d   1      13.504   3.004 -18.614  0.00  0.00     0.031 C 
ATOM     17  C   UNL d   1      11.868   1.685 -17.194  0.00  0.00    -0.007 A 
ATOM     18  C   UNL d   1      10.597   1.120 -16.939  0.00  0.00    -0.004 A 
ATOM     19  C   UNL d   1      10.421   0.298 -15.668  0.00  0.00     0.033 C 
ENDBRANCH  11  12
ENDBRANCH   1  11
BRANCH   3  20
ATOM     20  N   UNL d   1       7.274   2.931 -13.699  0.00  0.00    -0.179 N 
ATOM     21  C   UNL d   1       8.637   3.465 -13.576  0.00  0.00     0.155 C 
ATOM     22  C   UNL d   1       8.590   4.997 -13.577  0.00  0.00     0.275 C 
ATOM     23  N   UNL d   1       7.712   5.498 -12.518  0.00  0.00     0.144 N 
ATOM     24  C   UNL d   1       6.361   4.955 -12.688  0.00  0.00     0.275 C 
ATOM     25  C   UNL d   1       6.358   3.432 -12.670  0.00  0.00     0.155 C 
BRANCH  23  26
ATOM     26  C   UNL d   1       7.671   6.957 -12.508  0.00  0.00     0.286 C 
BRANCH  26  27
ATOM     27  C   UNL d   1       8.962   7.629 -12.011  0.00  0.00     0.218 C 
ATOM     28  O   UNL d   1       8.665   8.949 -11.645  0.00  0.00    -0.218 OA
ENDBRANCH  26  27
ENDBRANCH  23  26
ENDBRANCH   3  20
TORSDOF 5
