REMARK  11 active torsions:
REMARK  status: ('A' for Active; 'I' for Inactive)
REMARK    1  A    between atoms: C_2  and  C_4 
REMARK    2  A    between atoms: C_9  and  O_10 
REMARK    3  A    between atoms: O_10  and  C_11 
REMARK    4  A    between atoms: C_11  and  C_12 
REMARK    5  A    between atoms: C_12  and  C_13 
REMARK    6  A    between atoms: C_13  and  N_14 
REMARK    7  A    between atoms: N_14  and  C_15 
REMARK    8  A    between atoms: C_15  and  C_16 
REMARK    9  A    between atoms: C_16  and  C_17 
REMARK   10  A    between atoms: N_19  and  S_20 
REMARK   11  A    between atoms: S_20  and  C_23 
ROOT
ATOM      1  C   UNL d   1       8.373   4.367 -13.777  0.00  0.00    -0.000 A 
ATOM      2  C   UNL d   1       9.344   4.554 -14.720  0.00  0.00     0.087 A 
ATOM      3  N   UNL d   1       9.257   3.568 -15.695  0.00  0.00    -0.231 N 
ATOM      4  C   UNL d   1       8.194   2.720 -15.402  0.00  0.00     0.075 A 
ATOM      5  C   UNL d   1       7.628   1.598 -16.066  0.00  0.00     0.018 A 
ATOM      6  C   UNL d   1       6.612   0.865 -15.465  0.00  0.00     0.002 A 
ATOM      7  C   UNL d   1       6.051   1.299 -14.244  0.00  0.00     0.000 A 
ATOM      8  C   UNL d   1       6.537   2.476 -13.640  0.00  0.00     0.001 A 
ATOM      9  C   UNL d   1       7.631   3.190 -14.174  0.00  0.00     0.014 A 
ENDROOT
BRANCH   1  10
ATOM     10  C   UNL d   1       8.124   5.220 -12.570  0.00  0.00     0.066 C 
BRANCH  10  11
ATOM     11  C   UNL d   1       9.077   4.863 -11.427  0.00  0.00     0.295 C 
BRANCH  11  12
ATOM     12  N   UNL d   1       8.683   5.588 -10.231  0.00  0.00     0.339 N 
BRANCH  12  13
ATOM     13  C   UNL d   1       9.633   5.347  -9.159  0.00  0.00     0.293 C 
BRANCH  13  14
ATOM     14  C   UNL d   1       9.585   6.507  -8.157  0.00  0.00     0.071 C 
BRANCH  14  15
ATOM     15  C   UNL d   1      10.674   6.390  -7.091  0.00  0.00     0.151 C 
BRANCH  15  16
ATOM     16  O   UNL d   1      10.820   7.634  -6.425  0.00  0.00    -0.331 OA
BRANCH  16  17
ATOM     17  C   UNL d   1      11.395   7.678  -5.165  0.00  0.00     0.099 A 
ATOM     18  C   UNL d   1      11.598   8.937  -4.572  0.00  0.00     0.082 A 
ATOM     19  C   UNL d   1      12.078   9.064  -3.243  0.00  0.00     0.007 A 
ATOM     20  C   UNL d   1      12.423   7.915  -2.510  0.00  0.00     0.000 A 
ATOM     21  C   UNL d   1      12.259   6.657  -3.111  0.00  0.00     0.002 A 
ATOM     22  C   UNL d   1      11.762   6.545  -4.420  0.00  0.00     0.024 A 
BRANCH  18  23
ATOM     23  C   UNL d   1      11.178  10.131  -5.321  0.00  0.00     0.299 C 
ATOM     24  N   UNL d   1      11.810  10.417  -6.430  0.00  0.00    -0.102 N 
ATOM     25  O   UNL d   1      10.262  10.789  -4.907  0.00  0.00    -0.264 OA
ENDBRANCH  18  23
ENDBRANCH  16  17
ENDBRANCH  15  16
ENDBRANCH  14  15
ENDBRANCH  13  14
ENDBRANCH  12  13
ENDBRANCH  11  12
ENDBRANCH  10  11
ENDBRANCH   1  10
BRANCH   3  26
ATOM     26  S   UNL d   1      10.331   3.473 -17.042  0.00  0.00     0.271 S 
ATOM     27  O   UNL d   1       9.597   4.097 -18.157  0.00  0.00    -0.200 OA
ATOM     28  O   UNL d   1      11.611   4.013 -16.569  0.00  0.00    -0.200 OA
BRANCH  26  29
ATOM     29  C   UNL d   1      10.508   1.726 -17.380  0.00  0.00     0.104 C 
ATOM     30  C   UNL d   1      10.691   1.269 -18.702  0.00  0.00     0.013 C 
ATOM     31  C   UNL d   1      10.702  -0.122 -18.959  0.00  0.00     0.001 C 
ATOM     32  C   UNL d   1      10.495  -1.034 -17.903  0.00  0.00     0.000 C 
ATOM     33  C   UNL d   1      10.259  -0.560 -16.600  0.00  0.00     0.001 C 
ATOM     34  C   UNL d   1      10.347   0.802 -16.326  0.00  0.00     0.013 C 
ENDBRANCH  26  29
ENDBRANCH   3  26
TORSDOF 11
