REMARK  8 active torsions:
REMARK  status: ('A' for Active; 'I' for Inactive)
REMARK    1  A    between atoms: C_6  and  N_7 
REMARK    2  A    between atoms: N_10  and  C_11 
REMARK    3  A    between atoms: C_11  and  C_12 
REMARK    4  A    between atoms: C_12  and  C_13 
REMARK    5  A    between atoms: C_13  and  C_14 
REMARK       I    between atoms: C_14  and  N_16 
REMARK    6  A    between atoms: N_16  and  C_17 
REMARK    7  A    between atoms: C_17  and  C_18 
REMARK    8  A    between atoms: N_29  and  C_30 
ROOT
ATOM      1  C   UNL d   1       9.377   4.577 -14.127  0.00  0.00     0.252 C 
ATOM      2  O   UNL d   1       8.245   5.052 -14.181  0.00  0.00    -0.271 OA
ATOM      3  N   UNL d   1      10.266   4.683 -15.107  0.00  0.00    -0.230 NA
ENDROOT
BRANCH   3   4
ATOM      4  C   UNL d   1       9.985   5.089 -16.484  0.00  0.00     0.192 C 
BRANCH   4   5
ATOM      5  C   UNL d   1      11.272   5.284 -17.301  0.00  0.00     0.151 A 
ATOM      6  N   UNL d   1      11.789   4.119 -17.953  0.00  0.00    -0.261 N 
ATOM      7  C   UNL d   1      12.877   4.236 -18.772  0.00  0.00     0.267 A 
ATOM      8  C   UNL d   1      13.477   5.604 -18.919  0.00  0.00     0.074 A 
ATOM      9  O   UNL d   1      13.389   3.292 -19.378  0.00  0.00    -0.267 OA
ATOM     10  C   UNL d   1      12.909   6.675 -18.193  0.00  0.00     0.090 A 
ATOM     11  C   UNL d   1      14.601   5.820 -19.747  0.00  0.00     0.009 A 
ATOM     12  N   UNL d   1      11.792   6.473 -17.373  0.00  0.00    -0.230 NA
ATOM     13  C   UNL d   1      13.476   7.962 -18.313  0.00  0.00     0.049 A 
ATOM     14  C   UNL d   1      14.599   8.176 -19.139  0.00  0.00     0.142 A 
ATOM     15  F   UNL d   1      15.141   9.412 -19.241  0.00  0.00    -0.204 F 
ATOM     16  C   UNL d   1      15.163   7.105 -19.855  0.00  0.00     0.030 A 
BRANCH   6  17
ATOM     17  C   UNL d   1      11.266   2.801 -17.721  0.00  0.00     0.068 A 
ATOM     18  C   UNL d   1      10.799   2.009 -18.807  0.00  0.00     0.018 A 
ATOM     19  C   UNL d   1      10.280   0.716 -18.576  0.00  0.00     0.002 A 
ATOM     20  C   UNL d   1      10.163   0.224 -17.258  0.00  0.00     0.000 A 
ATOM     21  C   UNL d   1      10.620   1.010 -16.179  0.00  0.00     0.002 A 
ATOM     22  C   UNL d   1      11.226   2.258 -16.412  0.00  0.00     0.018 A 
ENDBRANCH   6  17
ENDBRANCH   4   5
ENDBRANCH   3   4
BRANCH   1  23
ATOM     23  C   UNL d   1       9.827   3.830 -12.891  0.00  0.00     0.092 C 
BRANCH  23  24
ATOM     24  C   UNL d   1       9.267   4.405 -11.586  0.00  0.00     0.045 C 
BRANCH  24  25
ATOM     25  C   UNL d   1       9.575   5.902 -11.415  0.00  0.00     0.251 C 
BRANCH  25  26
ATOM     26  N   UNL d   1       9.287   6.407 -10.088  0.00  0.00     0.141 N 
ATOM     27  C   UNL d   1       9.629   7.841 -10.053  0.00  0.00     0.274 C 
ATOM     28  C   UNL d   1       9.327   8.418  -8.643  0.00  0.00     0.137 C 
ATOM     29  N   UNL d   1      10.055   7.662  -7.625  0.00  0.00    -0.344 N 
ATOM     30  C   UNL d   1       9.851   6.218  -7.720  0.00  0.00     0.137 C 
ATOM     31  C   UNL d   1      10.131   5.740  -9.114  0.00  0.00     0.274 C 
BRANCH  29  32
ATOM     32  C   UNL d   1      10.823   8.277  -6.615  0.00  0.00     0.052 A 
ATOM     33  C   UNL d   1      11.443   9.510  -6.937  0.00  0.00     0.017 A 
ATOM     34  C   UNL d   1      12.260  10.151  -6.002  0.00  0.00     0.001 A 
ATOM     35  C   UNL d   1      12.512   9.559  -4.767  0.00  0.00    -0.004 A 
ATOM     36  C   UNL d   1      11.899   8.355  -4.411  0.00  0.00    -0.024 A 
ATOM     37  C   UNL d   1      12.228   7.756  -3.061  0.00  0.00     0.031 C 
ATOM     38  C   UNL d   1      11.034   7.700  -5.318  0.00  0.00    -0.010 A 
ATOM     39  C   UNL d   1      10.405   6.392  -4.853  0.00  0.00     0.032 C 
ENDBRANCH  29  32
ENDBRANCH  25  26
ENDBRANCH  24  25
ENDBRANCH  23  24
ENDBRANCH   1  23
TORSDOF 8
