REMARK  3 active torsions:
REMARK  status: ('A' for Active; 'I' for Inactive)
REMARK    1  A    between atoms: C_3  and  C_4 
REMARK    2  A    between atoms: N_16  and  C_17 
REMARK    3  A    between atoms: C_17  and  C_18 
ROOT
ATOM      1  O   UNL d   1      11.051   2.239 -16.954  0.00  0.00    -0.293 OA
ATOM      2  C   UNL d   1      11.509   3.185 -16.328  0.00  0.00     0.181 C 
ATOM      3  C   UNL d   1      12.818   3.857 -16.646  0.00  0.00     0.112 C 
ATOM      4  C   UNL d   1      12.748   5.072 -15.735  0.00  0.00     0.154 C 
ATOM      5  O   UNL d   1      11.815   4.796 -14.689  0.00  0.00    -0.351 OA
ATOM      6  C   UNL d   1      10.866   3.834 -15.151  0.00  0.00     0.148 C 
ATOM      7  C   UNL d   1      10.568   2.838 -14.024  0.00  0.00     0.070 C 
ATOM      8  C   UNL d   1       9.838   3.531 -12.860  0.00  0.00     0.254 C 
ATOM      9  N   UNL d   1       8.576   4.127 -13.286  0.00  0.00     0.142 N 
ATOM     10  C   UNL d   1       8.837   5.115 -14.324  0.00  0.00     0.254 C 
ATOM     11  C   UNL d   1       9.544   4.508 -15.545  0.00  0.00     0.070 C 
ENDROOT
BRANCH   3  12
ATOM     12  C   UNL d   1      12.986   4.199 -18.106  0.00  0.00    -0.013 A 
ATOM     13  C   UNL d   1      14.133   3.764 -18.802  0.00  0.00    -0.002 A 
ATOM     14  C   UNL d   1      14.292   4.083 -20.168  0.00  0.00     0.029 A 
ATOM     15  C   UNL d   1      13.310   4.847 -20.830  0.00  0.00     0.140 A 
ATOM     16  C   UNL d   1      12.173   5.299 -20.135  0.00  0.00     0.029 A 
ATOM     17  F   UNL d   1      13.456   5.141 -22.142  0.00  0.00    -0.204 F 
ATOM     18  C   UNL d   1      12.016   4.980 -18.773  0.00  0.00    -0.002 A 
ENDBRANCH   3  12
BRANCH   9  19
ATOM     19  C   UNL d   1       7.847   4.726 -12.158  0.00  0.00     0.277 C 
BRANCH  19  20
ATOM     20  C   UNL d   1       8.670   5.639 -11.252  0.00  0.00     0.011 A 
ATOM     21  C   UNL d   1       9.126   5.167 -10.004  0.00  0.00    -0.002 A 
ATOM     22  C   UNL d   1       9.933   5.987  -9.186  0.00  0.00    -0.000 A 
ATOM     23  C   UNL d   1      10.305   7.272  -9.621  0.00  0.00    -0.000 A 
ATOM     24  C   UNL d   1       9.863   7.751 -10.860  0.00  0.00    -0.000 A 
ATOM     25  C   UNL d   1       9.030   6.942 -11.666  0.00  0.00    -0.002 A 
ENDBRANCH  19  20
ENDBRANCH   9  19
TORSDOF 3
