REMARK  4 active torsions:
REMARK  status: ('A' for Active; 'I' for Inactive)
REMARK    1  A    between atoms: C_2  and  C_5 
REMARK    2  A    between atoms: C_8  and  N_9 
REMARK    3  A    between atoms: N_12  and  C_13 
REMARK    4  A    between atoms: C_13  and  C_14 
ROOT
ATOM      1  C   UNL d   1       9.219  -0.141 -17.808  0.00  0.00     0.235 A 
ATOM      2  N   UNL d   1       8.780   0.368 -16.655  0.00  0.00    -0.221 NA
ATOM      3  C   UNL d   1       7.422   0.091 -16.664  0.00  0.00     0.116 A 
ATOM      4  C   UNL d   1       6.402   0.424 -15.711  0.00  0.00     0.076 A 
ATOM      5  C   UNL d   1       5.078  -0.041 -15.983  0.00  0.00     0.018 A 
ATOM      6  C   UNL d   1       4.771  -0.782 -17.143  0.00  0.00     0.003 A 
ATOM      7  C   UNL d   1       5.768  -1.067 -18.092  0.00  0.00     0.021 A 
ATOM      8  C   UNL d   1       7.076  -0.632 -17.844  0.00  0.00     0.102 A 
ATOM      9  N   UNL d   1       8.266  -0.735 -18.544  0.00  0.00    -0.222 NA
ENDROOT
BRANCH   4  10
ATOM     10  N   UNL d   1       6.659   1.198 -14.562  0.00  0.00    -0.343 N 
ATOM     11  C   UNL d   1       5.838   1.129 -13.348  0.00  0.00     0.137 C 
ATOM     12  C   UNL d   1       5.450   2.558 -12.892  0.00  0.00     0.275 C 
ATOM     13  N   UNL d   1       6.611   3.431 -12.742  0.00  0.00     0.145 N 
ATOM     14  C   UNL d   1       7.331   3.503 -14.003  0.00  0.00     0.275 C 
ATOM     15  C   UNL d   1       7.796   2.122 -14.455  0.00  0.00     0.137 C 
BRANCH  13  16
ATOM     16  C   UNL d   1       6.210   4.754 -12.297  0.00  0.00     0.277 C 
BRANCH  16  17
ATOM     17  C   UNL d   1       7.388   5.601 -11.870  0.00  0.00     0.011 A 
ATOM     18  C   UNL d   1       7.611   6.850 -12.477  0.00  0.00    -0.002 A 
ATOM     19  C   UNL d   1       8.689   7.658 -12.075  0.00  0.00    -0.000 A 
ATOM     20  C   UNL d   1       9.543   7.222 -11.037  0.00  0.00    -0.000 A 
ATOM     21  C   UNL d   1       9.336   5.969 -10.432  0.00  0.00    -0.000 A 
ATOM     22  C   UNL d   1       8.258   5.164 -10.846  0.00  0.00    -0.002 A 
ENDBRANCH  16  17
ENDBRANCH  13  16
ENDBRANCH   4  10
BRANCH   1  23
ATOM     23  C   UNL d   1      10.638  -0.026 -18.257  0.00  0.00     0.453 C 
ATOM     24  F   UNL d   1      11.087  -1.205 -18.680  0.00  0.00    -0.163 F 
ATOM     25  F   UNL d   1      11.430   0.385 -17.269  0.00  0.00    -0.163 F 
ATOM     26  F   UNL d   1      10.737   0.839 -19.260  0.00  0.00    -0.163 F 
ENDBRANCH   1  23
TORSDOF 4
