REMARK  8 active torsions:
REMARK  status: ('A' for Active; 'I' for Inactive)
REMARK    1  A    between atoms: C_11  and  C_12 
REMARK    2  A    between atoms: N_15  and  C_16 
REMARK    3  A    between atoms: C_16  and  C_17 
REMARK    4  A    between atoms: C_17  and  C_18 
REMARK    5  A    between atoms: C_18  and  C_19 
REMARK    6  A    between atoms: C_19  and  N_20 
REMARK    7  A    between atoms: N_20  and  S_21 
REMARK    8  A    between atoms: S_21  and  C_24 
ROOT
ATOM      1  C   UNL d   1       9.351   4.679 -13.448  0.00  0.00     0.251 C 
ENDROOT
BRANCH   1   2
ATOM      2  N   UNL d   1       8.665   3.669 -14.246  0.00  0.00     0.142 N 
ATOM      3  C   UNL d   1       9.372   2.384 -14.274  0.00  0.00     0.276 C 
ATOM      4  C   UNL d   1       8.558   1.245 -14.876  0.00  0.00     0.005 C 
ATOM      5  C   UNL d   1       7.220   1.319 -15.073  0.00  0.00    -0.021 C 
ATOM      6  C   UNL d   1       6.504   2.624 -14.755  0.00  0.00     0.061 C 
ATOM      7  C   UNL d   1       7.283   3.532 -13.821  0.00  0.00     0.255 C 
BRANCH   5   8
ATOM      8  C   UNL d   1       6.474   0.234 -15.708  0.00  0.00     0.011 A 
ATOM      9  C   UNL d   1       5.347  -0.367 -15.190  0.00  0.00     0.059 A 
ATOM     10  C   UNL d   1       4.636  -0.115 -13.907  0.00  0.00     0.052 C 
ATOM     11  N   UNL d   1       4.939  -1.339 -16.090  0.00  0.00    -0.250 NA
ATOM     12  C   UNL d   1       5.773  -1.374 -17.195  0.00  0.00     0.081 A 
ATOM     13  C   UNL d   1       6.763  -0.367 -16.978  0.00  0.00     0.019 A 
ATOM     14  C   UNL d   1       5.781  -2.185 -18.343  0.00  0.00     0.020 A 
ATOM     15  C   UNL d   1       7.744  -0.182 -17.989  0.00  0.00     0.013 A 
ATOM     16  C   UNL d   1       7.756  -0.992 -19.145  0.00  0.00     0.058 A 
ATOM     17  C   UNL d   1       6.779  -1.993 -19.318  0.00  0.00     0.013 A 
ATOM     18 CL   UNL d   1       8.972  -0.766 -20.346  0.00  0.00    -0.082 Cl
ENDBRANCH   5   8
ENDBRANCH   1   2
BRANCH   1  19
ATOM     19  C   UNL d   1       9.093   4.517 -11.925  0.00  0.00     0.037 C 
BRANCH  19  20
ATOM     20  C   UNL d   1       9.490   5.746 -11.120  0.00  0.00     0.029 C 
BRANCH  20  21
ATOM     21  C   UNL d   1       9.312   5.444  -9.612  0.00  0.00     0.139 C 
BRANCH  21  22
ATOM     22  N   UNL d   1       9.200   6.654  -8.823  0.00  0.00    -0.185 NA
BRANCH  22  23
ATOM     23  S   UNL d   1      10.357   7.925  -8.816  0.00  0.00     0.281 S 
ATOM     24  O   UNL d   1      11.512   7.587  -9.656  0.00  0.00    -0.199 OA
ATOM     25  O   UNL d   1       9.609   9.186  -8.969  0.00  0.00    -0.199 OA
BRANCH  23  26
ATOM     26  C   UNL d   1      10.933   7.788  -7.163  0.00  0.00     0.105 A 
ATOM     27  C   UNL d   1      10.931   8.915  -6.334  0.00  0.00     0.013 A 
ATOM     28  C   UNL d   1      11.380   8.772  -5.013  0.00  0.00     0.001 A 
ATOM     29  C   UNL d   1      11.830   7.521  -4.523  0.00  0.00     0.000 A 
ATOM     30  C   UNL d   1      11.389   9.875  -4.167  0.00  0.00     0.000 A 
ATOM     31  C   UNL d   1      11.845   6.419  -5.379  0.00  0.00     0.001 A 
ATOM     32  C   UNL d   1      12.293   7.367  -3.203  0.00  0.00     0.000 A 
ATOM     33  C   UNL d   1      11.384   6.539  -6.702  0.00  0.00     0.013 A 
ATOM     34  C   UNL d   1      12.310   8.482  -2.359  0.00  0.00     0.000 A 
ATOM     35  C   UNL d   1      11.850   9.719  -2.857  0.00  0.00     0.000 A 
ENDBRANCH  23  26
ENDBRANCH  22  23
ENDBRANCH  21  22
ENDBRANCH  20  21
ENDBRANCH  19  20
ENDBRANCH   1  19
TORSDOF 8
