REMARK  7 active torsions:
REMARK  status: ('A' for Active; 'I' for Inactive)
REMARK    1  A    between atoms: S_2  and  C_3 
REMARK    2  A    between atoms: C_7  and  C_8 
REMARK       I    between atoms: C_8  and  N_10 
REMARK    3  A    between atoms: N_10  and  C_11 
REMARK    4  A    between atoms: C_11  and  C_12 
REMARK    5  A    between atoms: N_16  and  C_17 
REMARK    6  A    between atoms: C_17  and  C_18 
REMARK    7  A    between atoms: C_18  and  C_19 
ROOT
ATOM      1  C   UNL d   1       9.999   7.832  -8.752  0.00  0.00     0.243 C 
ATOM      2  C   UNL d   1      11.040   7.413  -9.802  0.00  0.00     0.037 C 
ATOM      3  C   UNL d   1      12.279   8.240  -9.535  0.00  0.00     0.037 C 
ATOM      4  C   UNL d   1      11.873   9.105  -8.371  0.00  0.00     0.250 C 
ATOM      5  N   UNL d   1      10.832   8.365  -7.678  0.00  0.00     0.137 N 
ENDROOT
BRANCH   1   6
ATOM      6  C   UNL d   1       9.090   6.682  -8.250  0.00  0.00     0.162 C 
BRANCH   6   7
ATOM      7  N   UNL d   1       8.505   5.992  -9.386  0.00  0.00    -0.232 NA
ATOM      8  C   UNL d   1       8.978   4.890  -9.958  0.00  0.00     0.275 C 
ATOM      9  O   UNL d   1       9.852   4.202  -9.443  0.00  0.00    -0.266 OA
BRANCH   8  10
ATOM     10  C   UNL d   1       8.459   4.624 -11.349  0.00  0.00     0.058 A 
ATOM     11  C   UNL d   1       7.108   4.879 -11.668  0.00  0.00     0.005 A 
ATOM     12  C   UNL d   1       6.575   4.498 -12.915  0.00  0.00     0.001 A 
ATOM     13  C   UNL d   1       7.393   3.850 -13.860  0.00  0.00     0.006 A 
ATOM     14  C   UNL d   1       8.751   3.614 -13.572  0.00  0.00     0.025 A 
ATOM     15  C   UNL d   1       9.277   3.991 -12.322  0.00  0.00     0.011 A 
BRANCH  14  16
ATOM     16  S   UNL d   1       9.797   2.803 -14.745  0.00  0.00    -0.113 SA
ATOM     17  C   UNL d   1       8.753   1.671 -15.716  0.00  0.00     0.074 C 
ENDBRANCH  14  16
ENDBRANCH   8  10
ENDBRANCH   6   7
ENDBRANCH   1   6
BRANCH   5  18
ATOM     18  C   UNL d   1      10.077   9.210  -6.755  0.00  0.00     0.255 C 
BRANCH  18  19
ATOM     19  C   UNL d   1      10.953   9.875  -5.660  0.00  0.00     0.062 C 
BRANCH  19  20
ATOM     20  C   UNL d   1      11.437   8.915  -4.574  0.00  0.00    -0.020 A 
ATOM     21  C   UNL d   1      11.460   7.511  -4.759  0.00  0.00    -0.004 A 
ATOM     22  C   UNL d   1      11.866   6.663  -3.723  0.00  0.00    -0.000 A 
ATOM     23  C   UNL d   1      12.271   7.186  -2.480  0.00  0.00    -0.000 A 
ATOM     24  C   UNL d   1      12.267   8.582  -2.285  0.00  0.00    -0.000 A 
ATOM     25  C   UNL d   1      11.855   9.438  -3.328  0.00  0.00    -0.004 A 
ENDBRANCH  19  20
ENDBRANCH  18  19
ENDBRANCH   5  18
TORSDOF 7
