REMARK  7 active torsions:
REMARK  status: ('A' for Active; 'I' for Inactive)
REMARK    1  A    between atoms: O_2  and  C_3 
REMARK    2  A    between atoms: C_8  and  N_9 
REMARK    3  A    between atoms: N_12  and  C_13 
REMARK    4  A    between atoms: C_13  and  C_14 
REMARK    5  A    between atoms: C_14  and  C_15 
REMARK    6  A    between atoms: C_15  and  C_16 
REMARK    7  A    between atoms: N_18  and  C_19 
ROOT
ATOM      1  C   UNL d   1       8.873   5.797 -12.332  0.00  0.00     0.251 C 
ENDROOT
BRANCH   1   2
ATOM      2  N   UNL d   1       9.762   4.828 -12.991  0.00  0.00     0.141 N 
ATOM      3  C   UNL d   1       9.047   3.574 -13.234  0.00  0.00     0.274 C 
ATOM      4  C   UNL d   1       9.962   2.529 -13.910  0.00  0.00     0.137 C 
ATOM      5  N   UNL d   1      10.540   3.075 -15.129  0.00  0.00    -0.343 N 
ATOM      6  C   UNL d   1      11.174   4.377 -14.980  0.00  0.00     0.137 C 
ATOM      7  C   UNL d   1      10.198   5.350 -14.286  0.00  0.00     0.274 C 
BRANCH   5   8
ATOM      8  C   UNL d   1      10.378   2.446 -16.374  0.00  0.00     0.079 A 
ATOM      9  C   UNL d   1       9.915   3.163 -17.515  0.00  0.00     0.110 A 
ATOM     10  C   UNL d   1       9.839   2.491 -18.762  0.00  0.00     0.026 A 
ATOM     11  C   UNL d   1      10.191   1.135 -18.875  0.00  0.00     0.002 A 
ATOM     12  C   UNL d   1      10.619   0.423 -17.740  0.00  0.00     0.002 A 
ATOM     13  C   UNL d   1      10.706   1.079 -16.497  0.00  0.00     0.019 A 
BRANCH   9  14
ATOM     14  O   UNL d   1       9.538   4.480 -17.344  0.00  0.00    -0.327 OA
ATOM     15  C   UNL d   1       9.169   5.242 -18.479  0.00  0.00     0.181 C 
ENDBRANCH   9  14
ENDBRANCH   5   8
ENDBRANCH   1   2
BRANCH   1  16
ATOM     16  C   UNL d   1       9.595   6.523 -11.182  0.00  0.00     0.042 C 
BRANCH  16  17
ATOM     17  C   UNL d   1       9.053   6.167  -9.788  0.00  0.00     0.051 C 
BRANCH  17  18
ATOM     18  C   UNL d   1       9.687   6.978  -8.690  0.00  0.00     0.101 A 
ATOM     19  N   UNL d   1       9.864   8.356  -8.787  0.00  0.00    -0.133 NA
ATOM     20  N   UNL d   1      10.371   8.802  -7.685  0.00  0.00    -0.060 NA
ATOM     21  N   UNL d   1      10.529   7.749  -6.843  0.00  0.00    -0.209 N 
ATOM     22  C   UNL d   1      10.087   6.583  -7.447  0.00  0.00     0.119 A 
BRANCH  21  23
ATOM     23  C   UNL d   1      11.067   7.933  -5.540  0.00  0.00     0.085 A 
ATOM     24  C   UNL d   1      11.238   9.231  -4.992  0.00  0.00     0.021 A 
ATOM     25  C   UNL d   1      11.780   9.399  -3.703  0.00  0.00     0.031 A 
ATOM     26  C   UNL d   1      12.161   8.276  -2.945  0.00  0.00     0.140 A 
ATOM     27  C   UNL d   1      11.999   6.985  -3.479  0.00  0.00     0.031 A 
ATOM     28  F   UNL d   1      12.660   8.433  -1.698  0.00  0.00    -0.204 F 
ATOM     29  C   UNL d   1      11.458   6.815  -4.768  0.00  0.00     0.021 A 
ENDBRANCH  21  23
ENDBRANCH  17  18
ENDBRANCH  16  17
ENDBRANCH   1  16
TORSDOF 7
