REMARK  6 active torsions:
REMARK  status: ('A' for Active; 'I' for Inactive)
REMARK    1  A    between atoms: C_4  and  C_5 
REMARK    2  A    between atoms: C_5  and  N_6 
REMARK    3  A    between atoms: C_9  and  N_10 
REMARK    4  A    between atoms: N_10  and  C_11 
REMARK    5  A    between atoms: C_11  and  C_12 
REMARK    6  A    between atoms: C_15  and  C_16 
ROOT
ATOM      1  N   UNL d   1      10.909   9.428  -6.843  0.00  0.00     0.141 N 
ATOM      2  C   UNL d   1       9.685   8.629  -6.568  0.00  0.00     0.253 C 
ATOM      3  C   UNL d   1       9.057   8.133  -7.858  0.00  0.00     0.071 C 
ATOM      4  C   UNL d   1      10.073   7.339  -8.698  0.00  0.00     0.261 C 
ATOM      5  C   UNL d   1      11.297   8.238  -8.986  0.00  0.00     0.071 C 
ATOM      6  C   UNL d   1      11.926   8.761  -7.681  0.00  0.00     0.253 C 
ENDROOT
BRANCH   4   7
ATOM      7  N   UNL d   1       9.456   6.988  -9.971  0.00  0.00     0.344 N 
BRANCH   7   8
ATOM      8  C   UNL d   1       9.027   5.596  -9.998  0.00  0.00     0.338 C 
BRANCH   8   9
ATOM      9  C   UNL d   1       8.617   5.028 -11.319  0.00  0.00     0.122 A 
ATOM     10  N   UNL d   1       9.462   4.230 -12.073  0.00  0.00    -0.222 NA
ATOM     11  C   UNL d   1       8.769   3.908 -13.163  0.00  0.00     0.182 A 
ATOM     12  O   UNL d   1       7.527   4.470 -13.187  0.00  0.00    -0.286 OA
ATOM     13  C   UNL d   1       7.454   5.190 -12.022  0.00  0.00     0.141 A 
BRANCH  11  14
ATOM     14  C   UNL d   1       9.179   3.048 -14.270  0.00  0.00     0.041 A 
ATOM     15  C   UNL d   1      10.550   2.871 -14.562  0.00  0.00     0.004 A 
ATOM     16  C   UNL d   1      10.947   2.065 -15.648  0.00  0.00     0.000 A 
ATOM     17  C   UNL d   1       9.976   1.427 -16.443  0.00  0.00     0.000 A 
ATOM     18  C   UNL d   1       8.608   1.595 -16.155  0.00  0.00     0.000 A 
ATOM     19  C   UNL d   1       8.211   2.402 -15.070  0.00  0.00     0.004 A 
ENDBRANCH  11  14
ENDBRANCH   8   9
ENDBRANCH   7   8
ENDBRANCH   4   7
BRANCH   1  20
ATOM     20  C   UNL d   1      11.526   9.954  -5.623  0.00  0.00     0.277 C 
BRANCH  20  21
ATOM     21  C   UNL d   1      11.822   8.917  -4.528  0.00  0.00     0.011 A 
ATOM     22  C   UNL d   1      12.072   9.365  -3.206  0.00  0.00    -0.002 A 
ATOM     23  C   UNL d   1      12.270   8.415  -2.164  0.00  0.00    -0.000 A 
ATOM     24  C   UNL d   1      12.175   7.034  -2.418  0.00  0.00    -0.000 A 
ATOM     25  C   UNL d   1      11.860   6.638  -3.730  0.00  0.00    -0.000 A 
ATOM     26  C   UNL d   1      11.727   7.528  -4.778  0.00  0.00    -0.002 A 
ENDBRANCH  20  21
ENDBRANCH   1  20
TORSDOF 6
