REMARK  6 active torsions:
REMARK  status: ('A' for Active; 'I' for Inactive)
REMARK    1  A    between atoms: O_2  and  C_3 
REMARK    2  A    between atoms: C_8  and  N_9 
REMARK    3  A    between atoms: C_12  and  C_13 
REMARK       I    between atoms: C_13  and  N_15 
REMARK    4  A    between atoms: N_15  and  C_16 
REMARK    5  A    between atoms: C_19  and  O_20 
REMARK    6  A    between atoms: C_22  and  N_23 
ROOT
ATOM      1  C   UNL d   1       9.495   6.606 -10.291  0.00  0.00     0.255 C 
ATOM      2  O   UNL d   1       9.023   5.749  -9.548  0.00  0.00    -0.270 OA
ATOM      3  N   UNL d   1       9.431   6.504 -11.631  0.00  0.00    -0.212 NA
ENDROOT
BRANCH   1   4
ATOM      4  C   UNL d   1      10.279   7.831  -9.740  0.00  0.00     0.085 C 
ATOM      5  C   UNL d   1      11.627   7.440  -9.156  0.00  0.00     0.034 C 
ATOM      6  C   UNL d   1      11.444   6.680  -7.790  0.00  0.00     0.102 C 
ATOM      7  N   UNL d   1      10.586   7.384  -6.886  0.00  0.00    -0.347 N 
ATOM      8  C   UNL d   1       9.322   7.918  -7.349  0.00  0.00     0.102 C 
ATOM      9  C   UNL d   1       9.559   8.688  -8.679  0.00  0.00     0.034 C 
BRANCH   7  10
ATOM     10  C   UNL d   1      11.085   7.724  -5.590  0.00  0.00     0.079 A 
ATOM     11  C   UNL d   1      11.348   9.059  -5.262  0.00  0.00     0.110 A 
ATOM     12  C   UNL d   1      11.810   9.367  -3.958  0.00  0.00     0.026 A 
ATOM     13  C   UNL d   1      12.031   8.346  -3.017  0.00  0.00     0.002 A 
ATOM     14  C   UNL d   1      11.794   7.007  -3.381  0.00  0.00     0.002 A 
ATOM     15  C   UNL d   1      11.326   6.709  -4.670  0.00  0.00     0.019 A 
BRANCH  11  16
ATOM     16  O   UNL d   1      11.145   9.987  -6.254  0.00  0.00    -0.327 OA
ATOM     17  C   UNL d   1      11.867  11.193  -6.143  0.00  0.00     0.181 C 
ENDBRANCH  11  16
ENDBRANCH   7  10
ENDBRANCH   1   4
BRANCH   3  18
ATOM     18  C   UNL d   1       8.773   5.469 -12.343  0.00  0.00     0.085 A 
ATOM     19  C   UNL d   1       9.507   4.731 -13.291  0.00  0.00     0.032 A 
ATOM     20  C   UNL d   1       8.882   3.725 -14.052  0.00  0.00     0.061 A 
ATOM     21  C   UNL d   1       7.504   3.450 -13.861  0.00  0.00     0.104 A 
ATOM     22  C   UNL d   1       6.774   4.175 -12.892  0.00  0.00     0.027 A 
ATOM     23  C   UNL d   1       7.405   5.180 -12.131  0.00  0.00     0.021 A 
BRANCH  20  24
ATOM     24  N   UNL d   1       9.661   3.034 -14.997  0.00  0.00    -0.247 NA
ATOM     25  C   UNL d   1       9.245   3.241 -16.383  0.00  0.00     0.112 C 
ATOM     26  C   UNL d   1      10.139   2.474 -17.364  0.00  0.00     0.268 C 
ATOM     27  N   UNL d   1      10.151   1.044 -17.014  0.00  0.00     0.142 N 
ATOM     28  C   UNL d   1      10.713   0.904 -15.671  0.00  0.00     0.268 C 
ATOM     29  C   UNL d   1      10.971   0.326 -17.966  0.00  0.00     0.285 C 
ATOM     30  C   UNL d   1       9.816   1.622 -14.653  0.00  0.00     0.112 C 
ENDBRANCH  20  24
BRANCH  21  31
ATOM     31  O   UNL d   1       6.898   2.509 -14.668  0.00  0.00    -0.327 OA
ATOM     32  C   UNL d   1       6.028   1.580 -14.044  0.00  0.00     0.181 C 
ENDBRANCH  21  31
ENDBRANCH   3  18
TORSDOF 6
