REMARK  8 active torsions:
REMARK  status: ('A' for Active; 'I' for Inactive)
REMARK    1  A    between atoms: C_2  and  C_3 
REMARK    2  A    between atoms: C_3  and  N_4 
REMARK    3  A    between atoms: N_4  and  C_5 
REMARK    4  A    between atoms: N_4  and  C_8 
REMARK    5  A    between atoms: C_5  and  C_6 
REMARK    6  A    between atoms: C_11  and  C_12 
REMARK    7  A    between atoms: N_14  and  C_15 
REMARK    8  A    between atoms: C_15  and  C_16 
ROOT
ATOM      1  C   UNL d   1      10.597   0.731 -16.710  0.00  0.00     0.140 A 
ATOM      2  C   UNL d   1       9.903   0.343 -15.530  0.00  0.00     0.037 A 
ATOM      3  C   UNL d   1       9.580   1.311 -14.567  0.00  0.00     0.003 A 
ATOM      4  C   UNL d   1       9.951   2.653 -14.789  0.00  0.00     0.026 A 
ATOM      5  C   UNL d   1      10.640   2.954 -15.981  0.00  0.00     0.099 A 
ATOM      6  N   UNL d   1      10.978   2.019 -16.892  0.00  0.00    -0.228 NA
ENDROOT
BRANCH   4   7
ATOM      7  C   UNL d   1       9.614   3.726 -13.766  0.00  0.00     0.172 C 
ATOM      8  O   UNL d   1      10.164   4.978 -14.137  0.00  0.00    -0.348 OA
ATOM      9  C   UNL d   1       9.841   5.985 -13.194  0.00  0.00     0.176 C 
ATOM     10  C   UNL d   1       8.328   6.173 -13.057  0.00  0.00     0.249 C 
ATOM     11  N   UNL d   1       7.702   4.920 -12.655  0.00  0.00     0.140 N 
ATOM     12  C   UNL d   1       8.095   7.327 -12.075  0.00  0.00     0.038 C 
ATOM     13  C   UNL d   1       8.095   3.862 -13.588  0.00  0.00     0.284 C 
BRANCH  11  14
ATOM     14  C   UNL d   1       6.248   5.017 -12.563  0.00  0.00     0.250 C 
BRANCH  14  15
ATOM     15  C   UNL d   1       5.633   3.918 -11.697  0.00  0.00     0.035 C 
ATOM     16  C   UNL d   1       5.136   2.688 -12.461  0.00  0.00     0.002 C 
ENDBRANCH  14  15
ENDBRANCH  11  14
ENDBRANCH   4   7
BRANCH   1  17
ATOM     17  N   UNL d   1      10.860  -0.167 -17.773  0.00  0.00    -0.334 N 
BRANCH  17  18
ATOM     18  C   UNL d   1      11.822   0.211 -18.823  0.00  0.00     0.103 C 
BRANCH  18  19
ATOM     19  C   UNL d   1      11.188   0.779 -20.113  0.00  0.00     0.024 C 
ATOM     20  C   UNL d   1      10.515   2.148 -19.925  0.00  0.00     0.002 C 
ENDBRANCH  18  19
ENDBRANCH  17  18
BRANCH  17  21
ATOM     21  C   UNL d   1      10.070  -1.393 -17.918  0.00  0.00     0.103 C 
BRANCH  21  22
ATOM     22  C   UNL d   1       8.758  -1.235 -18.706  0.00  0.00     0.024 C 
ATOM     23  C   UNL d   1       7.723  -0.345 -18.010  0.00  0.00     0.002 C 
ENDBRANCH  21  22
ENDBRANCH  17  21
ENDBRANCH   1  17
TORSDOF 8
