REMARK  3 active torsions:
REMARK  status: ('A' for Active; 'I' for Inactive)
REMARK    1  A    between atoms: C_6  and  C_7 
REMARK    2  A    between atoms: C_7  and  C_8 
REMARK    3  A    between atoms: C_10  and  C_11 
ROOT
ATOM      1  C   UNL d   1       9.910   7.082  -8.034  0.00  0.00     0.094 C 
ATOM      2  N   UNL d   1      10.355   6.885  -6.785  0.00  0.00    -0.242 NA
ATOM      3  C   UNL d   1      10.964   7.997  -6.212  0.00  0.00     0.088 C 
ATOM      4  C   UNL d   1      11.049   9.064  -7.073  0.00  0.00     0.056 C 
ATOM      5  S   UNL d   1      10.143   8.770  -8.521  0.00  0.00    -0.070 SA
ENDROOT
BRANCH   1   6
ATOM      6  C   UNL d   1       9.268   5.978  -8.881  0.00  0.00     0.100 C 
BRANCH   6   7
ATOM      7  C   UNL d   1       9.134   6.197 -10.379  0.00  0.00     0.081 A 
ATOM      8  C   UNL d   1       8.337   5.578 -11.338  0.00  0.00     0.075 A 
ATOM      9  C   UNL d   1       7.420   4.435 -11.260  0.00  0.00     0.053 C 
ATOM     10  N   UNL d   1       8.513   6.305 -12.518  0.00  0.00    -0.227 NA
ATOM     11  C   UNL d   1       9.396   7.243 -12.248  0.00  0.00     0.198 A 
ATOM     12  N   UNL d   1       9.834   7.216 -11.014  0.00  0.00    -0.227 NA
ENDBRANCH   6   7
ENDBRANCH   1   6
BRANCH   3  13
ATOM     13  C   UNL d   1      11.440   7.992  -4.835  0.00  0.00     0.018 A 
ATOM     14  C   UNL d   1      11.650   9.210  -4.180  0.00  0.00     0.002 A 
ATOM     15  C   UNL d   1      12.097   9.239  -2.854  0.00  0.00     0.000 A 
ATOM     16  C   UNL d   1      12.321   8.024  -2.171  0.00  0.00     0.000 A 
ATOM     17  C   UNL d   1      12.100   6.793  -2.818  0.00  0.00     0.000 A 
ATOM     18  C   UNL d   1      11.653   6.783  -4.147  0.00  0.00     0.002 A 
ENDBRANCH   3  13
TORSDOF 3
