REMARK  8 active torsions:
REMARK  status: ('A' for Active; 'I' for Inactive)
REMARK    1  A    between atoms: S_2  and  N_4 
REMARK    2  A    between atoms: S_2  and  C_25 
REMARK    3  A    between atoms: N_4  and  C_5 
REMARK    4  A    between atoms: N_8  and  C_9 
REMARK    5  A    between atoms: C_9  and  C_10 
REMARK    6  A    between atoms: C_10  and  O_11 
REMARK    7  A    between atoms: O_11  and  C_12 
REMARK    8  A    between atoms: C_17  and  C_18 
ROOT
ATOM      1  C   UNL d   1       9.846   5.810  -9.941  0.00  0.00     0.283 C 
ENDROOT
BRANCH   1   2
ATOM      2  N   UNL d   1       9.843   5.973  -8.499  0.00  0.00     0.142 N 
ATOM      3  C   UNL d   1       8.470   6.138  -8.031  0.00  0.00     0.253 C 
ATOM      4  C   UNL d   1       8.593   6.810  -6.679  0.00  0.00     0.063 C 
ATOM      5  C   UNL d   1       9.934   7.463  -6.769  0.00  0.00     0.151 C 
ATOM      6  C   UNL d   1      10.489   7.239  -8.158  0.00  0.00     0.275 C 
BRANCH   5   7
ATOM      7  N   UNL d   1       9.903   8.871  -6.403  0.00  0.00    -0.184 NA
BRANCH   7   8
ATOM      8  S   UNL d   1      11.325   9.544  -5.695  0.00  0.00     0.287 S 
ATOM      9  O   UNL d   1      12.381   9.526  -6.694  0.00  0.00    -0.198 OA
ATOM     10  O   UNL d   1      10.899  10.815  -5.079  0.00  0.00    -0.198 OA
BRANCH   8  11
ATOM     11  C   UNL d   1      11.843   8.491  -4.325  0.00  0.00     0.134 C 
ATOM     12  S   UNL d   1      12.194   9.211  -2.768  0.00  0.00    -0.073 SA
ATOM     13  C   UNL d   1      12.483   7.646  -2.063  0.00  0.00     0.036 C 
ATOM     14  C   UNL d   1      12.264   6.655  -2.982  0.00  0.00     0.008 C 
ATOM     15  C   UNL d   1      12.029   7.133  -4.274  0.00  0.00     0.020 C 
ENDBRANCH   8  11
ENDBRANCH   7   8
ENDBRANCH   5   7
ENDBRANCH   1   2
BRANCH   1  16
ATOM     16  C   UNL d   1       9.437   4.393 -10.310  0.00  0.00     0.184 C 
BRANCH  16  17
ATOM     17  O   UNL d   1       9.330   4.250 -11.713  0.00  0.00    -0.329 OA
BRANCH  17  18
ATOM     18  C   UNL d   1       8.083   4.395 -12.278  0.00  0.00     0.094 A 
ATOM     19  C   UNL d   1       7.782   3.639 -13.443  0.00  0.00     0.022 A 
ATOM     20  C   UNL d   1       6.489   3.719 -14.003  0.00  0.00     0.002 A 
ATOM     21  C   UNL d   1       5.516   4.566 -13.450  0.00  0.00     0.000 A 
ATOM     22  C   UNL d   1       5.842   5.344 -12.329  0.00  0.00     0.002 A 
ATOM     23  C   UNL d   1       7.098   5.245 -11.728  0.00  0.00     0.024 A 
BRANCH  19  24
ATOM     24  C   UNL d   1       8.766   2.732 -14.060  0.00  0.00     0.002 A 
ATOM     25  C   UNL d   1      10.109   3.126 -14.238  0.00  0.00     0.000 A 
ATOM     26  C   UNL d   1      11.048   2.248 -14.803  0.00  0.00     0.000 A 
ATOM     27  C   UNL d   1      10.657   0.957 -15.195  0.00  0.00     0.000 A 
ATOM     28  C   UNL d   1       9.322   0.545 -15.020  0.00  0.00     0.000 A 
ATOM     29  C   UNL d   1       8.386   1.427 -14.451  0.00  0.00     0.000 A 
ENDBRANCH  19  24
ENDBRANCH  17  18
ENDBRANCH  16  17
ENDBRANCH   1  16
TORSDOF 8
