REMARK  4 active torsions:
REMARK  status: ('A' for Active; 'I' for Inactive)
REMARK    1  A    between atoms: C_2  and  C_3 
REMARK    2  A    between atoms: N_11  and  C_12 
REMARK    3  A    between atoms: C_12  and  C_13 
REMARK    4  A    between atoms: C_17  and  C_18 
ROOT
ATOM      1  C   UNL d   1       9.898   3.109 -14.654  0.00  0.00     0.251 C 
ENDROOT
BRANCH   1   2
ATOM      2  N   UNL d   1      10.818   4.132 -15.144  0.00  0.00     0.142 N 
ATOM      3  C   UNL d   1      10.326   4.802 -16.344  0.00  0.00     0.255 C 
ATOM      4  C   UNL d   1      11.214   6.009 -16.673  0.00  0.00     0.061 C 
ATOM      5  C   UNL d   1      12.699   5.673 -16.643  0.00  0.00    -0.022 C 
ATOM      6  C   UNL d   1      13.091   4.531 -16.049  0.00  0.00     0.005 C 
ATOM      7  C   UNL d   1      12.150   3.569 -15.357  0.00  0.00     0.276 C 
BRANCH   5   8
ATOM      8  C   UNL d   1      13.672   6.562 -17.319  0.00  0.00    -0.004 A 
ATOM      9  C   UNL d   1      14.899   6.060 -17.822  0.00  0.00    -0.000 A 
ATOM     10  C   UNL d   1      15.822   6.926 -18.441  0.00  0.00    -0.000 A 
ATOM     11  C   UNL d   1      15.531   8.295 -18.572  0.00  0.00    -0.000 A 
ATOM     12  C   UNL d   1      14.312   8.801 -18.080  0.00  0.00    -0.000 A 
ATOM     13  C   UNL d   1      13.392   7.939 -17.448  0.00  0.00    -0.000 A 
ENDBRANCH   5   8
ENDBRANCH   1   2
BRANCH   1  14
ATOM     14  C   UNL d   1       9.003   3.669 -13.525  0.00  0.00     0.038 C 
ATOM     15  C   UNL d   1       9.693   4.714 -12.610  0.00  0.00     0.028 C 
ATOM     16  C   UNL d   1       8.759   5.425 -11.654  0.00  0.00    -0.026 C 
ATOM     17  C   UNL d   1       7.424   5.367 -11.788  0.00  0.00    -0.030 C 
ATOM     18  C   UNL d   1       6.715   4.594 -12.884  0.00  0.00     0.026 C 
ATOM     19  C   UNL d   1       7.658   4.195 -14.029  0.00  0.00     0.007 C 
BRANCH  16  20
ATOM     20  C   UNL d   1       9.352   6.209 -10.568  0.00  0.00    -0.004 A 
ATOM     21  C   UNL d   1       9.481   5.641  -9.286  0.00  0.00    -0.000 A 
ATOM     22  C   UNL d   1      10.089   6.378  -8.248  0.00  0.00    -0.000 A 
ATOM     23  C   UNL d   1      10.569   7.679  -8.495  0.00  0.00    -0.000 A 
ATOM     24  C   UNL d   1      10.450   8.246  -9.779  0.00  0.00    -0.000 A 
ATOM     25  C   UNL d   1       9.847   7.506 -10.818  0.00  0.00    -0.000 A 
ENDBRANCH  16  20
ENDBRANCH   1  14
TORSDOF 4
