REMARK  4 active torsions:
REMARK  status: ('A' for Active; 'I' for Inactive)
REMARK       I    between atoms: C_2  and  N_3 
REMARK    1  A    between atoms: C_2  and  C_26 
REMARK    2  A    between atoms: N_3  and  C_4 
REMARK    3  A    between atoms: N_10  and  S_11 
REMARK    4  A    between atoms: S_11  and  C_14 
ROOT
ATOM      1  C   UNL d   1       7.929   4.992 -11.870  0.00  0.00     0.086 A 
ATOM      2  C   UNL d   1       6.627   4.486 -12.043  0.00  0.00     0.019 A 
ATOM      3  C   UNL d   1       6.333   3.596 -13.100  0.00  0.00     0.005 A 
ATOM      4  C   UNL d   1       7.347   3.186 -14.002  0.00  0.00     0.040 A 
ATOM      5  C   UNL d   1       7.444   2.325 -15.141  0.00  0.00     0.123 A 
ATOM      6  N   UNL d   1       8.672   2.283 -15.603  0.00  0.00    -0.154 NA
ATOM      7  N   UNL d   1       9.392   3.148 -14.839  0.00  0.00    -0.152 N 
ATOM      8  C   UNL d   1       8.654   3.719 -13.816  0.00  0.00     0.098 A 
ATOM      9  C   UNL d   1       8.943   4.619 -12.777  0.00  0.00     0.039 A 
ENDROOT
BRANCH   7  10
ATOM     10  S   UNL d   1      11.053   3.393 -15.245  0.00  0.00     0.286 S 
ATOM     11  O   UNL d   1      11.665   3.993 -14.047  0.00  0.00    -0.198 OA
ATOM     12  O   UNL d   1      11.529   2.101 -15.758  0.00  0.00    -0.198 OA
BRANCH  10  13
ATOM     13  C   UNL d   1      11.062   4.599 -16.600  0.00  0.00     0.105 A 
ATOM     14  C   UNL d   1      12.229   5.349 -16.936  0.00  0.00     0.012 A 
ATOM     15  C   UNL d   1      12.166   6.261 -18.027  0.00  0.00     0.001 A 
ATOM     16  C   UNL d   1      13.456   5.213 -16.241  0.00  0.00     0.001 A 
ATOM     17  C   UNL d   1      10.979   6.418 -18.768  0.00  0.00     0.000 A 
ATOM     18  C   UNL d   1      13.296   7.021 -18.391  0.00  0.00     0.000 A 
ATOM     19  C   UNL d   1       9.839   5.670 -18.432  0.00  0.00     0.001 A 
ATOM     20  C   UNL d   1       9.881   4.765 -17.360  0.00  0.00     0.013 A 
ATOM     21  C   UNL d   1      14.501   6.886 -17.680  0.00  0.00     0.000 A 
ATOM     22  C   UNL d   1      14.580   5.982 -16.607  0.00  0.00     0.000 A 
ENDBRANCH  10  13
ENDBRANCH   7  10
BRANCH   1  23
ATOM     23  N   UNL d   1       8.214   5.902 -10.825  0.00  0.00    -0.212 NA
ATOM     24  C   UNL d   1       9.139   5.723  -9.868  0.00  0.00     0.255 C 
ATOM     25  O   UNL d   1       9.705   4.649  -9.668  0.00  0.00    -0.270 OA
BRANCH  24  26
ATOM     26  C   UNL d   1       9.460   6.943  -8.987  0.00  0.00     0.085 C 
ATOM     27  C   UNL d   1       9.460   6.608  -7.488  0.00  0.00     0.048 C 
ATOM     28  C   UNL d   1       9.851   7.837  -6.652  0.00  0.00     0.291 C 
ATOM     29  N   UNL d   1      11.170   8.320  -7.046  0.00  0.00     0.339 N 
ATOM     30  C   UNL d   1      11.151   8.761  -8.438  0.00  0.00     0.291 C 
ATOM     31  C   UNL d   1      10.801   7.587  -9.374  0.00  0.00     0.048 C 
ENDBRANCH  24  26
ENDBRANCH   1  23
TORSDOF 4
