REMARK  4 active torsions:
REMARK  status: ('A' for Active; 'I' for Inactive)
REMARK    1  A    between atoms: C_2  and  C_4 
REMARK    2  A    between atoms: C_4  and  C_5 
REMARK    3  A    between atoms: C_5  and  C_6 
REMARK    4  A    between atoms: C_6  and  C_7 
ROOT
ATOM      1  C   UNL d   1      11.175   7.506  -6.118  0.00  0.00     0.034 C 
ENDROOT
BRANCH   1   2
ATOM      2  C   UNL d   1       9.777   8.023  -6.478  0.00  0.00     0.017 C 
BRANCH   2   3
ATOM      3  C   UNL d   1       9.330   7.732  -7.924  0.00  0.00     0.098 C 
BRANCH   3   4
ATOM      4  C   UNL d   1      10.160   8.419  -9.027  0.00  0.00     0.185 C 
ATOM      5  O   UNL d   1      11.335   8.748  -8.893  0.00  0.00    -0.647 OA
ATOM      6  O   UNL d   1       9.452   8.577 -10.171  0.00  0.00    -0.647 OA
ENDBRANCH   3   4
ENDBRANCH   2   3
ENDBRANCH   1   2
BRANCH   1   7
ATOM      7  C   UNL d   1      11.568   7.752  -4.708  0.00  0.00     0.007 A 
ATOM      8  S   UNL d   1      11.809   9.375  -4.118  0.00  0.00    -0.091 SA
ATOM      9  C   UNL d   1      12.265   8.778  -2.547  0.00  0.00     0.035 A 
ATOM     10  C   UNL d   1      12.248   7.406  -2.506  0.00  0.00     0.007 A 
ATOM     11  C   UNL d   1      11.860   6.826  -3.749  0.00  0.00     0.003 A 
ENDBRANCH   1   7
TORSDOF 4
