REMARK  2 active torsions:
REMARK  status: ('A' for Active; 'I' for Inactive)
REMARK    1  A    between atoms: C_2  and  C_3 
REMARK    2  A    between atoms: C_3  and  N_4 
ROOT
ATOM      1  N   UNL d   1      11.537   8.320  -5.037  0.00  0.00     0.143 N 
ATOM      2  C   UNL d   1      12.265   9.561  -5.293  0.00  0.00     0.282 C 
ATOM      3  C   UNL d   1      11.502  10.479  -6.251  0.00  0.00     0.178 C 
ATOM      4  O   UNL d   1      11.241   9.796  -7.474  0.00  0.00    -0.348 OA
ATOM      5  C   UNL d   1      10.488   8.618  -7.284  0.00  0.00     0.173 C 
ATOM      6  C   UNL d   1      10.169   7.967  -8.613  0.00  0.00     0.031 A 
ATOM      7  C   UNL d   1       9.846   8.743  -9.748  0.00  0.00     0.028 A 
ATOM      8  C   UNL d   1       9.461   8.094 -10.945  0.00  0.00     0.131 A 
ATOM      9  O   UNL d   1       9.001   8.791 -12.019  0.00  0.00    -0.190 OA
ATOM     10  C   UNL d   1       9.475   6.697 -11.033  0.00  0.00     0.029 A 
ATOM     11  C   UNL d   1       9.825   5.932  -9.918  0.00  0.00     0.026 A 
ATOM     12  C   UNL d   1      10.156   6.557  -8.694  0.00  0.00     0.092 A 
ATOM     13  O   UNL d   1      10.489   5.763  -7.639  0.00  0.00    -0.329 OA
ATOM     14  C   UNL d   1      10.534   6.357  -6.347  0.00  0.00     0.185 C 
ATOM     15  C   UNL d   1      11.294   7.683  -6.360  0.00  0.00     0.280 C 
ENDROOT
BRANCH   1  16
ATOM     16  C   UNL d   1      12.262   7.499  -4.042  0.00  0.00     0.251 C 
BRANCH  16  17
ATOM     17  C   UNL d   1      11.977   7.823  -2.563  0.00  0.00     0.035 C 
ATOM     18  C   UNL d   1      12.495   9.175  -2.055  0.00  0.00     0.002 C 
ENDBRANCH  16  17
ENDBRANCH   1  16
TORSDOF 2
