REMARK  4 active torsions:
REMARK  status: ('A' for Active; 'I' for Inactive)
REMARK    1  A    between atoms: C_5  and  N_6 
REMARK       I    between atoms: N_6  and  C_7 
REMARK       I    between atoms: C_7  and  N_9 
REMARK    2  A    between atoms: N_9  and  C_10 
REMARK    3  A    between atoms: N_9  and  N_13 
REMARK    4  A    between atoms: C_10  and  C_11 
ROOT
ATOM      1  N   UNL d   1       9.843   6.986 -10.640  0.00  0.00    -0.220 NA
ATOM      2  C   UNL d   1       9.273   6.526 -11.749  0.00  0.00     0.359 C 
ATOM      3  O   UNL d   1       9.399   7.139 -12.823  0.00  0.00    -0.244 OA
ATOM      4  N   UNL d   1       8.696   5.320 -11.615  0.00  0.00    -0.199 N 
ENDROOT
BRANCH   1   5
ATOM      5  C   UNL d   1      10.581   8.236 -10.435  0.00  0.00     0.108 C 
ATOM      6  C   UNL d   1       9.714   9.218  -9.638  0.00  0.00     0.025 C 
ATOM      7  C   UNL d   1       9.464   8.817  -8.175  0.00  0.00     0.002 C 
ATOM      8  C   UNL d   1      10.770   8.490  -7.433  0.00  0.00     0.000 C 
ATOM      9  C   UNL d   1      10.442   7.950  -6.035  0.00  0.00     0.000 C 
ATOM     10  C   UNL d   1      11.602   7.457  -8.215  0.00  0.00     0.002 C 
ATOM     11  C   UNL d   1      11.874   7.903  -9.669  0.00  0.00     0.025 C 
ENDBRANCH   1   5
BRANCH   4  12
ATOM     12  C   UNL d   1       7.635   5.041 -10.592  0.00  0.00     0.146 C 
BRANCH  12  13
ATOM     13  C   UNL d   1       8.077   5.421  -9.157  0.00  0.00     0.121 C 
ATOM     14 CL   UNL d   1       9.536   4.544  -8.722  0.00  0.00    -0.112 Cl
ENDBRANCH  12  13
ENDBRANCH   4  12
BRANCH   4  15
ATOM     15  N   UNL d   1       8.798   4.298 -12.540  0.00  0.00     0.064 NA
ATOM     16  O   UNL d   1       9.829   4.307 -13.201  0.00  0.00    -0.076 OA
ENDBRANCH   4  15
TORSDOF 4
