REMARK  6 active torsions:
REMARK  status: ('A' for Active; 'I' for Inactive)
REMARK       I    between atoms: C_2  and  N_3 
REMARK    1  A    between atoms: C_2  and  C_27 
REMARK    2  A    between atoms: N_3  and  C_4 
REMARK    3  A    between atoms: C_7  and  C_8 
REMARK    4  A    between atoms: C_8  and  C_9 
REMARK    5  A    between atoms: C_9  and  N_10 
REMARK    6  A    between atoms: C_13  and  C_14 
ROOT
ATOM      1  C   UNL d   1       8.604   3.859 -13.329  0.00  0.00     0.035 C 
ENDROOT
BRANCH   1   2
ATOM      2  C   UNL d   1       8.580   5.022 -12.322  0.00  0.00     0.002 C 
ATOM      3  C   UNL d   1       8.607   4.424 -10.938  0.00  0.00     0.002 C 
ATOM      4  C   UNL d   1       8.626   5.401  -9.773  0.00  0.00     0.024 C 
ATOM      5  C   UNL d   1       9.782   6.375  -9.939  0.00  0.00     0.106 C 
ATOM      6  C   UNL d   1       9.720   7.052 -11.301  0.00  0.00     0.024 C 
ATOM      7  C   UNL d   1       9.753   5.986 -12.419  0.00  0.00     0.002 C 
BRANCH   5   8
ATOM      8  N   UNL d   1       9.735   7.390  -8.919  0.00  0.00    -0.240 NA
ATOM      9  C   UNL d   1      10.392   7.329  -7.772  0.00  0.00     0.251 C 
ATOM     10  O   UNL d   1      10.974   6.322  -7.359  0.00  0.00    -0.271 OA
BRANCH   9  11
ATOM     11  C   UNL d   1      10.458   8.611  -6.978  0.00  0.00     0.086 C 
ATOM     12  C   UNL d   1      10.371   8.342  -5.472  0.00  0.00     0.042 C 
ATOM     13  C   UNL d   1      10.542   9.659  -4.686  0.00  0.00     0.143 C 
ATOM     14  O   UNL d   1      11.784  10.188  -5.059  0.00  0.00    -0.354 OA
ATOM     15  C   UNL d   1      11.865  10.557  -6.423  0.00  0.00     0.143 C 
ATOM     16  C   UNL d   1      11.782   9.314  -7.292  0.00  0.00     0.042 C 
ENDBRANCH   9  11
ENDBRANCH   5   8
ENDBRANCH   1   2
BRANCH   1  17
ATOM     17  C   UNL d   1       8.431   4.254 -14.774  0.00  0.00     0.250 C 
BRANCH  17  18
ATOM     18  N   UNL d   1       9.532   4.936 -15.445  0.00  0.00     0.137 N 
ATOM     19  C   UNL d   1      10.777   4.263 -15.193  0.00  0.00     0.251 C 
ATOM     20  C   UNL d   1      11.892   5.123 -15.712  0.00  0.00     0.040 C 
ATOM     21  C   UNL d   1      11.810   5.368 -17.231  0.00  0.00     0.026 C 
ATOM     22  C   UNL d   1      10.387   5.898 -17.548  0.00  0.00     0.040 C 
ATOM     23  C   UNL d   1       9.275   5.108 -16.886  0.00  0.00     0.251 C 
BRANCH  21  24
ATOM     24  C   UNL d   1      12.914   6.323 -17.759  0.00  0.00    -0.024 A 
ATOM     25  C   UNL d   1      14.290   6.063 -17.485  0.00  0.00    -0.001 A 
ATOM     26  C   UNL d   1      15.322   6.889 -17.919  0.00  0.00     0.090 A 
ATOM     27  C   UNL d   1      14.863   4.954 -16.710  0.00  0.00     0.061 A 
ATOM     28  C   UNL d   1      15.052   8.052 -18.654  0.00  0.00     0.024 A 
ATOM     29  O   UNL d   1      16.555   6.434 -17.549  0.00  0.00    -0.331 OA
ATOM     30  C   UNL d   1      13.717   8.349 -18.961  0.00  0.00     0.002 A 
ATOM     31  C   UNL d   1      12.649   7.484 -18.517  0.00  0.00    -0.004 A 
ATOM     32  C   UNL d   1      16.358   5.238 -16.790  0.00  0.00     0.154 A 
ENDBRANCH  21  24
ENDBRANCH  17  18
ENDBRANCH   1  17
TORSDOF 6
