REMARK  7 active torsions:
REMARK  status: ('A' for Active; 'I' for Inactive)
REMARK       I    between atoms: C_2  and  N_3 
REMARK    1  A    between atoms: C_2  and  C_22 
REMARK    2  A    between atoms: N_3  and  C_4 
REMARK    3  A    between atoms: C_4  and  C_5 
REMARK    4  A    between atoms: C_5  and  C_6 
REMARK    5  A    between atoms: C_6  and  C_7 
REMARK    6  A    between atoms: C_7  and  N_8 
REMARK    7  A    between atoms: N_11  and  C_12 
ROOT
ATOM      1  N   UNL d   1       7.857   5.154 -12.670  0.00  0.00     0.141 N 
ATOM      2  C   UNL d   1       8.757   4.658 -13.726  0.00  0.00     0.274 C 
ATOM      3  C   UNL d   1       8.673   3.134 -13.805  0.00  0.00     0.137 C 
ATOM      4  N   UNL d   1       7.291   2.720 -14.036  0.00  0.00    -0.344 N 
ATOM      5  C   UNL d   1       6.320   3.257 -13.076  0.00  0.00     0.137 C 
ATOM      6  C   UNL d   1       6.463   4.778 -12.959  0.00  0.00     0.274 C 
ENDROOT
BRANCH   1   7
ATOM      7  C   UNL d   1       7.913   6.615 -12.562  0.00  0.00     0.251 C 
BRANCH   7   8
ATOM      8  C   UNL d   1       9.268   7.120 -12.054  0.00  0.00     0.037 C 
BRANCH   8   9
ATOM      9  C   UNL d   1       9.496   6.774 -10.573  0.00  0.00     0.029 C 
BRANCH   9  10
ATOM     10  C   UNL d   1      10.801   7.365 -10.036  0.00  0.00     0.129 C 
BRANCH  10  11
ATOM     11  N   UNL d   1      10.866   7.306  -8.578  0.00  0.00    -0.234 NA
ATOM     12  C   UNL d   1      10.391   8.272  -7.779  0.00  0.00     0.275 C 
ATOM     13  O   UNL d   1       9.678   9.185  -8.176  0.00  0.00    -0.266 OA
BRANCH  12  14
ATOM     14  C   UNL d   1      10.892   8.248  -6.366  0.00  0.00     0.058 A 
ATOM     15  C   UNL d   1      11.207   7.026  -5.722  0.00  0.00     0.005 A 
ATOM     16  C   UNL d   1      11.697   7.026  -4.399  0.00  0.00     0.006 A 
ATOM     17  C   UNL d   1      11.859   8.242  -3.708  0.00  0.00     0.030 A 
ATOM     18  C   UNL d   1      11.525   9.456  -4.331  0.00  0.00     0.006 A 
ATOM     19  I   UNL d   1      12.574   8.266  -1.748  0.00  0.00    -0.043 I 
ATOM     20  C   UNL d   1      11.048   9.460  -5.655  0.00  0.00     0.005 A 
ENDBRANCH  12  14
ENDBRANCH  10  11
ENDBRANCH   9  10
ENDBRANCH   8   9
ENDBRANCH   7   8
ENDBRANCH   1   7
BRANCH   4  21
ATOM     21  C   UNL d   1       6.965   1.783 -15.027  0.00  0.00     0.068 A 
ATOM     22  C   UNL d   1       6.081   0.687 -14.809  0.00  0.00     0.084 A 
ATOM     23  C   UNL d   1       5.737  -0.158 -15.886  0.00  0.00     0.070 A 
ATOM     24 CL   UNL d   1       5.419   0.361 -13.238  0.00  0.00    -0.080 Cl
ATOM     25  C   UNL d   1       6.301   0.048 -17.158  0.00  0.00     0.012 A 
ATOM     26 CL   UNL d   1       4.621  -1.449 -15.673  0.00  0.00    -0.081 Cl
ATOM     27  C   UNL d   1       7.215   1.097 -17.363  0.00  0.00     0.002 A 
ATOM     28  C   UNL d   1       7.542   1.960 -16.308  0.00  0.00     0.018 A 
ENDBRANCH   4  21
TORSDOF 7
