REMARK  6 active torsions:
REMARK  status: ('A' for Active; 'I' for Inactive)
REMARK    1  A    between atoms: C_2  and  C_3 
REMARK    2  A    between atoms: C_3  and  N_4 
REMARK    3  A    between atoms: N_4  and  C_5 
REMARK    4  A    between atoms: N_4  and  C_8 
REMARK    5  A    between atoms: C_5  and  C_6 
REMARK    6  A    between atoms: C_13  and  O_14 
ROOT
ATOM      1  C   UNL d   1       9.143   5.077 -13.004  0.00  0.00     0.224 C 
ATOM      2  C   UNL d   1       8.764   3.599 -12.735  0.00  0.00     0.038 C 
ATOM      3  C   UNL d   1       8.687   2.800 -14.023  0.00  0.00     0.028 C 
ATOM      4  C   UNL d   1       9.862   3.030 -14.938  0.00  0.00    -0.024 A 
ATOM      5  C   UNL d   1      10.070   2.111 -15.976  0.00  0.00     0.020 A 
ATOM      6  C   UNL d   1      11.157   2.262 -16.872  0.00  0.00     0.094 A 
ATOM      7  C   UNL d   1      12.018   3.377 -16.713  0.00  0.00     0.024 A 
ATOM      8  C   UNL d   1      11.796   4.309 -15.679  0.00  0.00    -0.003 A 
ATOM      9  C   UNL d   1      10.721   4.139 -14.784  0.00  0.00    -0.024 A 
ATOM     10  C   UNL d   1      10.522   5.134 -13.659  0.00  0.00     0.059 C 
ENDROOT
BRANCH   1  11
ATOM     11  N   UNL d   1       9.037   5.893 -11.783  0.00  0.00     0.135 N 
BRANCH  11  12
ATOM     12  C   UNL d   1       9.275   7.329 -12.008  0.00  0.00     0.250 C 
BRANCH  12  13
ATOM     13  C   UNL d   1       9.544   8.097 -10.693  0.00  0.00     0.035 C 
ATOM     14  C   UNL d   1      11.041   8.245 -10.408  0.00  0.00     0.002 C 
ENDBRANCH  12  13
ENDBRANCH  11  12
BRANCH  11  15
ATOM     15  C   UNL d   1       7.772   5.676 -11.047  0.00  0.00     0.250 C 
BRANCH  15  16
ATOM     16  C   UNL d   1       6.513   6.006 -11.880  0.00  0.00     0.035 C 
ATOM     17  C   UNL d   1       6.050   4.944 -12.882  0.00  0.00     0.002 C 
ENDBRANCH  15  16
ENDBRANCH  11  15
ENDBRANCH   1  11
BRANCH   6  18
ATOM     18  O   UNL d   1      11.426   1.375 -17.893  0.00  0.00    -0.328 OA
ATOM     19  C   UNL d   1      10.554   0.256 -18.013  0.00  0.00     0.181 C 
ENDBRANCH   6  18
TORSDOF 6
