REMARK  4 active torsions:
REMARK  status: ('A' for Active; 'I' for Inactive)
REMARK    1  A    between atoms: C_8  and  N_9 
REMARK    2  A    between atoms: N_12  and  C_13 
REMARK    3  A    between atoms: C_13  and  N_14 
REMARK       I    between atoms: N_14  and  C_15 
REMARK    4  A    between atoms: C_15  and  C_17 
ROOT
ATOM      1  N   UNL d   1       4.864  -0.932 -14.121  0.00  0.00    -0.191 NA
ATOM      2  C   UNL d   1       5.477  -0.473 -14.983  0.00  0.00     0.102 C 
ATOM      3  C   UNL d   1       6.249   0.126 -16.064  0.00  0.00     0.084 A 
ATOM      4  C   UNL d   1       6.154  -0.488 -17.329  0.00  0.00     0.012 A 
ATOM      5  C   UNL d   1       6.862   0.020 -18.428  0.00  0.00     0.001 A 
ATOM      6  C   UNL d   1       7.678   1.151 -18.270  0.00  0.00     0.002 A 
ATOM      7  C   UNL d   1       7.775   1.774 -17.011  0.00  0.00     0.018 A 
ATOM      8  C   UNL d   1       7.062   1.285 -15.889  0.00  0.00     0.066 A 
ENDROOT
BRANCH   8   9
ATOM      9  N   UNL d   1       7.190   1.959 -14.652  0.00  0.00    -0.345 N 
ATOM     10  C   UNL d   1       8.457   2.541 -14.240  0.00  0.00     0.119 C 
ATOM     11  C   UNL d   1       8.243   4.003 -13.861  0.00  0.00     0.102 C 
ATOM     12  N   UNL d   1       7.208   4.150 -12.818  0.00  0.00    -0.232 NA
ATOM     13  C   UNL d   1       5.940   3.647 -13.345  0.00  0.00     0.102 C 
ATOM     14  C   UNL d   1       6.092   2.172 -13.707  0.00  0.00     0.119 C 
BRANCH  12  15
ATOM     15  C   UNL d   1       7.052   5.540 -12.405  0.00  0.00     0.152 C 
BRANCH  15  16
ATOM     16  N   UNL d   1       7.745   5.950 -11.203  0.00  0.00    -0.194 NA
ATOM     17  C   UNL d   1       9.073   6.040 -11.077  0.00  0.00     0.280 C 
ATOM     18  O   UNL d   1       9.855   5.759 -11.969  0.00  0.00    -0.265 OA
BRANCH  17  19
ATOM     19  C   UNL d   1       9.582   6.606  -9.790  0.00  0.00     0.058 A 
ATOM     20  C   UNL d   1       9.054   6.184  -8.550  0.00  0.00     0.006 A 
ATOM     21  C   UNL d   1       9.538   6.735  -7.348  0.00  0.00     0.012 A 
ATOM     22  C   UNL d   1      10.575   7.687  -7.379  0.00  0.00     0.058 A 
ATOM     23  C   UNL d   1      11.131   8.096  -8.610  0.00  0.00     0.012 A 
ATOM     24 CL   UNL d   1      11.155   8.369  -5.901  0.00  0.00    -0.082 Cl
ATOM     25  C   UNL d   1      10.627   7.554  -9.809  0.00  0.00     0.006 A 
ENDBRANCH  17  19
ENDBRANCH  15  16
ENDBRANCH  12  15
ENDBRANCH   8   9
TORSDOF 4
