REMARK  8 active torsions:
REMARK  status: ('A' for Active; 'I' for Inactive)
REMARK    1  A    between atoms: C_6  and  C_7 
REMARK    2  A    between atoms: C_10  and  S_11 
REMARK    3  A    between atoms: S_11  and  C_12 
REMARK    4  A    between atoms: C_12  and  C_13 
REMARK    5  A    between atoms: C_13  and  C_14 
REMARK    6  A    between atoms: C_14  and  N_15 
REMARK    7  A    between atoms: C_20  and  C_21 
REMARK    8  A    between atoms: C_27  and  C_28 
ROOT
ATOM      1  N   UNL d   1      12.203   4.083 -17.104  0.00  0.00     0.137 N 
ATOM      2  C   UNL d   1      11.047   4.293 -17.994  0.00  0.00     0.250 C 
ATOM      3  C   UNL d   1       9.954   3.402 -17.400  0.00  0.00     0.038 C 
ATOM      4  C   UNL d   1      10.683   2.338 -16.606  0.00  0.00     0.037 A 
ATOM      5  C   UNL d   1      10.200   0.924 -16.531  0.00  0.00     0.007 A 
ATOM      6  C   UNL d   1      10.196   1.782 -15.299  0.00  0.00     0.024 A 
ATOM      7  C   UNL d   1      12.158   2.655 -16.844  0.00  0.00     0.251 C 
ENDROOT
BRANCH   1   8
ATOM      8  C   UNL d   1      13.459   4.474 -17.692  0.00  0.00     0.251 C 
BRANCH   8   9
ATOM      9  C   UNL d   1      13.572   6.002 -17.874  0.00  0.00     0.047 C 
BRANCH   9  10
ATOM     10  C   UNL d   1      14.747   6.479 -18.727  0.00  0.00     0.067 C 
BRANCH  10  11
ATOM     11  S   UNL d   1      16.340   6.436 -17.856  0.00  0.00    -0.075 SA
BRANCH  11  12
ATOM     12  C   UNL d   1      17.172   7.819 -18.568  0.00  0.00     0.193 A 
ATOM     13  N   UNL d   1      16.654   8.643 -19.464  0.00  0.00    -0.122 NA
ATOM     14  N   UNL d   1      17.617   9.596 -19.700  0.00  0.00    -0.126 NA
ATOM     15  C   UNL d   1      18.650   9.277 -18.907  0.00  0.00     0.191 A 
ATOM     16  N   UNL d   1      18.433   8.158 -18.193  0.00  0.00    -0.287 N 
ATOM     17  C   UNL d   1      19.322   7.501 -17.230  0.00  0.00     0.134 C 
BRANCH  15  18
ATOM     18  C   UNL d   1      19.866  10.088 -18.933  0.00  0.00     0.151 A 
ATOM     19  C   UNL d   1      20.636  10.718 -17.980  0.00  0.00     0.087 A 
ATOM     20  C   UNL d   1      20.478  10.793 -16.487  0.00  0.00     0.054 C 
ATOM     21  N   UNL d   1      21.686  11.349 -18.619  0.00  0.00    -0.221 NA
ATOM     22  C   UNL d   1      21.497  11.113 -19.909  0.00  0.00     0.225 A 
ATOM     23  O   UNL d   1      20.398  10.352 -20.165  0.00  0.00    -0.282 OA
ENDBRANCH  15  18
ENDBRANCH  11  12
ENDBRANCH  10  11
ENDBRANCH   9  10
ENDBRANCH   8   9
ENDBRANCH   1   8
BRANCH   6  24
ATOM     24  C   UNL d   1       8.914   2.264 -14.673  0.00  0.00    -0.018 A 
ATOM     25  C   UNL d   1       8.784   3.568 -14.096  0.00  0.00     0.070 A 
ATOM     26  C   UNL d   1       7.507   3.948 -13.610  0.00  0.00     0.033 A 
ATOM     27  C   UNL d   1       6.421   3.071 -13.653  0.00  0.00     0.140 A 
ATOM     28  C   UNL d   1       6.559   1.772 -14.167  0.00  0.00     0.029 A 
ATOM     29  F   UNL d   1       5.214   3.461 -13.153  0.00  0.00    -0.204 F 
ATOM     30  C   UNL d   1       7.815   1.376 -14.668  0.00  0.00    -0.002 A 
BRANCH  25  31
ATOM     31  C   UNL d   1       9.951   4.557 -13.977  0.00  0.00     0.419 C 
ATOM     32  F   UNL d   1       9.685   5.478 -13.035  0.00  0.00    -0.166 F 
ATOM     33  F   UNL d   1      11.079   3.957 -13.606  0.00  0.00    -0.166 F 
ATOM     34  F   UNL d   1      10.172   5.173 -15.128  0.00  0.00    -0.166 F 
ENDBRANCH  25  31
ENDBRANCH   6  24
TORSDOF 8
