REMARK  1 active torsions:
REMARK  status: ('A' for Active; 'I' for Inactive)
REMARK    1  A    between atoms: O_2  and  C_3 
ROOT
ATOM      1  C   UNL d   1       8.451   1.391 -18.481  0.00  0.00     0.094 A 
ATOM      2  C   UNL d   1       7.217   1.511 -17.800  0.00  0.00     0.024 A 
ATOM      3  C   UNL d   1       7.197   1.672 -16.409  0.00  0.00    -0.002 A 
ATOM      4  C   UNL d   1       8.387   1.677 -15.664  0.00  0.00    -0.022 A 
ATOM      5  C   UNL d   1       9.639   1.487 -16.324  0.00  0.00    -0.022 A 
ATOM      6  C   UNL d   1       9.644   1.361 -17.732  0.00  0.00     0.020 A 
ATOM      7  C   UNL d   1      11.007   1.470 -15.620  0.00  0.00     0.061 C 
ATOM      8  C   UNL d   1      11.816   2.765 -15.864  0.00  0.00     0.255 C 
ATOM      9  N   UNL d   1      12.041   3.593 -14.687  0.00  0.00     0.140 N 
ATOM     10  C   UNL d   1      12.761   4.787 -15.078  0.00  0.00     0.285 C 
ATOM     11  C   UNL d   1      10.892   3.881 -13.832  0.00  0.00     0.255 C 
ATOM     12  C   UNL d   1       9.701   4.506 -14.571  0.00  0.00     0.061 C 
ATOM     13  C   UNL d   1       8.394   4.432 -13.800  0.00  0.00    -0.024 A 
ATOM     14  C   UNL d   1       7.897   5.594 -13.178  0.00  0.00    -0.004 A 
ATOM     15  C   UNL d   1       6.673   5.591 -12.497  0.00  0.00    -0.000 A 
ATOM     16  C   UNL d   1       5.922   4.391 -12.424  0.00  0.00    -0.000 A 
ATOM     17  C   UNL d   1       6.392   3.234 -13.059  0.00  0.00    -0.004 A 
ATOM     18  C   UNL d   1       7.655   3.211 -13.699  0.00  0.00    -0.022 A 
ATOM     19  C   UNL d   1       8.222   1.860 -14.167  0.00  0.00     0.052 C 
ENDROOT
BRANCH   1  20
ATOM     20  O   UNL d   1       8.569   1.280 -19.847  0.00  0.00    -0.328 OA
ATOM     21  C   UNL d   1       7.379   1.258 -20.618  0.00  0.00     0.181 C 
ENDBRANCH   1  20
TORSDOF 1
