REMARK  6 active torsions:
REMARK  status: ('A' for Active; 'I' for Inactive)
REMARK    1  A    between atoms: C_2  and  O_4 
REMARK    2  A    between atoms: O_4  and  C_5 
REMARK    3  A    between atoms: C_11  and  N_12 
REMARK    4  A    between atoms: C_13  and  N_14 
REMARK    5  A    between atoms: N_14  and  C_16 
REMARK    6  A    between atoms: C_16  and  C_17 
ROOT
ATOM      1  C   UNL d   1       8.847   5.121 -13.842  0.00  0.00     0.147 C 
ATOM      2  C   UNL d   1       8.716   6.247 -12.789  0.00  0.00     0.040 C 
ATOM      3  C   UNL d   1       7.325   6.103 -12.126  0.00  0.00     0.029 C 
ATOM      4  C   UNL d   1       6.854   4.747 -12.569  0.00  0.00    -0.024 A 
ATOM      5  C   UNL d   1       5.719   4.052 -12.133  0.00  0.00    -0.003 A 
ATOM      6  C   UNL d   1       5.455   2.783 -12.688  0.00  0.00     0.019 A 
ATOM      7  C   UNL d   1       6.296   2.228 -13.679  0.00  0.00     0.083 A 
ATOM      8  C   UNL d   1       7.464   2.938 -14.070  0.00  0.00     0.017 A 
ATOM      9  C   UNL d   1       7.713   4.198 -13.509  0.00  0.00     0.003 A 
ENDROOT
BRANCH   7  10
ATOM     10  N   UNL d   1       5.978   0.961 -14.180  0.00  0.00    -0.226 NA
ATOM     11  C   UNL d   1       6.247   0.740 -15.426  0.00  0.00     0.175 C 
BRANCH  11  12
ATOM     12  N   UNL d   1       6.014  -0.445 -16.098  0.00  0.00    -0.325 N 
ATOM     13  C   UNL d   1       4.942  -1.353 -15.709  0.00  0.00     0.127 C 
BRANCH  12  14
ATOM     14  C   UNL d   1       6.797  -0.776 -17.285  0.00  0.00     0.130 C 
BRANCH  14  15
ATOM     15  C   UNL d   1       6.324  -0.102 -18.562  0.00  0.00     0.000 A 
ATOM     16  C   UNL d   1       4.963  -0.162 -18.929  0.00  0.00    -0.002 A 
ATOM     17  C   UNL d   1       4.525   0.443 -20.118  0.00  0.00    -0.000 A 
ATOM     18  C   UNL d   1       5.442   1.108 -20.954  0.00  0.00    -0.000 A 
ATOM     19  C   UNL d   1       6.801   1.174 -20.594  0.00  0.00    -0.000 A 
ATOM     20  C   UNL d   1       7.242   0.568 -19.399  0.00  0.00    -0.002 A 
ENDBRANCH  14  15
ENDBRANCH  12  14
ENDBRANCH  11  12
ENDBRANCH   7  10
BRANCH   1  21
ATOM     21  O   UNL d   1      10.122   4.496 -13.758  0.00  0.00    -0.300 OA
BRANCH  21  22
ATOM     22  C   UNL d   1      10.730   4.032 -14.867  0.00  0.00     0.273 C 
ATOM     23  C   UNL d   1      12.046   3.335 -14.553  0.00  0.00     0.106 C 
ATOM     24  O   UNL d   1      10.312   4.120 -16.022  0.00  0.00    -0.264 OA
ENDBRANCH  21  22
ENDBRANCH   1  21
TORSDOF 6
