REMARK  7 active torsions:
REMARK  status: ('A' for Active; 'I' for Inactive)
REMARK    1  A    between atoms: C_6  and  C_7 
REMARK    2  A    between atoms: C_10  and  S_11 
REMARK    3  A    between atoms: S_11  and  C_12 
REMARK    4  A    between atoms: C_12  and  C_13 
REMARK    5  A    between atoms: C_13  and  C_14 
REMARK    6  A    between atoms: C_14  and  N_16 
REMARK    7  A    between atoms: N_29  and  C_30 
ROOT
ATOM      1  C   UNL d   1       6.721  -1.633 -21.354  0.00  0.00     0.045 C 
ENDROOT
BRANCH   1   2
ATOM      2  C   UNL d   1       5.269  -1.866 -21.859  0.00  0.00     0.067 C 
BRANCH   2   3
ATOM      3  S   UNL d   1       4.460  -3.308 -21.064  0.00  0.00    -0.075 SA
BRANCH   3   4
ATOM      4  C   UNL d   1       4.859  -3.029 -19.362  0.00  0.00     0.193 A 
ATOM      5  N   UNL d   1       5.593  -3.903 -18.664  0.00  0.00    -0.122 NA
ATOM      6  N   UNL d   1       5.731  -3.348 -17.413  0.00  0.00    -0.128 NA
ATOM      7  C   UNL d   1       5.070  -2.192 -17.449  0.00  0.00     0.167 A 
ATOM      8  N   UNL d   1       4.510  -1.932 -18.649  0.00  0.00    -0.289 N 
ATOM      9  C   UNL d   1       3.747  -0.750 -19.078  0.00  0.00     0.134 C 
BRANCH   7  10
ATOM     10  C   UNL d   1       4.957  -1.289 -16.280  0.00  0.00     0.037 A 
ATOM     11  C   UNL d   1       5.974  -0.372 -15.904  0.00  0.00     0.021 A 
ATOM     12  C   UNL d   1       7.175  -0.264 -16.644  0.00  0.00     0.003 A 
ATOM     13  C   UNL d   1       5.809   0.465 -14.752  0.00  0.00     0.081 A 
ATOM     14  C   UNL d   1       8.098   0.717 -16.222  0.00  0.00     0.015 A 
ATOM     15  C   UNL d   1       7.893   1.451 -15.104  0.00  0.00     0.059 A 
ATOM     16  C   UNL d   1       8.949   2.449 -14.629  0.00  0.00     0.052 C 
ATOM     17  N   UNL d   1       6.739   1.359 -14.340  0.00  0.00    -0.250 NA
ATOM     18  C   UNL d   1       4.656   0.366 -14.023  0.00  0.00     0.019 A 
ATOM     19  C   UNL d   1       3.615  -0.513 -14.404  0.00  0.00     0.002 A 
ATOM     20  C   UNL d   1       3.780  -1.331 -15.535  0.00  0.00     0.003 A 
ENDBRANCH   7  10
ENDBRANCH   3   4
ENDBRANCH   2   3
ENDBRANCH   1   2
BRANCH   1  21
ATOM     21  C   UNL d   1       7.320  -0.244 -21.723  0.00  0.00     0.220 C 
ATOM     22  C   UNL d   1       6.352   0.943 -21.486  0.00  0.00     0.035 C 
BRANCH  21  23
ATOM     23  N   UNL d   1       8.624  -0.050 -21.045  0.00  0.00     0.136 N 
ATOM     24  C   UNL d   1       8.494   0.290 -19.614  0.00  0.00     0.255 C 
ATOM     25  C   UNL d   1       9.797  -0.076 -18.821  0.00  0.00     0.061 C 
ATOM     26  C   UNL d   1      10.792   1.091 -18.863  0.00  0.00    -0.024 A 
ATOM     27  C   UNL d   1      11.358   1.496 -20.118  0.00  0.00    -0.024 A 
ATOM     28  C   UNL d   1      11.184   1.785 -17.688  0.00  0.00    -0.000 A 
ATOM     29  C   UNL d   1      10.965   0.764 -21.380  0.00  0.00     0.061 C 
ATOM     30  C   UNL d   1      12.311   2.548 -20.170  0.00  0.00    -0.007 A 
ATOM     31  C   UNL d   1       9.477   0.899 -21.750  0.00  0.00     0.255 C 
ATOM     32  C   UNL d   1      12.653   3.211 -18.977  0.00  0.00     0.004 A 
ATOM     33  C   UNL d   1      13.616   4.333 -18.730  0.00  0.00     0.131 A 
ATOM     34  C   UNL d   1      12.095   2.851 -17.780  0.00  0.00     0.053 A 
ATOM     35  N   UNL d   1      13.499   4.558 -17.273  0.00  0.00    -0.314 N 
ATOM     36  C   UNL d   1      12.622   3.709 -16.684  0.00  0.00     0.257 A 
ATOM     37  O   UNL d   1      12.294   3.652 -15.500  0.00  0.00    -0.267 OA
BRANCH  35  38
ATOM     38  C   UNL d   1      14.247   5.610 -16.581  0.00  0.00     0.085 C 
ATOM     39  C   UNL d   1      13.326   6.798 -16.255  0.00  0.00     0.024 C 
ATOM     40  C   UNL d   1      15.494   6.064 -17.363  0.00  0.00     0.024 C 
ENDBRANCH  35  38
ENDBRANCH  21  23
ENDBRANCH   1  21
TORSDOF 7
