REMARK  3 active torsions:
REMARK  status: ('A' for Active; 'I' for Inactive)
REMARK       I    between atoms: N_2  and  C_4 
REMARK    1  A    between atoms: C_4  and  C_6 
REMARK    2  A    between atoms: C_10  and  C_11 
REMARK    3  A    between atoms: C_11  and  N_12 
ROOT
ATOM      1  N   UNL d   1       7.855   5.009 -12.046  0.00  0.00     0.142 N 
ATOM      2  C   UNL d   1       8.167   6.428 -12.183  0.00  0.00     0.255 C 
ATOM      3  C   UNL d   1       9.614   6.740 -11.803  0.00  0.00     0.061 C 
ATOM      4  C   UNL d   1       9.865   6.923 -10.315  0.00  0.00    -0.022 A 
ATOM      5  C   UNL d   1      10.368   8.155  -9.832  0.00  0.00     0.015 A 
ATOM      6  C   UNL d   1      10.593   8.368  -8.455  0.00  0.00     0.089 A 
ATOM      7  N   UNL d   1      11.056   9.526  -7.843  0.00  0.00    -0.219 NA
ATOM      8  C   UNL d   1      11.105   9.365  -6.524  0.00  0.00     0.215 A 
ATOM      9  N   UNL d   1      11.446  10.383  -5.665  0.00  0.00    -0.120 N 
ATOM     10  S   UNL d   1      10.672   7.772  -5.910  0.00  0.00    -0.045 SA
ATOM     11  C   UNL d   1      10.326   7.290  -7.567  0.00  0.00     0.050 A 
ATOM     12  C   UNL d   1       9.850   6.059  -8.038  0.00  0.00     0.004 A 
ATOM     13  C   UNL d   1       9.637   5.865  -9.414  0.00  0.00    -0.024 A 
ATOM     14  C   UNL d   1       9.143   4.521  -9.906  0.00  0.00     0.061 C 
ATOM     15  C   UNL d   1       7.806   4.623 -10.642  0.00  0.00     0.255 C 
ENDROOT
BRANCH   1  16
ATOM     16  C   UNL d   1       6.524   4.764 -12.602  0.00  0.00     0.277 C 
BRANCH  16  17
ATOM     17  C   UNL d   1       6.412   3.416 -13.297  0.00  0.00     0.011 A 
ATOM     18  C   UNL d   1       5.527   2.432 -12.820  0.00  0.00    -0.002 A 
ATOM     19  C   UNL d   1       5.457   1.175 -13.447  0.00  0.00    -0.000 A 
ATOM     20  C   UNL d   1       6.226   0.916 -14.596  0.00  0.00     0.005 A 
ATOM     21  C   UNL d   1       7.119   1.894 -15.095  0.00  0.00     0.056 A 
ATOM     22  C   UNL d   1       7.217   3.134 -14.422  0.00  0.00     0.002 A 
BRANCH  21  23
ATOM     23  C   UNL d   1       7.965   1.605 -16.305  0.00  0.00     0.257 C 
ATOM     24  N   UNL d   1       8.943   0.673 -16.155  0.00  0.00    -0.313 N 
ATOM     25  C   UNL d   1       9.803   0.265 -17.275  0.00  0.00     0.129 C 
ATOM     26  C   UNL d   1       9.213  -0.015 -14.901  0.00  0.00     0.129 C 
ATOM     27  O   UNL d   1       7.761   2.209 -17.356  0.00  0.00    -0.267 OA
ENDBRANCH  21  23
ENDBRANCH  16  17
ENDBRANCH   1  16
TORSDOF 3
