REMARK  9 active torsions:
REMARK  status: ('A' for Active; 'I' for Inactive)
REMARK    1  A    between atoms: C_2  and  C_3 
REMARK    2  A    between atoms: C_3  and  N_4 
REMARK    3  A    between atoms: C_11  and  O_12 
REMARK    4  A    between atoms: O_12  and  C_13 
REMARK    5  A    between atoms: C_13  and  C_14 
REMARK    6  A    between atoms: C_14  and  C_15 
REMARK    7  A    between atoms: C_15  and  C_16 
REMARK    8  A    between atoms: C_16  and  N_17 
REMARK       I    between atoms: N_17  and  C_18 
REMARK    9  A    between atoms: C_18  and  C_20 
ROOT
ATOM      1  C   UNL d   1       4.060  -1.941 -15.286  0.00  0.00     0.149 C 
ENDROOT
BRANCH   1   2
ATOM      2  O   UNL d   1       4.105  -0.703 -14.596  0.00  0.00    -0.331 OA
BRANCH   2   3
ATOM      3  C   UNL d   1       5.293  -0.050 -14.498  0.00  0.00     0.094 A 
ATOM      4  C   UNL d   1       5.231   1.211 -13.859  0.00  0.00     0.024 A 
ATOM      5  C   UNL d   1       6.378   2.021 -13.878  0.00  0.00     0.031 A 
ATOM      6  C   UNL d   1       6.286   3.405 -13.291  0.00  0.00     0.173 C 
ATOM      7  C   UNL d   1       7.605   1.544 -14.386  0.00  0.00     0.092 A 
ATOM      8  O   UNL d   1       5.442   3.433 -12.158  0.00  0.00    -0.348 OA
ATOM      9  C   UNL d   1       7.677   3.933 -12.867  0.00  0.00     0.280 C 
ATOM     10  C   UNL d   1       5.326   4.769 -11.724  0.00  0.00     0.178 C 
ATOM     11  C   UNL d   1       6.668   5.302 -11.275  0.00  0.00     0.282 C 
ATOM     12  N   UNL d   1       7.588   5.309 -12.366  0.00  0.00     0.143 N 
ATOM     13  C   UNL d   1       8.649   3.645 -14.013  0.00  0.00     0.185 C 
ATOM     14  O   UNL d   1       8.779   2.265 -14.331  0.00  0.00    -0.329 OA
ATOM     15  C   UNL d   1       7.677   0.248 -14.914  0.00  0.00     0.026 A 
ATOM     16  C   UNL d   1       6.512  -0.524 -14.996  0.00  0.00     0.026 A 
BRANCH  12  17
ATOM     17  C   UNL d   1       8.825   5.836 -11.860  0.00  0.00     0.251 C 
BRANCH  17  18
ATOM     18  C   UNL d   1       9.646   6.412 -12.979  0.00  0.00     0.035 C 
ATOM     19  C   UNL d   1       9.847   7.938 -12.817  0.00  0.00     0.002 C 
ENDBRANCH  17  18
ENDBRANCH  12  17
ENDBRANCH   2   3
ENDBRANCH   1   2
BRANCH   1  20
ATOM     20  C   UNL d   1       4.207  -1.810 -16.816  0.00  0.00     0.035 C 
BRANCH  20  21
ATOM     21  C   UNL d   1       4.973  -2.997 -17.463  0.00  0.00     0.029 C 
BRANCH  21  22
ATOM     22  C   UNL d   1       5.274  -2.764 -18.954  0.00  0.00     0.129 C 
BRANCH  22  23
ATOM     23  N   UNL d   1       6.011  -1.522 -19.174  0.00  0.00    -0.234 NA
ATOM     24  C   UNL d   1       7.300  -1.305 -18.874  0.00  0.00     0.275 C 
ATOM     25  O   UNL d   1       8.061  -2.169 -18.437  0.00  0.00    -0.266 OA
BRANCH  24  26
ATOM     26  C   UNL d   1       7.774   0.101 -19.078  0.00  0.00     0.057 A 
ATOM     27  C   UNL d   1       8.618   0.706 -18.115  0.00  0.00     0.001 A 
ATOM     28  C   UNL d   1       9.054   2.023 -18.333  0.00  0.00    -0.018 A 
ATOM     29  C   UNL d   1       8.697   2.726 -19.491  0.00  0.00    -0.004 A 
ATOM     30  C   UNL d   1       9.938   2.861 -17.424  0.00  0.00     0.053 A 
ATOM     31  C   UNL d   1       7.883   2.131 -20.473  0.00  0.00    -0.000 A 
ATOM     32  C   UNL d   1       9.318   4.044 -19.431  0.00  0.00    -0.004 A 
ATOM     33  C   UNL d   1       7.422   0.812 -20.260  0.00  0.00     0.005 A 
ATOM     34  C   UNL d   1      10.041   4.139 -18.236  0.00  0.00    -0.018 A 
ATOM     35  C   UNL d   1       9.280   5.118 -20.338  0.00  0.00    -0.000 A 
ATOM     36  C   UNL d   1      10.741   5.309 -17.894  0.00  0.00    -0.004 A 
ATOM     37  C   UNL d   1      10.712   6.391 -18.801  0.00  0.00    -0.000 A 
ATOM     38  C   UNL d   1       9.988   6.295 -20.013  0.00  0.00    -0.000 A 
ENDBRANCH  24  26
ENDBRANCH  22  23
ENDBRANCH  21  22
ENDBRANCH  20  21
ENDBRANCH   1  20
TORSDOF 9
