REMARK  5 active torsions:
REMARK  status: ('A' for Active; 'I' for Inactive)
REMARK    1  A    between atoms: C_5  and  N_6 
REMARK    2  A    between atoms: N_9  and  C_10 
REMARK    3  A    between atoms: C_10  and  C_11 
REMARK    4  A    between atoms: C_11  and  C_12 
REMARK    5  A    between atoms: C_12  and  C_13 
ROOT
ATOM      1  N   UNL d   1       7.456   4.961 -12.745  0.00  0.00    -0.344 N 
ATOM      2  C   UNL d   1       7.136   5.311 -11.370  0.00  0.00     0.137 C 
ATOM      3  C   UNL d   1       8.402   5.721 -10.613  0.00  0.00     0.274 C 
ATOM      4  N   UNL d   1       9.072   6.822 -11.306  0.00  0.00     0.141 N 
ATOM      5  C   UNL d   1       9.459   6.376 -12.642  0.00  0.00     0.274 C 
ATOM      6  C   UNL d   1       8.235   5.960 -13.464  0.00  0.00     0.137 C 
ENDROOT
BRANCH   4   7
ATOM      7  C   UNL d   1      10.248   7.288 -10.580  0.00  0.00     0.251 C 
BRANCH   7   8
ATOM      8  C   UNL d   1       9.898   7.916  -9.220  0.00  0.00     0.040 C 
BRANCH   8   9
ATOM      9  C   UNL d   1      11.109   8.638  -8.584  0.00  0.00     0.029 C 
BRANCH   9  10
ATOM     10  C   UNL d   1      11.292   8.319  -7.104  0.00  0.00    -0.021 A 
ATOM     11  C   UNL d   1      11.469   9.351  -6.155  0.00  0.00     0.016 A 
ATOM     12  C   UNL d   1      11.656   9.001  -4.804  0.00  0.00     0.101 A 
ATOM     13  C   UNL d   1      11.671   7.644  -4.365  0.00  0.00     0.101 A 
ATOM     14  N   UNL d   1      11.844   9.715  -3.634  0.00  0.00    -0.223 NA
ATOM     15  C   UNL d   1      11.460   6.639  -5.324  0.00  0.00     0.020 A 
ATOM     16  N   UNL d   1      11.892   7.537  -3.002  0.00  0.00    -0.223 NA
ATOM     17  C   UNL d   1      11.305   6.968  -6.681  0.00  0.00    -0.003 A 
ATOM     18  C   UNL d   1      11.989   8.815  -2.650  0.00  0.00     0.199 A 
ENDBRANCH   9  10
ENDBRANCH   8   9
ENDBRANCH   7   8
ENDBRANCH   4   7
BRANCH   1  19
ATOM     19  C   UNL d   1       7.056   3.733 -13.301  0.00  0.00     0.056 A 
ATOM     20  C   UNL d   1       7.837   3.097 -14.304  0.00  0.00     0.018 A 
ATOM     21  C   UNL d   1       7.447   1.853 -14.832  0.00  0.00     0.013 A 
ATOM     22  C   UNL d   1       6.290   1.213 -14.351  0.00  0.00     0.058 A 
ATOM     23 CL   UNL d   1       5.804  -0.305 -14.993  0.00  0.00    -0.082 Cl
ATOM     24  C   UNL d   1       5.524   1.823 -13.342  0.00  0.00     0.013 A 
ATOM     25  C   UNL d   1       5.876   3.088 -12.847  0.00  0.00     0.018 A 
ENDBRANCH   1  19
TORSDOF 5
