REMARK  1 active torsions:
REMARK  status: ('A' for Active; 'I' for Inactive)
REMARK    1  A    between atoms: C_18  and  C_19 
ROOT
ATOM      1  C   UNL d   1      10.663   3.501 -16.860  0.00  0.00     0.285 C 
ATOM      2  N   UNL d   1      10.545   2.378 -15.919  0.00  0.00     0.138 N 
ATOM      3  C   UNL d   1      10.079   1.164 -16.587  0.00  0.00     0.255 C 
ATOM      4  C   UNL d   1       8.620   1.206 -17.075  0.00  0.00     0.061 C 
ATOM      5  C   UNL d   1       7.641   0.960 -15.967  0.00  0.00    -0.023 A 
ATOM      6  C   UNL d   1       6.834  -0.207 -16.026  0.00  0.00     0.009 A 
ATOM      7  C   UNL d   1       5.956  -0.537 -15.011  0.00  0.00     0.083 A 
ATOM      8 CL   UNL d   1       5.067  -1.996 -15.181  0.00  0.00    -0.080 Cl
ATOM      9  C   UNL d   1       5.816   0.298 -13.927  0.00  0.00     0.141 A 
ATOM     10  O   UNL d   1       4.969   0.044 -12.868  0.00  0.00    -0.189 OA
ATOM     11  C   UNL d   1       6.582   1.474 -13.831  0.00  0.00     0.024 A 
ATOM     12  C   UNL d   1       7.524   1.810 -14.855  0.00  0.00    -0.018 A 
ATOM     13  C   UNL d   1       8.356   3.050 -14.731  0.00  0.00     0.075 C 
ATOM     14  C   UNL d   1       7.831   3.945 -13.605  0.00  0.00    -0.021 A 
ATOM     15  C   UNL d   1       6.495   4.470 -13.696  0.00  0.00    -0.004 A 
ATOM     16  C   UNL d   1       6.021   5.404 -12.802  0.00  0.00    -0.000 A 
ATOM     17  C   UNL d   1       6.813   5.872 -11.765  0.00  0.00    -0.000 A 
ATOM     18  C   UNL d   1       8.107   5.366 -11.630  0.00  0.00    -0.004 A 
ATOM     19  C   UNL d   1       8.618   4.411 -12.550  0.00  0.00    -0.026 A 
ATOM     20  C   UNL d   1      10.055   3.934 -12.482  0.00  0.00     0.028 C 
ATOM     21  C   UNL d   1      10.693   3.680 -13.840  0.00  0.00     0.039 C 
ATOM     22  C   UNL d   1       9.892   2.646 -14.625  0.00  0.00     0.228 C 
ENDROOT
BRANCH  18  23
ATOM     23  C   UNL d   1       8.885   5.825 -10.477  0.00  0.00    -0.000 A 
ATOM     24  C   UNL d   1       9.619   7.036 -10.472  0.00  0.00     0.002 A 
ATOM     25  C   UNL d   1      10.312   7.460  -9.315  0.00  0.00     0.019 A 
ATOM     26  C   UNL d   1      10.229   6.622  -8.159  0.00  0.00     0.081 A 
ATOM     27  C   UNL d   1      11.136   8.591  -8.973  0.00  0.00     0.022 A 
ATOM     28  C   UNL d   1       9.480   5.446  -8.162  0.00  0.00     0.019 A 
ATOM     29  N   UNL d   1      10.991   7.237  -7.189  0.00  0.00    -0.244 NA
ATOM     30  C   UNL d   1       8.810   5.041  -9.304  0.00  0.00     0.002 A 
ATOM     31  C   UNL d   1      11.541   8.413  -7.672  0.00  0.00     0.099 A 
ENDBRANCH  18  23
TORSDOF 1
