REMARK  4 active torsions:
REMARK  status: ('A' for Active; 'I' for Inactive)
REMARK    1  A    between atoms: C_4  and  C_5 
REMARK    2  A    between atoms: C_5  and  N_6 
REMARK    3  A    between atoms: C_9  and  C_10 
REMARK    4  A    between atoms: C_12  and  C_13 
ROOT
ATOM      1  N   UNL d   1       8.307   5.620 -11.983  0.00  0.00     0.141 N 
ATOM      2  C   UNL d   1       9.437   6.533 -12.075  0.00  0.00     0.251 C 
ATOM      3  C   UNL d   1       9.748   7.234 -10.742  0.00  0.00     0.041 C 
ATOM      4  C   UNL d   1       9.884   6.239  -9.568  0.00  0.00     0.046 C 
ATOM      5  C   UNL d   1       8.730   5.244  -9.602  0.00  0.00     0.041 C 
ATOM      6  C   UNL d   1       8.619   4.615 -10.979  0.00  0.00     0.251 C 
ENDROOT
BRANCH   4   7
ATOM      7  C   UNL d   1      10.026   6.915  -8.245  0.00  0.00     0.082 A 
ATOM      8  N   UNL d   1       9.054   7.784  -7.783  0.00  0.00    -0.152 NA
ATOM      9  N   UNL d   1       9.367   8.316  -6.584  0.00  0.00    -0.148 NA
ATOM     10  C   UNL d   1      10.509   7.729  -6.256  0.00  0.00     0.104 A 
ATOM     11  C   UNL d   1      10.966   6.825  -7.262  0.00  0.00     0.037 A 
BRANCH  10  12
ATOM     12  C   UNL d   1      11.140   8.030  -4.979  0.00  0.00     0.019 A 
ATOM     13  C   UNL d   1      11.707   6.991  -4.211  0.00  0.00     0.002 A 
ATOM     14  C   UNL d   1      12.299   7.272  -2.965  0.00  0.00     0.000 A 
ATOM     15  C   UNL d   1      12.338   8.595  -2.493  0.00  0.00     0.000 A 
ATOM     16  C   UNL d   1      11.775   9.629  -3.258  0.00  0.00     0.000 A 
ATOM     17  C   UNL d   1      11.174   9.354  -4.499  0.00  0.00     0.002 A 
ENDBRANCH  10  12
ENDBRANCH   4   7
BRANCH   1  18
ATOM     18  C   UNL d   1       8.083   5.013 -13.299  0.00  0.00     0.277 C 
BRANCH  18  19
ATOM     19  C   UNL d   1       7.113   3.829 -13.353  0.00  0.00     0.011 C 
ATOM     20  C   UNL d   1       7.282   2.812 -14.331  0.00  0.00    -0.002 C 
ATOM     21  C   UNL d   1       6.487   1.650 -14.313  0.00  0.00    -0.000 C 
ATOM     22  C   UNL d   1       5.509   1.489 -13.312  0.00  0.00    -0.000 C 
ATOM     23  C   UNL d   1       5.314   2.524 -12.382  0.00  0.00    -0.000 C 
ATOM     24  C   UNL d   1       6.058   3.712 -12.427  0.00  0.00    -0.002 C 
ENDBRANCH  18  19
ENDBRANCH   1  18
TORSDOF 4
