REMARK  6 active torsions:
REMARK  status: ('A' for Active; 'I' for Inactive)
REMARK    1  A    between atoms: C_2  and  C_4 
REMARK    2  A    between atoms: C_7  and  N_8 
REMARK    3  A    between atoms: N_8  and  C_9 
REMARK    4  A    between atoms: C_11  and  N_12 
REMARK    5  A    between atoms: N_12  and  C_13 
REMARK    6  A    between atoms: C_16  and  C_17 
ROOT
ATOM      1  C   UNL d   1       9.597   3.585 -15.324  0.00  0.00     0.751 A 
ATOM      2  N   UNL d   1       9.116   4.194 -14.233  0.00  0.00    -0.040 NA
ATOM      3  C   UNL d   1       7.980   3.707 -13.672  0.00  0.00     0.182 A 
ATOM      4  C   UNL d   1       7.354   2.562 -14.218  0.00  0.00     0.055 A 
ATOM      5  C   UNL d   1       6.213   1.944 -13.658  0.00  0.00     0.005 A 
ATOM      6  C   UNL d   1       5.665   0.788 -14.263  0.00  0.00     0.000 A 
ATOM      7  C   UNL d   1       6.239   0.264 -15.446  0.00  0.00     0.002 A 
ATOM      8  C   UNL d   1       7.373   0.885 -15.988  0.00  0.00     0.020 A 
ATOM      9  C   UNL d   1       7.952   2.002 -15.376  0.00  0.00     0.103 A 
ATOM     10  N   UNL d   1       9.071   2.530 -15.923  0.00  0.00    -0.059 NA
ENDROOT
BRANCH   1  11
ATOM     11  N   UNL d   1      10.677   4.181 -15.928  0.00  0.00    -0.059 NA
BRANCH  11  12
ATOM     12  C   UNL d   1      11.536   3.791 -16.975  0.00  0.00     0.100 A 
ATOM     13  C   UNL d   1      12.913   4.110 -16.901  0.00  0.00     0.019 A 
ATOM     14  C   UNL d   1      13.806   3.655 -17.887  0.00  0.00    -0.003 A 
ATOM     15  C   UNL d   1      13.346   2.861 -18.957  0.00  0.00    -0.022 A 
ATOM     16  C   UNL d   1      11.969   2.566 -19.053  0.00  0.00    -0.003 A 
ATOM     17  C   UNL d   1      11.069   3.057 -18.090  0.00  0.00     0.019 A 
BRANCH  15  18
ATOM     18  C   UNL d   1      14.300   2.330 -20.015  0.00  0.00     0.022 C 
ATOM     19  C   UNL d   1      13.906   2.822 -21.418  0.00  0.00     0.005 C 
ATOM     20  C   UNL d   1      14.386   0.793 -19.965  0.00  0.00     0.005 C 
ENDBRANCH  15  18
ENDBRANCH  11  12
ENDBRANCH   1  11
BRANCH   3  21
ATOM     21  N   UNL d   1       7.460   4.364 -12.534  0.00  0.00    -0.226 NA
BRANCH  21  22
ATOM     22  C   UNL d   1       8.180   5.183 -11.664  0.00  0.00     0.083 A 
ATOM     23  C   UNL d   1       8.289   4.881 -10.282  0.00  0.00     0.019 A 
ATOM     24  C   UNL d   1       9.013   5.725  -9.410  0.00  0.00    -0.003 A 
ATOM     25  C   UNL d   1       9.629   6.896  -9.901  0.00  0.00    -0.022 A 
ATOM     26  C   UNL d   1       9.469   7.228 -11.268  0.00  0.00    -0.003 A 
ATOM     27  C   UNL d   1       8.781   6.369 -12.146  0.00  0.00     0.019 A 
BRANCH  25  28
ATOM     28  C   UNL d   1      10.397   7.818  -8.965  0.00  0.00     0.022 C 
ATOM     29  C   UNL d   1       9.471   8.900  -8.377  0.00  0.00     0.005 C 
ATOM     30  C   UNL d   1      11.650   8.451  -9.609  0.00  0.00     0.005 C 
ENDBRANCH  25  28
ENDBRANCH  21  22
ENDBRANCH   3  21
TORSDOF 6
