REMARK  8 active torsions:
REMARK  status: ('A' for Active; 'I' for Inactive)
REMARK    1  A    between atoms: C_5  and  O_6 
REMARK    2  A    between atoms: O_6  and  C_7 
REMARK    3  A    between atoms: C_7  and  C_8 
REMARK    4  A    between atoms: C_14  and  C_15 
REMARK    5  A    between atoms: C_15  and  C_16 
REMARK    6  A    between atoms: C_16  and  C_17 
REMARK    7  A    between atoms: C_17  and  N_18 
REMARK    8  A    between atoms: N_21  and  C_22 
ROOT
ATOM      1  C   UNL d   1       7.576   4.324 -12.889  0.00  0.00     0.092 C 
ATOM      2  N   UNL d   1       6.346   4.420 -13.206  0.00  0.00    -0.101 NA
ATOM      3  O   UNL d   1       5.536   4.770 -12.077  0.00  0.00    -0.061 OA
ENDROOT
BRANCH   1   4
ATOM      4  C   UNL d   1       8.610   3.955 -13.898  0.00  0.00     0.038 A 
ATOM      5  C   UNL d   1       8.520   2.768 -14.678  0.00  0.00     0.096 A 
ATOM      6  C   UNL d   1       9.535   2.502 -15.634  0.00  0.00     0.024 A 
ATOM      7  C   UNL d   1      10.620   3.371 -15.805  0.00  0.00    -0.002 A 
ATOM      8  C   UNL d   1      10.719   4.534 -15.030  0.00  0.00    -0.022 A 
ATOM      9  C   UNL d   1      11.892   5.471 -15.233  0.00  0.00     0.031 C 
ATOM     10  C   UNL d   1       9.723   4.815 -14.074  0.00  0.00    -0.001 A 
BRANCH   5  11
ATOM     11  O   UNL d   1       7.410   1.959 -14.520  0.00  0.00    -0.326 OA
BRANCH  11  12
ATOM     12  C   UNL d   1       7.487   0.577 -14.861  0.00  0.00     0.175 C 
BRANCH  12  13
ATOM     13  C   UNL d   1       6.114  -0.027 -15.049  0.00  0.00     0.008 A 
ATOM     14  C   UNL d   1       5.860  -0.799 -16.203  0.00  0.00    -0.002 A 
ATOM     15  C   UNL d   1       4.609  -1.398 -16.402  0.00  0.00    -0.000 A 
ATOM     16  C   UNL d   1       3.600  -1.209 -15.447  0.00  0.00    -0.000 A 
ATOM     17  C   UNL d   1       3.829  -0.425 -14.300  0.00  0.00    -0.000 A 
ATOM     18  C   UNL d   1       5.095   0.163 -14.090  0.00  0.00    -0.002 A 
ENDBRANCH  12  13
ENDBRANCH  11  12
ENDBRANCH   5  11
ENDBRANCH   1   4
BRANCH   1  19
ATOM     19  C   UNL d   1       8.128   4.507 -11.472  0.00  0.00     0.084 C 
BRANCH  19  20
ATOM     20  C   UNL d   1       8.323   5.983 -11.082  0.00  0.00     0.257 C 
BRANCH  20  21
ATOM     21  N   UNL d   1       9.460   6.126 -10.171  0.00  0.00     0.141 N 
ATOM     22  C   UNL d   1       9.070   5.736  -8.810  0.00  0.00     0.274 C 
ATOM     23  C   UNL d   1      10.264   5.881  -7.850  0.00  0.00     0.138 C 
ATOM     24  N   UNL d   1      10.784   7.243  -7.897  0.00  0.00    -0.330 N 
ATOM     25  C   UNL d   1      11.092   7.741  -9.237  0.00  0.00     0.138 C 
ATOM     26  C   UNL d   1       9.876   7.534 -10.153  0.00  0.00     0.274 C 
BRANCH  24  27
ATOM     27  C   UNL d   1      10.990   7.986  -6.727  0.00  0.00     0.140 A 
ATOM     28  N   UNL d   1      11.264   7.307  -5.582  0.00  0.00    -0.227 NA
ATOM     29  C   UNL d   1      11.475   7.993  -4.449  0.00  0.00     0.101 A 
ATOM     30  C   UNL d   1      11.404   9.397  -4.366  0.00  0.00     0.021 A 
ATOM     31  C   UNL d   1      11.101  10.108  -5.540  0.00  0.00     0.005 A 
ATOM     32  C   UNL d   1      10.905   9.402  -6.732  0.00  0.00     0.037 A 
ENDBRANCH  24  27
ENDBRANCH  20  21
ENDBRANCH  19  20
ENDBRANCH   1  19
TORSDOF 8
