REMARK  6 active torsions:
REMARK  status: ('A' for Active; 'I' for Inactive)
REMARK    1  A    between atoms: C_7  and  C_8 
REMARK    2  A    between atoms: C_8  and  O_9 
REMARK    3  A    between atoms: C_8  and  C_15 
REMARK    4  A    between atoms: O_9  and  C_10 
REMARK    5  A    between atoms: C_10  and  C_11 
REMARK    6  A    between atoms: C_11  and  N_12 
ROOT
ATOM      1  C   UNL d   1       7.852   1.847 -14.969  0.00  0.00     0.160 C 
ENDROOT
BRANCH   1   2
ATOM      2  C   UNL d   1       6.688   0.837 -15.079  0.00  0.00     0.005 C 
ATOM      3  C   UNL d   1       6.486   0.002 -16.217  0.00  0.00    -0.023 C 
ATOM      4  C   UNL d   1       7.443  -0.017 -17.412  0.00  0.00     0.031 C 
ATOM      5  C   UNL d   1       5.359  -0.852 -16.266  0.00  0.00    -0.004 C 
ATOM      6  C   UNL d   1       4.444  -0.889 -15.199  0.00  0.00    -0.000 C 
ATOM      7  C   UNL d   1       4.663  -0.115 -14.053  0.00  0.00    -0.000 C 
ATOM      8  C   UNL d   1       5.826   0.699 -13.958  0.00  0.00    -0.002 C 
ENDBRANCH   1   2
BRANCH   1   9
ATOM      9  O   UNL d   1       8.291   2.295 -16.265  0.00  0.00    -0.346 OA
BRANCH   9  10
ATOM     10  C   UNL d   1       9.464   3.105 -16.306  0.00  0.00     0.178 C 
BRANCH  10  11
ATOM     11  C   UNL d   1      10.703   2.385 -15.681  0.00  0.00     0.282 C 
BRANCH  11  12
ATOM     12  N   UNL d   1      11.894   3.227 -15.499  0.00  0.00     0.144 N 
ATOM     13  C   UNL d   1      12.445   3.667 -16.763  0.00  0.00     0.286 C 
ATOM     14  C   UNL d   1      11.707   4.348 -14.580  0.00  0.00     0.286 C 
ENDBRANCH  11  12
ENDBRANCH  10  11
ENDBRANCH   9  10
ENDBRANCH   1   9
BRANCH   1  15
ATOM     15  C   UNL d   1       7.581   3.036 -14.039  0.00  0.00     0.009 A 
ATOM     16  C   UNL d   1       6.254   3.458 -13.738  0.00  0.00    -0.002 A 
ATOM     17  C   UNL d   1       6.040   4.491 -12.781  0.00  0.00    -0.000 A 
ATOM     18  C   UNL d   1       7.130   5.187 -12.216  0.00  0.00    -0.000 A 
ATOM     19  C   UNL d   1       8.445   4.806 -12.558  0.00  0.00    -0.000 A 
ATOM     20  C   UNL d   1       8.667   3.720 -13.424  0.00  0.00    -0.002 A 
ENDBRANCH   1  15
TORSDOF 6
