REMARK  4 active torsions:
REMARK  status: ('A' for Active; 'I' for Inactive)
REMARK    1  A    between atoms: C_2  and  O_3 
REMARK    2  A    between atoms: C_2  and  C_12 
REMARK    3  A    between atoms: O_3  and  C_4 
REMARK    4  A    between atoms: C_17  and  N_18 
ROOT
ATOM      1  C   UNL d   1      10.371   7.408  -9.448  0.00  0.00     0.203 A 
ATOM      2  N   UNL d   1      11.563   7.621  -9.998  0.00  0.00    -0.039 NA
ATOM      3  C   UNL d   1      12.480   8.054  -9.159  0.00  0.00     0.785 A 
ATOM      4  N   UNL d   1      13.756   7.946  -9.650  0.00  0.00     0.063 N 
ATOM      5  N   UNL d   1      12.322   8.343  -7.898  0.00  0.00     0.134 NA
ATOM      6  C   UNL d   1      11.107   8.018  -7.452  0.00  0.00     0.744 A 
ATOM      7  N   UNL d   1      10.090   7.522  -8.157  0.00  0.00    -0.043 NA
ENDROOT
BRANCH   1   8
ATOM      8  C   UNL d   1       9.285   6.993 -10.434  0.00  0.00     0.181 C 
ATOM      9  C   UNL d   1       9.017   8.157 -11.419  0.00  0.00     0.041 C 
BRANCH   8  10
ATOM     10  O   UNL d   1       9.597   5.805 -11.176  0.00  0.00    -0.325 OA
BRANCH  10  11
ATOM     11  C   UNL d   1       8.594   5.195 -11.917  0.00  0.00     0.106 A 
ATOM     12  C   UNL d   1       8.973   4.359 -12.996  0.00  0.00     0.090 A 
ATOM     13  C   UNL d   1       8.002   3.671 -13.760  0.00  0.00     0.070 A 
ATOM     14 CL   UNL d   1      10.635   4.220 -13.441  0.00  0.00    -0.079 Cl
ATOM     15  C   UNL d   1       6.633   3.828 -13.474  0.00  0.00     0.012 A 
ATOM     16 CL   UNL d   1       8.480   2.627 -15.053  0.00  0.00    -0.081 Cl
ATOM     17  C   UNL d   1       6.237   4.668 -12.423  0.00  0.00     0.003 A 
ATOM     18  C   UNL d   1       7.204   5.341 -11.648  0.00  0.00     0.025 A 
ENDBRANCH  10  11
ENDBRANCH   8  10
ENDBRANCH   1   8
BRANCH   6  19
ATOM     19  N   UNL d   1      10.905   8.159  -6.098  0.00  0.00    -0.178 N 
ATOM     20  C   UNL d   1      10.960   9.464  -5.482  0.00  0.00     0.155 C 
ATOM     21  C   UNL d   1      11.910   9.438  -4.268  0.00  0.00     0.275 C 
ATOM     22  N   UNL d   1      11.524   8.396  -3.328  0.00  0.00     0.143 N 
ATOM     23  C   UNL d   1      11.580   7.089  -3.988  0.00  0.00     0.275 C 
ATOM     24  C   UNL d   1      12.396   8.431  -2.170  0.00  0.00     0.286 C 
ATOM     25  C   UNL d   1      10.626   7.041  -5.215  0.00  0.00     0.155 C 
ENDBRANCH   6  19
TORSDOF 4
