REMARK  5 active torsions:
REMARK  status: ('A' for Active; 'I' for Inactive)
REMARK    1  A    between atoms: C_2  and  C_3 
REMARK    2  A    between atoms: C_7  and  O_8 
REMARK    3  A    between atoms: C_10  and  C_11 
REMARK       I    between atoms: C_11  and  N_13 
REMARK    4  A    between atoms: N_13  and  C_14 
REMARK    5  A    between atoms: C_14  and  C_15 
ROOT
ATOM      1  C   UNL d   1       7.335   1.615 -14.700  0.00  0.00     0.004 A 
ATOM      2  C   UNL d   1       8.434   0.987 -15.317  0.00  0.00     0.011 A 
ATOM      3  C   UNL d   1       9.708   1.576 -15.279  0.00  0.00     0.080 A 
ATOM      4 CL   UNL d   1      11.014   0.788 -16.090  0.00  0.00    -0.080 Cl
ATOM      5  C   UNL d   1       9.921   2.798 -14.600  0.00  0.00     0.111 A 
ATOM      6  C   UNL d   1       8.832   3.437 -13.943  0.00  0.00     0.106 A 
ATOM      7  C   UNL d   1       7.534   2.853 -14.037  0.00  0.00     0.134 A 
ATOM      8  O   UNL d   1       6.434   3.477 -13.507  0.00  0.00    -0.190 OA
ENDROOT
BRANCH   6   9
ATOM      9  C   UNL d   1       9.062   4.737 -13.204  0.00  0.00     0.279 C 
ATOM     10  O   UNL d   1       9.932   5.534 -13.556  0.00  0.00    -0.265 OA
ATOM     11  N   UNL d   1       8.291   4.946 -12.128  0.00  0.00    -0.234 NA
BRANCH  11  12
ATOM     12  C   UNL d   1       8.318   6.165 -11.338  0.00  0.00     0.131 C 
BRANCH  12  13
ATOM     13  C   UNL d   1       9.395   6.088 -10.250  0.00  0.00     0.060 C 
ATOM     14  C   UNL d   1       9.884   7.460  -9.800  0.00  0.00     0.252 C 
ATOM     15  N   UNL d   1      10.260   7.241  -8.411  0.00  0.00     0.139 N 
ATOM     16  C   UNL d   1       9.165   6.432  -7.886  0.00  0.00     0.250 C 
ATOM     17  C   UNL d   1      10.377   8.509  -7.710  0.00  0.00     0.285 C 
ATOM     18  C   UNL d   1       8.945   5.384  -8.971  0.00  0.00     0.039 C 
ENDBRANCH  12  13
ENDBRANCH  11  12
ENDBRANCH   6   9
BRANCH   5  19
ATOM     19  O   UNL d   1      11.191   3.326 -14.563  0.00  0.00    -0.327 OA
ATOM     20  C   UNL d   1      11.527   4.125 -15.692  0.00  0.00     0.181 C 
ENDBRANCH   5  19
BRANCH   1  21
ATOM     21  C   UNL d   1       5.949   0.972 -14.803  0.00  0.00     0.029 C 
ATOM     22  C   UNL d   1       5.879  -0.506 -14.400  0.00  0.00     0.005 C 
ENDBRANCH   1  21
TORSDOF 5
