REMARK  7 active torsions:
REMARK  status: ('A' for Active; 'I' for Inactive)
REMARK    1  A    between atoms: O_2  and  C_3 
REMARK    2  A    between atoms: C_8  and  N_9 
REMARK    3  A    between atoms: N_12  and  C_13 
REMARK    4  A    between atoms: C_13  and  C_14 
REMARK    5  A    between atoms: C_14  and  C_15 
REMARK    6  A    between atoms: C_15  and  C_16 
REMARK    7  A    between atoms: C_16  and  N_17 
ROOT
ATOM      1  N   UNL d   1       9.462   6.855 -10.741  0.00  0.00    -0.316 N 
ATOM      2  C   UNL d   1       9.978   8.219 -10.903  0.00  0.00     0.109 C 
ATOM      3  C   UNL d   1      11.114   8.538  -9.916  0.00  0.00     0.051 C 
ATOM      4  C   UNL d   1      10.775   8.057  -8.519  0.00  0.00    -0.015 A 
ATOM      5  C   UNL d   1      11.307   8.703  -7.388  0.00  0.00     0.006 A 
ATOM      6  C   UNL d   1      10.978   8.236  -6.104  0.00  0.00     0.068 A 
ATOM      7  C   UNL d   1      11.507   8.896  -4.919  0.00  0.00     0.101 C 
ATOM      8  N   UNL d   1      11.922   9.414  -3.980  0.00  0.00    -0.191 NA
ATOM      9  C   UNL d   1      10.129   7.129  -5.950  0.00  0.00     0.010 A 
ATOM     10  C   UNL d   1       9.593   6.500  -7.076  0.00  0.00     0.005 A 
ATOM     11  C   UNL d   1       9.912   6.948  -8.364  0.00  0.00     0.052 A 
ATOM     12  C   UNL d   1       9.354   6.231  -9.549  0.00  0.00     0.257 C 
ATOM     13  O   UNL d   1       8.832   5.113  -9.418  0.00  0.00    -0.267 OA
ENDROOT
BRANCH   1  14
ATOM     14  C   UNL d   1       8.942   6.213 -11.946  0.00  0.00     0.104 C 
BRANCH  14  15
ATOM     15  C   UNL d   1       9.791   4.982 -12.305  0.00  0.00     0.026 C 
BRANCH  15  16
ATOM     16  C   UNL d   1       9.333   4.377 -13.602  0.00  0.00     0.037 C 
BRANCH  16  17
ATOM     17  C   UNL d   1       9.894   2.946 -13.788  0.00  0.00     0.251 C 
BRANCH  17  18
ATOM     18  N   UNL d   1       9.900   2.526 -15.191  0.00  0.00     0.141 N 
ATOM     19  C   UNL d   1      10.015   1.066 -15.321  0.00  0.00     0.274 C 
ATOM     20  C   UNL d   1       8.779   0.332 -14.733  0.00  0.00     0.137 C 
ATOM     21  N   UNL d   1       7.565   0.924 -15.276  0.00  0.00    -0.343 N 
ATOM     22  C   UNL d   1       7.435   2.366 -15.308  0.00  0.00     0.137 C 
ATOM     23  C   UNL d   1       8.718   2.965 -15.940  0.00  0.00     0.274 C 
BRANCH  21  24
ATOM     24  C   UNL d   1       6.568   0.121 -15.845  0.00  0.00     0.079 A 
ATOM     25  C   UNL d   1       6.497  -0.043 -17.247  0.00  0.00     0.110 A 
ATOM     26  C   UNL d   1       5.490  -0.870 -17.785  0.00  0.00     0.026 A 
ATOM     27  C   UNL d   1       4.558  -1.507 -16.937  0.00  0.00     0.002 A 
ATOM     28  C   UNL d   1       4.617  -1.306 -15.544  0.00  0.00     0.002 A 
ATOM     29  C   UNL d   1       5.625  -0.494 -15.000  0.00  0.00     0.019 A 
BRANCH  25  30
ATOM     30  O   UNL d   1       7.436   0.621 -18.019  0.00  0.00    -0.327 OA
ATOM     31  C   UNL d   1       7.220   0.696 -19.419  0.00  0.00     0.181 C 
ENDBRANCH  25  30
ENDBRANCH  21  24
ENDBRANCH  17  18
ENDBRANCH  16  17
ENDBRANCH  15  16
ENDBRANCH  14  15
ENDBRANCH   1  14
TORSDOF 7
