REMARK  2 active torsions:
REMARK  status: ('A' for Active; 'I' for Inactive)
REMARK       I    between atoms: N_2  and  C_3 
REMARK    1  A    between atoms: C_3  and  O_5 
REMARK    2  A    between atoms: O_5  and  C_6 
ROOT
ATOM      1  C   UNL d   1       6.377   1.453 -14.905  0.00  0.00     0.105 A 
ATOM      2  C   UNL d   1       7.678   1.250 -15.401  0.00  0.00     0.026 A 
ATOM      3  C   UNL d   1       8.742   2.060 -14.986  0.00  0.00     0.013 A 
ATOM      4  C   UNL d   1       8.459   3.114 -14.098  0.00  0.00     0.034 A 
ATOM      5  C   UNL d   1       7.173   3.333 -13.615  0.00  0.00    -0.007 A 
ATOM      6  C   UNL d   1       6.100   2.522 -14.003  0.00  0.00     0.022 A 
ATOM      7  C   UNL d   1       7.209   4.395 -12.551  0.00  0.00     0.066 C 
ATOM      8  C   UNL d   1       6.591   4.025 -11.234  0.00  0.00     0.008 C 
ATOM      9  C   UNL d   1       6.570   5.690 -12.942  0.00  0.00     0.043 C 
ATOM     10  C   UNL d   1       7.780   6.435 -13.528  0.00  0.00     0.252 C 
ATOM     11  N   UNL d   1       8.931   6.119 -12.725  0.00  0.00     0.153 N 
ATOM     12  C   UNL d   1       8.921   6.940 -11.532  0.00  0.00     0.287 C 
ATOM     13  C   UNL d   1       8.729   4.700 -12.449  0.00  0.00     0.287 C 
ATOM     14  N   UNL d   1       9.402   3.962 -13.524  0.00  0.00    -0.226 NA
ATOM     15  C   UNL d   1      10.662   3.342 -13.252  0.00  0.00     0.096 C 
ENDROOT
BRANCH   1  16
ATOM     16  O   UNL d   1       5.459   0.578 -15.388  0.00  0.00    -0.258 OA
BRANCH  16  17
ATOM     17  C   UNL d   1       4.692  -0.169 -14.590  0.00  0.00     0.388 C 
ATOM     18  N   UNL d   1       4.054  -1.115 -15.374  0.00  0.00    -0.210 NA
ATOM     19  C   UNL d   1       4.338  -1.322 -16.797  0.00  0.00     0.158 C 
ATOM     20  O   UNL d   1       4.575  -0.026 -13.368  0.00  0.00    -0.236 OA
ENDBRANCH  16  17
ENDBRANCH   1  16
TORSDOF 2
