REMARK  3 active torsions:
REMARK  status: ('A' for Active; 'I' for Inactive)
REMARK    1  A    between atoms: C_2  and  C_3 
REMARK       I    between atoms: C_2  and  N_24 
REMARK    2  A    between atoms: C_7  and  C_8 
REMARK    3  A    between atoms: C_8  and  N_9 
ROOT
ATOM      1  C   UNL d   1       8.223   2.277 -14.818  0.00  0.00     0.056 A 
ATOM      2  C   UNL d   1       9.447   2.466 -15.488  0.00  0.00     0.005 A 
ATOM      3  C   UNL d   1      10.190   3.642 -15.288  0.00  0.00    -0.000 A 
ATOM      4  C   UNL d   1       9.756   4.593 -14.346  0.00  0.00    -0.002 A 
ATOM      5  C   UNL d   1       8.572   4.380 -13.612  0.00  0.00     0.011 A 
ATOM      6  C   UNL d   1       7.795   3.226 -13.862  0.00  0.00     0.002 A 
ENDROOT
BRANCH   5   7
ATOM      7  C   UNL d   1       8.122   5.390 -12.573  0.00  0.00     0.277 C 
BRANCH   7   8
ATOM      8  N   UNL d   1       9.133   5.601 -11.532  0.00  0.00     0.145 N 
ATOM      9  C   UNL d   1       9.461   7.032 -11.426  0.00  0.00     0.275 C 
ATOM     10  C   UNL d   1      10.482   7.296 -10.287  0.00  0.00     0.145 C 
ATOM     11  N   UNL d   1       9.976   6.772  -9.034  0.00  0.00    -0.342 N 
ATOM     12  C   UNL d   1      10.805   8.788 -10.152  0.00  0.00     0.173 C 
ATOM     13  C   UNL d   1       9.587   5.365  -9.106  0.00  0.00     0.137 C 
ATOM     14  C   UNL d   1      10.492   7.342  -7.851  0.00  0.00     0.079 A 
ATOM     15  C   UNL d   1       8.574   5.184 -10.245  0.00  0.00     0.275 C 
ATOM     16  C   UNL d   1      11.349   8.472  -7.908  0.00  0.00     0.110 A 
ATOM     17  C   UNL d   1      10.145   6.818  -6.601  0.00  0.00     0.019 A 
ATOM     18  C   UNL d   1      11.845   9.055  -6.722  0.00  0.00     0.026 A 
ATOM     19  O   UNL d   1      11.713   9.028  -9.099  0.00  0.00    -0.327 OA
ATOM     20  C   UNL d   1      11.478   8.531  -5.477  0.00  0.00     0.002 A 
ATOM     21  C   UNL d   1      10.659   7.391  -5.424  0.00  0.00     0.002 A 
ENDBRANCH   7   8
ENDBRANCH   5   7
BRANCH   1  22
ATOM     22  C   UNL d   1       7.397   1.047 -15.034  0.00  0.00     0.261 C 
ATOM     23  O   UNL d   1       7.191   0.324 -14.060  0.00  0.00    -0.267 OA
ATOM     24  N   UNL d   1       6.899   0.823 -16.285  0.00  0.00    -0.296 N 
ATOM     25  C   UNL d   1       5.851  -0.079 -16.581  0.00  0.00     0.059 A 
ATOM     26  C   UNL d   1       7.378   1.431 -17.544  0.00  0.00     0.114 C 
ATOM     27  C   UNL d   1       5.696  -0.205 -17.964  0.00  0.00    -0.004 A 
ATOM     28  C   UNL d   1       4.974  -0.762 -15.708  0.00  0.00     0.017 A 
ATOM     29  C   UNL d   1       6.674   0.678 -18.688  0.00  0.00     0.052 C 
ATOM     30  C   UNL d   1       4.735  -1.055 -18.528  0.00  0.00    -0.003 A 
ATOM     31  C   UNL d   1       3.880  -1.769 -17.660  0.00  0.00    -0.000 A 
ATOM     32  C   UNL d   1       3.999  -1.608 -16.260  0.00  0.00     0.002 A 
ENDBRANCH   1  22
TORSDOF 3
