REMARK  3 active torsions:
REMARK  status: ('A' for Active; 'I' for Inactive)
REMARK    1  A    between atoms: C_2  and  C_3 
REMARK    2  A    between atoms: N_14  and  C_15 
REMARK    3  A    between atoms: C_15  and  C_16 
ROOT
ATOM      1  C   UNL d   1       6.582   3.951 -12.762  0.00  0.00     0.007 C 
ATOM      2  C   UNL d   1       7.230   3.267 -13.725  0.00  0.00     0.001 C 
ATOM      3  C   UNL d   1       8.608   3.745 -14.151  0.00  0.00     0.064 C 
ATOM      4  C   UNL d   1       8.886   5.193 -13.711  0.00  0.00     0.256 C 
ATOM      5  N   UNL d   1       8.586   5.350 -12.288  0.00  0.00     0.146 N 
ATOM      6  C   UNL d   1       7.136   5.174 -12.081  0.00  0.00     0.277 C 
ENDROOT
BRANCH   2   7
ATOM      7  C   UNL d   1       6.683   2.020 -14.244  0.00  0.00     0.107 A 
ATOM      8  S   UNL d   1       5.502   1.038 -13.361  0.00  0.00    -0.067 SA
ATOM      9  C   UNL d   1       5.424  -0.021 -14.763  0.00  0.00     0.049 A 
ATOM     10  C   UNL d   1       6.333   0.435 -15.765  0.00  0.00     0.088 A 
ATOM     11  C   UNL d   1       4.635  -1.165 -14.964  0.00  0.00     0.008 A 
ATOM     12  N   UNL d   1       7.048   1.584 -15.453  0.00  0.00    -0.239 NA
ATOM     13  C   UNL d   1       6.426  -0.291 -16.969  0.00  0.00     0.020 A 
ATOM     14  C   UNL d   1       5.652  -1.450 -17.165  0.00  0.00     0.002 A 
ATOM     15  C   UNL d   1       4.771  -1.884 -16.162  0.00  0.00     0.001 A 
ENDBRANCH   2   7
BRANCH   5  16
ATOM     16  C   UNL d   1       9.031   6.660 -11.792  0.00  0.00     0.277 C 
BRANCH  16  17
ATOM     17  C   UNL d   1       9.472   6.678 -10.328  0.00  0.00     0.011 A 
ATOM     18  C   UNL d   1      10.587   7.483  -9.934  0.00  0.00    -0.002 A 
ATOM     19  C   UNL d   1      10.988   7.547  -8.584  0.00  0.00    -0.000 A 
ATOM     20  C   UNL d   1      10.287   6.828  -7.593  0.00  0.00    -0.000 A 
ATOM     21  C   UNL d   1       9.177   6.049  -7.976  0.00  0.00    -0.000 A 
ATOM     22  C   UNL d   1       8.790   5.959  -9.316  0.00  0.00    -0.002 A 
ENDBRANCH  16  17
ENDBRANCH   5  16
TORSDOF 3
