REMARK  8 active torsions:
REMARK  status: ('A' for Active; 'I' for Inactive)
REMARK    1  A    between atoms: C_6  and  C_7 
REMARK    2  A    between atoms: C_10  and  S_11 
REMARK    3  A    between atoms: S_11  and  C_12 
REMARK    4  A    between atoms: C_12  and  C_13 
REMARK    5  A    between atoms: C_13  and  C_14 
REMARK    6  A    between atoms: C_14  and  N_15 
REMARK    7  A    between atoms: C_19  and  C_20 
REMARK    8  A    between atoms: C_24  and  S_25 
ROOT
ATOM      1  N   UNL d   1      10.753   3.837 -16.175  0.00  0.00     0.137 N 
ATOM      2  C   UNL d   1      11.957   4.566 -15.790  0.00  0.00     0.251 C 
ATOM      3  C   UNL d   1      12.990   4.028 -16.751  0.00  0.00     0.039 A 
ATOM      4  C   UNL d   1      13.224   4.641 -18.103  0.00  0.00     0.008 A 
ATOM      5  C   UNL d   1      12.249   3.483 -17.926  0.00  0.00     0.052 A 
ATOM      6  C   UNL d   1      10.794   3.719 -17.631  0.00  0.00     0.254 C 
ENDROOT
BRANCH   1   7
ATOM      7  C   UNL d   1       9.531   4.513 -15.715  0.00  0.00     0.251 C 
BRANCH   7   8
ATOM      8  C   UNL d   1       9.380   4.443 -14.191  0.00  0.00     0.047 C 
BRANCH   8   9
ATOM      9  C   UNL d   1       8.011   4.970 -13.736  0.00  0.00     0.067 C 
BRANCH   9  10
ATOM     10  S   UNL d   1       7.730   4.746 -11.960  0.00  0.00    -0.075 SA
BRANCH  10  11
ATOM     11  C   UNL d   1       8.732   6.045 -11.316  0.00  0.00     0.193 A 
ATOM     12  N   UNL d   1       9.060   7.130 -12.004  0.00  0.00    -0.122 NA
ATOM     13  N   UNL d   1       9.824   7.891 -11.145  0.00  0.00    -0.126 NA
ATOM     14  C   UNL d   1       9.859   7.214  -9.996  0.00  0.00     0.191 A 
ATOM     15  N   UNL d   1       9.216   6.028 -10.058  0.00  0.00    -0.287 N 
ATOM     16  C   UNL d   1       9.063   5.009  -9.042  0.00  0.00     0.134 C 
BRANCH  14  17
ATOM     17  C   UNL d   1      10.571   7.758  -8.855  0.00  0.00     0.151 A 
ATOM     18  C   UNL d   1      10.253   7.918  -7.524  0.00  0.00     0.087 A 
ATOM     19  C   UNL d   1       9.019   7.583  -6.770  0.00  0.00     0.054 C 
ATOM     20  N   UNL d   1      11.319   8.540  -6.895  0.00  0.00    -0.221 NA
ATOM     21  C   UNL d   1      12.219   8.722  -7.857  0.00  0.00     0.225 A 
ATOM     22  O   UNL d   1      11.822   8.263  -9.069  0.00  0.00    -0.282 OA
ENDBRANCH  14  17
ENDBRANCH  10  11
ENDBRANCH   9  10
ENDBRANCH   8   9
ENDBRANCH   7   8
ENDBRANCH   1   7
BRANCH   5  23
ATOM     23  C   UNL d   1      12.597   2.071 -18.432  0.00  0.00    -0.020 A 
ATOM     24  C   UNL d   1      13.633   1.897 -19.355  0.00  0.00     0.011 A 
ATOM     25  C   UNL d   1      14.002   0.610 -19.813  0.00  0.00     0.122 A 
ATOM     26  C   UNL d   1      13.294  -0.518 -19.360  0.00  0.00     0.015 A 
ATOM     27  C   UNL d   1      12.236  -0.354 -18.445  0.00  0.00     0.001 A 
ATOM     28  C   UNL d   1      11.894   0.934 -17.970  0.00  0.00    -0.004 A 
BRANCH  25  29
ATOM     29  S   UNL d   1      15.382   0.456 -20.980  0.00  0.00     0.313 SA
ATOM     30  F   UNL d   1      16.277   1.504 -20.129  0.00  0.00    -0.093 F 
ATOM     31  F   UNL d   1      14.524  -0.590 -21.869  0.00  0.00    -0.093 F 
ATOM     32  F   UNL d   1      16.592   0.308 -22.029  0.00  0.00    -0.093 F 
ATOM     33  F   UNL d   1      16.017  -0.757 -20.113  0.00  0.00    -0.093 F 
ATOM     34  F   UNL d   1      14.792   1.669 -21.873  0.00  0.00    -0.093 F 
ENDBRANCH  25  29
ENDBRANCH   5  23
TORSDOF 8
