REMARK  6 active torsions:
REMARK  status: ('A' for Active; 'I' for Inactive)
REMARK    1  A    between atoms: O_2  and  N_3 
REMARK    2  A    between atoms: C_4  and  C_5 
REMARK    3  A    between atoms: C_4  and  C_19 
REMARK    4  A    between atoms: C_5  and  C_6 
REMARK    5  A    between atoms: C_6  and  N_7 
REMARK    6  A    between atoms: N_10  and  C_11 
ROOT
ATOM      1  C   UNL d   1      13.069   2.855 -18.139  0.00  0.00     0.017 A 
ATOM      2  C   UNL d   1      14.083   3.756 -18.534  0.00  0.00     0.001 A 
ATOM      3  C   UNL d   1      14.347   4.918 -17.779  0.00  0.00     0.001 A 
ATOM      4  C   UNL d   1      13.602   5.187 -16.615  0.00  0.00     0.010 A 
ATOM      5  C   UNL d   1      12.593   4.293 -16.206  0.00  0.00     0.068 A 
ATOM      6  C   UNL d   1      11.827   4.560 -15.002  0.00  0.00     0.101 C 
ATOM      7  N   UNL d   1      11.219   4.776 -14.041  0.00  0.00    -0.191 NA
ATOM      8  C   UNL d   1      12.331   3.133 -16.965  0.00  0.00     0.011 A 
ENDROOT
BRANCH   1   9
ATOM      9  C   UNL d   1      12.798   1.631 -18.936  0.00  0.00     0.087 C 
ATOM     10  N   UNL d   1      13.742   0.881 -19.344  0.00  0.00    -0.136 NA
BRANCH  10  11
ATOM     11  O   UNL d   1      13.279  -0.215 -20.087  0.00  0.00    -0.234 OA
ATOM     12  C   UNL d   1      14.345  -1.136 -20.216  0.00  0.00     0.211 C 
ENDBRANCH  10  11
BRANCH   9  13
ATOM     13  C   UNL d   1      11.324   1.379 -19.258  0.00  0.00     0.083 C 
BRANCH  13  14
ATOM     14  C   UNL d   1      10.730   0.201 -18.453  0.00  0.00     0.257 C 
BRANCH  14  15
ATOM     15  N   UNL d   1       9.267   0.230 -18.459  0.00  0.00     0.141 N 
ATOM     16  C   UNL d   1       8.763  -1.073 -18.003  0.00  0.00     0.274 C 
ATOM     17  C   UNL d   1       7.216  -1.104 -18.009  0.00  0.00     0.138 C 
ATOM     18  N   UNL d   1       6.701  -0.003 -17.209  0.00  0.00    -0.330 N 
ATOM     19  C   UNL d   1       7.244   1.305 -17.526  0.00  0.00     0.138 C 
ATOM     20  C   UNL d   1       8.778   1.257 -17.524  0.00  0.00     0.274 C 
BRANCH  18  21
ATOM     21  C   UNL d   1       5.781  -0.192 -16.166  0.00  0.00     0.140 A 
ATOM     22  N   UNL d   1       5.958   0.531 -15.037  0.00  0.00    -0.227 NA
ATOM     23  C   UNL d   1       5.066   0.387 -14.034  0.00  0.00     0.101 A 
ATOM     24  C   UNL d   1       3.948  -0.458 -14.109  0.00  0.00     0.021 A 
ATOM     25  C   UNL d   1       3.769  -1.212 -15.283  0.00  0.00     0.005 A 
ATOM     26  C   UNL d   1       4.701  -1.086 -16.326  0.00  0.00     0.037 A 
ENDBRANCH  18  21
ENDBRANCH  14  15
ENDBRANCH  13  14
ENDBRANCH   9  13
ENDBRANCH   1   9
TORSDOF 6
