REMARK  7 active torsions:
REMARK  status: ('A' for Active; 'I' for Inactive)
REMARK    1  A    between atoms: C_5  and  C_6 
REMARK    2  A    between atoms: N_14  and  C_15 
REMARK    3  A    between atoms: C_15  and  C_16 
REMARK    4  A    between atoms: C_16  and  C_18 
REMARK    5  A    between atoms: C_18  and  C_19 
REMARK    6  A    between atoms: C_19  and  N_20 
REMARK       I    between atoms: N_20  and  C_21 
REMARK    7  A    between atoms: C_21  and  C_23 
ROOT
ATOM      1  C   UNL d   1       8.680   7.911 -11.890  0.00  0.00     0.188 C 
ATOM      2  O   UNL d   1       8.900   9.181 -12.423  0.00  0.00    -0.221 OA
ENDROOT
BRANCH   1   3
ATOM      3  C   UNL d   1       8.812   6.793 -12.905  0.00  0.00     0.283 C 
BRANCH   3   4
ATOM      4  N   UNL d   1       8.403   5.455 -12.552  0.00  0.00     0.143 N 
ATOM      5  C   UNL d   1       7.071   5.428 -11.920  0.00  0.00     0.249 C 
ATOM      6  C   UNL d   1       5.902   6.070 -12.724  0.00  0.00     0.038 C 
ATOM      7  C   UNL d   1       6.694   3.989 -11.607  0.00  0.00     0.176 C 
ATOM      8  O   UNL d   1       6.664   3.273 -12.829  0.00  0.00    -0.348 OA
ATOM      9  C   UNL d   1       7.927   3.217 -13.484  0.00  0.00     0.172 C 
ATOM     10  C   UNL d   1       8.378   4.652 -13.774  0.00  0.00     0.284 C 
BRANCH   9  11
ATOM     11  C   UNL d   1       7.781   2.322 -14.704  0.00  0.00     0.026 A 
ATOM     12  C   UNL d   1       8.796   2.246 -15.673  0.00  0.00     0.098 A 
ATOM     13  N   UNL d   1       8.701   1.498 -16.791  0.00  0.00    -0.230 NA
ATOM     14  C   UNL d   1       7.576   0.782 -16.977  0.00  0.00     0.151 A 
ATOM     15  C   UNL d   1       6.511   0.752 -16.063  0.00  0.00     0.033 A 
ATOM     16  N   UNL d   1       7.497   0.060 -18.160  0.00  0.00    -0.080 NA
ATOM     17  C   UNL d   1       6.619   1.538 -14.901  0.00  0.00     0.002 A 
ENDBRANCH   9  11
ENDBRANCH   3   4
ENDBRANCH   1   3
BRANCH   1  18
ATOM     18  C   UNL d   1       9.486   7.670 -10.655  0.00  0.00     0.061 C 
BRANCH  18  19
ATOM     19  C   UNL d   1       9.766   8.900  -9.803  0.00  0.00     0.132 C 
BRANCH  19  20
ATOM     20  N   UNL d   1      10.414   8.597  -8.559  0.00  0.00    -0.233 NA
ATOM     21  C   UNL d   1      10.358   7.482  -7.814  0.00  0.00     0.293 C 
ATOM     22  O   UNL d   1       9.884   6.415  -8.183  0.00  0.00    -0.264 OA
BRANCH  21  23
ATOM     23  C   UNL d   1      10.943   7.636  -6.475  0.00  0.00     0.139 A 
ATOM     24  N   UNL d   1      10.935   8.864  -5.826  0.00  0.00    -0.241 NA
ATOM     25  C   UNL d   1      11.467   8.706  -4.561  0.00  0.00     0.082 A 
ATOM     26  C   UNL d   1      11.786   7.334  -4.428  0.00  0.00     0.019 A 
ATOM     27  C   UNL d   1      11.649   9.610  -3.517  0.00  0.00     0.019 A 
ATOM     28  C   UNL d   1      11.460   6.687  -5.654  0.00  0.00     0.025 A 
ATOM     29  C   UNL d   1      12.312   6.875  -3.198  0.00  0.00     0.002 A 
ATOM     30  C   UNL d   1      12.538   7.795  -2.166  0.00  0.00     0.000 A 
ATOM     31  C   UNL d   1      12.212   9.145  -2.317  0.00  0.00     0.002 A 
ENDBRANCH  21  23
ENDBRANCH  19  20
ENDBRANCH  18  19
ENDBRANCH   1  18
TORSDOF 7
