REMARK  7 active torsions:
REMARK  status: ('A' for Active; 'I' for Inactive)
REMARK    1  A    between atoms: C_8  and  O_9 
REMARK    2  A    between atoms: O_9  and  C_10 
REMARK    3  A    between atoms: C_10  and  C_11 
REMARK    4  A    between atoms: C_11  and  C_12 
REMARK    5  A    between atoms: C_12  and  C_13 
REMARK    6  A    between atoms: C_13  and  N_14 
REMARK    7  A    between atoms: N_17  and  C_18 
ROOT
ATOM      1  N   UNL d   1      10.884   0.858 -17.750  0.00  0.00     0.141 N 
ATOM      2  C   UNL d   1      11.671   1.601 -16.749  0.00  0.00     0.274 C 
ATOM      3  C   UNL d   1      11.002   1.535 -15.358  0.00  0.00     0.137 C 
ATOM      4  N   UNL d   1       9.615   1.972 -15.443  0.00  0.00    -0.344 N 
ATOM      5  C   UNL d   1       8.855   1.376 -16.524  0.00  0.00     0.137 C 
ATOM      6  C   UNL d   1       9.583   1.544 -17.837  0.00  0.00     0.274 C 
ENDROOT
BRANCH   1   7
ATOM      7  C   UNL d   1      11.609   0.880 -19.024  0.00  0.00     0.251 C 
BRANCH   7   8
ATOM      8  C   UNL d   1      11.175  -0.221 -20.015  0.00  0.00     0.038 C 
BRANCH   8   9
ATOM      9  C   UNL d   1       9.707  -0.102 -20.436  0.00  0.00     0.035 C 
BRANCH   9  10
ATOM     10  C   UNL d   1       9.242  -1.112 -21.487  0.00  0.00     0.151 C 
BRANCH  10  11
ATOM     11  O   UNL d   1       7.818  -1.120 -21.582  0.00  0.00    -0.315 OA
BRANCH  11  12
ATOM     12  C   UNL d   1       7.094  -1.930 -20.729  0.00  0.00     0.179 A 
ATOM     13  C   UNL d   1       7.553  -2.369 -19.449  0.00  0.00     0.044 A 
ATOM     14  C   UNL d   1       6.738  -3.196 -18.685  0.00  0.00     0.002 A 
ATOM     15  C   UNL d   1       5.505  -3.633 -19.228  0.00  0.00     0.014 A 
ATOM     16  C   UNL d   1       4.653  -4.621 -18.460  0.00  0.00     0.039 C 
ATOM     17  C   UNL d   1       5.137  -3.183 -20.502  0.00  0.00     0.163 A 
ATOM     18  C   UNL d   1       3.198  -4.667 -18.956  0.00  0.00     0.095 C 
ATOM     19  C   UNL d   1       3.042  -4.423 -20.451  0.00  0.00     0.257 C 
ATOM     20  O   UNL d   1       2.063  -4.862 -21.044  0.00  0.00    -0.270 OA
ATOM     21  N   UNL d   1       3.954  -3.674 -21.095  0.00  0.00    -0.193 NA
ATOM     22  N   UNL d   1       5.898  -2.323 -21.223  0.00  0.00    -0.204 NA
ENDBRANCH  11  12
ENDBRANCH  10  11
ENDBRANCH   9  10
ENDBRANCH   8   9
ENDBRANCH   7   8
ENDBRANCH   1   7
BRANCH   4  23
ATOM     23  C   UNL d   1       9.056   2.966 -14.632  0.00  0.00     0.056 A 
ATOM     24  C   UNL d   1       7.765   2.810 -14.045  0.00  0.00     0.018 A 
ATOM     25  C   UNL d   1       7.230   3.852 -13.237  0.00  0.00     0.002 A 
ATOM     26  C   UNL d   1       7.003   1.621 -14.196  0.00  0.00     0.031 A 
ATOM     27  C   UNL d   1       7.973   5.030 -13.016  0.00  0.00     0.000 A 
ATOM     28  C   UNL d   1       5.969   3.698 -12.629  0.00  0.00     0.002 A 
ATOM     29  C   UNL d   1       9.242   5.181 -13.597  0.00  0.00     0.002 A 
ATOM     30  C   UNL d   1       9.778   4.163 -14.403  0.00  0.00     0.017 A 
ATOM     31  C   UNL d   1       5.222   2.523 -12.824  0.00  0.00     0.030 A 
ATOM     32  C   UNL d   1       5.748   1.477 -13.602  0.00  0.00     0.140 A 
ATOM     33  F   UNL d   1       5.040   0.337 -13.792  0.00  0.00    -0.204 F 
ENDBRANCH   4  23
TORSDOF 7
