REMARK  6 active torsions:
REMARK  status: ('A' for Active; 'I' for Inactive)
REMARK    1  A    between atoms: C_2  and  O_4 
REMARK    2  A    between atoms: O_4  and  C_5 
REMARK    3  A    between atoms: C_10  and  N_11 
REMARK    4  A    between atoms: N_14  and  C_15 
REMARK    5  A    between atoms: C_18  and  N_19 
REMARK       I    between atoms: N_19  and  C_20 
REMARK       I    between atoms: C_20  and  N_22 
REMARK    6  A    between atoms: N_22  and  C_23 
ROOT
ATOM      1  C   UNL d   1      10.571   2.836 -16.829  0.00  0.00     0.220 C 
ATOM      2  C   UNL d   1      11.383   2.218 -15.677  0.00  0.00     0.035 C 
ATOM      3  C   UNL d   1      11.033   2.925 -14.384  0.00  0.00     0.026 C 
ATOM      4  C   UNL d   1       9.536   2.814 -14.063  0.00  0.00     0.108 C 
ATOM      5  C   UNL d   1       8.674   3.316 -15.233  0.00  0.00     0.026 C 
ATOM      6  C   UNL d   1       9.056   2.663 -16.571  0.00  0.00     0.035 C 
ENDROOT
BRANCH   1   7
ATOM      7  N   UNL d   1      10.946   2.229 -18.125  0.00  0.00     0.139 N 
ATOM      8  C   UNL d   1      10.462   3.002 -19.292  0.00  0.00     0.274 C 
ATOM      9  C   UNL d   1      11.117   4.403 -19.366  0.00  0.00     0.137 C 
ATOM     10  N   UNL d   1      12.574   4.266 -19.281  0.00  0.00    -0.343 N 
ATOM     11  C   UNL d   1      13.098   3.400 -18.227  0.00  0.00     0.137 C 
ATOM     12  C   UNL d   1      12.404   2.040 -18.300  0.00  0.00     0.274 C 
BRANCH  10  13
ATOM     13  C   UNL d   1      13.416   4.869 -20.230  0.00  0.00     0.079 A 
ATOM     14  C   UNL d   1      14.474   4.135 -20.822  0.00  0.00     0.109 A 
ATOM     15  C   UNL d   1      15.312   4.806 -21.760  0.00  0.00     0.026 A 
ATOM     16  C   UNL d   1      15.066   6.144 -22.109  0.00  0.00     0.002 A 
ATOM     17  C   UNL d   1      14.002   6.855 -21.520  0.00  0.00     0.002 A 
ATOM     18  C   UNL d   1      13.182   6.205 -20.576  0.00  0.00     0.019 A 
BRANCH  14  19
ATOM     19  O   UNL d   1      14.623   2.806 -20.482  0.00  0.00    -0.332 OA
BRANCH  19  20
ATOM     20  C   UNL d   1      15.601   1.984 -21.119  0.00  0.00     0.122 C 
ATOM     21  C   UNL d   1      15.144   1.675 -22.564  0.00  0.00     0.033 C 
ATOM     22  C   UNL d   1      15.721   0.687 -20.305  0.00  0.00     0.033 C 
ENDBRANCH  19  20
ENDBRANCH  14  19
ENDBRANCH  10  13
ENDBRANCH   1   7
BRANCH   4  23
ATOM     23  N   UNL d   1       9.142   3.514 -12.848  0.00  0.00    -0.219 NA
ATOM     24  C   UNL d   1       9.356   4.797 -12.551  0.00  0.00     0.364 C 
ATOM     25  O   UNL d   1      10.116   5.521 -13.217  0.00  0.00    -0.243 OA
ATOM     26  N   UNL d   1       8.672   5.202 -11.467  0.00  0.00    -0.190 NA
BRANCH  26  27
ATOM     27  C   UNL d   1       9.179   6.124 -10.521  0.00  0.00     0.107 A 
ATOM     28  C   UNL d   1       9.460   7.484 -10.829  0.00  0.00     0.077 A 
ATOM     29  C   UNL d   1       9.966   8.335  -9.834  0.00  0.00     0.024 A 
ATOM     30 CL   UNL d   1       8.981   8.193 -12.327  0.00  0.00    -0.081 Cl
ATOM     31  C   UNL d   1      10.162   7.875  -8.516  0.00  0.00     0.059 A 
ATOM     32  C   UNL d   1       9.863   6.535  -8.201  0.00  0.00     0.024 A 
ATOM     33 CL   UNL d   1      10.719   8.956  -7.293  0.00  0.00    -0.082 Cl
ATOM     34  C   UNL d   1       9.378   5.674  -9.203  0.00  0.00     0.077 A 
ATOM     35 CL   UNL d   1       9.053   4.031  -8.802  0.00  0.00    -0.081 Cl
ENDBRANCH  26  27
ENDBRANCH   4  23
TORSDOF 6
