REMARK  6 active torsions:
REMARK  status: ('A' for Active; 'I' for Inactive)
REMARK       I    between atoms: C_2  and  N_3 
REMARK    1  A    between atoms: C_2  and  C_27 
REMARK    2  A    between atoms: N_3  and  C_4 
REMARK    3  A    between atoms: C_7  and  C_8 
REMARK    4  A    between atoms: C_8  and  C_9 
REMARK    5  A    between atoms: C_9  and  N_10 
REMARK    6  A    between atoms: C_13  and  C_14 
ROOT
ATOM      1  C   UNL d   1       9.036   5.159 -12.782  0.00  0.00     0.035 C 
ENDROOT
BRANCH   1   2
ATOM      2  C   UNL d   1       9.586   5.684 -11.450  0.00  0.00     0.002 C 
ATOM      3  C   UNL d   1       8.908   6.969 -11.033  0.00  0.00     0.002 C 
ATOM      4  C   UNL d   1       9.472   7.503  -9.699  0.00  0.00     0.024 C 
ATOM      5  C   UNL d   1       9.293   6.466  -8.560  0.00  0.00     0.107 C 
ATOM      6  C   UNL d   1       9.928   5.155  -8.971  0.00  0.00     0.024 C 
ATOM      7  C   UNL d   1       9.454   4.648 -10.324  0.00  0.00     0.002 C 
BRANCH   5   8
ATOM      8  N   UNL d   1       9.838   6.910  -7.288  0.00  0.00    -0.236 NA
ATOM      9  C   UNL d   1      11.048   7.440  -7.045  0.00  0.00     0.275 C 
ATOM     10  O   UNL d   1      11.911   7.667  -7.886  0.00  0.00    -0.266 OA
BRANCH   9  11
ATOM     11  C   UNL d   1      11.318   7.752  -5.620  0.00  0.00     0.058 A 
ATOM     12  C   UNL d   1      11.464   6.708  -4.688  0.00  0.00     0.005 A 
ATOM     13  C   UNL d   1      11.857   6.995  -3.378  0.00  0.00     0.000 A 
ATOM     14  C   UNL d   1      12.059   8.330  -2.985  0.00  0.00     0.000 A 
ATOM     15  C   UNL d   1      11.887   9.359  -3.919  0.00  0.00     0.000 A 
ATOM     16  C   UNL d   1      11.559   9.089  -5.246  0.00  0.00     0.005 A 
ENDBRANCH   9  11
ENDBRANCH   5   8
ENDBRANCH   1   2
BRANCH   1  17
ATOM     17  C   UNL d   1       9.874   4.034 -13.368  0.00  0.00     0.250 C 
BRANCH  17  18
ATOM     18  N   UNL d   1       9.229   3.471 -14.540  0.00  0.00     0.137 N 
ATOM     19  C   UNL d   1      10.253   2.784 -15.321  0.00  0.00     0.251 C 
ATOM     20  C   UNL d   1       9.612   2.251 -16.603  0.00  0.00     0.040 C 
ATOM     21  C   UNL d   1       8.468   1.252 -16.328  0.00  0.00     0.028 C 
ATOM     22  C   UNL d   1       7.484   1.901 -15.333  0.00  0.00     0.040 C 
ATOM     23  C   UNL d   1       8.232   2.479 -14.128  0.00  0.00     0.251 C 
BRANCH  21  24
ATOM     24  C   UNL d   1       7.755   0.773 -17.614  0.00  0.00     0.002 A 
ATOM     25  C   UNL d   1       6.658  -0.108 -17.541  0.00  0.00     0.115 A 
ATOM     26  C   UNL d   1       5.989  -0.531 -18.680  0.00  0.00     0.119 A 
ATOM     27  O   UNL d   1       6.071  -0.665 -16.450  0.00  0.00    -0.300 OA
ATOM     28  C   UNL d   1       6.367  -0.116 -19.966  0.00  0.00     0.026 A 
ATOM     29  O   UNL d   1       4.970  -1.360 -18.322  0.00  0.00    -0.300 OA
ATOM     30  C   UNL d   1       7.471   0.754 -20.064  0.00  0.00     0.002 A 
ATOM     31  C   UNL d   1       8.162   1.193 -18.910  0.00  0.00    -0.002 A 
ATOM     32  C   UNL d   1       5.016  -1.458 -16.922  0.00  0.00     0.304 A 
ENDBRANCH  21  24
ENDBRANCH  17  18
ENDBRANCH   1  17
TORSDOF 6
