REMARK  7 active torsions:
REMARK  status: ('A' for Active; 'I' for Inactive)
REMARK    1  A    between atoms: C_6  and  N_7 
REMARK    2  A    between atoms: N_10  and  C_11 
REMARK    3  A    between atoms: C_11  and  C_12 
REMARK    4  A    between atoms: C_12  and  C_13 
REMARK    5  A    between atoms: C_13  and  C_14 
REMARK    6  A    between atoms: C_14  and  O_15 
REMARK    7  A    between atoms: O_15  and  C_16 
ROOT
ATOM      1  N   UNL d   1       7.063   3.319 -13.750  0.00  0.00    -0.343 N 
ATOM      2  C   UNL d   1       6.115   4.197 -13.072  0.00  0.00     0.137 C 
ATOM      3  C   UNL d   1       6.645   4.562 -11.680  0.00  0.00     0.274 C 
ATOM      4  N   UNL d   1       7.988   5.149 -11.778  0.00  0.00     0.141 N 
ATOM      5  C   UNL d   1       8.921   4.186 -12.374  0.00  0.00     0.274 C 
ATOM      6  C   UNL d   1       8.446   3.795 -13.777  0.00  0.00     0.137 C 
ENDROOT
BRANCH   4   7
ATOM      7  C   UNL d   1       8.429   5.521 -10.439  0.00  0.00     0.251 C 
BRANCH   7   8
ATOM      8  C   UNL d   1       9.591   6.524 -10.502  0.00  0.00     0.038 C 
BRANCH   8   9
ATOM      9  C   UNL d   1       9.856   7.143  -9.133  0.00  0.00     0.035 C 
BRANCH   9  10
ATOM     10  C   UNL d   1      11.055   8.119  -9.142  0.00  0.00     0.149 C 
BRANCH  10  11
ATOM     11  O   UNL d   1      10.873   9.184  -8.211  0.00  0.00    -0.331 OA
BRANCH  11  12
ATOM     12  C   UNL d   1      11.076   8.961  -6.868  0.00  0.00     0.097 A 
ATOM     13  C   UNL d   1      11.317   7.718  -6.313  0.00  0.00     0.043 A 
ATOM     14  C   UNL d   1      11.556   7.625  -4.924  0.00  0.00     0.086 A 
ATOM     15  N   UNL d   1      11.557   8.785  -4.144  0.00  0.00    -0.228 N 
ATOM     16  C   UNL d   1      11.858   6.616  -4.075  0.00  0.00     0.042 A 
ATOM     17  C   UNL d   1      11.291   9.992  -4.668  0.00  0.00     0.102 A 
ATOM     18  N   UNL d   1      11.852   8.519  -2.829  0.00  0.00    -0.164 NA
ATOM     19  C   UNL d   1      11.059  10.104  -6.022  0.00  0.00     0.045 A 
ATOM     20  C   UNL d   1      12.018   7.216  -2.809  0.00  0.00     0.122 A 
ENDBRANCH  11  12
ENDBRANCH  10  11
ENDBRANCH   9  10
ENDBRANCH   8   9
ENDBRANCH   7   8
ENDBRANCH   4   7
BRANCH   1  21
ATOM     21  C   UNL d   1       6.684   2.081 -14.307  0.00  0.00     0.080 A 
ATOM     22  C   UNL d   1       7.269   1.611 -15.513  0.00  0.00     0.130 A 
ATOM     23  O   UNL d   1       8.181   2.385 -16.204  0.00  0.00    -0.318 OA
ATOM     24  C   UNL d   1       6.857   0.375 -16.068  0.00  0.00     0.133 A 
ATOM     25  C   UNL d   1       9.136   1.688 -17.008  0.00  0.00     0.238 C 
ATOM     26  C   UNL d   1       8.493   0.561 -17.832  0.00  0.00     0.287 C 
ATOM     27  O   UNL d   1       8.960   0.226 -18.917  0.00  0.00    -0.267 OA
ATOM     28  N   UNL d   1       7.429  -0.045 -17.287  0.00  0.00    -0.205 NA
ATOM     29  C   UNL d   1       5.856  -0.394 -15.441  0.00  0.00     0.151 A 
ATOM     30  C   UNL d   1       5.282   0.058 -14.242  0.00  0.00     0.031 A 
ATOM     31  O   UNL d   1       5.424  -1.555 -16.012  0.00  0.00    -0.189 OA
ATOM     32  C   UNL d   1       5.698   1.281 -13.673  0.00  0.00     0.021 A 
ENDBRANCH   1  21
TORSDOF 7
