REMARK  9 active torsions:
REMARK  status: ('A' for Active; 'I' for Inactive)
REMARK    1  A    between atoms: C_3  and  C_4 
REMARK    2  A    between atoms: C_4  and  C_5 
REMARK       I    between atoms: C_5  and  N_7 
REMARK    3  A    between atoms: N_7  and  C_8 
REMARK    4  A    between atoms: C_11  and  C_12 
REMARK    5  A    between atoms: C_12  and  C_13 
REMARK    6  A    between atoms: C_13  and  N_14 
REMARK    7  A    between atoms: N_14  and  C_15 
REMARK    8  A    between atoms: N_14  and  C_18 
REMARK    9  A    between atoms: C_15  and  C_16 
ROOT
ATOM      1  C   UNL d   1      12.624   7.763  -1.919  0.00  0.00     0.076 C 
ATOM      2  C   UNL d   1      12.236   8.765  -2.501  0.00  0.00    -0.152 C 
ATOM      3  C   UNL d   1      11.721   9.900  -3.263  0.00  0.00     0.073 C 
ENDROOT
BRANCH   3   4
ATOM      4  C   UNL d   1      11.913   9.826  -4.791  0.00  0.00     0.103 C 
BRANCH   4   5
ATOM      5  C   UNL d   1      11.320   8.587  -5.470  0.00  0.00     0.257 C 
ATOM      6  O   UNL d   1      11.280   7.515  -4.871  0.00  0.00    -0.270 OA
ATOM      7  N   UNL d   1      10.917   8.746  -6.746  0.00  0.00    -0.212 NA
BRANCH   7   8
ATOM      8  C   UNL d   1      10.385   7.739  -7.586  0.00  0.00     0.084 A 
ATOM      9  C   UNL d   1       9.444   6.786  -7.138  0.00  0.00     0.019 A 
ATOM     10  C   UNL d   1       8.933   5.819  -8.027  0.00  0.00    -0.003 A 
ATOM     11  C   UNL d   1       9.370   5.788  -9.365  0.00  0.00    -0.020 A 
ATOM     12  C   UNL d   1      10.300   6.748  -9.816  0.00  0.00    -0.003 A 
ATOM     13  C   UNL d   1      10.805   7.719  -8.930  0.00  0.00     0.019 A 
BRANCH  11  14
ATOM     14  C   UNL d   1       8.876   4.708 -10.302  0.00  0.00     0.062 C 
BRANCH  14  15
ATOM     15  C   UNL d   1       8.164   5.257 -11.550  0.00  0.00     0.255 C 
BRANCH  15  16
ATOM     16  N   UNL d   1       7.947   4.202 -12.549  0.00  0.00     0.136 N 
BRANCH  16  17
ATOM     17  C   UNL d   1       6.790   4.518 -13.387  0.00  0.00     0.250 C 
BRANCH  17  18
ATOM     18  C   UNL d   1       5.458   4.170 -12.709  0.00  0.00     0.035 C 
ATOM     19  C   UNL d   1       5.213   2.654 -12.713  0.00  0.00     0.002 C 
ENDBRANCH  17  18
ENDBRANCH  16  17
BRANCH  16  20
ATOM     20  C   UNL d   1       9.152   3.852 -13.332  0.00  0.00     0.224 C 
ATOM     21  C   UNL d   1       9.735   5.052 -14.103  0.00  0.00     0.059 C 
ATOM     22  C   UNL d   1      10.825   4.679 -15.096  0.00  0.00    -0.022 A 
ATOM     23  C   UNL d   1      11.021   3.343 -15.523  0.00  0.00    -0.001 A 
ATOM     24  C   UNL d   1      11.634   5.713 -15.614  0.00  0.00    -0.004 A 
ATOM     25  C   UNL d   1      10.188   2.198 -14.953  0.00  0.00     0.030 C 
ATOM     26  C   UNL d   1      12.017   3.073 -16.487  0.00  0.00     0.127 A 
ATOM     27  C   UNL d   1       8.899   2.661 -14.263  0.00  0.00     0.038 C 
ATOM     28  O   UNL d   1      12.219   1.804 -16.940  0.00  0.00    -0.191 OA
ATOM     29  C   UNL d   1      12.821   4.110 -17.001  0.00  0.00     0.027 A 
ATOM     30  C   UNL d   1      12.633   5.431 -16.560  0.00  0.00     0.002 A 
ENDBRANCH  16  20
ENDBRANCH  15  16
ENDBRANCH  14  15
ENDBRANCH  11  14
ENDBRANCH   7   8
ENDBRANCH   4   5
ENDBRANCH   3   4
TORSDOF 9
