REMARK  7 active torsions:
REMARK  status: ('A' for Active; 'I' for Inactive)
REMARK    1  A    between atoms: C_6  and  C_7 
REMARK    2  A    between atoms: C_10  and  S_11 
REMARK    3  A    between atoms: S_11  and  C_12 
REMARK    4  A    between atoms: C_12  and  C_13 
REMARK    5  A    between atoms: C_13  and  C_14 
REMARK    6  A    between atoms: C_14  and  N_15 
REMARK    7  A    between atoms: C_20  and  C_21 
ROOT
ATOM      1  C   UNL d   1       9.246   4.413 -13.477  0.00  0.00     0.047 C 
ENDROOT
BRANCH   1   2
ATOM      2  C   UNL d   1       9.539   2.934 -13.817  0.00  0.00     0.067 C 
BRANCH   2   3
ATOM      3  S   UNL d   1       9.785   2.624 -15.591  0.00  0.00    -0.075 SA
BRANCH   3   4
ATOM      4  C   UNL d   1      11.317   3.446 -15.876  0.00  0.00     0.193 A 
ATOM      5  N   UNL d   1      11.976   4.142 -14.956  0.00  0.00    -0.122 NA
ATOM      6  N   UNL d   1      13.021   4.720 -15.613  0.00  0.00    -0.126 NA
ATOM      7  C   UNL d   1      12.954   4.281 -16.878  0.00  0.00     0.191 A 
ATOM      8  N   UNL d   1      11.903   3.463 -17.093  0.00  0.00    -0.287 N 
ATOM      9  C   UNL d   1      11.514   2.766 -18.323  0.00  0.00     0.134 C 
BRANCH   7  10
ATOM     10  C   UNL d   1      13.975   4.656 -17.862  0.00  0.00     0.151 A 
ATOM     11  C   UNL d   1      15.095   5.453 -17.762  0.00  0.00     0.087 A 
ATOM     12  C   UNL d   1      15.611   6.235 -16.587  0.00  0.00     0.054 C 
ATOM     13  N   UNL d   1      15.761   5.447 -18.975  0.00  0.00    -0.221 NA
ATOM     14  C   UNL d   1      15.016   4.662 -19.749  0.00  0.00     0.225 A 
ATOM     15  O   UNL d   1      13.925   4.141 -19.133  0.00  0.00    -0.282 OA
ENDBRANCH   7  10
ENDBRANCH   3   4
ENDBRANCH   2   3
ENDBRANCH   1   2
BRANCH   1  16
ATOM     16  C   UNL d   1       9.193   4.665 -11.957  0.00  0.00     0.251 C 
BRANCH  16  17
ATOM     17  N   UNL d   1       9.392   6.093 -11.720  0.00  0.00     0.137 N 
ATOM     18  C   UNL d   1       9.819   6.345 -10.335  0.00  0.00     0.254 C 
ATOM     19  C   UNL d   1       9.896   7.831  -9.941  0.00  0.00     0.051 A 
ATOM     20  C   UNL d   1       9.086   8.831 -10.756  0.00  0.00     0.008 A 
ATOM     21  C   UNL d   1      10.596   8.800 -10.826  0.00  0.00     0.006 A 
ATOM     22  C   UNL d   1       8.336   8.330 -11.989  0.00  0.00     0.036 C 
ATOM     23  C   UNL d   1       8.127   6.788 -11.967  0.00  0.00     0.250 C 
BRANCH  19  24
ATOM     24  C   UNL d   1      10.134   8.008  -8.472  0.00  0.00    -0.021 A 
ATOM     25  C   UNL d   1      11.182   8.815  -7.956  0.00  0.00    -0.004 A 
ATOM     26  C   UNL d   1      11.347   8.992  -6.569  0.00  0.00    -0.000 A 
ATOM     27  C   UNL d   1      10.520   8.278  -5.688  0.00  0.00    -0.000 A 
ATOM     28  C   UNL d   1       9.521   7.423  -6.208  0.00  0.00    -0.000 A 
ATOM     29  C   UNL d   1       9.296   7.319  -7.580  0.00  0.00    -0.004 A 
ENDBRANCH  19  24
ENDBRANCH  16  17
ENDBRANCH   1  16
TORSDOF 7
