REMARK  7 active torsions:
REMARK  status: ('A' for Active; 'I' for Inactive)
REMARK    1  A    between atoms: C_9  and  O_10 
REMARK    2  A    between atoms: O_10  and  C_11 
REMARK    3  A    between atoms: C_11  and  C_12 
REMARK    4  A    between atoms: C_12  and  N_13 
REMARK    5  A    between atoms: N_13  and  C_14 
REMARK    6  A    between atoms: C_14  and  C_15 
REMARK       I    between atoms: N_19  and  C_20 
REMARK    7  A    between atoms: C_20  and  C_22 
ROOT
ATOM      1  C   UNL d   1       9.241   6.043  -9.016  0.00  0.00     0.172 C 
ATOM      2  F   UNL d   1       7.972   5.861  -8.689  0.00  0.00    -0.238 F 
ATOM      3  C   UNL d   1       9.985   5.813  -7.714  0.00  0.00     0.059 C 
ATOM      4  C   UNL d   1       9.638   6.844  -6.641  0.00  0.00     0.107 C 
ATOM      5  N   UNL d   1      10.089   8.145  -7.173  0.00  0.00    -0.317 N 
ATOM      6  C   UNL d   1      11.008   8.983  -6.664  0.00  0.00     0.257 C 
ATOM      7  O   UNL d   1      11.437   9.994  -7.246  0.00  0.00    -0.267 OA
ATOM      8  C   UNL d   1       9.353   8.514  -8.411  0.00  0.00     0.107 C 
ATOM      9  C   UNL d   1       9.562   7.455  -9.518  0.00  0.00     0.059 C 
ENDROOT
BRANCH   1  10
ATOM     10  C   UNL d   1       9.521   4.941 -10.023  0.00  0.00     0.323 C 
BRANCH  10  11
ATOM     11  N   UNL d   1       9.009   5.285 -11.334  0.00  0.00     0.345 N 
BRANCH  11  12
ATOM     12  C   UNL d   1       9.440   4.324 -12.330  0.00  0.00     0.323 C 
BRANCH  12  13
ATOM     13  C   UNL d   1       8.699   4.648 -13.635  0.00  0.00     0.187 C 
BRANCH  13  14
ATOM     14  O   UNL d   1       9.291   3.914 -14.702  0.00  0.00    -0.327 OA
BRANCH  14  15
ATOM     15  C   UNL d   1       8.725   2.727 -15.111  0.00  0.00     0.116 A 
ATOM     16  C   UNL d   1       7.610   2.096 -14.490  0.00  0.00     0.026 A 
ATOM     17  C   UNL d   1       7.048   0.920 -15.027  0.00  0.00     0.002 A 
ATOM     18  C   UNL d   1       7.593   0.330 -16.183  0.00  0.00    -0.002 A 
ATOM     19  C   UNL d   1       8.710   0.948 -16.768  0.00  0.00     0.004 A 
ATOM     20  C   UNL d   1       9.465   0.522 -17.974  0.00  0.00     0.056 A 
ATOM     21  C   UNL d   1       9.265   2.107 -16.256  0.00  0.00     0.112 A 
ATOM     22  C   UNL d   1      10.536   1.643 -18.097  0.00  0.00     0.103 A 
ATOM     23  C   UNL d   1      11.959   1.076 -17.981  0.00  0.00     0.031 C 
ATOM     24  O   UNL d   1      10.332   2.545 -16.992  0.00  0.00    -0.334 OA
ATOM     25  C   UNL d   1      10.359   2.450 -19.392  0.00  0.00     0.031 C 
ENDBRANCH  14  15
ENDBRANCH  13  14
ENDBRANCH  12  13
ENDBRANCH  11  12
ENDBRANCH  10  11
ENDBRANCH   1  10
BRANCH   6  26
ATOM     26  C   UNL d   1      11.406   8.858  -5.228  0.00  0.00     0.057 A 
ATOM     27  C   UNL d   1      11.854   7.647  -4.689  0.00  0.00     0.018 A 
ATOM     28  C   UNL d   1      12.256   7.598  -3.341  0.00  0.00     0.085 A 
ATOM     29  C   UNL d   1      12.233   8.714  -2.545  0.00  0.00     0.151 A 
ATOM     30 CL   UNL d   1      12.621   6.118  -2.631  0.00  0.00    -0.080 Cl
ATOM     31  C   UNL d   1      11.822   9.935  -3.055  0.00  0.00     0.031 A 
ATOM     32  F   UNL d   1      12.620   8.601  -1.252  0.00  0.00    -0.203 F 
ATOM     33  C   UNL d   1      11.387   9.991  -4.394  0.00  0.00     0.007 A 
ENDBRANCH   6  26
TORSDOF 7
