REMARK  4 active torsions:
REMARK  status: ('A' for Active; 'I' for Inactive)
REMARK    1  A    between atoms: C_2  and  N_4 
REMARK    2  A    between atoms: N_4  and  C_5 
REMARK    3  A    between atoms: C_5  and  C_6 
REMARK    4  A    between atoms: C_6  and  C_8 
ROOT
ATOM      1  C   UNL d   1      10.957   8.305  -7.210  0.00  0.00     0.012 A 
ATOM      2  C   UNL d   1      11.575   8.520  -8.456  0.00  0.00     0.001 A 
ATOM      3  C   UNL d   1      11.072   7.908  -9.614  0.00  0.00     0.029 A 
ATOM      4  C   UNL d   1       9.952   7.060  -9.537  0.00  0.00     0.156 A 
ATOM      5  O   UNL d   1       9.444   6.486 -10.661  0.00  0.00    -0.188 OA
ATOM      6  C   UNL d   1       9.335   6.824  -8.294  0.00  0.00     0.156 A 
ATOM      7  O   UNL d   1       8.260   5.995  -8.217  0.00  0.00    -0.188 OA
ATOM      8  C   UNL d   1       9.822   7.462  -7.135  0.00  0.00     0.028 A 
ENDROOT
BRANCH   1   9
ATOM      9  C   UNL d   1      11.522   8.977  -5.963  0.00  0.00     0.198 C 
ATOM     10  O   UNL d   1      10.694  10.025  -5.513  0.00  0.00    -0.216 OA
BRANCH   9  11
ATOM     11  C   UNL d   1      11.663   7.982  -4.809  0.00  0.00     0.157 C 
BRANCH  11  12
ATOM     12  N   UNL d   1      12.282   8.598  -3.639  0.00  0.00    -0.294 NA
BRANCH  12  13
ATOM     13  C   UNL d   1      12.649   7.676  -2.555  0.00  0.00     0.098 C 
ATOM     14  C   UNL d   1      11.564   6.645  -2.242  0.00  0.00     0.026 C 
ATOM     15  C   UNL d   1      13.003   8.499  -1.314  0.00  0.00     0.026 C 
ENDBRANCH  12  13
ENDBRANCH  11  12
ENDBRANCH   9  11
ENDBRANCH   1   9
TORSDOF 4
