REMARK  8 active torsions:
REMARK  status: ('A' for Active; 'I' for Inactive)
REMARK    1  A    between atoms: C_2  and  C_3 
REMARK    2  A    between atoms: C_3  and  N_4 
REMARK    3  A    between atoms: N_4  and  C_5 
REMARK    4  A    between atoms: N_4  and  C_8 
REMARK    5  A    between atoms: C_5  and  C_6 
REMARK    6  A    between atoms: C_13  and  C_14 
REMARK    7  A    between atoms: C_14  and  C_15 
REMARK    8  A    between atoms: C_15  and  C_16 
ROOT
ATOM      1  C   UNL d   1       9.778   5.087 -12.470  0.00  0.00     0.224 C 
ATOM      2  C   UNL d   1       9.199   4.250 -11.332  0.00  0.00     0.038 C 
ATOM      3  C   UNL d   1       9.683   4.591  -9.939  0.00  0.00     0.028 C 
ATOM      4  C   UNL d   1       9.837   6.093  -9.724  0.00  0.00    -0.026 A 
ATOM      5  C   UNL d   1      10.012   6.558  -8.409  0.00  0.00    -0.009 A 
ATOM      6  C   UNL d   1      10.196   7.928  -8.155  0.00  0.00    -0.022 A 
ATOM      7  C   UNL d   1      10.194   8.840  -9.224  0.00  0.00    -0.005 A 
ATOM      8  C   UNL d   1      10.000   8.389 -10.536  0.00  0.00    -0.005 A 
ATOM      9  C   UNL d   1       9.838   7.021 -10.800  0.00  0.00    -0.024 A 
ATOM     10  C   UNL d   1       9.611   6.599 -12.233  0.00  0.00     0.059 C 
ENDROOT
BRANCH   6  11
ATOM     11  C   UNL d   1      10.389   8.409  -6.738  0.00  0.00     0.031 C 
BRANCH  11  12
ATOM     12  C   UNL d   1      11.731   7.964  -6.168  0.00  0.00     0.031 C 
BRANCH  12  13
ATOM     13  C   UNL d   1      11.851   8.268  -4.682  0.00  0.00    -0.022 C 
ATOM     14  C   UNL d   1      11.726   9.596  -4.223  0.00  0.00    -0.004 C 
ATOM     15  C   UNL d   1      11.793   9.850  -2.847  0.00  0.00    -0.000 C 
ATOM     16  C   UNL d   1      12.154   8.824  -1.951  0.00  0.00    -0.000 C 
ATOM     17  C   UNL d   1      12.265   7.497  -2.397  0.00  0.00    -0.000 C 
ATOM     18  C   UNL d   1      12.116   7.218  -3.766  0.00  0.00    -0.004 C 
ENDBRANCH  12  13
ENDBRANCH  11  12
ENDBRANCH   6  11
BRANCH   1  19
ATOM     19  N   UNL d   1       9.278   4.662 -13.781  0.00  0.00     0.135 N 
BRANCH  19  20
ATOM     20  C   UNL d   1       7.895   5.080 -14.038  0.00  0.00     0.250 C 
BRANCH  20  21
ATOM     21  C   UNL d   1       6.933   5.029 -12.864  0.00  0.00     0.035 C 
ATOM     22  C   UNL d   1       5.604   5.672 -13.005  0.00  0.00     0.002 C 
ENDBRANCH  20  21
ENDBRANCH  19  20
BRANCH  19  23
ATOM     23  C   UNL d   1      10.211   5.047 -14.857  0.00  0.00     0.250 C 
BRANCH  23  24
ATOM     24  C   UNL d   1       9.600   5.083 -16.274  0.00  0.00     0.035 C 
ATOM     25  C   UNL d   1       9.304   3.681 -16.809  0.00  0.00     0.002 C 
ENDBRANCH  23  24
ENDBRANCH  19  23
ENDBRANCH   1  19
TORSDOF 8
