REMARK  5 active torsions:
REMARK  status: ('A' for Active; 'I' for Inactive)
REMARK    1  A    between atoms: N_3  and  C_4 
REMARK    2  A    between atoms: C_4  and  C_5 
REMARK    3  A    between atoms: C_5  and  C_6 
REMARK    4  A    between atoms: C_6  and  N_7 
REMARK    5  A    between atoms: N_10  and  C_11 
ROOT
ATOM      1  N   UNL d   1       8.821   2.898 -14.318  0.00  0.00     0.141 N 
ATOM      2  C   UNL d   1       7.715   3.617 -13.665  0.00  0.00     0.274 C 
ATOM      3  C   UNL d   1       8.016   5.124 -13.565  0.00  0.00     0.137 C 
ATOM      4  N   UNL d   1       9.286   5.324 -12.894  0.00  0.00    -0.344 N 
ATOM      5  C   UNL d   1      10.408   4.597 -13.450  0.00  0.00     0.137 C 
ATOM      6  C   UNL d   1      10.047   3.109 -13.531  0.00  0.00     0.274 C 
ENDROOT
BRANCH   1   7
ATOM      7  C   UNL d   1       8.520   1.466 -14.389  0.00  0.00     0.253 C 
BRANCH   7   8
ATOM      8  C   UNL d   1       8.114   1.041 -15.808  0.00  0.00     0.062 C 
BRANCH   8   9
ATOM      9  C   UNL d   1       6.671   1.422 -16.182  0.00  0.00     0.135 C 
BRANCH   9  10
ATOM     10  N   UNL d   1       6.101   0.503 -17.159  0.00  0.00    -0.201 N 
ATOM     11  C   UNL d   1       6.189   0.574 -18.495  0.00  0.00     0.352 A 
ATOM     12  O   UNL d   1       6.761   1.431 -19.172  0.00  0.00    -0.244 OA
ATOM     13  N   UNL d   1       5.514  -0.492 -18.910  0.00  0.00    -0.241 N 
ATOM     14  C   UNL d   1       5.038  -1.161 -17.794  0.00  0.00     0.171 A 
ATOM     15  C   UNL d   1       5.304  -0.925 -20.226  0.00  0.00     0.086 A 
ATOM     16  N   UNL d   1       5.382  -0.557 -16.707  0.00  0.00    -0.147 NA
ATOM     17  C   UNL d   1       4.276  -2.369 -18.042  0.00  0.00     0.039 A 
ATOM     18  C   UNL d   1       4.074  -2.792 -19.313  0.00  0.00     0.005 A 
ATOM     19  C   UNL d   1       4.604  -2.054 -20.447  0.00  0.00     0.019 A 
ENDBRANCH   9  10
ENDBRANCH   8   9
ENDBRANCH   7   8
ENDBRANCH   1   7
BRANCH   4  20
ATOM     20  C   UNL d   1       9.416   6.203 -11.812  0.00  0.00     0.057 A 
ATOM     21  C   UNL d   1       9.713   5.723 -10.522  0.00  0.00     0.028 A 
ATOM     22  C   UNL d   1       9.925   6.625  -9.459  0.00  0.00     0.059 A 
ATOM     23  C   UNL d   1       9.841   8.010  -9.669  0.00  0.00     0.011 A 
ATOM     24 CL   UNL d   1      10.248   6.045  -7.867  0.00  0.00    -0.082 Cl
ATOM     25  C   UNL d   1       9.476   8.481 -10.942  0.00  0.00     0.002 A 
ATOM     26  C   UNL d   1       9.283   7.589 -12.010  0.00  0.00     0.017 A 
ENDBRANCH   4  20
TORSDOF 5
