REMARK  7 active torsions:
REMARK  status: ('A' for Active; 'I' for Inactive)
REMARK    1  A    between atoms: C_6  and  N_7 
REMARK    2  A    between atoms: N_10  and  C_11 
REMARK    3  A    between atoms: C_11  and  C_12 
REMARK    4  A    between atoms: C_12  and  C_13 
REMARK    5  A    between atoms: C_13  and  O_14 
REMARK    6  A    between atoms: O_14  and  C_15 
REMARK    7  A    between atoms: C_18  and  C_19 
ROOT
ATOM      1  C   UNL d   1       7.961   6.108 -12.299  0.00  0.00     0.151 C 
ENDROOT
BRANCH   1   2
ATOM      2  C   UNL d   1       8.427   4.645 -12.353  0.00  0.00     0.068 C 
BRANCH   2   3
ATOM      3  C   UNL d   1       9.560   4.432 -13.372  0.00  0.00     0.253 C 
BRANCH   3   4
ATOM      4  N   UNL d   1       9.670   3.042 -13.789  0.00  0.00     0.141 N 
ATOM      5  C   UNL d   1      10.909   2.869 -14.552  0.00  0.00     0.274 C 
ATOM      6  C   UNL d   1      11.055   1.398 -14.996  0.00  0.00     0.137 C 
ATOM      7  N   UNL d   1       9.888   0.975 -15.755  0.00  0.00    -0.344 N 
ATOM      8  C   UNL d   1       8.621   1.214 -15.078  0.00  0.00     0.137 C 
ATOM      9  C   UNL d   1       8.534   2.680 -14.642  0.00  0.00     0.274 C 
BRANCH   7  10
ATOM     10  C   UNL d   1       9.963   0.406 -17.043  0.00  0.00     0.057 A 
ATOM     11  C   UNL d   1      11.073   0.644 -17.886  0.00  0.00     0.017 A 
ATOM     12  C   UNL d   1      11.141   0.054 -19.162  0.00  0.00     0.002 A 
ATOM     13  C   UNL d   1      10.096  -0.768 -19.620  0.00  0.00     0.011 A 
ATOM     14  C   UNL d   1       8.985  -1.003 -18.791  0.00  0.00     0.059 A 
ATOM     15 CL   UNL d   1       7.702  -2.020 -19.335  0.00  0.00    -0.082 Cl
ATOM     16  C   UNL d   1       8.920  -0.417 -17.514  0.00  0.00     0.028 A 
ENDBRANCH   7  10
ENDBRANCH   3   4
ENDBRANCH   2   3
ENDBRANCH   1   2
BRANCH   1  17
ATOM     17  O   UNL d   1       9.010   7.031 -12.069  0.00  0.00    -0.331 OA
BRANCH  17  18
ATOM     18  C   UNL d   1       9.456   7.196 -10.783  0.00  0.00     0.094 A 
ATOM     19  C   UNL d   1      10.216   8.342 -10.460  0.00  0.00     0.024 A 
ATOM     20  C   UNL d   1      10.655   8.573  -9.144  0.00  0.00     0.005 A 
ATOM     21  C   UNL d   1      10.349   7.626  -8.141  0.00  0.00     0.036 A 
ATOM     22  C   UNL d   1       9.613   6.467  -8.461  0.00  0.00     0.005 A 
ATOM     23  C   UNL d   1       9.158   6.251  -9.773  0.00  0.00     0.024 A 
BRANCH  21  24
ATOM     24  C   UNL d   1      10.781   7.824  -6.767  0.00  0.00     0.162 A 
ATOM     25  N   UNL d   1      11.103   6.805  -5.950  0.00  0.00    -0.225 NA
ATOM     26  C   UNL d   1      11.468   7.336  -4.728  0.00  0.00     0.101 A 
ATOM     27  C   UNL d   1      11.313   8.738  -4.918  0.00  0.00     0.101 A 
ATOM     28  C   UNL d   1      11.899   6.790  -3.510  0.00  0.00     0.021 A 
ATOM     29  N   UNL d   1      10.883   9.030  -6.197  0.00  0.00    -0.225 NA
ATOM     30  C   UNL d   1      11.591   9.590  -3.828  0.00  0.00     0.021 A 
ATOM     31  C   UNL d   1      12.035   9.051  -2.605  0.00  0.00     0.002 A 
ATOM     32  C   UNL d   1      12.192   7.662  -2.445  0.00  0.00     0.002 A 
ENDBRANCH  21  24
ENDBRANCH  17  18
ENDBRANCH   1  17
TORSDOF 7
