REMARK  3 active torsions:
REMARK  status: ('A' for Active; 'I' for Inactive)
REMARK    1  A    between atoms: C_5  and  C_6 
REMARK    2  A    between atoms: N_8  and  C_9 
REMARK    3  A    between atoms: C_19  and  C_20 
ROOT
ATOM      1  C   UNL d   1       7.825   2.972 -14.152  0.00  0.00    -0.003 A 
ATOM      2  C   UNL d   1       6.828   2.105 -14.483  0.00  0.00     0.076 A 
ATOM      3  N   UNL d   1       7.123   1.481 -15.692  0.00  0.00    -0.305 N 
ATOM      4  C   UNL d   1       8.360   1.939 -16.155  0.00  0.00     0.064 A 
ATOM      5  C   UNL d   1       9.139   1.638 -17.294  0.00  0.00     0.018 A 
ATOM      6  C   UNL d   1      10.365   2.303 -17.505  0.00  0.00     0.003 A 
ATOM      7  C   UNL d   1      10.822   3.271 -16.593  0.00  0.00     0.017 A 
ATOM      8  C   UNL d   1      10.027   3.543 -15.460  0.00  0.00     0.003 A 
ATOM      9  C   UNL d   1       8.802   2.899 -15.190  0.00  0.00     0.014 A 
ENDROOT
BRANCH   1  10
ATOM     10  C   UNL d   1       7.866   3.861 -12.904  0.00  0.00     0.028 C 
ATOM     11  C   UNL d   1       7.500   5.295 -13.243  0.00  0.00     0.040 C 
ATOM     12  C   UNL d   1       7.679   6.247 -12.030  0.00  0.00     0.251 C 
ATOM     13  N   UNL d   1       9.048   6.117 -11.544  0.00  0.00     0.139 N 
ATOM     14  C   UNL d   1       9.280   7.071 -10.451  0.00  0.00     0.285 C 
ATOM     15  C   UNL d   1       9.203   4.782 -10.997  0.00  0.00     0.251 C 
ATOM     16  C   UNL d   1       9.217   3.833 -12.195  0.00  0.00     0.040 C 
ENDBRANCH   1  10
BRANCH   3  17
ATOM     17  C   UNL d   1       6.288   0.534 -16.340  0.00  0.00     0.064 A 
ATOM     18  C   UNL d   1       6.140   0.550 -17.747  0.00  0.00     0.020 A 
ATOM     19  C   UNL d   1       5.335  -0.408 -18.388  0.00  0.00     0.031 A 
ATOM     20  C   UNL d   1       4.643  -1.364 -17.631  0.00  0.00     0.140 A 
ATOM     21  C   UNL d   1       4.758  -1.373 -16.226  0.00  0.00     0.031 A 
ATOM     22  F   UNL d   1       3.864  -2.275 -18.258  0.00  0.00    -0.204 F 
ATOM     23  C   UNL d   1       5.582  -0.426 -15.581  0.00  0.00     0.020 A 
ENDBRANCH   3  17
BRANCH   7  24
ATOM     24  C   UNL d   1      12.104   3.942 -16.796  0.00  0.00     0.080 A 
ATOM     25  N   UNL d   1      12.366   5.266 -16.474  0.00  0.00    -0.249 N 
ATOM     26  N   UNL d   1      13.640   5.609 -16.746  0.00  0.00    -0.168 NA
ATOM     27  C   UNL d   1      11.482   6.286 -15.955  0.00  0.00     0.154 C 
ATOM     28  C   UNL d   1      14.171   4.520 -17.266  0.00  0.00     0.122 A 
ATOM     29  C   UNL d   1      13.259   3.429 -17.315  0.00  0.00     0.041 A 
ENDBRANCH   7  24
TORSDOF 3
