REMARK  8 active torsions:
REMARK  status: ('A' for Active; 'I' for Inactive)
REMARK    1  A    between atoms: N_2  and  C_3 
REMARK    2  A    between atoms: N_2  and  C_11 
REMARK    3  A    between atoms: C_3  and  C_4 
REMARK    4  A    between atoms: C_4  and  C_5 
REMARK    5  A    between atoms: C_11  and  C_12 
REMARK    6  A    between atoms: C_12  and  C_13 
REMARK    7  A    between atoms: C_16  and  N_17 
REMARK    8  A    between atoms: N_17  and  C_18 
ROOT
ATOM      1  C   UNL d   1      10.334   7.919  -8.834  0.00  0.00     0.002 C 
ATOM      2  C   UNL d   1      11.533   8.880  -8.727  0.00  0.00     0.002 C 
ATOM      3  C   UNL d   1      11.911   9.118  -7.265  0.00  0.00     0.025 C 
ATOM      4  C   UNL d   1      10.719   9.626  -6.432  0.00  0.00     0.122 C 
ATOM      5  C   UNL d   1       9.480   8.721  -6.590  0.00  0.00     0.025 C 
ATOM      6  C   UNL d   1       9.128   8.470  -8.046  0.00  0.00     0.002 C 
ENDROOT
BRANCH   1   7
ATOM      7  C   UNL d   1       9.964   7.698 -10.306  0.00  0.00     0.035 C 
BRANCH   7   8
ATOM      8  C   UNL d   1       9.289   6.340 -10.600  0.00  0.00     0.250 C 
BRANCH   8   9
ATOM      9  N   UNL d   1       9.042   6.154 -12.036  0.00  0.00     0.139 N 
ATOM     10  C   UNL d   1       7.957   7.047 -12.444  0.00  0.00     0.285 C 
BRANCH   9  11
ATOM     11  C   UNL d   1       8.667   4.760 -12.294  0.00  0.00     0.255 C 
BRANCH  11  12
ATOM     12  C   UNL d   1       8.577   4.453 -13.806  0.00  0.00     0.062 C 
BRANCH  12  13
ATOM     13  C   UNL d   1       8.131   3.037 -14.094  0.00  0.00    -0.020 A 
ATOM     14  C   UNL d   1       6.762   2.698 -14.040  0.00  0.00    -0.004 A 
ATOM     15  C   UNL d   1       6.348   1.379 -14.310  0.00  0.00    -0.000 A 
ATOM     16  C   UNL d   1       7.303   0.400 -14.646  0.00  0.00    -0.000 A 
ATOM     17  C   UNL d   1       8.669   0.739 -14.716  0.00  0.00    -0.000 A 
ATOM     18  C   UNL d   1       9.083   2.055 -14.441  0.00  0.00    -0.004 A 
ENDBRANCH  12  13
ENDBRANCH  11  12
ENDBRANCH   9  11
ENDBRANCH   8   9
ENDBRANCH   7   8
ENDBRANCH   1   7
BRANCH   4  19
ATOM     19  N   UNL d   1      11.069   9.834  -5.024  0.00  0.00    -0.088 NA
BRANCH  19  20
ATOM     20  C   UNL d   1      11.510   8.845  -4.166  0.00  0.00     0.746 A 
ATOM     21  N   UNL d   1      11.871   9.253  -2.955  0.00  0.00    -0.058 NA
ATOM     22  C   UNL d   1      12.258   8.308  -2.076  0.00  0.00     0.120 A 
ATOM     23  C   UNL d   1      12.270   6.945  -2.423  0.00  0.00     0.043 A 
ATOM     24  C   UNL d   1      11.873   6.636  -3.732  0.00  0.00     0.120 A 
ATOM     25  N   UNL d   1      11.504   7.588  -4.590  0.00  0.00    -0.058 NA
ENDBRANCH  19  20
ENDBRANCH   4  19
TORSDOF 8
