REMARK  4 active torsions:
REMARK  status: ('A' for Active; 'I' for Inactive)
REMARK    1  A    between atoms: C_5  and  C_6 
REMARK    2  A    between atoms: C_8  and  C_9 
REMARK    3  A    between atoms: N_12  and  C_13 
REMARK    4  A    between atoms: C_13  and  C_14 
ROOT
ATOM      1  C   UNL d   1       9.056   6.442  -9.916  0.00  0.00     0.046 C 
ATOM      2  C   UNL d   1       9.502   5.031 -10.159  0.00  0.00     0.041 C 
ATOM      3  C   UNL d   1       8.990   4.425 -11.488  0.00  0.00     0.251 C 
ATOM      4  N   UNL d   1       9.199   5.280 -12.656  0.00  0.00     0.141 N 
ATOM      5  C   UNL d   1       8.503   6.534 -12.410  0.00  0.00     0.251 C 
ATOM      6  C   UNL d   1       9.165   7.240 -11.251  0.00  0.00     0.041 C 
ENDROOT
BRANCH   1   7
ATOM      7  C   UNL d   1       9.742   7.126  -8.781  0.00  0.00     0.082 A 
ATOM      8  C   UNL d   1       9.911   6.755  -7.495  0.00  0.00     0.037 A 
ATOM      9  C   UNL d   1      10.671   7.818  -6.918  0.00  0.00     0.104 A 
ATOM     10  N   UNL d   1      10.949   8.771  -7.788  0.00  0.00    -0.148 NA
ATOM     11  N   UNL d   1      10.375   8.338  -8.916  0.00  0.00    -0.152 NA
BRANCH   9  12
ATOM     12  C   UNL d   1      11.160   7.959  -5.558  0.00  0.00     0.019 A 
ATOM     13  C   UNL d   1      11.396   9.246  -5.014  0.00  0.00     0.002 A 
ATOM     14  C   UNL d   1      11.860   9.367  -3.695  0.00  0.00     0.011 A 
ATOM     15  C   UNL d   1      12.105   8.213  -2.945  0.00  0.00     0.058 A 
ATOM     16 CL   UNL d   1      12.679   8.390  -1.375  0.00  0.00    -0.082 Cl
ATOM     17  C   UNL d   1      11.859   6.932  -3.459  0.00  0.00     0.011 A 
ATOM     18  C   UNL d   1      11.394   6.805  -4.780  0.00  0.00     0.002 A 
ENDBRANCH   9  12
ENDBRANCH   1   7
BRANCH   4  19
ATOM     19  C   UNL d   1       8.672   4.640 -13.851  0.00  0.00     0.277 C 
BRANCH  19  20
ATOM     20  C   UNL d   1       9.695   3.770 -14.548  0.00  0.00     0.012 A 
ATOM     21  C   UNL d   1       9.423   2.411 -14.819  0.00  0.00     0.009 A 
ATOM     22  C   UNL d   1      10.363   1.634 -15.522  0.00  0.00     0.058 A 
ATOM     23  C   UNL d   1      11.567   2.207 -15.970  0.00  0.00     0.011 A 
ATOM     24 CL   UNL d   1      10.027  -0.017 -15.857  0.00  0.00    -0.082 Cl
ATOM     25  C   UNL d   1      11.847   3.559 -15.701  0.00  0.00     0.001 A 
ATOM     26  C   UNL d   1      10.904   4.340 -15.004  0.00  0.00    -0.002 A 
ENDBRANCH  19  20
ENDBRANCH   4  19
TORSDOF 4
