REMARK  3 active torsions:
REMARK  status: ('A' for Active; 'I' for Inactive)
REMARK    1  A    between atoms: N_15  and  C_16 
REMARK    2  A    between atoms: C_16  and  C_17 
REMARK    3  A    between atoms: C_17  and  C_18 
ROOT
ATOM      1  O   UNL d   1       5.652   4.976 -13.488  0.00  0.00    -0.222 OA
ATOM      2  S   UNL d   1       6.730   4.195 -12.878  0.00  0.00     0.188 S 
ATOM      3  O   UNL d   1       6.539   3.870 -11.444  0.00  0.00    -0.222 OA
ATOM      4  C   UNL d   1       6.799   2.628 -13.666  0.00  0.00     0.080 A 
ATOM      5  C   UNL d   1       5.849   1.666 -13.307  0.00  0.00     0.011 A 
ATOM      6  C   UNL d   1       5.885   0.403 -13.917  0.00  0.00     0.001 A 
ATOM      7  C   UNL d   1       6.828   0.133 -14.921  0.00  0.00    -0.000 A 
ATOM      8  C   UNL d   1       7.770   1.102 -15.305  0.00  0.00    -0.004 A 
ATOM      9  C   UNL d   1       7.773   2.368 -14.695  0.00  0.00    -0.012 A 
ATOM     10  C   UNL d   1       8.872   3.340 -15.124  0.00  0.00     0.028 C 
ATOM     11  C   UNL d   1       8.750   4.792 -14.640  0.00  0.00     0.020 C 
ATOM     12  C   UNL d   1       8.441   4.918 -13.155  0.00  0.00     0.103 C 
ATOM     13  C   UNL d   1       8.462   6.394 -12.751  0.00  0.00     0.051 C 
ATOM     14  C   UNL d   1       8.363   6.525 -11.239  0.00  0.00     0.251 C 
ATOM     15  N   UNL d   1       9.457   5.846 -10.543  0.00  0.00     0.137 N 
ATOM     16  C   UNL d   1       9.416   4.418 -10.817  0.00  0.00     0.251 C 
ATOM     17  C   UNL d   1       9.518   4.177 -12.329  0.00  0.00     0.051 C 
ENDROOT
BRANCH  15  18
ATOM     18  C   UNL d   1       9.281   6.059  -9.107  0.00  0.00     0.255 C 
BRANCH  18  19
ATOM     19  C   UNL d   1      10.652   6.147  -8.427  0.00  0.00     0.064 C 
BRANCH  19  20
ATOM     20  C   UNL d   1      10.702   7.167  -7.317  0.00  0.00     0.007 A 
ATOM     21  C   UNL d   1      10.460   8.520  -7.621  0.00  0.00     0.138 A 
ATOM     22  C   UNL d   1      10.521   9.480  -6.603  0.00  0.00     0.059 A 
ATOM     23  F   UNL d   1      10.168   8.911  -8.884  0.00  0.00    -0.204 F 
ATOM     24  C   UNL d   1      10.820   9.113  -5.285  0.00  0.00     0.142 A 
ATOM     25  C   UNL d   1      11.087   7.767  -4.983  0.00  0.00     0.029 A 
ATOM     26  F   UNL d   1      10.826  10.049  -4.308  0.00  0.00    -0.204 F 
ATOM     27  C   UNL d   1      11.036   6.796  -5.999  0.00  0.00     0.000 A 
ENDBRANCH  19  20
ENDBRANCH  18  19
ENDBRANCH  15  18
TORSDOF 3
