REMARK  6 active torsions:
REMARK  status: ('A' for Active; 'I' for Inactive)
REMARK       I    between atoms: C_2  and  N_3 
REMARK    1  A    between atoms: C_2  and  C_27 
REMARK    2  A    between atoms: N_3  and  C_4 
REMARK    3  A    between atoms: C_7  and  C_8 
REMARK    4  A    between atoms: C_8  and  C_9 
REMARK    5  A    between atoms: C_9  and  N_10 
REMARK    6  A    between atoms: C_13  and  C_14 
ROOT
ATOM      1  C   UNL d   1       8.141   2.493 -14.428  0.00  0.00     0.107 C 
ATOM      2  C   UNL d   1       9.242   3.504 -14.802  0.00  0.00     0.024 C 
ATOM      3  C   UNL d   1       9.571   4.432 -13.627  0.00  0.00     0.002 C 
ATOM      4  C   UNL d   1       8.312   5.171 -13.124  0.00  0.00     0.002 C 
ATOM      5  C   UNL d   1       7.181   4.178 -12.778  0.00  0.00     0.002 C 
ATOM      6  C   UNL d   1       6.865   3.201 -13.916  0.00  0.00     0.024 C 
ENDROOT
BRANCH   4   7
ATOM      7  C   UNL d   1       8.644   6.134 -11.964  0.00  0.00     0.035 C 
BRANCH   7   8
ATOM      8  C   UNL d   1       8.705   5.448 -10.582  0.00  0.00     0.250 C 
BRANCH   8   9
ATOM      9  N   UNL d   1       9.110   6.353  -9.521  0.00  0.00     0.137 N 
ATOM     10  C   UNL d   1       8.714   5.786  -8.229  0.00  0.00     0.251 C 
ATOM     11  C   UNL d   1       9.048   6.771  -7.098  0.00  0.00     0.040 C 
ATOM     12  C   UNL d   1      10.549   7.108  -7.090  0.00  0.00     0.028 C 
ATOM     13  C   UNL d   1      10.969   7.574  -8.491  0.00  0.00     0.040 C 
ATOM     14  C   UNL d   1      10.551   6.563  -9.551  0.00  0.00     0.251 C 
BRANCH  12  15
ATOM     15  C   UNL d   1      10.887   8.129  -6.048  0.00  0.00     0.004 A 
ATOM     16  C   UNL d   1      11.451   7.909  -4.747  0.00  0.00     0.021 A 
ATOM     17  C   UNL d   1      11.542   9.185  -4.140  0.00  0.00     0.100 A 
ATOM     18  C   UNL d   1      11.855   6.798  -3.978  0.00  0.00     0.002 A 
ATOM     19  O   UNL d   1      11.062  10.145  -4.999  0.00  0.00    -0.305 OA
ATOM     20  C   UNL d   1      12.035   9.382  -2.845  0.00  0.00     0.025 A 
ATOM     21  C   UNL d   1      10.692   9.486  -6.133  0.00  0.00     0.118 A 
ATOM     22  C   UNL d   1      12.440   8.260  -2.103  0.00  0.00     0.002 A 
ATOM     23  C   UNL d   1      12.334   6.967  -2.661  0.00  0.00     0.000 A 
ENDBRANCH  12  15
ENDBRANCH   8   9
ENDBRANCH   7   8
ENDBRANCH   4   7
BRANCH   1  24
ATOM     24  N   UNL d   1       7.807   1.679 -15.584  0.00  0.00    -0.236 NA
ATOM     25  C   UNL d   1       8.543   0.661 -16.051  0.00  0.00     0.275 C 
ATOM     26  O   UNL d   1       9.631   0.319 -15.591  0.00  0.00    -0.266 OA
BRANCH  25  27
ATOM     27  C   UNL d   1       7.976  -0.012 -17.261  0.00  0.00     0.060 A 
ATOM     28  C   UNL d   1       6.649  -0.530 -17.321  0.00  0.00     0.022 A 
ATOM     29  C   UNL d   1       6.255  -1.202 -18.517  0.00  0.00     0.082 A 
ATOM     30  C   UNL d   1       5.730  -0.451 -16.238  0.00  0.00     0.002 A 
ATOM     31  N   UNL d   1       7.082  -1.339 -19.577  0.00  0.00    -0.244 NA
ATOM     32  C   UNL d   1       4.957  -1.748 -18.596  0.00  0.00     0.019 A 
ATOM     33  C   UNL d   1       8.329  -0.842 -19.506  0.00  0.00     0.099 A 
ATOM     34  C   UNL d   1       8.822  -0.180 -18.373  0.00  0.00     0.025 A 
ATOM     35  C   UNL d   1       4.054  -1.652 -17.522  0.00  0.00     0.002 A 
ATOM     36  C   UNL d   1       4.442  -1.000 -16.343  0.00  0.00     0.000 A 
ENDBRANCH  25  27
ENDBRANCH   1  24
TORSDOF 6
