REMARK  4 active torsions:
REMARK  status: ('A' for Active; 'I' for Inactive)
REMARK    1  A    between atoms: N_2  and  C_4 
REMARK    2  A    between atoms: C_4  and  C_5 
REMARK    3  A    between atoms: N_9  and  S_10 
REMARK    4  A    between atoms: S_10  and  C_13 
ROOT
ATOM      1  C   UNL d   1       6.341   0.563 -14.494  0.00  0.00     0.111 A 
ATOM      2  C   UNL d   1       5.932   1.767 -13.865  0.00  0.00     0.024 A 
ATOM      3  C   UNL d   1       6.877   2.794 -13.687  0.00  0.00     0.023 A 
ATOM      4  C   UNL d   1       6.767   4.030 -13.112  0.00  0.00     0.092 A 
ATOM      5  N   UNL d   1       8.099   4.513 -13.136  0.00  0.00    -0.231 N 
ATOM      6  C   UNL d   1       8.919   3.602 -13.723  0.00  0.00     0.077 A 
ATOM      7  C   UNL d   1      10.298   3.514 -14.034  0.00  0.00     0.018 A 
ATOM      8  C   UNL d   1      10.804   2.353 -14.662  0.00  0.00     0.004 A 
ATOM      9  C   UNL d   1       9.950   1.265 -14.966  0.00  0.00     0.025 A 
ATOM     10  C   UNL d   1       8.572   1.327 -14.661  0.00  0.00     0.101 A 
ATOM     11  C   UNL d   1       8.163   2.517 -14.075  0.00  0.00     0.041 A 
ATOM     12  O   UNL d   1       7.660   0.317 -14.875  0.00  0.00    -0.309 OA
ENDROOT
BRANCH   5  13
ATOM     13  S   UNL d   1       8.577   6.046 -12.549  0.00  0.00     0.271 S 
ATOM     14  O   UNL d   1       9.857   6.267 -13.209  0.00  0.00    -0.200 OA
ATOM     15  O   UNL d   1       7.441   6.938 -12.811  0.00  0.00    -0.200 OA
BRANCH  13  16
ATOM     16  C   UNL d   1       8.887   5.912 -10.797  0.00  0.00     0.104 A 
ATOM     17  C   UNL d   1       9.667   6.882 -10.107  0.00  0.00     0.012 A 
ATOM     18  C   UNL d   1       9.888   6.725  -8.717  0.00  0.00     0.001 A 
ATOM     19  C   UNL d   1      10.230   8.018 -10.733  0.00  0.00     0.001 A 
ATOM     20  C   UNL d   1       9.347   5.634  -8.036  0.00  0.00     0.000 A 
ATOM     21  C   UNL d   1      10.648   7.654  -7.978  0.00  0.00     0.000 A 
ATOM     22  C   UNL d   1       8.613   4.655  -8.735  0.00  0.00     0.001 A 
ATOM     23  C   UNL d   1       8.365   4.802 -10.109  0.00  0.00     0.013 A 
ATOM     24  C   UNL d   1      11.223   8.757  -8.624  0.00  0.00     0.000 A 
ATOM     25  C   UNL d   1      11.025   8.924 -10.002  0.00  0.00     0.000 A 
ENDBRANCH  13  16
ENDBRANCH   5  13
BRANCH   1  26
ATOM     26  C   UNL d   1       5.283  -0.479 -14.815  0.00  0.00     0.301 C 
BRANCH  26  27
ATOM     27  N   UNL d   1       5.458  -1.132 -16.112  0.00  0.00     0.148 N 
ATOM     28  C   UNL d   1       5.534  -0.184 -17.214  0.00  0.00     0.286 C 
ATOM     29  C   UNL d   1       4.327  -2.022 -16.349  0.00  0.00     0.286 C 
ENDBRANCH  26  27
ENDBRANCH   1  26
TORSDOF 4
