REMARK  6 active torsions:
REMARK  status: ('A' for Active; 'I' for Inactive)
REMARK    1  A    between atoms: O_2  and  C_3 
REMARK    2  A    between atoms: C_6  and  O_7 
REMARK    3  A    between atoms: O_7  and  C_8 
REMARK    4  A    between atoms: C_8  and  C_9 
REMARK    5  A    between atoms: C_9  and  N_10 
REMARK       I    between atoms: N_13  and  C_14 
REMARK    6  A    between atoms: C_14  and  C_16 
ROOT
ATOM      1  N   UNL d   1       6.924   4.944 -12.889  0.00  0.00     0.144 N 
ATOM      2  C   UNL d   1       7.618   4.057 -13.830  0.00  0.00     0.274 C 
ATOM      3  C   UNL d   1       6.649   3.109 -14.552  0.00  0.00     0.140 C 
ATOM      4  N   UNL d   1       5.920   2.332 -13.558  0.00  0.00    -0.311 N 
ATOM      5  C   UNL d   1       5.794   0.985 -13.578  0.00  0.00     0.275 C 
ATOM      6  O   UNL d   1       5.396   0.348 -12.603  0.00  0.00    -0.266 OA
ATOM      7  C   UNL d   1       5.181   3.202 -12.604  0.00  0.00     0.140 C 
ATOM      8  C   UNL d   1       6.154   4.164 -11.909  0.00  0.00     0.274 C 
ENDROOT
BRANCH   1   9
ATOM      9  C   UNL d   1       7.886   5.861 -12.272  0.00  0.00     0.283 C 
BRANCH   9  10
ATOM     10  C   UNL d   1       8.779   5.145 -11.227  0.00  0.00     0.184 C 
BRANCH  10  11
ATOM     11  O   UNL d   1       9.845   6.003 -10.884  0.00  0.00    -0.329 OA
BRANCH  11  12
ATOM     12  C   UNL d   1       9.871   6.604  -9.650  0.00  0.00     0.094 A 
ATOM     13  C   UNL d   1      10.815   7.628  -9.533  0.00  0.00     0.026 A 
ATOM     14  C   UNL d   1      10.971   8.331  -8.331  0.00  0.00     0.026 A 
ATOM     15  C   UNL d   1      10.165   8.012  -7.206  0.00  0.00     0.094 A 
ATOM     16  C   UNL d   1       9.217   6.976  -7.321  0.00  0.00     0.026 A 
ATOM     17  C   UNL d   1       9.068   6.260  -8.527  0.00  0.00     0.026 A 
BRANCH  15  18
ATOM     18  O   UNL d   1      10.264   8.667  -6.000  0.00  0.00    -0.328 OA
ATOM     19  C   UNL d   1      11.239   9.687  -5.893  0.00  0.00     0.181 C 
ENDBRANCH  15  18
ENDBRANCH  11  12
ENDBRANCH  10  11
ENDBRANCH   9  10
ENDBRANCH   1   9
BRANCH   5  20
ATOM     20  C   UNL d   1       5.984   0.251 -14.859  0.00  0.00     0.139 A 
ATOM     21  N   UNL d   1       5.031  -0.704 -15.197  0.00  0.00    -0.239 NA
ATOM     22  C   UNL d   1       5.330  -1.288 -16.409  0.00  0.00     0.099 A 
ATOM     23  C   UNL d   1       6.527  -0.655 -16.858  0.00  0.00     0.101 A 
ATOM     24  C   UNL d   1       4.747  -2.299 -17.189  0.00  0.00     0.022 A 
ATOM     25  C   UNL d   1       6.944   0.262 -15.849  0.00  0.00     0.045 A 
ATOM     26  N   UNL d   1       7.114  -0.971 -18.024  0.00  0.00    -0.242 NA
ATOM     27  C   UNL d   1       6.557  -1.958 -18.757  0.00  0.00     0.099 A 
ATOM     28  C   UNL d   1       5.383  -2.651 -18.392  0.00  0.00     0.022 A 
ENDBRANCH   5  20
TORSDOF 6
