REMARK  7 active torsions:
REMARK  status: ('A' for Active; 'I' for Inactive)
REMARK    1  A    between atoms: C_2  and  C_3 
REMARK       I    between atoms: C_2  and  N_21 
REMARK    2  A    between atoms: C_3  and  C_4 
REMARK    3  A    between atoms: C_4  and  C_5 
REMARK    4  A    between atoms: C_5  and  C_6 
REMARK    5  A    between atoms: C_6  and  N_7 
REMARK    6  A    between atoms: N_10  and  C_11 
REMARK    7  A    between atoms: N_21  and  C_22 
ROOT
ATOM      1  C   UNL d   1       9.171   7.106 -11.332  0.00  0.00     0.036 C 
ENDROOT
BRANCH   1   2
ATOM      2  C   UNL d   1      10.264   7.907 -10.610  0.00  0.00     0.012 C 
BRANCH   2   3
ATOM      3  C   UNL d   1       9.793   8.695  -9.369  0.00  0.00     0.090 C 
BRANCH   3   4
ATOM      4  C   UNL d   1      10.729   8.558  -8.181  0.00  0.00     0.257 C 
ATOM      5  O   UNL d   1      11.938   8.791  -8.269  0.00  0.00    -0.270 OA
ATOM      6  N   UNL d   1      10.148   8.145  -7.052  0.00  0.00    -0.186 NA
BRANCH   6   7
ATOM      7  C   UNL d   1      10.780   8.197  -5.809  0.00  0.00     0.197 A 
ATOM      8  S   UNL d   1      11.108   9.722  -4.998  0.00  0.00    -0.047 SA
ATOM      9  C   UNL d   1      11.704   8.769  -3.659  0.00  0.00     0.050 A 
ATOM     10  C   UNL d   1      11.675   7.377  -3.979  0.00  0.00     0.090 A 
ATOM     11  C   UNL d   1      12.198   9.187  -2.400  0.00  0.00     0.008 A 
ATOM     12  N   UNL d   1      11.113   7.073  -5.211  0.00  0.00    -0.221 NA
ATOM     13  C   UNL d   1      12.147   6.457  -3.055  0.00  0.00     0.020 A 
ATOM     14  C   UNL d   1      12.655   6.870  -1.844  0.00  0.00     0.002 A 
ATOM     15  C   UNL d   1      12.703   8.208  -1.513  0.00  0.00     0.001 A 
ENDBRANCH   6   7
ENDBRANCH   3   4
ENDBRANCH   2   3
ENDBRANCH   1   2
BRANCH   1  16
ATOM     16  C   UNL d   1       9.690   5.818 -11.993  0.00  0.00     0.250 C 
BRANCH  16  17
ATOM     17  N   UNL d   1       8.775   5.307 -12.990  0.00  0.00     0.141 N 
ATOM     18  C   UNL d   1       7.595   4.717 -12.342  0.00  0.00     0.274 C 
ATOM     19  C   UNL d   1       6.649   4.129 -13.404  0.00  0.00     0.137 C 
ATOM     20  N   UNL d   1       7.384   3.216 -14.302  0.00  0.00    -0.344 N 
ATOM     21  C   UNL d   1       8.681   3.706 -14.823  0.00  0.00     0.137 C 
ATOM     22  C   UNL d   1       9.523   4.264 -13.706  0.00  0.00     0.274 C 
BRANCH  20  23
ATOM     23  C   UNL d   1       6.864   1.951 -14.623  0.00  0.00     0.067 A 
ATOM     24  C   UNL d   1       6.998   1.295 -15.890  0.00  0.00     0.074 A 
ATOM     25  C   UNL d   1       6.473  -0.005 -16.076  0.00  0.00     0.024 A 
ATOM     26 CL   UNL d   1       7.676   2.019 -17.299  0.00  0.00    -0.081 Cl
ATOM     27  C   UNL d   1       5.768  -0.642 -15.061  0.00  0.00     0.059 A 
ATOM     28  C   UNL d   1       5.638  -0.035 -13.815  0.00  0.00     0.013 A 
ATOM     29 CL   UNL d   1       4.990  -2.110 -15.441  0.00  0.00    -0.082 Cl
ATOM     30  C   UNL d   1       6.152   1.262 -13.619  0.00  0.00     0.019 A 
ENDBRANCH  20  23
ENDBRANCH  16  17
ENDBRANCH   1  16
TORSDOF 7
