REMARK  4 active torsions:
REMARK  status: ('A' for Active; 'I' for Inactive)
REMARK    1  A    between atoms: C_5  and  C_6 
REMARK    2  A    between atoms: C_6  and  N_7 
REMARK    3  A    between atoms: N_10  and  C_11 
REMARK    4  A    between atoms: C_11  and  C_12 
REMARK       I    between atoms: C_12  and  N_14 
ROOT
ATOM      1  N   UNL d   1      10.472   8.315  -8.586  0.00  0.00     0.146 N 
ATOM      2  C   UNL d   1      10.139   6.951  -8.203  0.00  0.00     0.286 C 
ATOM      3  C   UNL d   1       9.085   6.272  -8.970  0.00  0.00     0.286 C 
ATOM      4  N   UNL d   1       9.480   6.199 -10.359  0.00  0.00     0.151 N 
ATOM      5  C   UNL d   1       9.725   7.579 -10.844  0.00  0.00     0.286 C 
ATOM      6  C   UNL d   1      10.808   8.289 -10.019  0.00  0.00     0.286 C 
ENDROOT
BRANCH   4   7
ATOM      7  C   UNL d   1       8.400   5.578 -11.088  0.00  0.00     0.337 C 
BRANCH   7   8
ATOM      8  C   UNL d   1       8.836   4.956 -12.429  0.00  0.00     0.271 C 
ATOM      9  O   UNL d   1       9.882   5.345 -12.935  0.00  0.00    -0.270 OA
ATOM     10  N   UNL d   1       8.029   4.034 -13.007  0.00  0.00    -0.299 N 
ATOM     11  C   UNL d   1       6.667   3.671 -12.516  0.00  0.00     0.093 A 
ATOM     12  C   UNL d   1       8.358   3.241 -14.113  0.00  0.00     0.058 A 
ATOM     13  C   UNL d   1       6.163   2.570 -13.490  0.00  0.00     0.051 A 
ATOM     14  C   UNL d   1       5.634   4.818 -12.421  0.00  0.00     0.025 C 
ATOM     15  C   UNL d   1       7.313   2.374 -14.438  0.00  0.00    -0.004 A 
ATOM     16  C   UNL d   1       7.416   1.474 -15.507  0.00  0.00    -0.003 A 
ATOM     17  C   UNL d   1       8.610   1.437 -16.262  0.00  0.00    -0.000 A 
ATOM     18  C   UNL d   1       9.672   2.307 -15.931  0.00  0.00     0.002 A 
ATOM     19  C   UNL d   1       9.566   3.206 -14.878  0.00  0.00     0.017 A 
ENDBRANCH   7   8
ENDBRANCH   4   7
BRANCH   1  20
ATOM     20  C   UNL d   1      11.572   8.870  -7.783  0.00  0.00     0.277 C 
BRANCH  20  21
ATOM     21  C   UNL d   1      11.622   8.526  -6.269  0.00  0.00     0.011 A 
ATOM     22  C   UNL d   1      11.488   7.189  -5.800  0.00  0.00    -0.003 A 
ATOM     23  C   UNL d   1      11.569   6.894  -4.452  0.00  0.00    -0.004 A 
ATOM     24  C   UNL d   1      11.868   7.898  -3.516  0.00  0.00    -0.022 A 
ATOM     25  C   UNL d   1      11.982   7.474  -2.063  0.00  0.00     0.031 C 
ATOM     26  C   UNL d   1      12.066   9.234  -3.935  0.00  0.00    -0.004 A 
ATOM     27  C   UNL d   1      11.938   9.554  -5.330  0.00  0.00    -0.003 A 
ENDBRANCH  20  21
ENDBRANCH   1  20
TORSDOF 4
