REMARK  9 active torsions:
REMARK  status: ('A' for Active; 'I' for Inactive)
REMARK    1  A    between atoms: O_2  and  C_3 
REMARK    2  A    between atoms: C_6  and  C_7 
REMARK    3  A    between atoms: N_12  and  C_13 
REMARK    4  A    between atoms: C_13  and  C_14 
REMARK    5  A    between atoms: C_14  and  C_15 
REMARK    6  A    between atoms: C_15  and  C_16 
REMARK    7  A    between atoms: C_16  and  N_17 
REMARK    8  A    between atoms: C_21  and  C_22 
REMARK    9  A    between atoms: C_28  and  O_29 
ROOT
ATOM      1  C   UNL d   1      10.993   4.258 -15.734  0.00  0.00     0.114 C 
ENDROOT
BRANCH   1   2
ATOM      2  N   UNL d   1      11.349   4.900 -16.996  0.00  0.00    -0.249 N 
ATOM      3  C   UNL d   1      12.688   5.283 -17.207  0.00  0.00     0.333 A 
ATOM      4  N   UNL d   1      12.992   5.928 -18.431  0.00  0.00    -0.285 N 
ATOM      5  O   UNL d   1      13.562   5.065 -16.364  0.00  0.00    -0.246 OA
ATOM      6  C   UNL d   1      11.991   6.146 -19.385  0.00  0.00     0.046 A 
ATOM      7  C   UNL d   1      14.390   6.279 -18.605  0.00  0.00     0.110 C 
ATOM      8  C   UNL d   1      10.694   5.770 -19.183  0.00  0.00     0.068 A 
ATOM      9  C   UNL d   1      12.422   6.822 -20.697  0.00  0.00     0.044 C 
ATOM     10  C   UNL d   1      10.309   5.123 -17.923  0.00  0.00     0.265 A 
ATOM     11  O   UNL d   1       9.154   4.776 -17.671  0.00  0.00    -0.267 OA
ATOM     12  C   UNL d   1      13.912   6.736 -21.011  0.00  0.00     0.008 C 
ATOM     13  C   UNL d   1      14.689   7.198 -19.792  0.00  0.00     0.025 C 
BRANCH   8  14
ATOM     14  C   UNL d   1       9.637   6.075 -20.173  0.00  0.00     0.006 A 
ATOM     15  C   UNL d   1       8.875   5.032 -20.740  0.00  0.00     0.002 A 
ATOM     16  C   UNL d   1       7.865   5.326 -21.676  0.00  0.00     0.024 A 
ATOM     17  C   UNL d   1       7.598   6.656 -22.059  0.00  0.00     0.094 A 
ATOM     18  C   UNL d   1       8.367   7.700 -21.486  0.00  0.00     0.024 A 
ATOM     19  C   UNL d   1       9.371   7.410 -20.544  0.00  0.00     0.002 A 
BRANCH  17  20
ATOM     20  O   UNL d   1       6.587   6.851 -22.975  0.00  0.00    -0.328 OA
ATOM     21  C   UNL d   1       6.282   8.185 -23.352  0.00  0.00     0.181 C 
ENDBRANCH  17  20
ENDBRANCH   8  14
ENDBRANCH   1   2
BRANCH   1  22
ATOM     22  C   UNL d   1      10.268   5.199 -14.765  0.00  0.00     0.027 C 
BRANCH  22  23
ATOM     23  C   UNL d   1      10.144   4.692 -13.330  0.00  0.00     0.037 C 
BRANCH  23  24
ATOM     24  C   UNL d   1       8.995   5.383 -12.564  0.00  0.00     0.250 C 
BRANCH  24  25
ATOM     25  N   UNL d   1       9.368   5.562 -11.157  0.00  0.00     0.137 N 
ATOM     26  C   UNL d   1       8.459   6.487 -10.497  0.00  0.00     0.255 C 
ATOM     27  C   UNL d   1       8.847   6.719  -8.999  0.00  0.00     0.057 C 
ATOM     28  C   UNL d   1       8.772   5.421  -8.227  0.00  0.00     0.009 C 
ATOM     29  C   UNL d   1       9.617   4.391  -8.952  0.00  0.00     0.036 C 
ATOM     30  C   UNL d   1       9.228   4.316 -10.441  0.00  0.00     0.250 C 
BRANCH  27  31
ATOM     31  C   UNL d   1      10.169   7.360  -8.874  0.00  0.00     0.000 A 
ATOM     32  C   UNL d   1      10.665   8.048  -7.736  0.00  0.00     0.017 A 
ATOM     33  C   UNL d   1      11.944   8.505  -8.109  0.00  0.00     0.081 A 
ATOM     34  C   UNL d   1      10.226   8.341  -6.418  0.00  0.00     0.025 A 
ATOM     35  N   UNL d   1      12.202   8.119  -9.382  0.00  0.00    -0.244 NA
ATOM     36  C   UNL d   1      12.765   9.159  -7.242  0.00  0.00     0.021 A 
ATOM     37  C   UNL d   1      11.117   7.467  -9.858  0.00  0.00     0.095 A 
ATOM     38  C   UNL d   1      12.326   9.483  -5.959  0.00  0.00     0.026 A 
ATOM     39  C   UNL d   1      11.058   9.046  -5.508  0.00  0.00     0.094 A 
BRANCH  39  40
ATOM     40  O   UNL d   1      10.667   9.229  -4.196  0.00  0.00    -0.328 OA
ATOM     41  C   UNL d   1      11.454  10.125  -3.431  0.00  0.00     0.181 C 
ENDBRANCH  39  40
ENDBRANCH  27  31
ENDBRANCH  24  25
ENDBRANCH  23  24
ENDBRANCH  22  23
ENDBRANCH   1  22
TORSDOF 9
