REMARK  8 active torsions:
REMARK  status: ('A' for Active; 'I' for Inactive)
REMARK    1  A    between atoms: O_2  and  C_3 
REMARK    2  A    between atoms: C_9  and  C_10 
REMARK       I    between atoms: C_10  and  N_12 
REMARK    3  A    between atoms: N_12  and  C_13 
REMARK    4  A    between atoms: C_13  and  C_14 
REMARK    5  A    between atoms: C_14  and  C_15 
REMARK    6  A    between atoms: C_15  and  C_16 
REMARK    7  A    between atoms: C_16  and  N_17 
REMARK    8  A    between atoms: N_20  and  C_21 
ROOT
ATOM      1  C   UNL d   1       8.236   5.230 -11.714  0.00  0.00     0.037 C 
ENDROOT
BRANCH   1   2
ATOM      2  C   UNL d   1       8.451   4.157 -12.796  0.00  0.00     0.029 C 
BRANCH   2   3
ATOM      3  C   UNL d   1       7.133   3.679 -13.412  0.00  0.00     0.129 C 
BRANCH   3   4
ATOM      4  N   UNL d   1       7.370   2.643 -14.415  0.00  0.00    -0.233 NA
ATOM      5  C   UNL d   1       6.671   1.505 -14.533  0.00  0.00     0.298 C 
ATOM      6  O   UNL d   1       5.811   1.145 -13.727  0.00  0.00    -0.263 OA
BRANCH   5   7
ATOM      7  C   UNL d   1       6.915   0.750 -15.776  0.00  0.00     0.157 A 
ATOM      8  C   UNL d   1       8.025   0.660 -16.586  0.00  0.00     0.032 A 
ATOM      9  C   UNL d   1       7.689  -0.250 -17.642  0.00  0.00     0.027 A 
ATOM     10  C   UNL d   1       8.337  -0.798 -18.772  0.00  0.00     0.002 A 
ATOM     11  C   UNL d   1       6.353  -0.659 -17.401  0.00  0.00     0.122 A 
ATOM     12  C   UNL d   1       7.668  -1.708 -19.616  0.00  0.00     0.002 A 
ATOM     13  C   UNL d   1       6.336  -2.087 -19.351  0.00  0.00     0.026 A 
ATOM     14  C   UNL d   1       5.652  -1.560 -18.228  0.00  0.00     0.117 A 
ATOM     15  O   UNL d   1       5.898  -0.047 -16.251  0.00  0.00    -0.300 OA
BRANCH  14  16
ATOM     16  O   UNL d   1       4.349  -1.864 -17.895  0.00  0.00    -0.326 OA
ATOM     17  C   UNL d   1       3.668  -2.825 -18.688  0.00  0.00     0.181 C 
ENDBRANCH  14  16
ENDBRANCH   5   7
ENDBRANCH   3   4
ENDBRANCH   2   3
ENDBRANCH   1   2
BRANCH   1  18
ATOM     18  C   UNL d   1       9.481   5.393 -10.842  0.00  0.00     0.251 C 
BRANCH  18  19
ATOM     19  N   UNL d   1       9.172   6.186  -9.652  0.00  0.00     0.141 N 
ATOM     20  C   UNL d   1       9.661   7.558  -9.802  0.00  0.00     0.274 C 
ATOM     21  C   UNL d   1       9.351   8.417  -8.562  0.00  0.00     0.138 C 
ATOM     22  N   UNL d   1       9.866   7.779  -7.354  0.00  0.00    -0.328 N 
ATOM     23  C   UNL d   1       9.428   6.396  -7.228  0.00  0.00     0.138 C 
ATOM     24  C   UNL d   1       9.790   5.595  -8.470  0.00  0.00     0.274 C 
BRANCH  22  25
ATOM     25  C   UNL d   1      10.668   8.447  -6.458  0.00  0.00     0.163 A 
ATOM     26  C   UNL d   1      11.231   8.054  -5.228  0.00  0.00     0.055 A 
ATOM     27  C   UNL d   1      11.945   9.161  -4.795  0.00  0.00     0.106 A 
ATOM     28  C   UNL d   1      11.190   6.886  -4.441  0.00  0.00     0.005 A 
ATOM     29  N   UNL d   1      11.884  10.212  -5.628  0.00  0.00    -0.147 NA
ATOM     30  C   UNL d   1      12.639   9.150  -3.572  0.00  0.00     0.021 A 
ATOM     31  N   UNL d   1      11.101   9.757  -6.661  0.00  0.00    -0.131 NA
ATOM     32  C   UNL d   1      12.584   7.995  -2.763  0.00  0.00     0.002 A 
ATOM     33  C   UNL d   1      11.867   6.867  -3.209  0.00  0.00     0.000 A 
ENDBRANCH  22  25
ENDBRANCH  18  19
ENDBRANCH   1  18
TORSDOF 8
