REMARK  6 active torsions:
REMARK  status: ('A' for Active; 'I' for Inactive)
REMARK    1  A    between atoms: O_2  and  C_3 
REMARK    2  A    between atoms: C_6  and  C_7 
REMARK    3  A    between atoms: C_7  and  C_8 
REMARK    4  A    between atoms: C_14  and  O_15 
REMARK    5  A    between atoms: C_17  and  O_18 
REMARK    6  A    between atoms: C_23  and  O_24 
ROOT
ATOM      1  C   UNL d   1       7.160   1.938 -14.117  0.00  0.00     0.064 A 
ATOM      2  N   UNL d   1       5.940   1.554 -13.669  0.00  0.00    -0.248 NA
ATOM      3  C   UNL d   1       5.267   2.387 -12.842  0.00  0.00     0.099 A 
ATOM      4  C   UNL d   1       5.753   3.641 -12.443  0.00  0.00     0.021 A 
ATOM      5  C   UNL d   1       7.019   4.042 -12.899  0.00  0.00     0.005 A 
ATOM      6  C   UNL d   1       7.562   5.270 -12.485  0.00  0.00     0.026 A 
ATOM      7  C   UNL d   1       8.862   5.645 -12.905  0.00  0.00     0.116 A 
ATOM      8  C   UNL d   1       9.613   4.780 -13.734  0.00  0.00     0.116 A 
ATOM      9  C   UNL d   1       9.058   3.546 -14.132  0.00  0.00     0.027 A 
ATOM     10  C   UNL d   1       7.752   3.182 -13.749  0.00  0.00     0.016 A 
ENDROOT
BRANCH   1  11
ATOM     11  C   UNL d   1       7.890   0.894 -14.969  0.00  0.00     0.072 C 
BRANCH  11  12
ATOM     12  C   UNL d   1       7.776   1.135 -16.470  0.00  0.00    -0.014 A 
ATOM     13  C   UNL d   1       8.749   1.887 -17.161  0.00  0.00    -0.002 A 
ATOM     14  C   UNL d   1       8.629   2.107 -18.541  0.00  0.00     0.026 A 
ATOM     15  C   UNL d   1       7.545   1.557 -19.267  0.00  0.00     0.116 A 
ATOM     16  C   UNL d   1       6.572   0.789 -18.587  0.00  0.00     0.116 A 
ATOM     17  C   UNL d   1       6.692   0.585 -17.186  0.00  0.00     0.022 A 
BRANCH  15  18
ATOM     18  O   UNL d   1       7.375   1.739 -20.623  0.00  0.00    -0.326 OA
ATOM     19  C   UNL d   1       8.306   2.559 -21.316  0.00  0.00     0.181 C 
ENDBRANCH  15  18
BRANCH  16  20
ATOM     20  O   UNL d   1       5.543   0.278 -19.351  0.00  0.00    -0.326 OA
ATOM     21  C   UNL d   1       4.587  -0.556 -18.718  0.00  0.00     0.181 C 
ENDBRANCH  16  20
ENDBRANCH  11  12
ENDBRANCH   1  11
BRANCH   8  22
ATOM     22  O   UNL d   1      10.880   5.185 -14.107  0.00  0.00    -0.326 OA
ATOM     23  C   UNL d   1      11.657   4.329 -14.934  0.00  0.00     0.181 C 
ENDBRANCH   8  22
BRANCH   7  24
ATOM     24  O   UNL d   1       9.456   6.833 -12.557  0.00  0.00    -0.326 OA
ATOM     25  C   UNL d   1       8.792   7.684 -11.651  0.00  0.00     0.181 C 
ENDBRANCH   7  24
TORSDOF 6
