REMARK  7 active torsions:
REMARK  status: ('A' for Active; 'I' for Inactive)
REMARK    1  A    between atoms: O_2  and  C_3 
REMARK    2  A    between atoms: C_8  and  N_9 
REMARK    3  A    between atoms: N_12  and  C_13 
REMARK    4  A    between atoms: C_13  and  C_14 
REMARK    5  A    between atoms: C_14  and  C_16 
REMARK    6  A    between atoms: C_16  and  N_17 
REMARK    7  A    between atoms: C_21  and  C_23 
ROOT
ATOM      1  N   UNL d   1       9.769   6.553  -9.442  0.00  0.00    -0.247 N 
ATOM      2  C   UNL d   1       8.892   5.883  -8.685  0.00  0.00     0.348 A 
ATOM      3  O   UNL d   1       8.356   4.784  -8.957  0.00  0.00    -0.245 OA
ATOM      4  N   UNL d   1       8.687   6.596  -7.566  0.00  0.00    -0.209 NA
ATOM      5  C   UNL d   1       9.527   7.795  -7.527  0.00  0.00     0.179 A 
ATOM      6  C   UNL d   1       8.757   9.087  -7.582  0.00  0.00     0.039 C 
ATOM      7  C   UNL d   1      10.247   7.655  -8.837  0.00  0.00     0.265 A 
ATOM      8  O   UNL d   1      11.114   8.430  -9.227  0.00  0.00    -0.269 OA
ENDROOT
BRANCH   1   9
ATOM      9  C   UNL d   1      10.139   6.108 -10.740  0.00  0.00     0.148 C 
BRANCH   9  10
ATOM     10  C   UNL d   1       9.154   6.544 -11.845  0.00  0.00     0.208 C 
ATOM     11  O   UNL d   1       9.387   7.890 -12.186  0.00  0.00    -0.219 OA
BRANCH  10  12
ATOM     12  C   UNL d   1       9.428   5.690 -13.089  0.00  0.00     0.285 C 
BRANCH  12  13
ATOM     13  N   UNL d   1       8.845   4.359 -13.105  0.00  0.00     0.144 N 
ATOM     14  C   UNL d   1       9.620   3.466 -13.978  0.00  0.00     0.274 C 
ATOM     15  C   UNL d   1       9.024   2.072 -14.002  0.00  0.00     0.137 C 
ATOM     16  N   UNL d   1       7.608   2.133 -14.370  0.00  0.00    -0.343 N 
ATOM     17  C   UNL d   1       6.759   3.075 -13.621  0.00  0.00     0.137 C 
ATOM     18  C   UNL d   1       7.463   4.429 -13.592  0.00  0.00     0.274 C 
BRANCH  16  19
ATOM     19  C   UNL d   1       7.130   1.257 -15.335  0.00  0.00     0.079 A 
ATOM     20  C   UNL d   1       5.946   0.481 -15.179  0.00  0.00     0.110 A 
ATOM     21  C   UNL d   1       5.506  -0.316 -16.252  0.00  0.00     0.026 A 
ATOM     22  C   UNL d   1       6.252  -0.391 -17.440  0.00  0.00     0.002 A 
ATOM     23  C   UNL d   1       7.436   0.340 -17.590  0.00  0.00     0.002 A 
ATOM     24  C   UNL d   1       7.884   1.156 -16.536  0.00  0.00     0.019 A 
BRANCH  20  25
ATOM     25  O   UNL d   1       5.135   0.534 -14.064  0.00  0.00    -0.327 OA
ATOM     26  C   UNL d   1       5.710  -0.034 -12.908  0.00  0.00     0.181 C 
ENDBRANCH  20  25
ENDBRANCH  16  19
ENDBRANCH  12  13
ENDBRANCH  10  12
ENDBRANCH   9  10
ENDBRANCH   1   9
BRANCH   5  27
ATOM     27  C   UNL d   1      10.469   7.729  -6.346  0.00  0.00     0.006 A 
ATOM     28  C   UNL d   1      10.618   8.802  -5.436  0.00  0.00    -0.002 A 
ATOM     29  C   UNL d   1      11.416   8.668  -4.299  0.00  0.00    -0.000 A 
ATOM     30  C   UNL d   1      12.074   7.459  -4.048  0.00  0.00    -0.000 A 
ATOM     31  C   UNL d   1      11.470   9.708  -3.377  0.00  0.00    -0.000 A 
ATOM     32  C   UNL d   1      11.918   6.387  -4.932  0.00  0.00    -0.000 A 
ATOM     33  C   UNL d   1      12.882   7.329  -2.909  0.00  0.00    -0.000 A 
ATOM     34  C   UNL d   1      11.174   6.535  -6.113  0.00  0.00    -0.002 A 
ATOM     35  C   UNL d   1      12.948   8.388  -1.987  0.00  0.00    -0.000 A 
ATOM     36  C   UNL d   1      12.217   9.551  -2.216  0.00  0.00    -0.000 A 
ENDBRANCH   5  27
TORSDOF 7
