REMARK  6 active torsions:
REMARK  status: ('A' for Active; 'I' for Inactive)
REMARK    1  A    between atoms: C_2  and  C_3 
REMARK    2  A    between atoms: N_13  and  C_14 
REMARK    3  A    between atoms: C_14  and  C_15 
REMARK    4  A    between atoms: C_15  and  C_17 
REMARK    5  A    between atoms: C_17  and  N_18 
REMARK    6  A    between atoms: N_21  and  C_22 
ROOT
ATOM      1  C   UNL d   1       9.687   6.097 -11.608  0.00  0.00     0.148 C 
ENDROOT
BRANCH   1   2
ATOM      2  N   UNL d   1       8.462   5.375 -11.834  0.00  0.00    -0.247 N 
ATOM      3  C   UNL d   1       7.873   4.659 -10.893  0.00  0.00     0.348 A 
ATOM      4  N   UNL d   1       6.888   3.986 -11.496  0.00  0.00    -0.209 NA
ATOM      5  O   UNL d   1       8.254   4.538  -9.726  0.00  0.00    -0.245 OA
ATOM      6  C   UNL d   1       6.780   4.202 -12.916  0.00  0.00     0.179 A 
ATOM      7  C   UNL d   1       5.402   4.842 -13.178  0.00  0.00     0.039 C 
ATOM      8  C   UNL d   1       7.896   5.208 -13.015  0.00  0.00     0.265 A 
ATOM      9  O   UNL d   1       8.307   5.650 -14.072  0.00  0.00    -0.269 OA
BRANCH   6  10
ATOM     10  C   UNL d   1       7.075   2.942 -13.784  0.00  0.00     0.006 A 
ATOM     11  C   UNL d   1       8.338   2.701 -14.412  0.00  0.00     0.000 A 
ATOM     12  C   UNL d   1       8.559   1.587 -15.228  0.00  0.00     0.029 A 
ATOM     13  C   UNL d   1       7.533   0.654 -15.448  0.00  0.00     0.140 A 
ATOM     14  C   UNL d   1       6.296   0.832 -14.797  0.00  0.00     0.029 A 
ATOM     15  F   UNL d   1       7.729  -0.376 -16.300  0.00  0.00    -0.204 F 
ATOM     16  C   UNL d   1       6.074   1.956 -13.971  0.00  0.00     0.000 A 
ENDBRANCH   6  10
ENDBRANCH   1   2
BRANCH   1  17
ATOM     17  C   UNL d   1       9.307   7.575 -11.485  0.00  0.00     0.208 C 
ATOM     18  O   UNL d   1       9.512   8.090 -12.729  0.00  0.00    -0.219 OA
BRANCH  17  19
ATOM     19  C   UNL d   1      10.042   8.445 -10.452  0.00  0.00     0.285 C 
BRANCH  19  20
ATOM     20  N   UNL d   1       9.863   7.979  -9.079  0.00  0.00     0.144 N 
ATOM     21  C   UNL d   1      10.983   7.197  -8.557  0.00  0.00     0.274 C 
ATOM     22  C   UNL d   1      10.692   6.631  -7.167  0.00  0.00     0.137 C 
ATOM     23  N   UNL d   1      10.369   7.728  -6.290  0.00  0.00    -0.344 N 
ATOM     24  C   UNL d   1       9.313   8.601  -6.751  0.00  0.00     0.137 C 
ATOM     25  C   UNL d   1       9.630   9.084  -8.169  0.00  0.00     0.274 C 
BRANCH  23  26
ATOM     26  C   UNL d   1      11.123   7.998  -5.127  0.00  0.00     0.056 A 
ATOM     27  C   UNL d   1      11.229   9.317  -4.613  0.00  0.00     0.018 A 
ATOM     28  C   UNL d   1      11.858   9.536  -3.397  0.00  0.00     0.013 A 
ATOM     29  C   UNL d   1      12.411   8.460  -2.733  0.00  0.00     0.058 A 
ATOM     30  C   UNL d   1      12.415   7.159  -3.237  0.00  0.00     0.013 A 
ATOM     31 CL   UNL d   1      13.041   8.789  -1.260  0.00  0.00    -0.082 Cl
ATOM     32  C   UNL d   1      11.739   6.926  -4.439  0.00  0.00     0.018 A 
ENDBRANCH  23  26
ENDBRANCH  19  20
ENDBRANCH  17  19
ENDBRANCH   1  17
TORSDOF 6
