REMARK  7 active torsions:
REMARK  status: ('A' for Active; 'I' for Inactive)
REMARK    1  A    between atoms: O_2  and  C_3 
REMARK    2  A    between atoms: C_6  and  C_7 
REMARK    3  A    between atoms: N_12  and  C_13 
REMARK    4  A    between atoms: C_13  and  C_14 
REMARK    5  A    between atoms: C_14  and  C_16 
REMARK    6  A    between atoms: C_16  and  N_17 
REMARK    7  A    between atoms: N_20  and  C_21 
ROOT
ATOM      1  C   UNL d   1       7.261   1.502 -15.828  0.00  0.00     0.066 A 
ATOM      2  C   UNL d   1       7.848   1.765 -17.083  0.00  0.00     0.018 A 
ATOM      3  C   UNL d   1       7.364   1.138 -18.247  0.00  0.00     0.002 A 
ATOM      4  C   UNL d   1       6.290   0.234 -18.166  0.00  0.00     0.001 A 
ATOM      5  C   UNL d   1       5.711  -0.048 -16.916  0.00  0.00     0.012 A 
ATOM      6  C   UNL d   1       6.189   0.571 -15.746  0.00  0.00     0.084 A 
ATOM      7  C   UNL d   1       5.544   0.240 -14.484  0.00  0.00     0.102 C 
ATOM      8  N   UNL d   1       5.025  -0.013 -13.482  0.00  0.00    -0.191 NA
ENDROOT
BRANCH   1   9
ATOM      9  N   UNL d   1       7.762   2.164 -14.702  0.00  0.00    -0.344 N 
ATOM     10  C   UNL d   1       6.973   3.134 -13.948  0.00  0.00     0.137 C 
ATOM     11  C   UNL d   1       7.808   4.407 -13.731  0.00  0.00     0.274 C 
ATOM     12  N   UNL d   1       9.126   4.130 -13.137  0.00  0.00     0.144 N 
ATOM     13  C   UNL d   1       9.866   3.217 -14.022  0.00  0.00     0.274 C 
ATOM     14  C   UNL d   1       9.113   1.897 -14.235  0.00  0.00     0.137 C 
BRANCH  12  15
ATOM     15  C   UNL d   1       9.851   5.383 -12.938  0.00  0.00     0.285 C 
BRANCH  15  16
ATOM     16  C   UNL d   1       9.360   6.206 -11.717  0.00  0.00     0.208 C 
ATOM     17  O   UNL d   1       9.342   7.578 -12.056  0.00  0.00    -0.219 OA
BRANCH  16  18
ATOM     18  C   UNL d   1      10.276   6.020 -10.512  0.00  0.00     0.148 C 
BRANCH  18  19
ATOM     19  N   UNL d   1       9.831   6.597  -9.281  0.00  0.00    -0.247 N 
ATOM     20  C   UNL d   1       8.898   5.987  -8.536  0.00  0.00     0.348 A 
ATOM     21  N   UNL d   1       8.728   6.716  -7.431  0.00  0.00    -0.209 NA
ATOM     22  O   UNL d   1       8.318   4.940  -8.815  0.00  0.00    -0.245 OA
ATOM     23  C   UNL d   1       9.618   7.877  -7.396  0.00  0.00     0.179 A 
ATOM     24  C   UNL d   1      10.370   7.669  -8.686  0.00  0.00     0.265 A 
ATOM     25  C   UNL d   1       8.843   9.152  -7.538  0.00  0.00     0.039 C 
ATOM     26  O   UNL d   1      11.287   8.396  -9.080  0.00  0.00    -0.269 OA
BRANCH  23  27
ATOM     27  C   UNL d   1      10.556   7.859  -6.186  0.00  0.00     0.006 A 
ATOM     28  C   UNL d   1      11.046   6.625  -5.723  0.00  0.00     0.000 A 
ATOM     29  C   UNL d   1      11.842   6.554  -4.573  0.00  0.00     0.024 A 
ATOM     30  C   UNL d   1      12.185   7.721  -3.870  0.00  0.00     0.094 A 
ATOM     31  C   UNL d   1      11.713   8.967  -4.332  0.00  0.00     0.024 A 
ATOM     32  C   UNL d   1      10.905   9.037  -5.478  0.00  0.00     0.000 A 
BRANCH  30  33
ATOM     33  O   UNL d   1      13.031   7.589  -2.805  0.00  0.00    -0.328 OA
ATOM     34  C   UNL d   1      12.681   8.329  -1.649  0.00  0.00     0.181 C 
ENDBRANCH  30  33
ENDBRANCH  23  27
ENDBRANCH  18  19
ENDBRANCH  16  18
ENDBRANCH  15  16
ENDBRANCH  12  15
ENDBRANCH   1   9
TORSDOF 7
