REMARK  5 active torsions:
REMARK  status: ('A' for Active; 'I' for Inactive)
REMARK    1  A    between atoms: C_7  and  C_8 
REMARK       I    between atoms: C_8  and  N_10 
REMARK    2  A    between atoms: N_13  and  C_14 
REMARK    3  A    between atoms: C_14  and  C_15 
REMARK    4  A    between atoms: C_15  and  O_16 
REMARK    5  A    between atoms: O_16  and  C_17 
ROOT
ATOM      1  C   UNL d   1      11.213   7.882  -9.237  0.00  0.00     0.275 C 
ATOM      2  O   UNL d   1      12.202   8.256  -9.864  0.00  0.00    -0.266 OA
ATOM      3  N   UNL d   1      10.095   7.333  -9.783  0.00  0.00    -0.311 N 
ATOM      4  C   UNL d   1       9.203   6.430  -9.057  0.00  0.00     0.140 C 
ATOM      5  C   UNL d   1       8.887   5.183  -9.900  0.00  0.00     0.274 C 
ATOM      6  N   UNL d   1       8.306   5.546 -11.192  0.00  0.00     0.144 N 
ATOM      7  C   UNL d   1       9.290   6.362 -11.913  0.00  0.00     0.274 C 
ATOM      8  C   UNL d   1       9.603   7.653 -11.141  0.00  0.00     0.140 C 
ENDROOT
BRANCH   1   9
ATOM      9  C   UNL d   1      11.237   8.175  -7.814  0.00  0.00     0.137 A 
ATOM     10  C   UNL d   1      11.296   9.382  -7.188  0.00  0.00     0.025 A 
ATOM     11  C   UNL d   1      11.397   9.093  -5.803  0.00  0.00     0.019 A 
ATOM     12  C   UNL d   1      11.454   9.883  -4.641  0.00  0.00     0.001 A 
ATOM     13  C   UNL d   1      11.454   7.680  -5.644  0.00  0.00     0.081 A 
ATOM     14  C   UNL d   1      11.609   9.291  -3.381  0.00  0.00    -0.004 A 
ATOM     15  C   UNL d   1      11.687   7.887  -3.262  0.00  0.00    -0.020 A 
ATOM     16  C   UNL d   1      11.768   7.240  -1.912  0.00  0.00     0.031 C 
ATOM     17  C   UNL d   1      11.593   7.077  -4.398  0.00  0.00     0.015 A 
ATOM     18  N   UNL d   1      11.387   7.157  -6.910  0.00  0.00    -0.241 NA
ENDBRANCH   1   9
BRANCH   6  19
ATOM     19  C   UNL d   1       7.998   4.303 -11.891  0.00  0.00     0.283 C 
BRANCH  19  20
ATOM     20  C   UNL d   1       7.265   4.532 -13.240  0.00  0.00     0.184 C 
BRANCH  20  21
ATOM     21  O   UNL d   1       7.104   3.312 -13.956  0.00  0.00    -0.327 OA
BRANCH  21  22
ATOM     22  C   UNL d   1       8.243   2.684 -14.422  0.00  0.00     0.113 A 
ATOM     23  C   UNL d   1       9.547   3.233 -14.290  0.00  0.00     0.123 A 
ATOM     24  N   UNL d   1      10.670   2.573 -14.644  0.00  0.00    -0.240 NA
ATOM     25  C   UNL d   1      10.546   1.335 -15.168  0.00  0.00     0.099 A 
ATOM     26  C   UNL d   1       9.302   0.723 -15.395  0.00  0.00     0.023 A 
ATOM     27  C   UNL d   1       8.128   1.403 -15.012  0.00  0.00     0.027 A 
ENDBRANCH  21  22
ENDBRANCH  20  21
ENDBRANCH  19  20
ENDBRANCH   6  19
TORSDOF 5
