REMARK  9 active torsions:
REMARK  status: ('A' for Active; 'I' for Inactive)
REMARK    1  A    between atoms: C_2  and  C_4 
REMARK    2  A    between atoms: C_9  and  O_10 
REMARK    3  A    between atoms: O_10  and  C_11 
REMARK    4  A    between atoms: C_11  and  C_12 
REMARK    5  A    between atoms: C_12  and  C_13 
REMARK    6  A    between atoms: C_13  and  N_14 
REMARK    7  A    between atoms: N_17  and  C_18 
REMARK    8  A    between atoms: N_26  and  C_27 
REMARK    9  A    between atoms: C_27  and  C_28 
ROOT
ATOM      1  N   UNL d   1       9.402   3.986 -13.001  0.00  0.00     0.141 N 
ATOM      2  C   UNL d   1       8.290   3.942 -13.957  0.00  0.00     0.274 C 
ATOM      3  C   UNL d   1       8.453   2.779 -14.954  0.00  0.00     0.137 C 
ATOM      4  N   UNL d   1       9.757   2.864 -15.600  0.00  0.00    -0.344 N 
ATOM      5  C   UNL d   1      10.894   2.962 -14.698  0.00  0.00     0.137 C 
ATOM      6  C   UNL d   1      10.666   4.137 -13.730  0.00  0.00     0.274 C 
ENDROOT
BRANCH   4   7
ATOM      7  C   UNL d   1       9.921   2.800 -16.977  0.00  0.00     0.058 A 
ATOM      8  C   UNL d   1      10.719   1.790 -17.582  0.00  0.00     0.033 A 
ATOM      9  C   UNL d   1      10.874   1.796 -18.997  0.00  0.00     0.062 A 
ATOM     10  C   UNL d   1      11.448   0.673 -17.065  0.00  0.00     0.021 A 
ATOM     11  C   UNL d   1      10.261   2.777 -19.802  0.00  0.00     0.017 A 
ATOM     12  N   UNL d   1      11.684   0.714 -19.313  0.00  0.00    -0.322 N 
ATOM     13  C   UNL d   1       9.468   3.766 -19.195  0.00  0.00     0.003 A 
ATOM     14  C   UNL d   1       9.302   3.772 -17.801  0.00  0.00     0.017 A 
ATOM     15  C   UNL d   1      12.010   0.042 -18.142  0.00  0.00     0.076 A 
BRANCH  12  16
ATOM     16  C   UNL d   1      12.121   0.315 -20.640  0.00  0.00     0.133 C 
BRANCH  16  17
ATOM     17  C   UNL d   1      13.610   0.547 -20.826  0.00  0.00     0.001 A 
ATOM     18  C   UNL d   1      14.542  -0.412 -20.373  0.00  0.00    -0.000 A 
ATOM     19  C   UNL d   1      15.921  -0.193 -20.541  0.00  0.00     0.029 A 
ATOM     20  C   UNL d   1      16.375   0.980 -21.175  0.00  0.00     0.140 A 
ATOM     21  C   UNL d   1      15.450   1.937 -21.634  0.00  0.00     0.029 A 
ATOM     22  F   UNL d   1      17.702   1.191 -21.337  0.00  0.00    -0.204 F 
ATOM     23  C   UNL d   1      14.069   1.723 -21.458  0.00  0.00    -0.000 A 
ENDBRANCH  16  17
ENDBRANCH  12  16
ENDBRANCH   4   7
BRANCH   1  24
ATOM     24  C   UNL d   1       9.204   5.118 -12.082  0.00  0.00     0.253 C 
BRANCH  24  25
ATOM     25  C   UNL d   1       8.886   4.602 -10.683  0.00  0.00     0.068 C 
BRANCH  25  26
ATOM     26  C   UNL d   1       8.667   5.703  -9.669  0.00  0.00     0.151 C 
BRANCH  26  27
ATOM     27  O   UNL d   1       9.882   6.427  -9.513  0.00  0.00    -0.331 OA
BRANCH  27  28
ATOM     28  C   UNL d   1      10.235   6.992  -8.303  0.00  0.00     0.099 A 
ATOM     29  C   UNL d   1      11.362   7.863  -8.243  0.00  0.00     0.082 A 
ATOM     30  C   UNL d   1      11.804   8.402  -7.014  0.00  0.00     0.007 A 
ATOM     31  C   UNL d   1      11.136   8.073  -5.823  0.00  0.00     0.000 A 
ATOM     32  C   UNL d   1      10.033   7.205  -5.881  0.00  0.00     0.002 A 
ATOM     33  C   UNL d   1       9.566   6.700  -7.101  0.00  0.00     0.024 A 
BRANCH  29  34
ATOM     34  C   UNL d   1      12.133   8.208  -9.469  0.00  0.00     0.299 C 
ATOM     35  N   UNL d   1      11.426   8.799 -10.421  0.00  0.00    -0.102 N 
ATOM     36  O   UNL d   1      13.341   7.990  -9.566  0.00  0.00    -0.264 OA
ENDBRANCH  29  34
ENDBRANCH  27  28
ENDBRANCH  26  27
ENDBRANCH  25  26
ENDBRANCH  24  25
ENDBRANCH   1  24
TORSDOF 9
