REMARK  7 active torsions:
REMARK  status: ('A' for Active; 'I' for Inactive)
REMARK    1  A    between atoms: C_8  and  O_9 
REMARK    2  A    between atoms: O_9  and  C_10 
REMARK    3  A    between atoms: C_10  and  C_11 
REMARK    4  A    between atoms: C_11  and  C_12 
REMARK    5  A    between atoms: C_12  and  C_13 
REMARK    6  A    between atoms: C_13  and  N_14 
REMARK    7  A    between atoms: N_17  and  C_18 
ROOT
ATOM      1  N   UNL d   1       8.744   6.043 -10.944  0.00  0.00     0.141 N 
ATOM      2  C   UNL d   1       7.468   5.942 -11.676  0.00  0.00     0.274 C 
ATOM      3  C   UNL d   1       7.671   5.426 -13.115  0.00  0.00     0.137 C 
ATOM      4  N   UNL d   1       8.451   4.203 -13.085  0.00  0.00    -0.343 N 
ATOM      5  C   UNL d   1       9.658   4.165 -12.259  0.00  0.00     0.137 C 
ATOM      6  C   UNL d   1       9.355   4.718 -10.848  0.00  0.00     0.274 C 
ENDROOT
BRANCH   1   7
ATOM      7  C   UNL d   1       9.681   6.991 -11.540  0.00  0.00     0.251 C 
BRANCH   7   8
ATOM      8  C   UNL d   1       9.281   8.452 -11.370  0.00  0.00     0.038 C 
BRANCH   8   9
ATOM      9  C   UNL d   1       9.605   8.986  -9.983  0.00  0.00     0.035 C 
BRANCH   9  10
ATOM     10  C   UNL d   1      11.118   8.984  -9.659  0.00  0.00     0.151 C 
BRANCH  10  11
ATOM     11  O   UNL d   1      11.391   9.567  -8.393  0.00  0.00    -0.315 OA
BRANCH  11  12
ATOM     12  C   UNL d   1      11.244   8.754  -7.292  0.00  0.00     0.179 A 
ATOM     13  C   UNL d   1      10.574   7.503  -7.307  0.00  0.00     0.044 A 
ATOM     14  C   UNL d   1      10.486   6.814  -6.111  0.00  0.00     0.002 A 
ATOM     15  C   UNL d   1      11.136   7.305  -4.973  0.00  0.00     0.014 A 
ATOM     16  C   UNL d   1      11.185   6.484  -3.711  0.00  0.00     0.039 C 
ATOM     17  C   UNL d   1      11.838   8.537  -5.046  0.00  0.00     0.163 A 
ATOM     18  C   UNL d   1      11.540   7.239  -2.445  0.00  0.00     0.095 C 
ATOM     19  C   UNL d   1      12.489   8.393  -2.692  0.00  0.00     0.257 C 
ATOM     20  O   UNL d   1      13.111   8.801  -1.736  0.00  0.00    -0.270 OA
ATOM     21  N   UNL d   1      12.576   8.944  -3.916  0.00  0.00    -0.193 NA
ATOM     22  N   UNL d   1      11.830   9.264  -6.181  0.00  0.00    -0.204 NA
ENDBRANCH  11  12
ENDBRANCH  10  11
ENDBRANCH   9  10
ENDBRANCH   8   9
ENDBRANCH   7   8
ENDBRANCH   1   7
BRANCH   4  23
ATOM     23  C   UNL d   1       8.038   3.092 -13.833  0.00  0.00     0.081 A 
ATOM     24  C   UNL d   1       8.986   2.312 -14.530  0.00  0.00     0.132 A 
ATOM     25  C   UNL d   1       8.567   1.135 -15.207  0.00  0.00     0.118 A 
ATOM     26  O   UNL d   1      10.309   2.699 -14.544  0.00  0.00    -0.325 OA
ATOM     27  C   UNL d   1       7.211   0.767 -15.194  0.00  0.00     0.026 A 
ATOM     28  O   UNL d   1       9.466   0.345 -15.882  0.00  0.00    -0.326 OA
ATOM     29  C   UNL d   1       6.270   1.537 -14.493  0.00  0.00     0.004 A 
ATOM     30  C   UNL d   1       6.676   2.709 -13.828  0.00  0.00     0.019 A 
ATOM     31  C   UNL d   1      10.830   0.593 -15.560  0.00  0.00     0.181 C 
ATOM     32  C   UNL d   1      11.103   2.104 -15.546  0.00  0.00     0.182 C 
ENDBRANCH   4  23
TORSDOF 7
