REMARK  6 active torsions:
REMARK  status: ('A' for Active; 'I' for Inactive)
REMARK    1  A    between atoms: C_2  and  C_3 
REMARK    2  A    between atoms: N_12  and  C_13 
REMARK    3  A    between atoms: C_13  and  C_14 
REMARK    4  A    between atoms: C_14  and  C_15 
REMARK    5  A    between atoms: C_15  and  S_16 
REMARK    6  A    between atoms: S_16  and  C_17 
ROOT
ATOM      1  O   UNL d   1      10.261   9.471  -7.442  0.00  0.00    -0.221 OA
ATOM      2  C   UNL d   1      10.677   8.200  -7.027  0.00  0.00     0.149 C 
ATOM      3  C   UNL d   1       9.460   7.274  -7.169  0.00  0.00     0.070 C 
ATOM      4  C   UNL d   1       9.053   7.136  -8.629  0.00  0.00     0.253 C 
ATOM      5  N   UNL d   1      10.147   6.601  -9.441  0.00  0.00     0.137 N 
ATOM      6  C   UNL d   1      11.261   7.554  -9.430  0.00  0.00     0.253 C 
ATOM      7  C   UNL d   1      11.786   7.746  -7.993  0.00  0.00     0.070 C 
ENDROOT
BRANCH   5   8
ATOM      8  C   UNL d   1       9.663   6.442 -10.809  0.00  0.00     0.251 C 
BRANCH   8   9
ATOM      9  C   UNL d   1       8.633   5.303 -10.966  0.00  0.00     0.047 C 
BRANCH   9  10
ATOM     10  C   UNL d   1       7.414   5.753 -11.800  0.00  0.00     0.064 C 
BRANCH  10  11
ATOM     11  S   UNL d   1       6.485   4.357 -12.500  0.00  0.00    -0.114 SA
BRANCH  11  12
ATOM     12  C   UNL d   1       7.540   3.582 -13.692  0.00  0.00     0.025 A 
ATOM     13  C   UNL d   1       8.774   4.163 -14.073  0.00  0.00     0.009 A 
ATOM     14  C   UNL d   1       9.599   3.516 -15.012  0.00  0.00     0.030 A 
ATOM     15  C   UNL d   1       9.197   2.302 -15.585  0.00  0.00     0.140 A 
ATOM     16  C   UNL d   1       7.966   1.720 -15.216  0.00  0.00     0.030 A 
ATOM     17  F   UNL d   1       9.991   1.692 -16.497  0.00  0.00    -0.204 F 
ATOM     18  C   UNL d   1       7.137   2.366 -14.274  0.00  0.00     0.009 A 
ENDBRANCH  11  12
ENDBRANCH  10  11
ENDBRANCH   9  10
ENDBRANCH   8   9
ENDBRANCH   5   8
BRANCH   2  19
ATOM     19  C   UNL d   1      11.185   8.238  -5.586  0.00  0.00     0.005 A 
ATOM     20  C   UNL d   1      11.450   7.027  -4.905  0.00  0.00    -0.001 A 
ATOM     21  C   UNL d   1      11.901   7.058  -3.577  0.00  0.00     0.011 A 
ATOM     22  C   UNL d   1      12.100   8.295  -2.957  0.00  0.00     0.058 A 
ATOM     23  C   UNL d   1      11.843   9.496  -3.617  0.00  0.00     0.011 A 
ATOM     24 CL   UNL d   1      12.665   8.382  -1.351  0.00  0.00    -0.082 Cl
ATOM     25  C   UNL d   1      11.392   9.479  -4.941  0.00  0.00    -0.001 A 
ENDBRANCH   2  19
TORSDOF 6
