REMARK  4 active torsions:
REMARK  status: ('A' for Active; 'I' for Inactive)
REMARK    1  A    between atoms: N_2  and  C_3 
REMARK    2  A    between atoms: C_10  and  C_11 
REMARK    3  A    between atoms: C_11  and  N_12 
REMARK    4  A    between atoms: C_15  and  C_16 
ROOT
ATOM      1  N   UNL d   1       8.645   4.014 -13.947  0.00  0.00     0.137 N 
ATOM      2  C   UNL d   1       8.874   5.452 -13.957  0.00  0.00     0.251 C 
ATOM      3  C   UNL d   1       8.633   6.095 -12.569  0.00  0.00     0.041 C 
ATOM      4  C   UNL d   1       9.585   5.485 -11.546  0.00  0.00     0.047 C 
ATOM      5  C   UNL d   1       9.487   3.965 -11.677  0.00  0.00     0.041 C 
ATOM      6  C   UNL d   1       9.674   3.437 -13.095  0.00  0.00     0.251 C 
ENDROOT
BRANCH   1   7
ATOM      7  C   UNL d   1       8.800   3.444 -15.277  0.00  0.00     0.251 C 
BRANCH   7   8
ATOM      8  C   UNL d   1       7.698   2.394 -15.553  0.00  0.00     0.047 C 
ATOM      9  C   UNL d   1       7.672   2.041 -17.050  0.00  0.00     0.049 C 
ATOM     10  C   UNL d   1       6.722   0.907 -17.364  0.00  0.00     0.082 A 
ATOM     11  C   UNL d   1       6.326  -0.026 -16.385  0.00  0.00     0.069 A 
ATOM     12  N   UNL d   1       6.278   0.835 -18.642  0.00  0.00    -0.064 NA
ATOM     13  C   UNL d   1       5.462  -1.052 -16.809  0.00  0.00     0.122 A 
ATOM     14  C   UNL d   1       6.803   0.060 -14.973  0.00  0.00     0.176 C 
ATOM     15  N   UNL d   1       5.036  -1.129 -18.091  0.00  0.00    -0.058 NA
ATOM     16  C   UNL d   1       5.469  -0.185 -18.922  0.00  0.00     0.746 A 
ATOM     17  C   UNL d   1       7.849   1.137 -14.702  0.00  0.00     0.072 C 
ATOM     18  O   UNL d   1       6.410  -0.651 -14.057  0.00  0.00    -0.291 OA
BRANCH  16  19
ATOM     19  N   UNL d   1       5.022  -0.308 -20.222  0.00  0.00    -0.084 NA
ATOM     20  C   UNL d   1       5.351   0.617 -21.286  0.00  0.00     0.172 C 
ENDBRANCH  16  19
ENDBRANCH   7   8
ENDBRANCH   1   7
BRANCH   4  21
ATOM     21  C   UNL d   1       9.350   5.915 -10.116  0.00  0.00     0.087 A 
ATOM     22  C   UNL d   1       9.931   6.954  -9.378  0.00  0.00     0.041 A 
ATOM     23  C   UNL d   1       9.338   6.998  -8.111  0.00  0.00     0.129 A 
ATOM     24  C   UNL d   1      10.940   7.879  -9.707  0.00  0.00     0.006 A 
ATOM     25  O   UNL d   1       8.439   5.950  -8.090  0.00  0.00    -0.211 OA
ATOM     26  C   UNL d   1       9.677   7.954  -7.145  0.00  0.00     0.057 A 
ATOM     27  N   UNL d   1       8.445   5.304  -9.359  0.00  0.00    -0.131 NA
ATOM     28  C   UNL d   1      10.703   8.867  -7.470  0.00  0.00     0.142 A 
ATOM     29  F   UNL d   1      11.076   9.813  -6.568  0.00  0.00    -0.204 F 
ATOM     30  C   UNL d   1      11.343   8.797  -8.731  0.00  0.00     0.030 A 
ENDBRANCH   4  21
TORSDOF 4
