REMARK  9 active torsions:
REMARK  status: ('A' for Active; 'I' for Inactive)
REMARK    1  A    between atoms: O_2  and  C_3 
REMARK    2  A    between atoms: C_8  and  N_9 
REMARK    3  A    between atoms: N_12  and  C_13 
REMARK    4  A    between atoms: C_13  and  C_14 
REMARK    5  A    between atoms: C_14  and  C_15 
REMARK    6  A    between atoms: C_15  and  C_16 
REMARK    7  A    between atoms: C_16  and  C_17 
REMARK    8  A    between atoms: N_19  and  C_20 
REMARK    9  A    between atoms: C_25  and  O_26 
ROOT
ATOM      1  C   UNL d   1       9.629   5.772 -11.101  0.00  0.00     0.036 C 
ENDROOT
BRANCH   1   2
ATOM      2  C   UNL d   1       9.287   5.460  -9.635  0.00  0.00     0.250 C 
BRANCH   2   3
ATOM      3  N   UNL d   1       9.611   6.606  -8.795  0.00  0.00     0.141 N 
ATOM      4  C   UNL d   1      11.034   6.622  -8.489  0.00  0.00     0.274 C 
ATOM      5  C   UNL d   1      11.364   7.860  -7.675  0.00  0.00     0.137 C 
ATOM      6  N   UNL d   1      10.592   7.911  -6.450  0.00  0.00    -0.343 N 
ATOM      7  C   UNL d   1       9.166   7.738  -6.640  0.00  0.00     0.137 C 
ATOM      8  C   UNL d   1       8.907   6.496  -7.515  0.00  0.00     0.274 C 
BRANCH   6   9
ATOM      9  C   UNL d   1      11.194   7.975  -5.182  0.00  0.00     0.079 A 
ATOM     10  C   UNL d   1      11.479   9.212  -4.557  0.00  0.00     0.110 A 
ATOM     11  C   UNL d   1      12.073   9.222  -3.280  0.00  0.00     0.026 A 
ATOM     12  C   UNL d   1      12.370   8.028  -2.601  0.00  0.00     0.002 A 
ATOM     13  C   UNL d   1      12.052   6.801  -3.202  0.00  0.00     0.002 A 
ATOM     14  C   UNL d   1      11.467   6.775  -4.487  0.00  0.00     0.019 A 
BRANCH  10  15
ATOM     15  O   UNL d   1      11.178  10.419  -5.151  0.00  0.00    -0.327 OA
ATOM     16  C   UNL d   1      11.891  10.743  -6.337  0.00  0.00     0.181 C 
ENDBRANCH  10  15
ENDBRANCH   6   9
ENDBRANCH   2   3
ENDBRANCH   1   2
BRANCH   1  17
ATOM     17  C   UNL d   1       9.483   4.529 -11.986  0.00  0.00     0.009 C 
BRANCH  17  18
ATOM     18  C   UNL d   1       9.752   4.822 -13.466  0.00  0.00     0.049 C 
BRANCH  18  19
ATOM     19  C   UNL d   1       9.487   3.628 -14.322  0.00  0.00     0.101 A 
ATOM     20  N   UNL d   1      10.507   2.868 -14.889  0.00  0.00    -0.133 NA
ATOM     21  N   UNL d   1       9.982   1.892 -15.562  0.00  0.00    -0.060 NA
ATOM     22  N   UNL d   1       8.633   1.980 -15.428  0.00  0.00    -0.207 N 
ATOM     23  C   UNL d   1       8.289   3.071 -14.654  0.00  0.00     0.119 A 
BRANCH  22  24
ATOM     24  C   UNL d   1       7.772   1.042 -16.052  0.00  0.00     0.107 A 
ATOM     25  C   UNL d   1       6.645   0.522 -15.363  0.00  0.00     0.112 A 
ATOM     26  C   UNL d   1       5.804  -0.408 -16.030  0.00  0.00     0.026 A 
ATOM     27  C   UNL d   1       6.081  -0.808 -17.350  0.00  0.00     0.002 A 
ATOM     28  C   UNL d   1       7.201  -0.291 -18.024  0.00  0.00     0.002 A 
ATOM     29  C   UNL d   1       8.043   0.631 -17.376  0.00  0.00     0.021 A 
BRANCH  25  30
ATOM     30  O   UNL d   1       6.428   0.938 -14.064  0.00  0.00    -0.327 OA
ATOM     31  C   UNL d   1       5.344   0.378 -13.342  0.00  0.00     0.181 C 
ENDBRANCH  25  30
ENDBRANCH  22  24
ENDBRANCH  18  19
ENDBRANCH  17  18
ENDBRANCH   1  17
TORSDOF 9
