REMARK  6 active torsions:
REMARK  status: ('A' for Active; 'I' for Inactive)
REMARK    1  A    between atoms: C_2  and  C_3 
REMARK    2  A    between atoms: C_3  and  C_4 
REMARK    3  A    between atoms: C_4  and  C_5 
REMARK    4  A    between atoms: C_4  and  N_18 
REMARK    5  A    between atoms: C_5  and  C_7 
REMARK    6  A    between atoms: C_10  and  C_11 
ROOT
ATOM      1  C   UNL d   1       9.470   6.831 -10.107  0.00  0.00     0.037 A 
ATOM      2  C   UNL d   1       9.078   6.159  -8.945  0.00  0.00     0.003 A 
ATOM      3  C   UNL d   1       9.610   6.508  -7.687  0.00  0.00     0.001 A 
ATOM      4  C   UNL d   1      10.537   7.562  -7.560  0.00  0.00     0.006 A 
ATOM      5  C   UNL d   1      10.940   8.255  -8.728  0.00  0.00     0.001 A 
ATOM      6  C   UNL d   1      10.412   7.904  -9.985  0.00  0.00     0.003 A 
ENDROOT
BRANCH   1   7
ATOM      7  C   UNL d   1       8.892   6.516 -11.451  0.00  0.00     0.204 C 
ATOM      8  O   UNL d   1       9.028   7.278 -12.397  0.00  0.00    -0.289 OA
BRANCH   7   9
ATOM      9  C   UNL d   1       8.116   5.162 -11.614  0.00  0.00     0.280 C 
BRANCH   9  10
ATOM     10  C   UNL d   1       6.598   5.427 -11.790  0.00  0.00     0.041 C 
BRANCH  10  11
ATOM     11  C   UNL d   1       5.702   4.170 -11.975  0.00  0.00     0.003 C 
ATOM     12  C   UNL d   1       5.741   3.514 -13.355  0.00  0.00     0.000 C 
ENDBRANCH  10  11
ENDBRANCH   9  10
BRANCH   9  13
ATOM     13  N   UNL d   1       8.649   4.297 -12.680  0.00  0.00     0.142 N 
ATOM     14  C   UNL d   1       8.473   4.790 -14.042  0.00  0.00     0.251 C 
ATOM     15  C   UNL d   1       9.334   3.829 -14.842  0.00  0.00     0.037 C 
ATOM     16  C   UNL d   1      10.421   3.349 -13.872  0.00  0.00     0.037 C 
ATOM     17  C   UNL d   1      10.059   4.014 -12.549  0.00  0.00     0.251 C 
ENDBRANCH   9  13
ENDBRANCH   7   9
ENDBRANCH   1   7
BRANCH   4  18
ATOM     18  C   UNL d   1      11.066   7.910  -6.245  0.00  0.00     0.029 A 
ATOM     19  S   UNL d   1      11.472   9.562  -5.845  0.00  0.00    -0.086 SA
ATOM     20  C   UNL d   1      11.970   9.085  -4.244  0.00  0.00     0.035 A 
ATOM     21  C   UNL d   1      11.838   7.742  -4.046  0.00  0.00     0.007 A 
ATOM     22  C   UNL d   1      11.305   7.062  -5.184  0.00  0.00     0.007 A 
ENDBRANCH   4  18
TORSDOF 6
