REMARK  4 active torsions:
REMARK  status: ('A' for Active; 'I' for Inactive)
REMARK    1  A    between atoms: C_8  and  N_9 
REMARK    2  A    between atoms: N_9  and  C_10 
REMARK    3  A    between atoms: C_10  and  C_11 
REMARK    4  A    between atoms: C_11  and  C_12 
ROOT
ATOM      1  C   UNL d   1      10.350   5.646 -16.611  0.00  0.00     0.031 C 
ATOM      2  C   UNL d   1       9.882   4.418 -15.870  0.00  0.00    -0.022 A 
ATOM      3  C   UNL d   1      10.406   3.154 -16.184  0.00  0.00    -0.003 A 
ATOM      4  C   UNL d   1       9.908   2.010 -15.538  0.00  0.00     0.019 A 
ATOM      5  C   UNL d   1       8.873   2.117 -14.598  0.00  0.00     0.086 A 
ATOM      6  C   UNL d   1       8.369   3.391 -14.267  0.00  0.00     0.053 A 
ATOM      7  C   UNL d   1       8.907   4.531 -14.882  0.00  0.00     0.000 A 
ATOM      8  C   UNL d   1       7.291   3.648 -13.252  0.00  0.00     0.160 C 
ATOM      9  N   UNL d   1       6.251   2.898 -13.083  0.00  0.00    -0.224 NA
ATOM     10  C   UNL d   1       6.021   1.609 -13.600  0.00  0.00     0.119 C 
ATOM     11  C   UNL d   1       4.713   1.111 -13.472  0.00  0.00     0.024 C 
ATOM     12  C   UNL d   1       4.348  -0.137 -13.997  0.00  0.00     0.022 C 
ATOM     13  C   UNL d   1       5.378  -0.948 -14.500  0.00  0.00     0.101 C 
ATOM     14  N   UNL d   1       6.662  -0.550 -14.485  0.00  0.00    -0.224 NA
ATOM     15  C   UNL d   1       6.981   0.676 -14.044  0.00  0.00     0.180 C 
ATOM     16  N   UNL d   1       8.333   0.936 -14.111  0.00  0.00    -0.225 NA
ENDROOT
BRANCH   8  17
ATOM     17  N   UNL d   1       7.524   4.771 -12.445  0.00  0.00    -0.253 NA
BRANCH  17  18
ATOM     18  C   UNL d   1       8.841   5.104 -11.910  0.00  0.00     0.129 C 
BRANCH  18  19
ATOM     19  C   UNL d   1       8.702   6.094 -10.763  0.00  0.00     0.060 C 
BRANCH  19  20
ATOM     20  C   UNL d   1      10.015   6.217  -9.948  0.00  0.00     0.221 C 
ATOM     21  N   UNL d   1      10.170   7.511  -9.296  0.00  0.00     0.137 N 
ATOM     22  C   UNL d   1       9.268   7.438  -8.147  0.00  0.00     0.250 C 
ATOM     23  C   UNL d   1       9.956   8.670 -10.152  0.00  0.00     0.285 C 
ATOM     24  C   UNL d   1       9.508   6.031  -7.589  0.00  0.00     0.037 C 
ATOM     25  C   UNL d   1      10.037   5.233  -8.763  0.00  0.00     0.035 C 
ENDBRANCH  19  20
ENDBRANCH  18  19
ENDBRANCH  17  18
ENDBRANCH   8  17
TORSDOF 4
