REMARK  7 active torsions:
REMARK  status: ('A' for Active; 'I' for Inactive)
REMARK    1  A    between atoms: C_8  and  O_9 
REMARK    2  A    between atoms: O_9  and  C_10 
REMARK    3  A    between atoms: C_10  and  C_11 
REMARK    4  A    between atoms: C_11  and  C_12 
REMARK    5  A    between atoms: C_12  and  C_13 
REMARK    6  A    between atoms: C_13  and  N_14 
REMARK    7  A    between atoms: N_17  and  C_18 
ROOT
ATOM      1  N   UNL d   1       9.497   5.766 -12.090  0.00  0.00     0.141 N 
ATOM      2  C   UNL d   1       8.526   6.026 -13.152  0.00  0.00     0.274 C 
ATOM      3  C   UNL d   1       8.840   5.119 -14.361  0.00  0.00     0.137 C 
ATOM      4  N   UNL d   1       8.752   3.747 -13.940  0.00  0.00    -0.343 N 
ATOM      5  C   UNL d   1       9.609   3.426 -12.814  0.00  0.00     0.137 C 
ATOM      6  C   UNL d   1       9.336   4.387 -11.631  0.00  0.00     0.274 C 
ENDROOT
BRANCH   1   7
ATOM      7  C   UNL d   1       9.233   6.714 -11.011  0.00  0.00     0.251 C 
BRANCH   7   8
ATOM      8  C   UNL d   1      10.398   6.775 -10.019  0.00  0.00     0.038 C 
BRANCH   8   9
ATOM      9  C   UNL d   1      10.624   8.177  -9.451  0.00  0.00     0.035 C 
BRANCH   9  10
ATOM     10  C   UNL d   1       9.416   8.730  -8.668  0.00  0.00     0.149 C 
BRANCH  10  11
ATOM     11  O   UNL d   1       9.835   9.450  -7.524  0.00  0.00    -0.331 OA
BRANCH  11  12
ATOM     12  C   UNL d   1      10.363   8.752  -6.465  0.00  0.00     0.094 A 
ATOM     13  C   UNL d   1      10.479   7.327  -6.499  0.00  0.00     0.024 A 
ATOM     14  C   UNL d   1      11.107   6.646  -5.452  0.00  0.00    -0.000 A 
ATOM     15  C   UNL d   1      11.571   7.342  -4.353  0.00  0.00     0.007 A 
ATOM     16  C   UNL d   1      12.112   6.829  -3.048  0.00  0.00     0.155 A 
ATOM     17  C   UNL d   1      11.423   8.709  -4.300  0.00  0.00     0.057 A 
ATOM     18  N   UNL d   1      12.267   8.078  -2.306  0.00  0.00    -0.229 NA
ATOM     19  C   UNL d   1      11.855   9.173  -2.987  0.00  0.00     0.275 A 
ATOM     20  O   UNL d   1      11.856  10.346  -2.649  0.00  0.00    -0.266 OA
ATOM     21  C   UNL d   1      10.829   9.473  -5.327  0.00  0.00     0.029 A 
ENDBRANCH  11  12
ENDBRANCH  10  11
ENDBRANCH   9  10
ENDBRANCH   8   9
ENDBRANCH   7   8
ENDBRANCH   1   7
BRANCH   4  22
ATOM     22  C   UNL d   1       7.973   2.768 -14.603  0.00  0.00     0.078 A 
ATOM     23  C   UNL d   1       8.370   2.292 -15.858  0.00  0.00     0.105 A 
ATOM     24  C   UNL d   1       7.557   1.314 -16.513  0.00  0.00     0.002 A 
ATOM     25  O   UNL d   1       9.508   2.811 -16.430  0.00  0.00    -0.330 OA
ATOM     26  C   UNL d   1       6.413   0.810 -15.880  0.00  0.00    -0.002 A 
ATOM     27  C   UNL d   1       7.913   0.847 -17.901  0.00  0.00     0.031 C 
ATOM     28  C   UNL d   1       6.045   1.280 -14.608  0.00  0.00     0.001 A 
ATOM     29  C   UNL d   1       6.816   2.277 -13.988  0.00  0.00     0.019 A 
ATOM     30  C   UNL d   1       8.990   1.722 -18.546  0.00  0.00     0.037 C 
ATOM     31  C   UNL d   1      10.069   2.066 -17.509  0.00  0.00     0.149 C 
ENDBRANCH   4  22
TORSDOF 7
