REMARK  6 active torsions:
REMARK  status: ('A' for Active; 'I' for Inactive)
REMARK    1  A    between atoms: N_2  and  S_3 
REMARK    2  A    between atoms: S_3  and  C_6 
REMARK    3  A    between atoms: C_6  and  C_7 
REMARK    4  A    between atoms: C_13  and  C_14 
REMARK    5  A    between atoms: C_14  and  C_15 
REMARK    6  A    between atoms: C_15  and  N_16 
ROOT
ATOM      1  C   UNL d   1       9.450   6.439  -9.620  0.00  0.00    -0.004 A 
ATOM      2  C   UNL d   1      10.286   7.102 -10.501  0.00  0.00    -0.002 A 
ATOM      3  C   UNL d   1      11.256   8.021 -10.050  0.00  0.00     0.019 A 
ATOM      4  C   UNL d   1      11.354   8.248  -8.684  0.00  0.00     0.081 A 
ATOM      5  N   UNL d   1      12.215   9.059  -8.009  0.00  0.00    -0.244 NA
ATOM      6  C   UNL d   1      11.914   9.027  -6.666  0.00  0.00     0.095 A 
ATOM      7  C   UNL d   1      10.938   8.091  -6.494  0.00  0.00     0.000 A 
ATOM      8  C   UNL d   1      10.531   7.599  -7.756  0.00  0.00     0.015 A 
ATOM      9  C   UNL d   1       9.554   6.683  -8.217  0.00  0.00    -0.002 A 
ENDROOT
BRANCH   1  10
ATOM     10  C   UNL d   1       8.393   5.508 -10.179  0.00  0.00     0.172 C 
BRANCH  10  11
ATOM     11  S   UNL d   1       8.007   5.734 -12.007  0.00  0.00     0.265 S 
ATOM     12  O   UNL d   1       8.717   4.689 -12.768  0.00  0.00    -0.203 OA
ATOM     13  O   UNL d   1       8.130   7.129 -12.424  0.00  0.00    -0.203 OA
BRANCH  11  14
ATOM     14  N   UNL d   1       6.339   5.345 -12.054  0.00  0.00    -0.186 NA
ATOM     15  C   UNL d   1       5.936   3.948 -12.034  0.00  0.00     0.166 C 
ENDBRANCH  11  14
ENDBRANCH  10  11
ENDBRANCH   1  10
BRANCH   7  16
ATOM     16  C   UNL d   1      10.320   7.702  -5.236  0.00  0.00     0.063 C 
BRANCH  16  17
ATOM     17  C   UNL d   1      11.149   6.668  -4.468  0.00  0.00     0.255 C 
BRANCH  17  18
ATOM     18  N   UNL d   1      12.285   7.211  -3.694  0.00  0.00     0.142 N 
ATOM     19  C   UNL d   1      12.480   6.337  -2.566  0.00  0.00     0.285 C 
ATOM     20  C   UNL d   1      12.209   8.581  -3.193  0.00  0.00     0.285 C 
ENDBRANCH  17  18
ENDBRANCH  16  17
ENDBRANCH   7  16
TORSDOF 6
