REMARK  7 active torsions:
REMARK  status: ('A' for Active; 'I' for Inactive)
REMARK    1  A    between atoms: C_5  and  C_6 
REMARK    2  A    between atoms: N_10  and  C_11 
REMARK    3  A    between atoms: C_11  and  C_12 
REMARK    4  A    between atoms: C_12  and  C_13 
REMARK    5  A    between atoms: C_13  and  S_14 
REMARK    6  A    between atoms: S_14  and  C_15 
REMARK    7  A    between atoms: C_18  and  C_19 
ROOT
ATOM      1  C   UNL d   1       8.914   5.644 -13.106  0.00  0.00     0.251 C 
ENDROOT
BRANCH   1   2
ATOM      2  N   UNL d   1       9.487   5.673 -11.768  0.00  0.00     0.137 N 
ATOM      3  C   UNL d   1       9.518   4.337 -11.190  0.00  0.00     0.251 C 
ATOM      4  C   UNL d   1       9.646   4.595  -9.708  0.00  0.00     0.040 A 
ATOM      5  C   UNL d   1       9.062   5.948  -9.471  0.00  0.00     0.054 A 
ATOM      6  C   UNL d   1       8.433   4.716  -8.848  0.00  0.00     0.009 A 
ATOM      7  C   UNL d   1       8.657   6.444 -10.841  0.00  0.00     0.254 C 
BRANCH   5   8
ATOM      8  C   UNL d   1       9.835   6.951  -8.649  0.00  0.00     0.007 A 
ATOM      9  C   UNL d   1      11.031   7.520  -9.142  0.00  0.00    -0.002 A 
ATOM     10  C   UNL d   1      11.781   8.414  -8.353  0.00  0.00    -0.004 A 
ATOM     11  C   UNL d   1      11.329   8.758  -7.061  0.00  0.00    -0.020 A 
ATOM     12  C   UNL d   1      12.117   9.718  -6.193  0.00  0.00     0.031 C 
ATOM     13  C   UNL d   1      10.142   8.198  -6.569  0.00  0.00     0.025 A 
ATOM     14  C   UNL d   1       9.391   7.307  -7.354  0.00  0.00     0.136 A 
ATOM     15  F   UNL d   1       8.260   6.783  -6.840  0.00  0.00    -0.205 F 
ENDBRANCH   5   8
ENDBRANCH   1   2
BRANCH   1  16
ATOM     16  C   UNL d   1       9.849   4.900 -14.098  0.00  0.00     0.047 C 
BRANCH  16  17
ATOM     17  C   UNL d   1       9.087   4.229 -15.235  0.00  0.00     0.067 C 
BRANCH  17  18
ATOM     18  S   UNL d   1      10.029   2.852 -15.970  0.00  0.00    -0.075 SA
BRANCH  18  19
ATOM     19  C   UNL d   1       8.723   2.103 -16.901  0.00  0.00     0.193 A 
ATOM     20  N   UNL d   1       7.848   1.204 -16.391  0.00  0.00    -0.287 N 
ATOM     21  C   UNL d   1       7.068   0.916 -17.464  0.00  0.00     0.191 A 
ATOM     22  C   UNL d   1       7.757   0.683 -15.037  0.00  0.00     0.134 C 
ATOM     23  N   UNL d   1       7.448   1.587 -18.558  0.00  0.00    -0.126 NA
ATOM     24  N   UNL d   1       8.507   2.377 -18.188  0.00  0.00    -0.122 NA
BRANCH  21  25
ATOM     25  C   UNL d   1       5.927  -0.007 -17.497  0.00  0.00     0.151 A 
ATOM     26  C   UNL d   1       5.034  -0.351 -18.489  0.00  0.00     0.087 A 
ATOM     27  N   UNL d   1       4.144  -1.284 -17.977  0.00  0.00    -0.221 NA
ATOM     28  C   UNL d   1       4.917   0.126 -19.904  0.00  0.00     0.054 C 
ATOM     29  C   UNL d   1       4.534  -1.470 -16.720  0.00  0.00     0.225 A 
ATOM     30  O   UNL d   1       5.606  -0.712 -16.365  0.00  0.00    -0.282 OA
ENDBRANCH  21  25
ENDBRANCH  18  19
ENDBRANCH  17  18
ENDBRANCH  16  17
ENDBRANCH   1  16
TORSDOF 7
