REMARK  4 active torsions:
REMARK  status: ('A' for Active; 'I' for Inactive)
REMARK    1  A    between atoms: C_8  and  N_9 
REMARK    2  A    between atoms: N_12  and  C_13 
REMARK    3  A    between atoms: C_13  and  C_14 
REMARK    4  A    between atoms: C_16  and  C_17 
ROOT
ATOM      1  N   UNL d   1       9.471   5.922 -10.160  0.00  0.00    -0.343 N 
ATOM      2  C   UNL d   1       8.892   4.617  -9.989  0.00  0.00     0.137 C 
ATOM      3  C   UNL d   1       7.677   4.490 -10.950  0.00  0.00     0.275 C 
ATOM      4  N   UNL d   1       8.075   4.670 -12.352  0.00  0.00     0.146 N 
ATOM      5  C   UNL d   1       8.537   6.061 -12.440  0.00  0.00     0.275 C 
ATOM      6  C   UNL d   1       9.762   6.261 -11.546  0.00  0.00     0.137 C 
ENDROOT
BRANCH   4   7
ATOM      7  C   UNL d   1       6.910   4.496 -13.183  0.00  0.00     0.279 C 
BRANCH   7   8
ATOM      8  C   UNL d   1       6.730   3.054 -13.643  0.00  0.00     0.038 A 
ATOM      9  C   UNL d   1       5.644   2.248 -13.228  0.00  0.00     0.138 A 
ATOM     10  C   UNL d   1       5.495   0.943 -13.734  0.00  0.00     0.029 A 
ATOM     11  F   UNL d   1       4.705   2.755 -12.398  0.00  0.00    -0.204 F 
ATOM     12  C   UNL d   1       6.448   0.425 -14.642  0.00  0.00     0.002 A 
ATOM     13  C   UNL d   1       7.544   1.206 -15.073  0.00  0.00    -0.000 A 
ATOM     14  C   UNL d   1       7.670   2.511 -14.543  0.00  0.00    -0.000 A 
BRANCH  13  15
ATOM     15  C   UNL d   1       8.531   0.683 -16.043  0.00  0.00    -0.000 A 
ATOM     16  C   UNL d   1       9.911   0.949 -15.882  0.00  0.00    -0.000 A 
ATOM     17  C   UNL d   1      10.859   0.429 -16.783  0.00  0.00    -0.000 A 
ATOM     18  C   UNL d   1      10.446  -0.381 -17.855  0.00  0.00     0.000 A 
ATOM     19  C   UNL d   1       9.079  -0.661 -18.029  0.00  0.00    -0.000 A 
ATOM     20  C   UNL d   1       8.131  -0.122 -17.137  0.00  0.00    -0.000 A 
ENDBRANCH  13  15
ENDBRANCH   7   8
ENDBRANCH   4   7
BRANCH   1  21
ATOM     21  C   UNL d   1       9.747   6.740  -9.082  0.00  0.00     0.081 A 
ATOM     22  C   UNL d   1       8.852   6.862  -7.990  0.00  0.00     0.019 A 
ATOM     23  C   UNL d   1       9.138   7.743  -6.941  0.00  0.00     0.003 A 
ATOM     24  C   UNL d   1      10.358   8.454  -6.875  0.00  0.00     0.021 A 
ATOM     25  C   UNL d   1      11.296   8.297  -7.903  0.00  0.00     0.110 A 
ATOM     26  N   UNL d   1      12.584   8.745  -8.063  0.00  0.00    -0.196 NA
ATOM     27  C   UNL d   1      10.943   7.513  -9.010  0.00  0.00     0.137 A 
ATOM     28  C   UNL d   1      12.889   8.276  -9.268  0.00  0.00     0.323 C 
ATOM     29  O   UNL d   1      14.080   8.374  -9.891  0.00  0.00    -0.141 OA
ATOM     30  O   UNL d   1      11.944   7.608  -9.945  0.00  0.00    -0.266 OA
ENDBRANCH   1  21
TORSDOF 4
