REMARK  6 active torsions:
REMARK  status: ('A' for Active; 'I' for Inactive)
REMARK    1  A    between atoms: C_6  and  C_7 
REMARK    2  A    between atoms: C_10  and  S_11 
REMARK    3  A    between atoms: S_11  and  C_12 
REMARK    4  A    between atoms: C_12  and  C_13 
REMARK    5  A    between atoms: C_13  and  C_14 
REMARK    6  A    between atoms: C_14  and  N_15 
ROOT
ATOM      1  C   UNL d   1       8.940   3.064 -15.318  0.00  0.00     0.047 C 
ENDROOT
BRANCH   1   2
ATOM      2  C   UNL d   1       7.937   2.196 -14.534  0.00  0.00     0.067 C 
BRANCH   2   3
ATOM      3  S   UNL d   1       6.780   3.269 -13.614  0.00  0.00    -0.075 SA
BRANCH   3   4
ATOM      4  C   UNL d   1       7.974   4.105 -12.602  0.00  0.00     0.193 A 
ATOM      5  N   UNL d   1       9.226   3.687 -12.421  0.00  0.00    -0.122 NA
ATOM      6  N   UNL d   1       9.858   4.668 -11.725  0.00  0.00    -0.128 NA
ATOM      7  C   UNL d   1       8.916   5.612 -11.492  0.00  0.00     0.174 A 
ATOM      8  N   UNL d   1       7.710   5.277 -11.999  0.00  0.00    -0.288 N 
ATOM      9  C   UNL d   1       6.412   5.956 -11.986  0.00  0.00     0.134 C 
BRANCH   7  10
ATOM     10  C   UNL d   1       9.309   6.793 -10.748  0.00  0.00     0.080 A 
ATOM     11  C   UNL d   1       9.301   8.118 -11.124  0.00  0.00     0.069 A 
ATOM     12  N   UNL d   1       9.738   8.990 -10.115  0.00  0.00    -0.247 NA
ATOM     13  C   UNL d   1       8.728   8.649 -12.390  0.00  0.00     0.053 C 
ATOM     14  C   UNL d   1       9.993   8.346  -8.973  0.00  0.00     0.088 A 
ATOM     15  C   UNL d   1      10.397   9.047  -7.734  0.00  0.00     0.059 C 
ATOM     16  S   UNL d   1       9.850   6.598  -9.096  0.00  0.00    -0.068 SA
ENDBRANCH   7  10
ENDBRANCH   3   4
ENDBRANCH   2   3
ENDBRANCH   1   2
BRANCH   1  17
ATOM     17  C   UNL d   1       9.593   2.341 -16.482  0.00  0.00     0.251 C 
BRANCH  17  18
ATOM     18  N   UNL d   1      10.417   3.293 -17.216  0.00  0.00     0.137 N 
ATOM     19  C   UNL d   1       9.612   4.290 -17.907  0.00  0.00     0.254 C 
ATOM     20  C   UNL d   1      10.544   4.852 -18.996  0.00  0.00     0.052 C 
ATOM     21  C   UNL d   1      11.584   3.728 -19.212  0.00  0.00     0.041 C 
ATOM     22  C   UNL d   1       9.741   5.206 -20.225  0.00  0.00    -0.022 A 
ATOM     23  C   UNL d   1      11.150   6.243 -18.590  0.00  0.00     0.011 C 
ATOM     24  C   UNL d   1      11.127   2.609 -18.284  0.00  0.00     0.251 C 
ATOM     25  C   UNL d   1       9.655   6.594 -20.387  0.00  0.00    -0.026 A 
ATOM     26  C   UNL d   1       9.053   4.319 -21.045  0.00  0.00     0.025 A 
ATOM     27  C   UNL d   1      10.413   7.346 -19.336  0.00  0.00     0.026 C 
ATOM     28  C   UNL d   1       8.856   7.134 -21.410  0.00  0.00    -0.002 A 
ATOM     29  C   UNL d   1       8.158   6.243 -22.248  0.00  0.00     0.029 A 
ATOM     30  C   UNL d   1       8.260   4.846 -22.070  0.00  0.00     0.140 A 
ATOM     31  F   UNL d   1       7.570   4.019 -22.861  0.00  0.00    -0.204 F 
ENDBRANCH  17  18
ENDBRANCH   1  17
TORSDOF 6
