REMARK  7 active torsions:
REMARK  status: ('A' for Active; 'I' for Inactive)
REMARK    1  A    between atoms: C_2  and  C_3 
REMARK       I    between atoms: C_2  and  N_11 
REMARK    2  A    between atoms: C_4  and  C_5 
REMARK    3  A    between atoms: N_11  and  C_12 
REMARK    4  A    between atoms: C_12  and  C_13 
REMARK    5  A    between atoms: C_13  and  C_14 
REMARK    6  A    between atoms: C_14  and  C_15 
REMARK    7  A    between atoms: C_15  and  N_16 
ROOT
ATOM      1  N   UNL d   1       9.417   2.199 -15.734  0.00  0.00     0.141 N 
ATOM      2  C   UNL d   1      10.449   2.829 -14.901  0.00  0.00     0.274 C 
ATOM      3  C   UNL d   1      11.718   3.073 -15.730  0.00  0.00     0.137 C 
ATOM      4  N   UNL d   1      11.402   3.920 -16.878  0.00  0.00    -0.343 N 
ATOM      5  C   UNL d   1      12.463   4.652 -17.442  0.00  0.00     0.053 A 
ATOM      6  C   UNL d   1      13.796   4.176 -17.387  0.00  0.00     0.017 A 
ATOM      7  C   UNL d   1      14.851   4.933 -17.926  0.00  0.00     0.002 A 
ATOM      8  C   UNL d   1      14.591   6.177 -18.528  0.00  0.00    -0.000 A 
ATOM      9  C   UNL d   1      13.270   6.661 -18.590  0.00  0.00    -0.003 A 
ATOM     10  C   UNL d   1      12.212   5.902 -18.049  0.00  0.00    -0.002 A 
ATOM     11  C   UNL d   1      10.788   6.400 -18.151  0.00  0.00     0.054 C 
ATOM     12  C   UNL d   1      10.036   5.556 -19.156  0.00  0.00    -0.020 A 
ATOM     13  C   UNL d   1       9.536   6.182 -20.320  0.00  0.00    -0.004 A 
ATOM     14  C   UNL d   1       8.886   5.428 -21.313  0.00  0.00    -0.000 A 
ATOM     15  C   UNL d   1       8.731   4.042 -21.147  0.00  0.00    -0.000 A 
ATOM     16  C   UNL d   1       9.224   3.415 -19.989  0.00  0.00    -0.003 A 
ATOM     17  C   UNL d   1       9.884   4.152 -18.980  0.00  0.00    -0.004 A 
ATOM     18  C   UNL d   1      10.343   3.370 -17.738  0.00  0.00     0.137 C 
ATOM     19  C   UNL d   1       9.104   3.072 -16.867  0.00  0.00     0.277 C 
ENDROOT
BRANCH   1  20
ATOM     20  C   UNL d   1       8.213   1.873 -14.957  0.00  0.00     0.251 C 
BRANCH  20  21
ATOM     21  C   UNL d   1       7.752   3.087 -14.091  0.00  0.00     0.037 C 
BRANCH  21  22
ATOM     22  C   UNL d   1       6.300   2.962 -13.588  0.00  0.00     0.029 C 
BRANCH  22  23
ATOM     23  C   UNL d   1       5.816   4.289 -12.964  0.00  0.00     0.129 C 
BRANCH  23  24
ATOM     24  N   UNL d   1       6.649   4.766 -11.859  0.00  0.00    -0.234 NA
ATOM     25  C   UNL d   1       7.828   5.391 -12.005  0.00  0.00     0.275 C 
ATOM     26  O   UNL d   1       8.367   5.558 -13.088  0.00  0.00    -0.266 OA
BRANCH  25  27
ATOM     27  C   UNL d   1       8.351   5.808 -10.695  0.00  0.00     0.062 C 
ATOM     28  C   UNL d   1       9.431   6.576 -10.600  0.00  0.00     0.005 C 
BRANCH  28  29
ATOM     29  C   UNL d   1      10.034   7.090  -9.359  0.00  0.00     0.000 A 
ATOM     30  C   UNL d   1       9.470   6.731  -8.098  0.00  0.00     0.000 A 
ATOM     31  C   UNL d   1      10.020   7.242  -6.905  0.00  0.00     0.000 A 
ATOM     32  C   UNL d   1      11.125   8.104  -6.957  0.00  0.00     0.000 A 
ATOM     33  C   UNL d   1      11.689   8.462  -8.201  0.00  0.00     0.000 A 
ATOM     34  C   UNL d   1      11.133   7.954  -9.393  0.00  0.00     0.000 A 
ENDBRANCH  28  29
ENDBRANCH  25  27
ENDBRANCH  23  24
ENDBRANCH  22  23
ENDBRANCH  21  22
ENDBRANCH  20  21
ENDBRANCH   1  20
TORSDOF 7
