REMARK  8 active torsions:
REMARK  status: ('A' for Active; 'I' for Inactive)
REMARK    1  A    between atoms: C_2  and  O_4 
REMARK    2  A    between atoms: O_4  and  C_5 
REMARK    3  A    between atoms: C_10  and  N_11 
REMARK    4  A    between atoms: N_14  and  C_15 
REMARK    5  A    between atoms: C_18  and  N_19 
REMARK    6  A    between atoms: N_19  and  S_20 
REMARK    7  A    between atoms: S_20  and  C_23 
REMARK    8  A    between atoms: C_23  and  C_24 
ROOT
ATOM      1  C   UNL d   1       7.838   4.946 -13.622  0.00  0.00     0.220 C 
ATOM      2  C   UNL d   1       6.903   5.830 -12.727  0.00  0.00     0.035 C 
ATOM      3  C   UNL d   1       7.216   5.577 -11.280  0.00  0.00     0.027 C 
ATOM      4  C   UNL d   1       8.670   5.885 -10.924  0.00  0.00     0.116 C 
ATOM      5  C   UNL d   1       9.572   5.056 -11.833  0.00  0.00     0.027 C 
ATOM      6  C   UNL d   1       9.301   5.276 -13.285  0.00  0.00     0.035 C 
ENDROOT
BRANCH   1   7
ATOM      7  N   UNL d   1       7.545   3.512 -13.527  0.00  0.00     0.139 N 
ATOM      8  C   UNL d   1       6.100   3.259 -13.637  0.00  0.00     0.274 C 
ATOM      9  C   UNL d   1       5.799   1.760 -13.511  0.00  0.00     0.137 C 
ATOM     10  N   UNL d   1       6.560   1.021 -14.503  0.00  0.00    -0.343 N 
ATOM     11  C   UNL d   1       7.993   1.279 -14.493  0.00  0.00     0.137 C 
ATOM     12  C   UNL d   1       8.246   2.792 -14.604  0.00  0.00     0.274 C 
BRANCH  10  13
ATOM     13  C   UNL d   1       5.939   0.119 -15.380  0.00  0.00     0.079 C 
ATOM     14  C   UNL d   1       6.348  -0.040 -16.745  0.00  0.00     0.109 C 
ATOM     15  C   UNL d   1       5.745  -1.042 -17.544  0.00  0.00     0.026 C 
ATOM     16  C   UNL d   1       4.638  -1.763 -17.032  0.00  0.00     0.002 C 
ATOM     17  C   UNL d   1       4.216  -1.600 -15.682  0.00  0.00     0.002 C 
ATOM     18  C   UNL d   1       4.885  -0.677 -14.871  0.00  0.00     0.019 C 
BRANCH  14  19
ATOM     19  O   UNL d   1       7.311   0.843 -17.224  0.00  0.00    -0.332 OA
BRANCH  19  20
ATOM     20  C   UNL d   1       7.957   0.624 -18.484  0.00  0.00     0.122 C 
ATOM     21  C   UNL d   1       9.064   1.700 -18.583  0.00  0.00     0.033 C 
ATOM     22  C   UNL d   1       6.960   0.773 -19.686  0.00  0.00     0.033 C 
ENDBRANCH  19  20
ENDBRANCH  14  19
ENDBRANCH  10  13
ENDBRANCH   1   7
BRANCH   4  23
ATOM     23  N   UNL d   1       8.986   5.585  -9.519  0.00  0.00    -0.190 NA
BRANCH  23  24
ATOM     24  S   UNL d   1       9.270   6.844  -8.340  0.00  0.00     0.265 S 
ATOM     25  O   UNL d   1       9.375   8.157  -8.987  0.00  0.00    -0.203 OA
ATOM     26  O   UNL d   1       8.398   6.582  -7.182  0.00  0.00    -0.203 OA
BRANCH  24  27
ATOM     27  C   UNL d   1      10.957   6.551  -7.847  0.00  0.00     0.172 C 
BRANCH  27  28
ATOM     28  C   UNL d   1      11.276   7.406  -6.649  0.00  0.00    -0.004 A 
ATOM     29  C   UNL d   1      11.510   8.790  -6.788  0.00  0.00    -0.003 A 
ATOM     30  C   UNL d   1      11.831   9.556  -5.651  0.00  0.00    -0.000 A 
ATOM     31  C   UNL d   1      11.919   8.942  -4.384  0.00  0.00    -0.000 A 
ATOM     32  C   UNL d   1      11.691   7.560  -4.255  0.00  0.00    -0.000 A 
ATOM     33  C   UNL d   1      11.366   6.797  -5.386  0.00  0.00    -0.003 A 
ENDBRANCH  27  28
ENDBRANCH  24  27
ENDBRANCH  23  24
ENDBRANCH   4  23
TORSDOF 8
