REMARK  6 active torsions:
REMARK  status: ('A' for Active; 'I' for Inactive)
REMARK    1  A    between atoms: C_4  and  C_5 
REMARK    2  A    between atoms: C_5  and  N_6 
REMARK    3  A    between atoms: C_9  and  N_10 
REMARK    4  A    between atoms: N_10  and  C_11 
REMARK    5  A    between atoms: C_11  and  C_12 
REMARK    6  A    between atoms: C_15  and  C_16 
ROOT
ATOM      1  N   UNL d   1      10.925   9.408  -6.838  0.00  0.00     0.141 N 
ATOM      2  C   UNL d   1       9.688   8.646  -6.554  0.00  0.00     0.253 C 
ATOM      3  C   UNL d   1       9.068   8.132  -7.845  0.00  0.00     0.071 C 
ATOM      4  C   UNL d   1      10.079   7.312  -8.676  0.00  0.00     0.261 C 
ATOM      5  C   UNL d   1      11.312   8.192  -8.966  0.00  0.00     0.071 C 
ATOM      6  C   UNL d   1      11.939   8.725  -7.671  0.00  0.00     0.253 C 
ENDROOT
BRANCH   4   7
ATOM      7  N   UNL d   1       9.464   6.953  -9.945  0.00  0.00     0.344 N 
BRANCH   7   8
ATOM      8  C   UNL d   1       9.057   5.557  -9.966  0.00  0.00     0.336 C 
BRANCH   8   9
ATOM      9  C   UNL d   1       8.506   5.027 -11.242  0.00  0.00     0.102 A 
ATOM     10  N   UNL d   1       9.334   4.345 -12.142  0.00  0.00    -0.241 NA
ATOM     11  C   UNL d   1       8.678   3.909 -13.223  0.00  0.00     0.110 A 
ATOM     12  S   UNL d   1       6.965   4.347 -13.187  0.00  0.00    -0.066 SA
ATOM     13  C   UNL d   1       7.219   5.170 -11.685  0.00  0.00     0.054 A 
BRANCH  11  14
ATOM     14  C   UNL d   1       9.273   3.134 -14.318  0.00  0.00     0.024 A 
ATOM     15  C   UNL d   1      10.678   3.119 -14.481  0.00  0.00     0.002 A 
ATOM     16  C   UNL d   1      11.271   2.389 -15.531  0.00  0.00     0.000 A 
ATOM     17  C   UNL d   1      10.468   1.659 -16.425  0.00  0.00     0.000 A 
ATOM     18  C   UNL d   1       9.069   1.658 -16.268  0.00  0.00     0.000 A 
ATOM     19  C   UNL d   1       8.474   2.389 -15.219  0.00  0.00     0.002 A 
ENDBRANCH  11  14
ENDBRANCH   8   9
ENDBRANCH   7   8
ENDBRANCH   4   7
BRANCH   1  20
ATOM     20  C   UNL d   1      11.539   9.942  -5.625  0.00  0.00     0.277 C 
BRANCH  20  21
ATOM     21  C   UNL d   1      11.819   8.912  -4.518  0.00  0.00     0.011 A 
ATOM     22  C   UNL d   1      11.740   7.522  -4.757  0.00  0.00    -0.002 A 
ATOM     23  C   UNL d   1      11.921   6.636  -3.711  0.00  0.00    -0.000 A 
ATOM     24  C   UNL d   1      12.191   7.044  -2.396  0.00  0.00    -0.000 A 
ATOM     25  C   UNL d   1      12.272   8.430  -2.151  0.00  0.00    -0.000 A 
ATOM     26  C   UNL d   1      12.076   9.368  -3.197  0.00  0.00    -0.002 A 
ENDBRANCH  20  21
ENDBRANCH   1  20
TORSDOF 6
