REMARK  7 active torsions:
REMARK  status: ('A' for Active; 'I' for Inactive)
REMARK    1  A    between atoms: C_8  and  O_9 
REMARK    2  A    between atoms: O_9  and  C_10 
REMARK    3  A    between atoms: C_10  and  C_11 
REMARK    4  A    between atoms: C_11  and  C_12 
REMARK    5  A    between atoms: C_12  and  C_13 
REMARK    6  A    between atoms: C_13  and  N_14 
REMARK    7  A    between atoms: N_17  and  C_18 
ROOT
ATOM      1  N   UNL d   1       7.913   5.033 -12.125  0.00  0.00     0.141 N 
ATOM      2  C   UNL d   1       6.590   4.410 -12.002  0.00  0.00     0.274 C 
ATOM      3  C   UNL d   1       6.082   3.958 -13.382  0.00  0.00     0.137 C 
ATOM      4  N   UNL d   1       7.066   3.092 -14.016  0.00  0.00    -0.344 N 
ATOM      5  C   UNL d   1       8.431   3.612 -14.037  0.00  0.00     0.137 C 
ATOM      6  C   UNL d   1       8.876   4.069 -12.656  0.00  0.00     0.274 C 
ENDROOT
BRANCH   1   7
ATOM      7  C   UNL d   1       8.352   5.487 -10.811  0.00  0.00     0.251 C 
BRANCH   7   8
ATOM      8  C   UNL d   1       9.419   6.585 -10.963  0.00  0.00     0.038 C 
BRANCH   8   9
ATOM      9  C   UNL d   1       9.708   7.186  -9.588  0.00  0.00     0.035 C 
BRANCH   9  10
ATOM     10  C   UNL d   1      10.756   8.334  -9.630  0.00  0.00     0.149 C 
BRANCH  10  11
ATOM     11  O   UNL d   1      10.775   9.078  -8.416  0.00  0.00    -0.331 OA
BRANCH  11  12
ATOM     12  C   UNL d   1      11.113   8.453  -7.239  0.00  0.00     0.094 A 
ATOM     13  C   UNL d   1      11.431   7.068  -7.151  0.00  0.00     0.024 A 
ATOM     14  C   UNL d   1      11.659   6.450  -5.911  0.00  0.00    -0.000 A 
ATOM     15  C   UNL d   1      11.684   7.243  -4.765  0.00  0.00     0.007 A 
ATOM     16  C   UNL d   1      12.039   6.880  -3.354  0.00  0.00     0.155 A 
ATOM     17  C   UNL d   1      11.454   8.604  -4.856  0.00  0.00     0.057 A 
ATOM     18  N   UNL d   1      11.967   8.189  -2.689  0.00  0.00    -0.229 NA
ATOM     19  C   UNL d   1      11.638   9.187  -3.523  0.00  0.00     0.275 A 
ATOM     20  O   UNL d   1      11.450  10.372  -3.249  0.00  0.00    -0.266 OA
ATOM     21  C   UNL d   1      11.129   9.251  -6.062  0.00  0.00     0.029 A 
ENDBRANCH  11  12
ENDBRANCH  10  11
ENDBRANCH   9  10
ENDBRANCH   8   9
ENDBRANCH   7   8
ENDBRANCH   1   7
BRANCH   4  22
ATOM     22  C   UNL d   1       6.722   1.826 -14.526  0.00  0.00     0.056 A 
ATOM     23  C   UNL d   1       7.199   1.360 -15.786  0.00  0.00     0.016 A 
ATOM     24  C   UNL d   1       6.823   0.070 -16.247  0.00  0.00     0.004 A 
ATOM     25  C   UNL d   1       8.024   2.144 -16.633  0.00  0.00     0.004 A 
ATOM     26  C   UNL d   1       5.965  -0.740 -15.474  0.00  0.00     0.000 A 
ATOM     27  C   UNL d   1       7.307  -0.411 -17.485  0.00  0.00     0.030 A 
ATOM     28  C   UNL d   1       5.488  -0.279 -14.238  0.00  0.00     0.002 A 
ATOM     29  C   UNL d   1       5.860   0.992 -13.768  0.00  0.00     0.017 A 
ATOM     30  C   UNL d   1       8.155   0.382 -18.283  0.00  0.00     0.140 A 
ATOM     31  F   UNL d   1       8.623  -0.075 -19.468  0.00  0.00    -0.204 F 
ATOM     32  C   UNL d   1       8.511   1.668 -17.853  0.00  0.00     0.030 A 
ENDBRANCH   4  22
TORSDOF 7
