REMARK  6 active torsions:
REMARK  status: ('A' for Active; 'I' for Inactive)
REMARK    1  A    between atoms: O_2  and  C_3 
REMARK    2  A    between atoms: C_6  and  C_7 
REMARK    3  A    between atoms: C_7  and  C_9 
REMARK    4  A    between atoms: N_12  and  C_13 
REMARK    5  A    between atoms: N_16  and  C_17 
REMARK    6  A    between atoms: C_17  and  C_18 
ROOT
ATOM      1  C   UNL d   1      10.538   3.880 -17.245  0.00  0.00     0.066 C 
ATOM      2  C   UNL d   1      10.112   2.591 -16.511  0.00  0.00     0.043 C 
ATOM      3  C   UNL d   1      10.029   2.813 -14.992  0.00  0.00     0.251 C 
ATOM      4  N   UNL d   1       9.091   3.870 -14.682  0.00  0.00     0.138 N 
ATOM      5  C   UNL d   1       9.410   5.112 -15.336  0.00  0.00     0.251 C 
ATOM      6  C   UNL d   1       9.557   5.023 -16.858  0.00  0.00     0.043 C 
ENDROOT
BRANCH   4   7
ATOM      7  C   UNL d   1       8.867   4.022 -13.226  0.00  0.00     0.253 C 
ATOM      8  C   UNL d   1       7.526   4.702 -12.822  0.00  0.00     0.217 C 
ATOM      9  C   UNL d   1       7.404   4.761 -11.288  0.00  0.00     0.285 C 
ATOM     10  O   UNL d   1       6.427   3.941 -13.283  0.00  0.00    -0.219 OA
ATOM     11  N   UNL d   1       8.552   5.402 -10.662  0.00  0.00     0.144 N 
ATOM     12  C   UNL d   1       9.782   4.740 -10.980  0.00  0.00     0.253 C 
ATOM     13  C   UNL d   1      10.013   4.747 -12.493  0.00  0.00     0.071 C 
BRANCH  11  14
ATOM     14  C   UNL d   1       8.428   5.609  -9.210  0.00  0.00     0.277 C 
BRANCH  14  15
ATOM     15  C   UNL d   1       9.405   6.606  -8.583  0.00  0.00     0.011 A 
ATOM     16  C   UNL d   1       9.428   6.661  -7.180  0.00  0.00    -0.000 A 
ATOM     17  C   UNL d   1      10.301   7.553  -6.522  0.00  0.00     0.029 A 
ATOM     18  C   UNL d   1      11.152   8.388  -7.271  0.00  0.00     0.140 A 
ATOM     19  C   UNL d   1      11.106   8.356  -8.680  0.00  0.00     0.029 A 
ATOM     20  F   UNL d   1      12.012   9.231  -6.644  0.00  0.00    -0.204 F 
ATOM     21  C   UNL d   1      10.186   7.507  -9.336  0.00  0.00    -0.000 A 
ENDBRANCH  14  15
ENDBRANCH  11  14
ENDBRANCH   4   7
BRANCH   1  22
ATOM     22  C   UNL d   1      10.583   3.715 -18.770  0.00  0.00     0.173 C 
ATOM     23  O   UNL d   1      10.063   2.750 -19.324  0.00  0.00    -0.291 OA
BRANCH  22  24
ATOM     24  C   UNL d   1      11.239   4.801 -19.550  0.00  0.00     0.035 A 
ATOM     25  C   UNL d   1      11.226   4.801 -20.954  0.00  0.00     0.005 A 
ATOM     26  C   UNL d   1      11.832   5.860 -21.677  0.00  0.00     0.024 A 
ATOM     27  C   UNL d   1      12.421   6.937 -21.015  0.00  0.00     0.094 A 
ATOM     28  C   UNL d   1      12.419   6.952 -19.589  0.00  0.00     0.024 A 
ATOM     29  C   UNL d   1      11.881   5.877 -18.875  0.00  0.00     0.005 A 
BRANCH  27  30
ATOM     30  O   UNL d   1      12.990   7.928 -21.777  0.00  0.00    -0.328 OA
ATOM     31  C   UNL d   1      13.655   8.982 -21.098  0.00  0.00     0.181 C 
ENDBRANCH  27  30
ENDBRANCH  22  24
ENDBRANCH   1  22
TORSDOF 6
