REMARK  6 active torsions:
REMARK  status: ('A' for Active; 'I' for Inactive)
REMARK    1  A    between atoms: C_2  and  C_3 
REMARK    2  A    between atoms: N_13  and  C_14 
REMARK    3  A    between atoms: C_14  and  C_15 
REMARK    4  A    between atoms: C_15  and  C_17 
REMARK    5  A    between atoms: C_17  and  N_18 
REMARK    6  A    between atoms: N_21  and  C_22 
ROOT
ATOM      1  C   UNL d   1       6.988  -0.467 -19.112  0.00  0.00     0.148 C 
ENDROOT
BRANCH   1   2
ATOM      2  N   UNL d   1       5.970  -1.454 -18.685  0.00  0.00    -0.247 N 
ATOM      3  C   UNL d   1       5.115  -1.338 -17.644  0.00  0.00     0.348 A 
ATOM      4  N   UNL d   1       4.365  -2.448 -17.581  0.00  0.00    -0.209 NA
ATOM      5  O   UNL d   1       5.005  -0.393 -16.874  0.00  0.00    -0.245 OA
ATOM      6  C   UNL d   1       4.672  -3.394 -18.630  0.00  0.00     0.179 A 
ATOM      7  C   UNL d   1       3.419  -3.538 -19.515  0.00  0.00     0.039 C 
ATOM      8  C   UNL d   1       5.773  -2.607 -19.332  0.00  0.00     0.265 A 
ATOM      9  O   UNL d   1       6.370  -2.992 -20.340  0.00  0.00    -0.269 OA
BRANCH   6  10
ATOM     10  C   UNL d   1       5.223  -4.729 -18.105  0.00  0.00     0.006 A 
ATOM     11  C   UNL d   1       5.178  -5.882 -18.923  0.00  0.00     0.000 A 
ATOM     12  C   UNL d   1       5.654  -7.119 -18.452  0.00  0.00     0.029 A 
ATOM     13  C   UNL d   1       6.196  -7.218 -17.160  0.00  0.00     0.140 A 
ATOM     14  C   UNL d   1       6.261  -6.079 -16.337  0.00  0.00     0.029 A 
ATOM     15  F   UNL d   1       6.659  -8.408 -16.715  0.00  0.00    -0.204 F 
ATOM     16  C   UNL d   1       5.782  -4.840 -16.808  0.00  0.00     0.000 A 
ENDBRANCH   6  10
ENDBRANCH   1   2
BRANCH   1  17
ATOM     17  C   UNL d   1       8.432  -0.880 -18.691  0.00  0.00     0.208 C 
ATOM     18  O   UNL d   1       9.118  -1.235 -19.869  0.00  0.00    -0.219 OA
BRANCH  17  19
ATOM     19  C   UNL d   1       9.293   0.237 -18.041  0.00  0.00     0.285 C 
BRANCH  19  20
ATOM     20  N   UNL d   1       9.005   0.541 -16.636  0.00  0.00     0.144 N 
ATOM     21  C   UNL d   1       7.685   1.151 -16.502  0.00  0.00     0.274 C 
ATOM     22  C   UNL d   1       7.304   1.430 -15.049  0.00  0.00     0.137 C 
ATOM     23  N   UNL d   1       8.325   2.258 -14.438  0.00  0.00    -0.344 N 
ATOM     24  C   UNL d   1       9.693   1.751 -14.579  0.00  0.00     0.137 C 
ATOM     25  C   UNL d   1       9.999   1.446 -16.064  0.00  0.00     0.274 C 
BRANCH  23  26
ATOM     26  C   UNL d   1       7.993   3.455 -13.760  0.00  0.00     0.056 A 
ATOM     27  C   UNL d   1       6.698   3.638 -13.226  0.00  0.00     0.017 A 
ATOM     28  C   UNL d   1       6.355   4.827 -12.556  0.00  0.00     0.002 A 
ATOM     29  C   UNL d   1       7.308   5.854 -12.411  0.00  0.00     0.000 A 
ATOM     30  C   UNL d   1       8.601   5.678 -12.935  0.00  0.00     0.002 A 
ATOM     31  C   UNL d   1       8.940   4.489 -13.611  0.00  0.00     0.017 A 
ENDBRANCH  23  26
ENDBRANCH  19  20
ENDBRANCH  17  19
ENDBRANCH   1  17
TORSDOF 6
