REMARK  8 active torsions:
REMARK  status: ('A' for Active; 'I' for Inactive)
REMARK    1  A    between atoms: O_2  and  C_3 
REMARK    2  A    between atoms: C_7  and  N_8 
REMARK    3  A    between atoms: N_11  and  C_12 
REMARK    4  A    between atoms: C_12  and  C_13 
REMARK    5  A    between atoms: C_13  and  C_14 
REMARK    6  A    between atoms: C_14  and  C_15 
REMARK    7  A    between atoms: C_15  and  N_16 
REMARK       I    between atoms: N_16  and  C_17 
REMARK    8  A    between atoms: C_17  and  C_19 
ROOT
ATOM      1  C   UNL d   1       8.345   3.725 -13.586  0.00  0.00     0.037 C 
ENDROOT
BRANCH   1   2
ATOM      2  C   UNL d   1       9.361   3.110 -14.572  0.00  0.00     0.251 C 
BRANCH   2   3
ATOM      3  N   UNL d   1      10.470   4.013 -14.887  0.00  0.00     0.141 N 
ATOM      4  C   UNL d   1      10.048   5.022 -15.862  0.00  0.00     0.274 C 
ATOM      5  C   UNL d   1      11.188   6.001 -16.185  0.00  0.00     0.137 C 
ATOM      6  N   UNL d   1      12.360   5.265 -16.654  0.00  0.00    -0.344 N 
ATOM      7  C   UNL d   1      12.779   4.182 -15.767  0.00  0.00     0.137 C 
ATOM      8  C   UNL d   1      11.587   3.253 -15.464  0.00  0.00     0.274 C 
BRANCH   6   9
ATOM      9  C   UNL d   1      12.992   5.549 -17.880  0.00  0.00     0.058 A 
ATOM     10  C   UNL d   1      13.693   4.545 -18.605  0.00  0.00     0.017 A 
ATOM     11  C   UNL d   1      14.327   4.843 -19.816  0.00  0.00     0.004 A 
ATOM     12  C   UNL d   1      14.270   6.136 -20.356  0.00  0.00     0.024 A 
ATOM     13  C   UNL d   1      13.571   7.161 -19.669  0.00  0.00     0.096 A 
ATOM     14  C   UNL d   1      12.945   6.856 -18.445  0.00  0.00     0.041 A 
BRANCH  13  15
ATOM     15  O   UNL d   1      13.460   8.458 -20.127  0.00  0.00    -0.328 OA
ATOM     16  C   UNL d   1      14.087   8.786 -21.357  0.00  0.00     0.181 C 
ENDBRANCH  13  15
ENDBRANCH   6   9
ENDBRANCH   2   3
ENDBRANCH   1   2
BRANCH   1  17
ATOM     17  C   UNL d   1       9.005   4.193 -12.286  0.00  0.00     0.029 C 
BRANCH  17  18
ATOM     18  C   UNL d   1       7.986   4.799 -11.294  0.00  0.00     0.129 C 
BRANCH  18  19
ATOM     19  N   UNL d   1       8.619   5.382 -10.119  0.00  0.00    -0.233 NA
ATOM     20  C   UNL d   1       9.451   6.436 -10.153  0.00  0.00     0.291 C 
ATOM     21  O   UNL d   1       9.775   6.980 -11.202  0.00  0.00    -0.264 OA
BRANCH  20  22
ATOM     22  C   UNL d   1       9.946   6.898  -8.832  0.00  0.00     0.118 A 
ATOM     23  N   UNL d   1      10.553   8.152  -8.656  0.00  0.00    -0.322 N 
ATOM     24  C   UNL d   1      10.926   8.290  -7.325  0.00  0.00     0.060 A 
ATOM     25  C   UNL d   1      10.766   9.157  -9.681  0.00  0.00     0.131 C 
ATOM     26  C   UNL d   1      10.547   7.086  -6.667  0.00  0.00     0.017 A 
ATOM     27  C   UNL d   1      11.561   9.337  -6.628  0.00  0.00     0.017 A 
ATOM     28  C   UNL d   1       9.928   6.237  -7.637  0.00  0.00     0.024 A 
ATOM     29  C   UNL d   1      10.840   6.969  -5.289  0.00  0.00     0.002 A 
ATOM     30  C   UNL d   1      11.467   8.018  -4.586  0.00  0.00     0.000 A 
ATOM     31  C   UNL d   1      11.834   9.198  -5.257  0.00  0.00     0.002 A 
ENDBRANCH  20  22
ENDBRANCH  18  19
ENDBRANCH  17  18
ENDBRANCH   1  17
TORSDOF 8
