REMARK  3 active torsions:
REMARK  status: ('A' for Active; 'I' for Inactive)
REMARK       I    between atoms: C_2  and  N_3 
REMARK    1  A    between atoms: C_2  and  C_13 
REMARK    2  A    between atoms: N_3  and  C_4 
REMARK    3  A    between atoms: C_4  and  C_5 
ROOT
ATOM      1  O   UNL d   1      10.659   5.185 -13.675  0.00  0.00    -0.265 OA
ATOM      2  C   UNL d   1       9.641   4.691 -13.197  0.00  0.00     0.278 C 
ATOM      3  N   UNL d   1       9.010   5.191 -12.129  0.00  0.00    -0.234 NA
ENDROOT
BRANCH   2   4
ATOM      4  C   UNL d   1       9.053   3.437 -13.780  0.00  0.00     0.093 A 
ATOM      5  C   UNL d   1       7.652   3.158 -13.682  0.00  0.00     0.153 A 
ATOM      6  N   UNL d   1       7.206   1.931 -14.244  0.00  0.00    -0.287 N 
ATOM      7  N   UNL d   1       6.624   3.786 -13.112  0.00  0.00    -0.225 NA
ATOM      8  C   UNL d   1       8.023   1.073 -14.915  0.00  0.00     0.093 A 
ATOM      9  C   UNL d   1       5.863   1.819 -13.938  0.00  0.00     0.102 A 
ATOM     10  C   UNL d   1       9.351   1.382 -15.046  0.00  0.00     0.076 A 
ATOM     11  C   UNL d   1       9.866   2.568 -14.476  0.00  0.00     0.021 A 
ATOM     12 CL   UNL d   1      10.399   0.315 -15.900  0.00  0.00    -0.081 Cl
ATOM     13  C   UNL d   1       5.525   2.948 -13.240  0.00  0.00     0.120 A 
ENDBRANCH   2   4
BRANCH   3  14
ATOM     14  C   UNL d   1       9.198   6.521 -11.576  0.00  0.00     0.131 C 
BRANCH  14  15
ATOM     15  C   UNL d   1       9.692   6.459 -10.125  0.00  0.00     0.058 C 
ATOM     16  C   UNL d   1       9.831   7.843  -9.475  0.00  0.00     0.221 C 
ATOM     17  N   UNL d   1       9.465   7.671  -8.061  0.00  0.00     0.135 N 
ATOM     18  C   UNL d   1      11.252   8.426  -9.503  0.00  0.00     0.035 C 
ATOM     19  C   UNL d   1       9.219   6.250  -7.823  0.00  0.00     0.250 C 
ATOM     20  C   UNL d   1      10.532   8.234  -7.242  0.00  0.00     0.250 C 
ATOM     21  C   UNL d   1       8.768   5.715  -9.174  0.00  0.00     0.039 C 
ATOM     22  C   UNL d   1      11.788   8.175  -8.105  0.00  0.00     0.037 C 
ENDBRANCH  14  15
ENDBRANCH   3  14
TORSDOF 3
