REMARK  7 active torsions:
REMARK  status: ('A' for Active; 'I' for Inactive)
REMARK       I    between atoms: C_2  and  N_3 
REMARK    1  A    between atoms: C_2  and  C_21 
REMARK    2  A    between atoms: N_3  and  C_4 
REMARK    3  A    between atoms: C_4  and  C_5 
REMARK    4  A    between atoms: C_5  and  C_6 
REMARK    5  A    between atoms: C_6  and  C_7 
REMARK    6  A    between atoms: C_7  and  N_8 
REMARK    7  A    between atoms: N_11  and  C_12 
ROOT
ATOM      1  C   UNL d   1       8.099   5.282 -11.094  0.00  0.00     0.251 C 
ENDROOT
BRANCH   1   2
ATOM      2  C   UNL d   1       9.568   5.752 -10.989  0.00  0.00     0.037 C 
BRANCH   2   3
ATOM      3  C   UNL d   1      10.036   6.055  -9.567  0.00  0.00     0.029 C 
BRANCH   3   4
ATOM      4  C   UNL d   1       9.159   7.080  -8.855  0.00  0.00     0.129 C 
BRANCH   4   5
ATOM      5  N   UNL d   1       9.675   7.359  -7.532  0.00  0.00    -0.234 NA
ATOM      6  C   UNL d   1      10.534   8.343  -7.258  0.00  0.00     0.275 C 
ATOM      7  O   UNL d   1      10.910   9.191  -8.069  0.00  0.00    -0.266 OA
BRANCH   6   8
ATOM      8  C   UNL d   1      11.017   8.359  -5.848  0.00  0.00     0.058 A 
ATOM      9  C   UNL d   1      11.200   9.587  -5.177  0.00  0.00     0.006 A 
ATOM     10  C   UNL d   1      11.693   9.581  -3.858  0.00  0.00     0.012 A 
ATOM     11  C   UNL d   1      12.029   8.367  -3.234  0.00  0.00     0.058 A 
ATOM     12  C   UNL d   1      11.862   7.145  -3.906  0.00  0.00     0.012 A 
ATOM     13 CL   UNL d   1      12.660   8.390  -1.641  0.00  0.00    -0.082 Cl
ATOM     14  C   UNL d   1      11.349   7.136  -5.213  0.00  0.00     0.006 A 
ENDBRANCH   6   8
ENDBRANCH   4   5
ENDBRANCH   3   4
ENDBRANCH   2   3
ENDBRANCH   1   2
BRANCH   1  15
ATOM     15  N   UNL d   1       7.705   4.894 -12.444  0.00  0.00     0.141 N 
ATOM     16  C   UNL d   1       8.702   4.004 -13.045  0.00  0.00     0.274 C 
ATOM     17  C   UNL d   1       8.267   3.543 -14.426  0.00  0.00     0.137 C 
ATOM     18  N   UNL d   1       6.946   2.943 -14.389  0.00  0.00    -0.344 N 
ATOM     19  C   UNL d   1       5.917   3.742 -13.725  0.00  0.00     0.137 C 
ATOM     20  C   UNL d   1       6.403   4.210 -12.343  0.00  0.00     0.274 C 
BRANCH  18  21
ATOM     21  C   UNL d   1       6.688   1.692 -14.982  0.00  0.00     0.067 A 
ATOM     22  C   UNL d   1       7.241   1.297 -16.238  0.00  0.00     0.073 A 
ATOM     23  C   UNL d   1       6.925   0.036 -16.764  0.00  0.00     0.013 A 
ATOM     24 CL   UNL d   1       8.252   2.297 -17.240  0.00  0.00    -0.081 Cl
ATOM     25  C   UNL d   1       6.045  -0.817 -16.088  0.00  0.00     0.001 A 
ATOM     26  C   UNL d   1       5.511  -0.452 -14.845  0.00  0.00     0.002 A 
ATOM     27  C   UNL d   1       5.833   0.798 -14.294  0.00  0.00     0.018 A 
ENDBRANCH  18  21
ENDBRANCH   1  15
TORSDOF 7
