REMARK  6 active torsions:
REMARK  status: ('A' for Active; 'I' for Inactive)
REMARK    1  A    between atoms: C_2  and  C_3 
REMARK    2  A    between atoms: N_13  and  C_14 
REMARK    3  A    between atoms: C_14  and  C_15 
REMARK    4  A    between atoms: C_15  and  C_17 
REMARK    5  A    between atoms: C_17  and  N_18 
REMARK    6  A    between atoms: N_21  and  C_22 
ROOT
ATOM      1  C   UNL d   1       6.653   5.483 -13.010  0.00  0.00     0.148 C 
ENDROOT
BRANCH   1   2
ATOM      2  N   UNL d   1       7.915   5.005 -13.574  0.00  0.00    -0.247 N 
ATOM      3  C   UNL d   1       9.131   5.569 -13.395  0.00  0.00     0.348 C 
ATOM      4  N   UNL d   1      10.042   4.796 -13.994  0.00  0.00    -0.209 NA
ATOM      5  O   UNL d   1       9.391   6.612 -12.836  0.00  0.00    -0.245 OA
ATOM      6  C   UNL d   1       9.464   3.608 -14.582  0.00  0.00     0.179 C 
ATOM      7  C   UNL d   1      10.069   2.355 -13.927  0.00  0.00     0.039 C 
ATOM      8  C   UNL d   1       8.024   3.807 -14.146  0.00  0.00     0.265 C 
ATOM      9  O   UNL d   1       7.119   2.975 -14.291  0.00  0.00    -0.269 OA
BRANCH   6  10
ATOM     10  C   UNL d   1       9.543   3.594 -16.113  0.00  0.00     0.006 A 
ATOM     11  C   UNL d   1       9.217   2.418 -16.830  0.00  0.00     0.000 A 
ATOM     12  C   UNL d   1       9.299   2.391 -18.233  0.00  0.00     0.029 A 
ATOM     13  C   UNL d   1       9.689   3.541 -18.939  0.00  0.00     0.140 A 
ATOM     14  C   UNL d   1       9.995   4.724 -18.243  0.00  0.00     0.029 A 
ATOM     15  F   UNL d   1       9.765   3.507 -20.289  0.00  0.00    -0.204 F 
ATOM     16  C   UNL d   1       9.922   4.752 -16.839  0.00  0.00     0.000 A 
ENDBRANCH   6  10
ENDBRANCH   1   2
BRANCH   1  17
ATOM     17  C   UNL d   1       6.267   4.803 -11.704  0.00  0.00     0.208 C 
ATOM     18  O   UNL d   1       5.400   3.743 -12.058  0.00  0.00    -0.219 OA
BRANCH  17  19
ATOM     19  C   UNL d   1       7.411   4.169 -10.858  0.00  0.00     0.285 C 
BRANCH  19  20
ATOM     20  N   UNL d   1       8.573   4.966 -10.443  0.00  0.00     0.144 N 
ATOM     21  C   UNL d   1       9.174   4.494  -9.183  0.00  0.00     0.274 C 
ATOM     22  C   UNL d   1      10.353   5.367  -8.803  0.00  0.00     0.137 C 
ATOM     23  N   UNL d   1       9.991   6.747  -8.721  0.00  0.00    -0.344 N 
ATOM     24  C   UNL d   1       9.421   7.278  -9.933  0.00  0.00     0.137 C 
ATOM     25  C   UNL d   1       8.242   6.365 -10.249  0.00  0.00     0.274 C 
BRANCH  23  26
ATOM     26  C   UNL d   1      10.269   7.545  -7.641  0.00  0.00     0.056 A 
ATOM     27  C   UNL d   1      10.399   6.938  -6.379  0.00  0.00     0.018 A 
ATOM     28  C   UNL d   1      10.714   7.679  -5.256  0.00  0.00     0.013 A 
ATOM     29  C   UNL d   1      10.846   9.073  -5.364  0.00  0.00     0.058 A 
ATOM     30  C   UNL d   1      10.710   9.706  -6.615  0.00  0.00     0.013 A 
ATOM     31 CL   UNL d   1      11.121  10.006  -3.962  0.00  0.00    -0.082 Cl
ATOM     32  C   UNL d   1      10.418   8.951  -7.756  0.00  0.00     0.018 A 
ENDBRANCH  23  26
ENDBRANCH  19  20
ENDBRANCH  17  19
ENDBRANCH   1  17
TORSDOF 6
