REMARK  6 active torsions:
REMARK  status: ('A' for Active; 'I' for Inactive)
REMARK    1  A    between atoms: C_4  and  C_5 
REMARK       I    between atoms: C_5  and  N_7 
REMARK    2  A    between atoms: N_7  and  C_8 
REMARK    3  A    between atoms: C_11  and  C_12 
REMARK    4  A    between atoms: C_12  and  C_13 
REMARK    5  A    between atoms: C_13  and  N_14 
REMARK    6  A    between atoms: C_17  and  C_18 
ROOT
ATOM      1  C   UNL d   1       8.484   6.102 -11.730  0.00  0.00     0.035 C 
ENDROOT
BRANCH   1   2
ATOM      2  C   UNL d   1       7.928   5.185 -12.838  0.00  0.00     0.002 C 
ATOM      3  C   UNL d   1       8.784   3.912 -12.999  0.00  0.00     0.002 C 
ATOM      4  C   UNL d   1       8.233   2.969 -14.070  0.00  0.00     0.024 C 
ATOM      5  C   UNL d   1       6.754   2.636 -13.808  0.00  0.00     0.107 C 
ATOM      6  C   UNL d   1       5.877   3.894 -13.696  0.00  0.00     0.024 C 
ATOM      7  C   UNL d   1       6.428   4.847 -12.628  0.00  0.00     0.002 C 
BRANCH   5   8
ATOM      8  N   UNL d   1       6.271   1.724 -14.837  0.00  0.00    -0.234 NA
ATOM      9  C   UNL d   1       6.069   0.406 -14.712  0.00  0.00     0.300 C 
ATOM     10  O   UNL d   1       6.290  -0.224 -13.679  0.00  0.00    -0.263 OA
BRANCH   9  11
ATOM     11  C   UNL d   1       5.484  -0.262 -15.897  0.00  0.00     0.183 A 
ATOM     12  C   UNL d   1       5.492   0.236 -17.174  0.00  0.00     0.049 A 
ATOM     13  C   UNL d   1       4.830  -0.792 -17.907  0.00  0.00     0.088 A 
ATOM     14  C   UNL d   1       4.529  -0.846 -19.373  0.00  0.00     0.055 C 
ATOM     15  N   UNL d   1       4.468  -1.799 -17.134  0.00  0.00    -0.131 NA
ATOM     16  O   UNL d   1       4.890  -1.478 -15.838  0.00  0.00    -0.206 OA
ENDBRANCH   9  11
ENDBRANCH   5   8
ENDBRANCH   1   2
BRANCH   1  17
ATOM     17  C   UNL d   1       8.586   5.400 -10.355  0.00  0.00     0.250 C 
BRANCH  17  18
ATOM     18  N   UNL d   1       9.059   6.288  -9.311  0.00  0.00     0.137 N 
ATOM     19  C   UNL d   1       8.657   5.712  -8.031  0.00  0.00     0.251 C 
ATOM     20  C   UNL d   1       9.036   6.671  -6.896  0.00  0.00     0.040 C 
ATOM     21  C   UNL d   1      10.546   6.948  -6.899  0.00  0.00     0.026 C 
ATOM     22  C   UNL d   1      10.996   7.386  -8.309  0.00  0.00     0.040 C 
ATOM     23  C   UNL d   1      10.511   6.411  -9.370  0.00  0.00     0.251 C 
BRANCH  21  24
ATOM     24  C   UNL d   1      10.918   7.971  -5.837  0.00  0.00    -0.024 A 
ATOM     25  C   UNL d   1      11.510   7.612  -4.607  0.00  0.00    -0.001 A 
ATOM     26  C   UNL d   1      11.845   8.538  -3.631  0.00  0.00     0.090 A 
ATOM     27  C   UNL d   1      11.865   6.265  -4.112  0.00  0.00     0.061 A 
ATOM     28  C   UNL d   1      11.572   9.892  -3.824  0.00  0.00     0.024 A 
ATOM     29  O   UNL d   1      12.400   7.986  -2.512  0.00  0.00    -0.331 OA
ATOM     30  C   UNL d   1      11.000  10.293  -5.050  0.00  0.00     0.002 A 
ATOM     31  C   UNL d   1      10.664   9.349  -6.037  0.00  0.00    -0.004 A 
ATOM     32  C   UNL d   1      12.426   6.565  -2.701  0.00  0.00     0.154 A 
ENDBRANCH  21  24
ENDBRANCH  17  18
ENDBRANCH   1  17
TORSDOF 6
