REMARK  7 active torsions:
REMARK  status: ('A' for Active; 'I' for Inactive)
REMARK    1  A    between atoms: C_2  and  C_3 
REMARK    2  A    between atoms: C_3  and  C_4 
REMARK    3  A    between atoms: C_4  and  C_5 
REMARK    4  A    between atoms: C_5  and  O_6 
REMARK    5  A    between atoms: C_5  and  C_15 
REMARK    6  A    between atoms: O_6  and  C_7 
REMARK    7  A    between atoms: C_20  and  N_21 
ROOT
ATOM      1  C   UNL d   1       9.926   4.504 -13.396  0.00  0.00     0.203 A 
ATOM      2  N   UNL d   1       9.760   3.186 -13.355  0.00  0.00    -0.039 NA
ATOM      3  C   UNL d   1      10.347   2.556 -14.361  0.00  0.00     0.785 A 
ATOM      4  N   UNL d   1      10.042   1.243 -14.487  0.00  0.00     0.063 N 
ATOM      5  N   UNL d   1      11.116   3.075 -15.291  0.00  0.00     0.134 NA
ATOM      6  C   UNL d   1      11.281   4.392 -15.181  0.00  0.00     0.744 A 
ATOM      7  N   UNL d   1      10.696   5.176 -14.256  0.00  0.00    -0.043 NA
ENDROOT
BRANCH   1   8
ATOM      8  C   UNL d   1       9.168   5.354 -12.368  0.00  0.00     0.180 C 
BRANCH   8   9
ATOM      9  C   UNL d   1       7.637   5.367 -12.549  0.00  0.00     0.038 C 
BRANCH   9  10
ATOM     10  C   UNL d   1       6.942   3.997 -12.374  0.00  0.00     0.003 C 
BRANCH  10  11
ATOM     11  C   UNL d   1       5.445   4.035 -12.600  0.00  0.00     0.000 C 
ATOM     12  C   UNL d   1       4.878   2.611 -12.662  0.00  0.00     0.000 C 
ENDBRANCH  10  11
ENDBRANCH   9  10
ENDBRANCH   8   9
BRANCH   8  13
ATOM     13  O   UNL d   1       9.456   4.941 -11.040  0.00  0.00    -0.325 OA
BRANCH  13  14
ATOM     14  C   UNL d   1       9.622   5.888 -10.044  0.00  0.00     0.106 A 
ATOM     15  C   UNL d   1       9.295   5.501  -8.731  0.00  0.00     0.080 A 
ATOM     16  C   UNL d   1       9.496   6.355  -7.630  0.00  0.00     0.014 A 
ATOM     17 CL   UNL d   1       8.664   3.944  -8.461  0.00  0.00    -0.080 Cl
ATOM     18  C   UNL d   1      10.045   7.630  -7.834  0.00  0.00     0.012 A 
ATOM     19  C   UNL d   1      10.378   8.025  -9.141  0.00  0.00     0.060 A 
ATOM     20  C   UNL d   1      10.187   7.169 -10.237  0.00  0.00     0.036 A 
ATOM     21 CL   UNL d   1      11.060   9.565  -9.417  0.00  0.00    -0.082 Cl
ENDBRANCH  13  14
ENDBRANCH   8  13
ENDBRANCH   1   8
BRANCH   6  22
ATOM     22  N   UNL d   1      12.147   5.007 -16.085  0.00  0.00    -0.178 N 
ATOM     23  C   UNL d   1      12.968   4.259 -17.046  0.00  0.00     0.155 C 
ATOM     24  C   UNL d   1      12.722   4.779 -18.470  0.00  0.00     0.275 C 
ATOM     25  N   UNL d   1      13.030   6.206 -18.540  0.00  0.00     0.143 N 
ATOM     26  C   UNL d   1      12.131   6.925 -17.637  0.00  0.00     0.275 C 
ATOM     27  C   UNL d   1      12.829   6.676 -19.899  0.00  0.00     0.286 C 
ATOM     28  C   UNL d   1      12.347   6.457 -16.184  0.00  0.00     0.155 C 
ENDBRANCH   6  22
TORSDOF 7
