REMARK  8 active torsions:
REMARK  status: ('A' for Active; 'I' for Inactive)
REMARK    1  A    between atoms: C_3  and  S_4 
REMARK    2  A    between atoms: S_4  and  C_5 
REMARK    3  A    between atoms: C_5  and  C_6 
REMARK    4  A    between atoms: C_6  and  C_7 
REMARK    5  A    between atoms: C_7  and  N_8 
REMARK    6  A    between atoms: C_13  and  C_14 
REMARK    7  A    between atoms: C_17  and  C_18 
REMARK    8  A    between atoms: C_27  and  C_28 
ROOT
ATOM      1  N   UNL d   1       8.868   1.891 -15.085  0.00  0.00     0.137 N 
ATOM      2  C   UNL d   1       8.227   0.746 -14.431  0.00  0.00     0.250 C 
ATOM      3  C   UNL d   1       6.923   1.346 -13.894  0.00  0.00     0.038 C 
ATOM      4  C   UNL d   1       7.224   2.824 -13.671  0.00  0.00     0.037 A 
ATOM      5  C   UNL d   1       6.161   3.867 -13.918  0.00  0.00     0.007 A 
ATOM      6  C   UNL d   1       6.692   3.709 -12.531  0.00  0.00     0.024 A 
ATOM      7  C   UNL d   1       8.665   2.973 -14.129  0.00  0.00     0.251 C 
ENDROOT
BRANCH   1   8
ATOM      8  C   UNL d   1      10.283   1.660 -15.333  0.00  0.00     0.251 C 
BRANCH   8   9
ATOM      9  C   UNL d   1      10.802   2.636 -16.397  0.00  0.00     0.047 C 
BRANCH   9  10
ATOM     10  C   UNL d   1      12.277   2.362 -16.721  0.00  0.00     0.067 C 
BRANCH  10  11
ATOM     11  S   UNL d   1      12.725   2.954 -18.375  0.00  0.00    -0.075 SA
BRANCH  11  12
ATOM     12  C   UNL d   1      13.014   4.670 -18.092  0.00  0.00     0.193 A 
ATOM     13  N   UNL d   1      13.377   5.510 -19.091  0.00  0.00    -0.287 N 
ATOM     14  C   UNL d   1      13.555   5.192 -20.512  0.00  0.00     0.134 C 
ATOM     15  C   UNL d   1      13.575   6.676 -18.404  0.00  0.00     0.185 A 
ATOM     16  N   UNL d   1      13.310   6.537 -17.094  0.00  0.00    -0.127 NA
ATOM     17  N   UNL d   1      12.937   5.239 -16.893  0.00  0.00    -0.122 NA
BRANCH  15  18
ATOM     18  C   UNL d   1      14.004   7.970 -18.949  0.00  0.00     0.117 A 
ATOM     19  N   UNL d   1      14.687   8.776 -18.084  0.00  0.00    -0.241 NA
ATOM     20  C   UNL d   1      15.085   9.998 -18.487  0.00  0.00     0.099 A 
ATOM     21  C   UNL d   1      14.875  10.455 -19.800  0.00  0.00     0.021 A 
ATOM     22  C   UNL d   1      14.184   9.621 -20.702  0.00  0.00     0.003 A 
ATOM     23  C   UNL d   1      13.707   8.365 -20.271  0.00  0.00     0.022 A 
ENDBRANCH  15  18
ENDBRANCH  11  12
ENDBRANCH  10  11
ENDBRANCH   9  10
ENDBRANCH   8   9
ENDBRANCH   1   8
BRANCH   6  24
ATOM     24  C   UNL d   1       7.601   4.745 -11.887  0.00  0.00    -0.022 A 
ATOM     25  C   UNL d   1       7.887   4.678 -10.509  0.00  0.00    -0.004 A 
ATOM     26  C   UNL d   1       8.750   5.588  -9.884  0.00  0.00     0.004 A 
ATOM     27  C   UNL d   1       9.332   6.617 -10.635  0.00  0.00     0.071 A 
ATOM     28  C   UNL d   1       9.064   6.706 -12.020  0.00  0.00     0.004 A 
ATOM     29  C   UNL d   1       8.205   5.785 -12.643  0.00  0.00    -0.004 A 
BRANCH  27  30
ATOM     30  C   UNL d   1      10.227   7.641  -9.979  0.00  0.00     0.419 C 
ATOM     31  F   UNL d   1      11.481   7.193 -10.018  0.00  0.00    -0.166 F 
ATOM     32  F   UNL d   1      10.154   8.783 -10.636  0.00  0.00    -0.166 F 
ATOM     33  F   UNL d   1       9.861   7.850  -8.710  0.00  0.00    -0.166 F 
ENDBRANCH  27  30
ENDBRANCH   6  24
TORSDOF 8
