REMARK  7 active torsions:
REMARK  status: ('A' for Active; 'I' for Inactive)
REMARK    1  A    between atoms: S_2  and  N_4 
REMARK    2  A    between atoms: S_2  and  C_22 
REMARK    3  A    between atoms: N_4  and  C_5 
REMARK    4  A    between atoms: N_8  and  C_9 
REMARK    5  A    between atoms: C_9  and  C_10 
REMARK    6  A    between atoms: C_10  and  C_11 
REMARK    7  A    between atoms: C_11  and  C_12 
ROOT
ATOM      1  C   UNL d   1       9.479   5.922  -9.866  0.00  0.00     0.151 C 
ATOM      2  C   UNL d   1       8.344   4.975  -9.507  0.00  0.00     0.063 C 
ATOM      3  C   UNL d   1       7.619   4.740 -10.840  0.00  0.00     0.252 C 
ATOM      4  N   UNL d   1       8.646   4.983 -11.842  0.00  0.00     0.139 N 
ATOM      5  C   UNL d   1       9.299   6.196 -11.355  0.00  0.00     0.275 C 
ENDROOT
BRANCH   1   6
ATOM      6  N   UNL d   1       9.394   7.171  -9.126  0.00  0.00    -0.183 NA
BRANCH   6   7
ATOM      7  S   UNL d   1      10.748   8.194  -8.938  0.00  0.00     0.303 S 
ATOM      8  O   UNL d   1      11.892   7.593  -9.633  0.00  0.00    -0.197 OA
ATOM      9  O   UNL d   1      10.342   9.570  -9.243  0.00  0.00    -0.197 OA
BRANCH   7  10
ATOM     10  C   UNL d   1      11.077   8.057  -7.188  0.00  0.00     0.204 A 
ATOM     11  O   UNL d   1      11.121   9.191  -6.421  0.00  0.00    -0.295 OA
ATOM     12  C   UNL d   1      11.394   8.778  -5.131  0.00  0.00     0.101 A 
ATOM     13  C   UNL d   1      11.496   7.366  -5.089  0.00  0.00     0.025 A 
ATOM     14  C   UNL d   1      11.557   9.588  -3.996  0.00  0.00     0.025 A 
ATOM     15  C   UNL d   1      11.286   6.921  -6.440  0.00  0.00     0.040 A 
ATOM     16  C   UNL d   1      11.829   6.787  -3.839  0.00  0.00     0.002 A 
ATOM     17  C   UNL d   1      12.002   7.581  -2.683  0.00  0.00     0.000 A 
ATOM     18  C   UNL d   1      11.869   8.982  -2.764  0.00  0.00     0.002 A 
ENDBRANCH   7  10
ENDBRANCH   6   7
ENDBRANCH   1   6
BRANCH   4  19
ATOM     19  C   UNL d   1       8.114   5.157 -13.190  0.00  0.00     0.251 C 
BRANCH  19  20
ATOM     20  C   UNL d   1       8.788   4.192 -14.178  0.00  0.00     0.042 C 
BRANCH  20  21
ATOM     21  C   UNL d   1      10.286   3.925 -13.918  0.00  0.00     0.050 C 
BRANCH  21  22
ATOM     22  C   UNL d   1      11.001   3.409 -15.132  0.00  0.00     0.088 A 
ATOM     23  C   UNL d   1      10.874   2.193 -15.829  0.00  0.00     0.041 A 
ATOM     24  C   UNL d   1      11.757   2.191 -16.912  0.00  0.00     0.126 A 
ATOM     25  C   UNL d   1      10.040   1.077 -15.610  0.00  0.00     0.003 A 
ATOM     26  O   UNL d   1      12.408   3.412 -16.850  0.00  0.00    -0.211 OA
ATOM     27  C   UNL d   1      11.861   1.121 -17.810  0.00  0.00     0.027 A 
ATOM     28  N   UNL d   1      11.920   4.160 -15.742  0.00  0.00    -0.131 NA
ATOM     29  C   UNL d   1      11.024   0.003 -17.596  0.00  0.00     0.002 A 
ATOM     30  C   UNL d   1      10.117  -0.012 -16.506  0.00  0.00     0.000 A 
ENDBRANCH  21  22
ENDBRANCH  20  21
ENDBRANCH  19  20
ENDBRANCH   4  19
TORSDOF 7
