REMARK  7 active torsions:
REMARK  status: ('A' for Active; 'I' for Inactive)
REMARK    1  A    between atoms: C_2  and  O_3 
REMARK    2  A    between atoms: O_3  and  N_4 
REMARK    3  A    between atoms: C_5  and  C_6 
REMARK    4  A    between atoms: C_5  and  C_21 
REMARK    5  A    between atoms: C_6  and  C_7 
REMARK    6  A    between atoms: C_7  and  N_8 
REMARK    7  A    between atoms: N_11  and  C_12 
ROOT
ATOM      1  N   UNL d   1      11.928   3.995 -15.537  0.00  0.00     0.141 N 
ATOM      2  C   UNL d   1      11.736   4.138 -14.088  0.00  0.00     0.274 C 
ATOM      3  C   UNL d   1      10.635   3.167 -13.595  0.00  0.00     0.138 C 
ATOM      4  N   UNL d   1       9.417   3.366 -14.359  0.00  0.00    -0.330 N 
ATOM      5  C   UNL d   1       9.579   3.313 -15.799  0.00  0.00     0.138 C 
ATOM      6  C   UNL d   1      10.665   4.309 -16.222  0.00  0.00     0.274 C 
ENDROOT
BRANCH   1   7
ATOM      7  C   UNL d   1      12.951   4.942 -15.965  0.00  0.00     0.257 C 
BRANCH   7   8
ATOM      8  C   UNL d   1      13.461   4.668 -17.400  0.00  0.00     0.083 C 
BRANCH   8   9
ATOM      9  C   UNL d   1      13.968   5.950 -18.064  0.00  0.00     0.087 C 
ATOM     10  N   UNL d   1      13.194   6.779 -18.645  0.00  0.00    -0.136 NA
BRANCH  10  11
ATOM     11  O   UNL d   1      11.839   6.412 -18.603  0.00  0.00    -0.237 OA
BRANCH  11  12
ATOM     12  C   UNL d   1      11.093   7.403 -19.295  0.00  0.00     0.176 C 
ATOM     13  C   UNL d   1      11.313   7.341 -20.817  0.00  0.00     0.038 C 
ENDBRANCH  11  12
ENDBRANCH  10  11
BRANCH   9  14
ATOM     14  C   UNL d   1      15.433   6.182 -18.016  0.00  0.00     0.016 A 
ATOM     15  C   UNL d   1      16.200   5.739 -16.914  0.00  0.00     0.001 A 
ATOM     16  C   UNL d   1      17.582   5.992 -16.847  0.00  0.00     0.000 A 
ATOM     17  C   UNL d   1      18.216   6.713 -17.876  0.00  0.00     0.000 A 
ATOM     18  C   UNL d   1      17.466   7.163 -18.977  0.00  0.00     0.000 A 
ATOM     19  C   UNL d   1      16.081   6.907 -19.044  0.00  0.00     0.001 A 
ENDBRANCH   9  14
ENDBRANCH   8   9
ENDBRANCH   7   8
ENDBRANCH   1   7
BRANCH   4  20
ATOM     20  C   UNL d   1       8.171   3.603 -13.763  0.00  0.00     0.136 A 
ATOM     21  C   UNL d   1       7.960   4.665 -12.841  0.00  0.00     0.012 A 
ATOM     22  C   UNL d   1       6.682   4.812 -12.265  0.00  0.00     0.000 A 
ATOM     23  C   UNL d   1       9.032   5.672 -12.478  0.00  0.00     0.034 C 
ATOM     24  C   UNL d   1       5.668   3.912 -12.625  0.00  0.00     0.021 A 
ATOM     25  C   UNL d   1       5.975   2.897 -13.547  0.00  0.00     0.101 A 
ATOM     26  N   UNL d   1       7.183   2.759 -14.123  0.00  0.00    -0.228 NA
ENDBRANCH   4  20
TORSDOF 7
