REMARK  7 active torsions:
REMARK  status: ('A' for Active; 'I' for Inactive)
REMARK    1  A    between atoms: C_2  and  C_3 
REMARK       I    between atoms: C_2  and  N_11 
REMARK    2  A    between atoms: C_14  and  C_16 
REMARK    3  A    between atoms: C_16  and  N_17 
REMARK    4  A    between atoms: N_17  and  C_18 
REMARK    5  A    between atoms: C_18  and  C_19 
REMARK    6  A    between atoms: C_19  and  O_20 
REMARK    7  A    between atoms: O_20  and  C_21 
ROOT
ATOM      1  O   UNL d   1      10.746   9.178 -10.182  0.00  0.00    -0.267 OA
ATOM      2  C   UNL d   1      10.274   8.157  -9.656  0.00  0.00     0.257 C 
ATOM      3  N   UNL d   1       9.507   7.260 -10.320  0.00  0.00    -0.317 N 
ATOM      4  C   UNL d   1       9.176   7.434 -11.750  0.00  0.00     0.107 C 
ATOM      5  C   UNL d   1       9.477   6.148 -12.544  0.00  0.00     0.059 C 
ATOM      6  C   UNL d   1       8.818   4.908 -11.926  0.00  0.00     0.172 C 
ATOM      7  F   UNL d   1       7.489   5.017 -12.057  0.00  0.00    -0.238 F 
ATOM      8  C   UNL d   1       9.144   4.832 -10.417  0.00  0.00     0.059 C 
ATOM      9  C   UNL d   1       8.761   6.136  -9.709  0.00  0.00     0.107 C 
ENDROOT
BRANCH   6  10
ATOM     10  C   UNL d   1       9.323   3.657 -12.669  0.00  0.00     0.323 C 
BRANCH  10  11
ATOM     11  N   UNL d   1       8.671   3.510 -13.952  0.00  0.00     0.345 N 
BRANCH  11  12
ATOM     12  C   UNL d   1       8.950   2.198 -14.491  0.00  0.00     0.323 C 
BRANCH  12  13
ATOM     13  C   UNL d   1       8.193   2.024 -15.823  0.00  0.00     0.187 C 
BRANCH  13  14
ATOM     14  O   UNL d   1       8.482   0.759 -16.412  0.00  0.00    -0.327 OA
BRANCH  14  15
ATOM     15  C   UNL d   1       9.697   0.589 -17.046  0.00  0.00     0.117 A 
ATOM     16  C   UNL d   1       9.974  -0.619 -17.728  0.00  0.00     0.146 A 
ATOM     17  N   UNL d   1      11.133  -0.835 -18.397  0.00  0.00    -0.144 NA
ATOM     18  N   UNL d   1      12.086   0.102 -18.401  0.00  0.00    -0.146 NA
ATOM     19  C   UNL d   1      11.890   1.270 -17.749  0.00  0.00     0.124 A 
ATOM     20  C   UNL d   1      10.708   1.578 -17.058  0.00  0.00     0.048 A 
ENDBRANCH  14  15
ENDBRANCH  13  14
ENDBRANCH  12  13
ENDBRANCH  11  12
ENDBRANCH  10  11
ENDBRANCH   6  10
BRANCH   2  21
ATOM     21  C   UNL d   1      10.575   7.946  -8.203  0.00  0.00     0.057 A 
ATOM     22  C   UNL d   1      10.537   9.016  -7.286  0.00  0.00     0.018 A 
ATOM     23  C   UNL d   1      10.846   8.831  -5.929  0.00  0.00     0.085 A 
ATOM     24  C   UNL d   1      11.267   7.561  -5.483  0.00  0.00     0.151 A 
ATOM     25 CL   UNL d   1      10.774  10.152  -4.827  0.00  0.00    -0.080 Cl
ATOM     26  C   UNL d   1      11.388   6.507  -6.402  0.00  0.00     0.031 A 
ATOM     27  F   UNL d   1      11.535   7.328  -4.179  0.00  0.00    -0.203 F 
ATOM     28  C   UNL d   1      11.005   6.684  -7.743  0.00  0.00     0.007 A 
ENDBRANCH   2  21
TORSDOF 7
