REMARK  6 active torsions:
REMARK  status: ('A' for Active; 'I' for Inactive)
REMARK    1  A    between atoms: N_5  and  C_6 
REMARK    2  A    between atoms: C_11  and  C_12 
REMARK    3  A    between atoms: C_12  and  C_13 
REMARK    4  A    between atoms: C_13  and  C_14 
REMARK    5  A    between atoms: C_14  and  O_15 
REMARK    6  A    between atoms: O_15  and  C_16 
ROOT
ATOM      1  C   UNL d   1      10.010   3.657 -16.567  0.00  0.00     0.744 A 
ATOM      2  N   UNL d   1      10.053   2.323 -16.610  0.00  0.00     0.134 NA
ATOM      3  C   UNL d   1       9.588   1.767 -15.495  0.00  0.00     0.785 A 
ATOM      4  N   UNL d   1       9.618   0.400 -15.456  0.00  0.00     0.063 N 
ATOM      5  N   UNL d   1       9.103   2.365 -14.415  0.00  0.00    -0.042 NA
ATOM      6  C   UNL d   1       9.115   3.694 -14.528  0.00  0.00     0.176 A 
ATOM      7  N   UNL d   1       9.566   4.409 -15.559  0.00  0.00    -0.045 NA
ENDROOT
BRANCH   6   8
ATOM      8  C   UNL d   1       8.567   4.495 -13.356  0.00  0.00     0.070 C 
BRANCH   8   9
ATOM      9  C   UNL d   1       9.657   4.936 -12.370  0.00  0.00     0.041 C 
BRANCH   9  10
ATOM     10  C   UNL d   1       9.097   5.847 -11.263  0.00  0.00     0.149 C 
BRANCH  10  11
ATOM     11  O   UNL d   1      10.187   6.374 -10.500  0.00  0.00    -0.330 OA
BRANCH  11  12
ATOM     12  C   UNL d   1       9.988   6.782  -9.195  0.00  0.00     0.105 A 
ATOM     13  C   UNL d   1      10.880   7.743  -8.654  0.00  0.00     0.090 A 
ATOM     14  C   UNL d   1      10.732   8.191  -7.320  0.00  0.00     0.070 A 
ATOM     15 CL   UNL d   1      12.153   8.381  -9.634  0.00  0.00    -0.079 Cl
ATOM     16  C   UNL d   1       9.703   7.671  -6.519  0.00  0.00     0.012 A 
ATOM     17 CL   UNL d   1      11.790   9.375  -6.629  0.00  0.00    -0.081 Cl
ATOM     18  C   UNL d   1       8.824   6.714  -7.046  0.00  0.00     0.003 A 
ATOM     19  C   UNL d   1       8.973   6.255  -8.360  0.00  0.00     0.025 A 
ENDBRANCH  11  12
ENDBRANCH  10  11
ENDBRANCH   9  10
ENDBRANCH   8   9
ENDBRANCH   6   8
BRANCH   1  20
ATOM     20  N   UNL d   1      10.465   4.345 -17.707  0.00  0.00    -0.178 N 
ATOM     21  C   UNL d   1      11.330   3.743 -18.721  0.00  0.00     0.155 C 
ATOM     22  C   UNL d   1      12.583   4.617 -18.940  0.00  0.00     0.275 C 
ATOM     23  N   UNL d   1      12.196   5.979 -19.321  0.00  0.00     0.143 N 
ATOM     24  C   UNL d   1      13.377   6.784 -19.546  0.00  0.00     0.286 C 
ATOM     25  C   UNL d   1      11.407   6.561 -18.231  0.00  0.00     0.275 C 
ATOM     26  C   UNL d   1      10.129   5.737 -18.002  0.00  0.00     0.155 C 
ENDBRANCH   1  20
TORSDOF 6
