REMARK  4 active torsions:
REMARK  status: ('A' for Active; 'I' for Inactive)
REMARK    1  A    between atoms: C_13  and  C_14 
REMARK    2  A    between atoms: C_14  and  N_15 
REMARK    3  A    between atoms: N_15  and  C_16 
REMARK    4  A    between atoms: C_16  and  C_17 
ROOT
ATOM      1  O   UNL d   1      11.454   1.008 -16.332  0.00  0.00    -0.147 OA
ATOM      2  C   UNL d   1      10.533   1.673 -15.575  0.00  0.00     0.301 A 
ATOM      3  N   UNL d   1      10.693   2.632 -14.657  0.00  0.00    -0.200 NA
ATOM      4  C   UNL d   1       9.359   2.935 -14.289  0.00  0.00     0.125 A 
ATOM      5  C   UNL d   1       8.768   3.861 -13.389  0.00  0.00     0.109 A 
ATOM      6  C   UNL d   1       7.344   3.883 -13.271  0.00  0.00     0.002 A 
ATOM      7  C   UNL d   1       6.559   3.021 -14.045  0.00  0.00    -0.001 A 
ATOM      8  C   UNL d   1       7.088   2.107 -14.947  0.00  0.00     0.021 A 
ATOM      9  C   UNL d   1       8.485   2.083 -15.052  0.00  0.00     0.105 A 
ATOM     10  N   UNL d   1       9.280   1.316 -15.849  0.00  0.00    -0.202 NA
ATOM     11  C   UNL d   1       6.655   4.792 -12.315  0.00  0.00     0.031 C 
ATOM     12  C   UNL d   1       7.583   5.399 -11.298  0.00  0.00     0.037 C 
ATOM     13  C   UNL d   1       8.877   5.824 -12.026  0.00  0.00     0.158 C 
ATOM     14  O   UNL d   1       9.562   4.708 -12.642  0.00  0.00    -0.330 OA
ENDROOT
BRANCH  13  15
ATOM     15  C   UNL d   1       9.790   6.493 -11.001  0.00  0.00     0.320 C 
BRANCH  15  16
ATOM     16  N   UNL d   1       9.470   7.912 -10.826  0.00  0.00     0.346 N 
BRANCH  16  17
ATOM     17  C   UNL d   1      10.451   8.574  -9.964  0.00  0.00     0.317 C 
BRANCH  17  18
ATOM     18  C   UNL d   1      10.398   8.168  -8.495  0.00  0.00     0.014 A 
ATOM     19  C   UNL d   1      11.390   8.653  -7.606  0.00  0.00    -0.002 A 
ATOM     20  C   UNL d   1      11.395   8.236  -6.256  0.00  0.00    -0.000 A 
ATOM     21  C   UNL d   1      10.447   7.295  -5.803  0.00  0.00    -0.000 A 
ATOM     22  C   UNL d   1       9.453   6.831  -6.675  0.00  0.00    -0.000 A 
ATOM     23  C   UNL d   1       9.396   7.308  -7.985  0.00  0.00    -0.002 A 
ENDBRANCH  17  18
ENDBRANCH  16  17
ENDBRANCH  15  16
ENDBRANCH  13  15
TORSDOF 4
