REMARK  7 active torsions:
REMARK  status: ('A' for Active; 'I' for Inactive)
REMARK    1  A    between atoms: C_2  and  C_4 
REMARK    2  A    between atoms: C_4  and  C_5 
REMARK       I    between atoms: C_5  and  N_7 
REMARK    3  A    between atoms: N_7  and  C_8 
REMARK    4  A    between atoms: C_11  and  C_12 
REMARK    5  A    between atoms: C_12  and  C_13 
REMARK    6  A    between atoms: C_13  and  N_14 
REMARK    7  A    between atoms: C_17  and  C_18 
ROOT
ATOM      1  N   UNL d   1       8.964   5.733  -9.293  0.00  0.00     0.137 N 
ATOM      2  C   UNL d   1      10.372   6.057  -9.468  0.00  0.00     0.251 C 
ATOM      3  C   UNL d   1      10.790   7.227  -8.596  0.00  0.00     0.040 C 
ATOM      4  C   UNL d   1      10.564   6.907  -7.112  0.00  0.00     0.028 C 
ATOM      5  C   UNL d   1       9.116   6.426  -6.933  0.00  0.00     0.040 C 
ATOM      6  C   UNL d   1       8.795   5.291  -7.917  0.00  0.00     0.251 C 
ENDROOT
BRANCH   1   7
ATOM      7  C   UNL d   1       8.652   4.612 -10.163  0.00  0.00     0.250 C 
BRANCH   7   8
ATOM      8  C   UNL d   1       8.212   5.100 -11.542  0.00  0.00     0.035 C 
BRANCH   8   9
ATOM      9  C   UNL d   1       7.777   3.932 -12.456  0.00  0.00     0.002 C 
ATOM     10  C   UNL d   1       6.910   4.380 -13.600  0.00  0.00     0.002 C 
ATOM     11  C   UNL d   1       6.484   3.158 -14.419  0.00  0.00     0.024 C 
ATOM     12  C   UNL d   1       7.698   2.524 -15.123  0.00  0.00     0.106 C 
ATOM     13  C   UNL d   1       8.662   2.011 -14.069  0.00  0.00     0.024 C 
ATOM     14  C   UNL d   1       9.007   3.178 -13.075  0.00  0.00     0.002 C 
BRANCH  12  15
ATOM     15  N   UNL d   1       7.255   1.426 -15.981  0.00  0.00    -0.240 NA
ATOM     16  C   UNL d   1       7.445   1.345 -17.308  0.00  0.00     0.251 C 
ATOM     17  O   UNL d   1       7.875   2.273 -17.988  0.00  0.00    -0.271 OA
BRANCH  16  18
ATOM     18  C   UNL d   1       7.159  -0.016 -17.943  0.00  0.00     0.090 C 
BRANCH  18  19
ATOM     19  C   UNL d   1       6.709   0.051 -19.421  0.00  0.00     0.009 C 
ATOM     20  C   UNL d   1       5.271   0.577 -19.555  0.00  0.00     0.001 C 
ATOM     21  C   UNL d   1       6.860  -1.315 -20.097  0.00  0.00     0.001 C 
ENDBRANCH  18  19
ENDBRANCH  16  18
ENDBRANCH  12  15
ENDBRANCH   8   9
ENDBRANCH   7   8
ENDBRANCH   1   7
BRANCH   4  22
ATOM     22  C   UNL d   1      10.869   8.105  -6.252  0.00  0.00     0.004 A 
ATOM     23  C   UNL d   1      11.395   8.132  -4.908  0.00  0.00     0.021 A 
ATOM     24  C   UNL d   1      11.434   9.504  -4.540  0.00  0.00     0.100 A 
ATOM     25  C   UNL d   1      11.804   7.188  -3.944  0.00  0.00     0.002 A 
ATOM     26  O   UNL d   1      10.995  10.283  -5.589  0.00  0.00    -0.305 OA
ATOM     27  C   UNL d   1      11.841   9.961  -3.266  0.00  0.00     0.025 A 
ATOM     28  C   UNL d   1      10.668   9.406  -6.590  0.00  0.00     0.118 A 
ATOM     29  C   UNL d   1      12.259   8.977  -2.342  0.00  0.00     0.002 A 
ATOM     30  C   UNL d   1      12.243   7.614  -2.665  0.00  0.00     0.000 A 
ENDBRANCH   4  22
TORSDOF 7
