REMARK  4 active torsions:
REMARK  status: ('A' for Active; 'I' for Inactive)
REMARK    1  A    between atoms: C_5  and  N_6 
REMARK    2  A    between atoms: N_9  and  C_10 
REMARK    3  A    between atoms: C_10  and  C_11 
REMARK    4  A    between atoms: C_11  and  C_12 
ROOT
ATOM      1  N   UNL d   1       8.612   5.258 -11.999  0.00  0.00    -0.344 N 
ATOM      2  C   UNL d   1       7.762   4.648 -10.973  0.00  0.00     0.137 C 
ATOM      3  C   UNL d   1       8.504   4.632  -9.625  0.00  0.00     0.274 C 
ATOM      4  N   UNL d   1       8.860   5.985  -9.229  0.00  0.00     0.141 N 
ATOM      5  C   UNL d   1       9.744   6.574 -10.240  0.00  0.00     0.274 C 
ATOM      6  C   UNL d   1       9.076   6.604 -11.630  0.00  0.00     0.137 C 
ENDROOT
BRANCH   4   7
ATOM      7  C   UNL d   1       9.464   5.977  -7.912  0.00  0.00     0.253 C 
BRANCH   7   8
ATOM      8  C   UNL d   1       9.544   7.394  -7.319  0.00  0.00     0.064 C 
BRANCH   8   9
ATOM      9  C   UNL d   1      10.998   7.826  -7.054  0.00  0.00     0.131 A 
ATOM     10  C   UNL d   1      11.398   7.742  -5.596  0.00  0.00     0.005 A 
ATOM     11  C   UNL d   1      11.742   9.003  -5.146  0.00  0.00     0.055 A 
ATOM     12  C   UNL d   1      11.456   6.632  -4.745  0.00  0.00    -0.002 A 
ATOM     13  C   UNL d   1      11.601   9.960  -6.267  0.00  0.00     0.275 A 
ATOM     14  C   UNL d   1      12.168   9.223  -3.821  0.00  0.00     0.004 A 
ATOM     15  N   UNL d   1      11.161   9.255  -7.317  0.00  0.00    -0.232 NA
ATOM     16  O   UNL d   1      11.858  11.150  -6.255  0.00  0.00    -0.266 OA
ATOM     17  C   UNL d   1      12.237   8.115  -2.950  0.00  0.00     0.000 A 
ATOM     18  C   UNL d   1      11.875   6.826  -3.409  0.00  0.00    -0.000 A 
ENDBRANCH   8   9
ENDBRANCH   7   8
ENDBRANCH   4   7
BRANCH   1  19
ATOM     19  C   UNL d   1       8.916   4.618 -13.216  0.00  0.00     0.056 A 
ATOM     20  C   UNL d   1       8.127   3.539 -13.708  0.00  0.00     0.017 A 
ATOM     21  C   UNL d   1       8.466   2.868 -14.889  0.00  0.00    -0.003 A 
ATOM     22  C   UNL d   1       9.563   3.292 -15.663  0.00  0.00    -0.026 A 
ATOM     23  C   UNL d   1       9.861   2.588 -16.971  0.00  0.00     0.031 C 
ATOM     24  C   UNL d   1      10.350   4.381 -15.219  0.00  0.00    -0.024 A 
ATOM     25  C   UNL d   1      10.026   5.017 -14.014  0.00  0.00     0.012 A 
ATOM     26  C   UNL d   1      11.538   4.873 -16.027  0.00  0.00     0.031 C 
ENDBRANCH   1  19
TORSDOF 4
