REMARK  7 active torsions:
REMARK  status: ('A' for Active; 'I' for Inactive)
REMARK    1  A    between atoms: C_3  and  C_4 
REMARK    2  A    between atoms: C_4  and  C_5 
REMARK       I    between atoms: C_5  and  N_7 
REMARK    3  A    between atoms: N_7  and  C_8 
REMARK    4  A    between atoms: C_11  and  C_12 
REMARK    5  A    between atoms: C_12  and  C_13 
REMARK    6  A    between atoms: C_13  and  N_14 
REMARK    7  A    between atoms: N_17  and  C_18 
ROOT
ATOM      1  N   UNL d   1       8.707   4.005 -12.597  0.00  0.00     0.141 N 
ATOM      2  C   UNL d   1       9.904   3.989 -13.451  0.00  0.00     0.274 C 
ATOM      3  C   UNL d   1       9.946   2.705 -14.305  0.00  0.00     0.138 C 
ATOM      4  N   UNL d   1       8.705   2.570 -15.060  0.00  0.00    -0.330 N 
ATOM      5  C   UNL d   1       7.478   2.697 -14.290  0.00  0.00     0.138 C 
ATOM      6  C   UNL d   1       7.518   3.977 -13.448  0.00  0.00     0.274 C 
ENDROOT
BRANCH   1   7
ATOM      7  C   UNL d   1       8.663   5.208 -11.773  0.00  0.00     0.250 C 
BRANCH   7   8
ATOM      8  C   UNL d   1       9.212   4.910 -10.371  0.00  0.00     0.035 C 
BRANCH   8   9
ATOM      9  C   UNL d   1       9.032   6.091  -9.417  0.00  0.00     0.002 C 
ATOM     10  C   UNL d   1       9.361   5.684  -7.974  0.00  0.00     0.002 C 
ATOM     11  C   UNL d   1       9.227   6.863  -7.005  0.00  0.00     0.024 C 
ATOM     12  C   UNL d   1      10.104   8.040  -7.470  0.00  0.00     0.106 C 
ATOM     13  C   UNL d   1       9.736   8.491  -8.883  0.00  0.00     0.024 C 
ATOM     14  C   UNL d   1       9.877   7.310  -9.853  0.00  0.00     0.002 C 
BRANCH  12  15
ATOM     15  N   UNL d   1       9.989   9.147  -6.539  0.00  0.00    -0.240 NA
ATOM     16  C   UNL d   1      10.852   9.508  -5.582  0.00  0.00     0.256 C 
ATOM     17  O   UNL d   1      10.653  10.501  -4.884  0.00  0.00    -0.270 OA
BRANCH  16  18
ATOM     18  C   UNL d   1      12.080   8.651  -5.326  0.00  0.00     0.115 C 
BRANCH  18  19
ATOM     19  C   UNL d   1      12.293   8.178  -3.910  0.00  0.00    -0.021 C 
ATOM     20  C   UNL d   1      12.072   6.911  -3.527  0.00  0.00    -0.030 C 
ATOM     21  C   UNL d   1      12.309   6.390  -2.137  0.00  0.00     0.030 C 
ENDBRANCH  18  19
ENDBRANCH  16  18
ENDBRANCH  12  15
ENDBRANCH   8   9
ENDBRANCH   7   8
ENDBRANCH   1   7
BRANCH   4  22
ATOM     22  C   UNL d   1       8.694   2.345 -16.444  0.00  0.00     0.138 A 
ATOM     23  C   UNL d   1       7.773   1.464 -17.062  0.00  0.00     0.036 A 
ATOM     24  C   UNL d   1       7.806   1.270 -18.429  0.00  0.00     0.095 A 
ATOM     25  C   UNL d   1       6.725   0.573 -16.471  0.00  0.00     0.064 C 
ATOM     26  C   UNL d   1       8.738   1.965 -19.215  0.00  0.00     0.045 A 
ATOM     27  O   UNL d   1       6.874   0.375 -18.869  0.00  0.00    -0.331 OA
ATOM     28  C   UNL d   1       9.617   2.836 -18.534  0.00  0.00     0.103 A 
ATOM     29  N   UNL d   1       9.602   3.019 -17.192  0.00  0.00    -0.228 NA
ATOM     30  C   UNL d   1       6.057   0.010 -17.742  0.00  0.00     0.154 C 
ENDBRANCH   4  22
TORSDOF 7
