REMARK  12 active torsions:
REMARK  status: ('A' for Active; 'I' for Inactive)
REMARK    1  A    between atoms: O_2  and  C_3 
REMARK    2  A    between atoms: C_8  and  N_9 
REMARK    3  A    between atoms: N_12  and  C_13 
REMARK    4  A    between atoms: C_13  and  C_14 
REMARK    5  A    between atoms: C_14  and  C_15 
REMARK    6  A    between atoms: C_15  and  C_16 
REMARK    7  A    between atoms: C_16  and  N_17 
REMARK    8  A    between atoms: N_17  and  C_18 
REMARK    9  A    between atoms: C_23  and  N_24 
REMARK   10  A    between atoms: N_24  and  C_25 
REMARK   11  A    between atoms: C_25  and  C_26 
REMARK   12  A    between atoms: C_26  and  C_27 
ROOT
ATOM      1  C   UNL d   1       7.538   5.266 -12.055  0.00  0.00     0.776 A 
ATOM      2  N   UNL d   1       8.143   5.721 -10.948  0.00  0.00     0.136 NA
ATOM      3  C   UNL d   1       9.444   5.908 -11.138  0.00  0.00     0.799 A 
ATOM      4  N   UNL d   1      10.137   6.493 -10.119  0.00  0.00     0.063 N 
ATOM      5  N   UNL d   1      10.172   5.579 -12.225  0.00  0.00     0.136 NA
ATOM      6  C   UNL d   1       9.422   5.065 -13.188  0.00  0.00     0.776 A 
ATOM      7  N   UNL d   1       8.078   4.912 -13.231  0.00  0.00     0.134 NA
ENDROOT
BRANCH   1   8
ATOM      8  N   UNL d   1       6.189   5.093 -11.903  0.00  0.00    -0.085 NA
BRANCH   8   9
ATOM      9  C   UNL d   1       5.418   4.141 -12.699  0.00  0.00     0.145 C 
BRANCH   9  10
ATOM     10  C   UNL d   1       5.937   2.699 -12.571  0.00  0.00     0.029 C 
BRANCH  10  11
ATOM     11  C   UNL d   1       5.284   1.712 -13.499  0.00  0.00     0.037 C 
BRANCH  11  12
ATOM     12  C   UNL d   1       5.986   0.371 -13.688  0.00  0.00     0.251 C 
BRANCH  12  13
ATOM     13  N   UNL d   1       5.365  -0.284 -14.846  0.00  0.00     0.141 N 
ATOM     14  C   UNL d   1       5.439  -1.718 -14.641  0.00  0.00     0.274 C 
ATOM     15  C   UNL d   1       4.784  -2.496 -15.814  0.00  0.00     0.137 C 
ATOM     16  N   UNL d   1       5.386  -2.147 -17.084  0.00  0.00    -0.343 N 
ATOM     17  C   UNL d   1       5.433  -0.703 -17.309  0.00  0.00     0.137 C 
ATOM     18  C   UNL d   1       6.063   0.042 -16.099  0.00  0.00     0.274 C 
BRANCH  16  19
ATOM     19  C   UNL d   1       5.865  -3.153 -17.996  0.00  0.00     0.079 A 
ATOM     20  C   UNL d   1       5.905  -2.981 -19.394  0.00  0.00     0.110 A 
ATOM     21  C   UNL d   1       6.514  -3.960 -20.222  0.00  0.00     0.026 A 
ATOM     22  C   UNL d   1       7.017  -5.162 -19.698  0.00  0.00     0.002 A 
ATOM     23  C   UNL d   1       6.934  -5.374 -18.305  0.00  0.00     0.002 A 
ATOM     24  C   UNL d   1       6.365  -4.385 -17.472  0.00  0.00     0.019 A 
BRANCH  20  25
ATOM     25  O   UNL d   1       5.446  -1.847 -20.041  0.00  0.00    -0.327 OA
ATOM     26  C   UNL d   1       4.046  -1.634 -20.022  0.00  0.00     0.181 C 
ENDBRANCH  20  25
ENDBRANCH  16  19
ENDBRANCH  12  13
ENDBRANCH  11  12
ENDBRANCH  10  11
ENDBRANCH   9  10
ENDBRANCH   8   9
ENDBRANCH   1   8
BRANCH   6  27
ATOM     27  N   UNL d   1      10.150   4.590 -14.267  0.00  0.00    -0.085 NA
BRANCH  27  28
ATOM     28  C   UNL d   1       9.556   4.326 -15.547  0.00  0.00     0.150 C 
BRANCH  28  29
ATOM     29  C   UNL d   1      10.605   4.090 -16.633  0.00  0.00     0.055 C 
BRANCH  29  30
ATOM     30  C   UNL d   1       9.971   3.815 -17.966  0.00  0.00     0.000 A 
ATOM     31  C   UNL d   1       9.633   4.776 -18.988  0.00  0.00     0.015 A 
ATOM     32  C   UNL d   1       9.058   4.068 -20.084  0.00  0.00     0.081 A 
ATOM     33  C   UNL d   1       9.748   6.182 -19.120  0.00  0.00     0.001 A 
ATOM     34  N   UNL d   1       9.047   2.740 -19.707  0.00  0.00    -0.244 NA
ATOM     35  C   UNL d   1       8.616   4.721 -21.248  0.00  0.00     0.019 A 
ATOM     36  C   UNL d   1       9.594   2.587 -18.444  0.00  0.00     0.095 A 
ATOM     37  C   UNL d   1       8.737   6.119 -21.344  0.00  0.00     0.002 A 
ATOM     38  C   UNL d   1       9.306   6.846 -20.283  0.00  0.00     0.000 A 
ENDBRANCH  29  30
ENDBRANCH  28  29
ENDBRANCH  27  28
ENDBRANCH   6  27
TORSDOF 12
