REMARK  4 active torsions:
REMARK  status: ('A' for Active; 'I' for Inactive)
REMARK    1  A    between atoms: C_5  and  C_6 
REMARK    2  A    between atoms: C_8  and  C_9 
REMARK    3  A    between atoms: N_12  and  C_13 
REMARK    4  A    between atoms: C_13  and  C_14 
ROOT
ATOM      1  C   UNL d   1       9.454   7.226  -8.668  0.00  0.00     0.046 C 
ATOM      2  C   UNL d   1      10.838   7.895  -8.839  0.00  0.00     0.041 C 
ATOM      3  C   UNL d   1      11.003   9.020  -7.798  0.00  0.00     0.251 C 
ATOM      4  N   UNL d   1      10.864   8.470  -6.465  0.00  0.00     0.141 N 
ATOM      5  C   UNL d   1       9.520   7.918  -6.277  0.00  0.00     0.251 C 
ATOM      6  C   UNL d   1       9.269   6.757  -7.231  0.00  0.00     0.041 C 
ENDROOT
BRANCH   1   7
ATOM      7  C   UNL d   1       9.236   6.112  -9.642  0.00  0.00     0.082 A 
ATOM      8  C   UNL d   1       8.607   6.102 -10.929  0.00  0.00     0.037 A 
ATOM      9  C   UNL d   1       8.908   4.875 -11.425  0.00  0.00     0.104 A 
ATOM     10  N   UNL d   1       9.674   4.265 -10.482  0.00  0.00    -0.148 NA
ATOM     11  N   UNL d   1       9.825   4.956  -9.354  0.00  0.00    -0.152 NA
BRANCH   9  12
ATOM     12  C   UNL d   1       8.491   4.150 -12.612  0.00  0.00     0.019 A 
ATOM     13  C   UNL d   1       7.112   4.006 -12.871  0.00  0.00     0.002 A 
ATOM     14  C   UNL d   1       6.674   3.274 -13.986  0.00  0.00     0.011 A 
ATOM     15  C   UNL d   1       7.623   2.679 -14.838  0.00  0.00     0.058 A 
ATOM     16 CL   UNL d   1       7.118   1.863 -16.282  0.00  0.00    -0.082 Cl
ATOM     17  C   UNL d   1       9.001   2.806 -14.583  0.00  0.00     0.011 A 
ATOM     18  C   UNL d   1       9.436   3.524 -13.454  0.00  0.00     0.002 A 
ENDBRANCH   9  12
ENDBRANCH   1   7
BRANCH   4  19
ATOM     19  C   UNL d   1      11.111   9.464  -5.445  0.00  0.00     0.277 C 
BRANCH  19  20
ATOM     20  C   UNL d   1      11.631   8.859  -4.144  0.00  0.00     0.011 A 
ATOM     21  C   UNL d   1      11.756   9.717  -3.038  0.00  0.00    -0.002 A 
ATOM     22  C   UNL d   1      12.249   9.225  -1.819  0.00  0.00    -0.000 A 
ATOM     23  C   UNL d   1      12.647   7.903  -1.691  0.00  0.00    -0.000 A 
ATOM     24  C   UNL d   1      12.527   7.022  -2.771  0.00  0.00    -0.000 A 
ATOM     25  C   UNL d   1      12.016   7.499  -4.009  0.00  0.00    -0.002 A 
ENDBRANCH  19  20
ENDBRANCH   4  19
TORSDOF 4
