REMARK  0 active torsions:
REMARK  status: ('A' for Active; 'I' for Inactive)
ROOT
ATOM      1  C   UNL d   1       6.693   7.144 -12.777  0.00  0.00     0.286 C 
ATOM      2  N   UNL d   1       7.097   5.917 -12.101  0.00  0.00     0.142 N 
ATOM      3  C   UNL d   1       8.342   6.091 -11.370  0.00  0.00     0.255 C 
ATOM      4  C   UNL d   1       9.495   6.327 -12.335  0.00  0.00     0.061 C 
ATOM      5  C   UNL d   1       9.730   5.196 -13.350  0.00  0.00    -0.022 C 
ATOM      6  C   UNL d   1      10.917   4.871 -14.049  0.00  0.00    -0.004 C 
ATOM      7  C   UNL d   1      10.999   3.710 -14.824  0.00  0.00    -0.000 C 
ATOM      8  C   UNL d   1       9.870   2.889 -14.970  0.00  0.00    -0.000 C 
ATOM      9  C   UNL d   1       8.623   3.219 -14.391  0.00  0.00    -0.003 C 
ATOM     10  C   UNL d   1       8.586   4.404 -13.604  0.00  0.00     0.005 C 
ATOM     11  C   UNL d   1       7.201   4.782 -13.026  0.00  0.00     0.246 C 
ATOM     12  C   UNL d   1       6.445   3.590 -12.465  0.00  0.00     0.064 C 
ATOM     13  C   UNL d   1       6.421   2.469 -13.514  0.00  0.00    -0.019 C 
ATOM     14  C   UNL d   1       5.435   1.481 -13.408  0.00  0.00     0.004 C 
ATOM     15  C   UNL d   1       5.370   0.462 -14.366  0.00  0.00     0.050 A 
ATOM     16  S   UNL d   1       4.139  -0.788 -14.552  0.00  0.00    -0.045 SA
ATOM     17  C   UNL d   1       4.984  -1.325 -16.015  0.00  0.00     0.215 A 
ATOM     18  N   UNL d   1       4.521  -2.388 -16.755  0.00  0.00    -0.120 N 
ATOM     19  N   UNL d   1       6.086  -0.646 -16.348  0.00  0.00    -0.219 NA
ATOM     20  C   UNL d   1       6.320   0.354 -15.415  0.00  0.00     0.090 A 
ATOM     21  C   UNL d   1       7.396   1.281 -15.416  0.00  0.00     0.019 C 
ATOM     22  C   UNL d   1       7.450   2.334 -14.470  0.00  0.00    -0.003 C 
ENDROOT
TORSDOF 0
