REMARK  7 active torsions:
REMARK  status: ('A' for Active; 'I' for Inactive)
REMARK    1  A    between atoms: S_2  and  N_4 
REMARK    2  A    between atoms: S_2  and  C_22 
REMARK    3  A    between atoms: N_4  and  C_5 
REMARK    4  A    between atoms: N_8  and  C_9 
REMARK    5  A    between atoms: C_9  and  C_10 
REMARK    6  A    between atoms: C_10  and  C_11 
REMARK    7  A    between atoms: C_11  and  C_12 
ROOT
ATOM      1  C   UNL d   1       8.095   5.065 -11.584  0.00  0.00     0.151 C 
ATOM      2  C   UNL d   1       8.713   6.466 -11.866  0.00  0.00     0.063 C 
ATOM      3  C   UNL d   1       9.595   6.679 -10.630  0.00  0.00     0.252 C 
ATOM      4  N   UNL d   1       8.948   5.908  -9.574  0.00  0.00     0.139 N 
ATOM      5  C   UNL d   1       8.616   4.646 -10.205  0.00  0.00     0.275 C 
ENDROOT
BRANCH   4   6
ATOM      6  C   UNL d   1       9.789   5.732  -8.403  0.00  0.00     0.251 C 
BRANCH   6   7
ATOM      7  C   UNL d   1       9.657   6.944  -7.465  0.00  0.00     0.042 C 
BRANCH   7   8
ATOM      8  C   UNL d   1      10.873   7.885  -7.511  0.00  0.00     0.050 C 
BRANCH   8   9
ATOM      9  C   UNL d   1      11.044   8.656  -6.231  0.00  0.00     0.088 A 
ATOM     10  C   UNL d   1      11.465   8.218  -4.956  0.00  0.00     0.041 A 
ATOM     11  C   UNL d   1      11.484   9.306  -4.085  0.00  0.00     0.126 A 
ATOM     12  C   UNL d   1      11.851   6.944  -4.479  0.00  0.00     0.003 A 
ATOM     13  O   UNL d   1      11.054  10.383  -4.841  0.00  0.00    -0.211 OA
ATOM     14  C   UNL d   1      11.871   9.199  -2.745  0.00  0.00     0.027 A 
ATOM     15  N   UNL d   1      10.801   9.963  -6.177  0.00  0.00    -0.131 NA
ATOM     16  C   UNL d   1      12.259   7.930  -2.265  0.00  0.00     0.002 A 
ATOM     17  C   UNL d   1      12.247   6.809  -3.129  0.00  0.00     0.000 A 
ENDBRANCH   8   9
ENDBRANCH   7   8
ENDBRANCH   6   7
ENDBRANCH   4   6
BRANCH   1  18
ATOM     18  N   UNL d   1       8.406   4.017 -12.561  0.00  0.00    -0.185 NA
BRANCH  18  19
ATOM     19  S   UNL d   1       9.475   4.289 -13.886  0.00  0.00     0.281 S 
ATOM     20  O   UNL d   1       8.716   5.164 -14.839  0.00  0.00    -0.199 OA
ATOM     21  O   UNL d   1      10.770   4.712 -13.399  0.00  0.00    -0.199 OA
BRANCH  19  22
ATOM     22  C   UNL d   1       9.637   2.704 -14.651  0.00  0.00     0.105 A 
ATOM     23  C   UNL d   1       8.614   1.729 -14.573  0.00  0.00     0.015 A 
ATOM     24  C   UNL d   1       8.821   0.456 -15.139  0.00  0.00     0.030 A 
ATOM     25  C   UNL d   1      10.044   0.169 -15.800  0.00  0.00     0.140 A 
ATOM     26  C   UNL d   1      11.048   1.147 -15.877  0.00  0.00     0.030 A 
ATOM     27  F   UNL d   1      10.247  -1.042 -16.365  0.00  0.00    -0.204 F 
ATOM     28  C   UNL d   1      10.853   2.411 -15.301  0.00  0.00     0.015 A 
ENDBRANCH  19  22
ENDBRANCH  18  19
ENDBRANCH   1  18
TORSDOF 7
