REMARK  6 active torsions:
REMARK  status: ('A' for Active; 'I' for Inactive)
REMARK       I    between atoms: C_2  and  N_3 
REMARK    1  A    between atoms: C_2  and  C_27 
REMARK    2  A    between atoms: N_3  and  C_4 
REMARK    3  A    between atoms: C_4  and  C_5 
REMARK    4  A    between atoms: C_5  and  C_6 
REMARK    5  A    between atoms: C_6  and  C_7 
REMARK    6  A    between atoms: C_7  and  N_8 
ROOT
ATOM      1  N   UNL d   1       9.556   3.482 -14.141  0.00  0.00     0.141 N 
ATOM      2  C   UNL d   1       8.145   3.163 -14.377  0.00  0.00     0.274 C 
ATOM      3  C   UNL d   1       8.019   1.943 -15.296  0.00  0.00     0.137 C 
ATOM      4  N   UNL d   1       8.668   2.201 -16.576  0.00  0.00    -0.343 N 
ATOM      5  C   UNL d   1       8.271   1.397 -17.657  0.00  0.00     0.053 A 
ATOM      6  C   UNL d   1       7.794   0.071 -17.474  0.00  0.00     0.017 A 
ATOM      7  C   UNL d   1       7.368  -0.695 -18.574  0.00  0.00     0.002 A 
ATOM      8  C   UNL d   1       7.406  -0.151 -19.870  0.00  0.00    -0.000 A 
ATOM      9  C   UNL d   1       7.876   1.163 -20.067  0.00  0.00    -0.003 A 
ATOM     10  C   UNL d   1       8.306   1.931 -18.963  0.00  0.00    -0.002 A 
ATOM     11  C   UNL d   1       8.852   3.329 -19.175  0.00  0.00     0.054 C 
ATOM     12  C   UNL d   1      10.346   3.318 -18.944  0.00  0.00    -0.020 A 
ATOM     13  C   UNL d   1      11.194   3.649 -20.024  0.00  0.00    -0.004 A 
ATOM     14  C   UNL d   1      12.591   3.595 -19.878  0.00  0.00    -0.000 A 
ATOM     15  C   UNL d   1      13.149   3.200 -18.650  0.00  0.00    -0.000 A 
ATOM     16  C   UNL d   1      12.309   2.872 -17.570  0.00  0.00    -0.003 A 
ATOM     17  C   UNL d   1      10.901   2.933 -17.693  0.00  0.00    -0.004 A 
ATOM     18  C   UNL d   1      10.077   2.612 -16.433  0.00  0.00     0.137 C 
ATOM     19  C   UNL d   1      10.163   3.804 -15.440  0.00  0.00     0.277 C 
ENDROOT
BRANCH   1  20
ATOM     20  C   UNL d   1       9.658   4.637 -13.246  0.00  0.00     0.251 C 
BRANCH  20  21
ATOM     21  C   UNL d   1       9.417   4.245 -11.776  0.00  0.00     0.037 C 
BRANCH  21  22
ATOM     22  C   UNL d   1       9.276   5.444 -10.832  0.00  0.00     0.029 C 
BRANCH  22  23
ATOM     23  C   UNL d   1       8.944   5.007  -9.397  0.00  0.00     0.129 C 
BRANCH  23  24
ATOM     24  N   UNL d   1       8.665   6.161  -8.554  0.00  0.00    -0.238 NA
ATOM     25  C   UNL d   1       9.531   6.613  -7.640  0.00  0.00     0.251 C 
ATOM     26  O   UNL d   1      10.574   5.995  -7.386  0.00  0.00    -0.271 OA
BRANCH  25  27
ATOM     27  C   UNL d   1       9.292   7.969  -6.987  0.00  0.00     0.081 C 
ATOM     28  C   UNL d   1      10.249   8.261  -5.790  0.00  0.00     0.009 C 
ATOM     29  C   UNL d   1      11.727   8.460  -6.175  0.00  0.00     0.001 C 
ATOM     30  C   UNL d   1      11.870   9.505  -7.274  0.00  0.00     0.000 C 
ATOM     31  C   UNL d   1      10.967   9.201  -8.486  0.00  0.00     0.001 C 
ATOM     32  C   UNL d   1       9.486   9.043  -8.068  0.00  0.00     0.009 C 
ENDBRANCH  25  27
ENDBRANCH  23  24
ENDBRANCH  22  23
ENDBRANCH  21  22
ENDBRANCH  20  21
ENDBRANCH   1  20
TORSDOF 6
