REMARK  8 active torsions:
REMARK  status: ('A' for Active; 'I' for Inactive)
REMARK    1  A    between atoms: O_2  and  C_3 
REMARK    2  A    between atoms: C_6  and  C_7 
REMARK    3  A    between atoms: C_7  and  N_8 
REMARK       I    between atoms: N_8  and  C_9 
REMARK    4  A    between atoms: C_9  and  C_11 
REMARK    5  A    between atoms: C_12  and  C_13 
REMARK    6  A    between atoms: C_19  and  C_20 
REMARK    7  A    between atoms: C_20  and  C_21 
REMARK    8  A    between atoms: C_21  and  N_22 
ROOT
ATOM      1  C   UNL d   1       8.207   5.481 -11.995  0.00  0.00     0.000 A 
ATOM      2  C   UNL d   1       6.801   5.500 -11.994  0.00  0.00     0.002 A 
ATOM      3  C   UNL d   1       6.078   4.568 -12.754  0.00  0.00     0.019 A 
ATOM      4  C   UNL d   1       6.770   3.629 -13.529  0.00  0.00     0.081 A 
ATOM      5  N   UNL d   1       6.330   2.613 -14.351  0.00  0.00    -0.244 NA
ATOM      6  C   UNL d   1       7.397   1.946 -14.924  0.00  0.00     0.095 A 
ATOM      7  C   UNL d   1       8.566   2.508 -14.467  0.00  0.00     0.000 A 
ATOM      8  C   UNL d   1       8.193   3.581 -13.574  0.00  0.00     0.015 A 
ATOM      9  C   UNL d   1       8.895   4.520 -12.774  0.00  0.00     0.001 A 
ENDROOT
BRANCH   1  10
ATOM     10  C   UNL d   1       8.904   6.458 -11.156  0.00  0.00     0.005 C 
ATOM     11  C   UNL d   1       9.895   6.193 -10.293  0.00  0.00     0.062 C 
BRANCH  11  12
ATOM     12  C   UNL d   1      10.493   7.275  -9.533  0.00  0.00     0.275 C 
ATOM     13  N   UNL d   1       9.601   7.895  -8.744  0.00  0.00    -0.229 NA
ATOM     14  O   UNL d   1      11.681   7.588  -9.585  0.00  0.00    -0.266 OA
BRANCH  13  15
ATOM     15  C   UNL d   1       9.929   9.026  -7.871  0.00  0.00     0.155 C 
BRANCH  15  16
ATOM     16  C   UNL d   1      10.586   8.668  -6.541  0.00  0.00     0.002 A 
ATOM     17  C   UNL d   1      10.806   7.327  -6.194  0.00  0.00    -0.000 A 
ATOM     18  C   UNL d   1      11.438   6.986  -4.980  0.00  0.00     0.024 A 
ATOM     19  C   UNL d   1      11.839   8.005  -4.072  0.00  0.00     0.094 A 
ATOM     20  C   UNL d   1      11.607   9.343  -4.419  0.00  0.00     0.024 A 
ATOM     21  C   UNL d   1      10.995   9.686  -5.641  0.00  0.00    -0.000 A 
BRANCH  19  22
ATOM     22  O   UNL d   1      12.419   7.728  -2.852  0.00  0.00    -0.328 OA
ATOM     23  C   UNL d   1      12.300   6.397  -2.368  0.00  0.00     0.181 C 
ENDBRANCH  19  22
ENDBRANCH  15  16
ENDBRANCH  13  15
ENDBRANCH  11  12
ENDBRANCH   1  10
BRANCH   7  24
ATOM     24  C   UNL d   1       9.959   2.119 -14.842  0.00  0.00     0.063 C 
BRANCH  24  25
ATOM     25  C   UNL d   1      10.071   1.373 -16.194  0.00  0.00     0.255 C 
BRANCH  25  26
ATOM     26  N   UNL d   1      11.455   1.104 -16.573  0.00  0.00     0.142 N 
ATOM     27  C   UNL d   1      11.496   0.266 -17.767  0.00  0.00     0.285 C 
ATOM     28  C   UNL d   1      12.181   2.336 -16.870  0.00  0.00     0.285 C 
ENDBRANCH  25  26
ENDBRANCH  24  25
ENDBRANCH   7  24
TORSDOF 8
