REMARK  8 active torsions:
REMARK  status: ('A' for Active; 'I' for Inactive)
REMARK    1  A    between atoms: C_3  and  C_4 
REMARK    2  A    between atoms: C_9  and  C_10 
REMARK    3  A    between atoms: C_14  and  O_15 
REMARK    4  A    between atoms: O_15  and  C_16 
REMARK       I    between atoms: C_16  and  N_18 
REMARK    5  A    between atoms: N_18  and  C_19 
REMARK    6  A    between atoms: C_19  and  C_20 
REMARK    7  A    between atoms: C_20  and  N_21 
REMARK    8  A    between atoms: N_24  and  C_25 
ROOT
ATOM      1  C   UNL d   1       9.315   5.231 -12.372  0.00  0.00     0.388 C 
ATOM      2  O   UNL d   1       9.180   4.399 -11.472  0.00  0.00    -0.236 OA
ATOM      3  N   UNL d   1       9.309   6.604 -12.240  0.00  0.00    -0.210 NA
ENDROOT
BRANCH   1   4
ATOM      4  O   UNL d   1       9.514   4.951 -13.685  0.00  0.00    -0.258 OA
BRANCH   4   5
ATOM      5  C   UNL d   1       9.436   3.653 -14.107  0.00  0.00     0.105 A 
ATOM      6  C   UNL d   1      10.600   3.018 -14.579  0.00  0.00     0.025 A 
ATOM      7  C   UNL d   1      10.541   1.655 -14.930  0.00  0.00     0.002 A 
ATOM      8  C   UNL d   1       9.348   0.926 -14.786  0.00  0.00     0.002 A 
ATOM      9  C   UNL d   1       8.143   1.571 -14.434  0.00  0.00     0.018 A 
ATOM     10  C   UNL d   1       8.210   2.944 -14.079  0.00  0.00     0.026 A 
BRANCH   9  11
ATOM     11  C   UNL d   1       6.850   0.862 -14.439  0.00  0.00     0.060 A 
ATOM     12  N   UNL d   1       6.404   0.057 -15.496  0.00  0.00    -0.322 N 
ATOM     13  C   UNL d   1       7.123  -0.193 -16.777  0.00  0.00     0.131 C 
ATOM     14  C   UNL d   1       5.143  -0.430 -15.122  0.00  0.00     0.120 A 
ATOM     15  C   UNL d   1       4.783   0.121 -13.928  0.00  0.00     0.024 A 
ATOM     16  C   UNL d   1       5.851   0.940 -13.505  0.00  0.00     0.019 A 
BRANCH  14  17
ATOM     17  C   UNL d   1       4.280  -1.286 -15.948  0.00  0.00     0.313 C 
ATOM     18  N   UNL d   1       4.838  -2.216 -16.711  0.00  0.00    -0.101 N 
ATOM     19  O   UNL d   1       3.073  -1.147 -15.872  0.00  0.00    -0.262 OA
ENDBRANCH  14  17
ENDBRANCH   9  11
ENDBRANCH   4   5
ENDBRANCH   1   4
BRANCH   3  20
ATOM     20  C   UNL d   1       9.119   7.265 -10.966  0.00  0.00     0.166 C 
BRANCH  20  21
ATOM     21  C   UNL d   1      10.446   7.436 -10.197  0.00  0.00     0.277 C 
BRANCH  21  22
ATOM     22  N   UNL d   1      10.283   8.151  -8.935  0.00  0.00     0.143 N 
ATOM     23  C   UNL d   1      11.602   8.577  -8.432  0.00  0.00     0.274 C 
ATOM     24  C   UNL d   1      11.471   9.391  -7.119  0.00  0.00     0.137 C 
ATOM     25  N   UNL d   1      10.716   8.630  -6.155  0.00  0.00    -0.344 N 
ATOM     26  C   UNL d   1       9.464   8.042  -6.599  0.00  0.00     0.137 C 
ATOM     27  C   UNL d   1       9.659   7.283  -7.920  0.00  0.00     0.274 C 
BRANCH  25  28
ATOM     28  C   UNL d   1      11.255   8.358  -4.880  0.00  0.00     0.056 A 
ATOM     29  C   UNL d   1      11.461   7.032  -4.455  0.00  0.00     0.017 A 
ATOM     30  C   UNL d   1      11.976   6.792  -3.163  0.00  0.00     0.002 A 
ATOM     31  C   UNL d   1      12.281   7.861  -2.303  0.00  0.00     0.000 A 
ATOM     32  C   UNL d   1      12.068   9.177  -2.735  0.00  0.00     0.002 A 
ATOM     33  C   UNL d   1      11.560   9.431  -4.023  0.00  0.00     0.017 A 
ENDBRANCH  25  28
ENDBRANCH  21  22
ENDBRANCH  20  21
ENDBRANCH   3  20
TORSDOF 8
