REMARK  9 active torsions:
REMARK  status: ('A' for Active; 'I' for Inactive)
REMARK    1  A    between atoms: C_3  and  S_4 
REMARK    2  A    between atoms: S_4  and  C_5 
REMARK    3  A    between atoms: C_5  and  C_6 
REMARK    4  A    between atoms: C_6  and  C_7 
REMARK    5  A    between atoms: C_7  and  N_8 
REMARK    6  A    between atoms: C_12  and  C_13 
REMARK    7  A    between atoms: C_16  and  C_17 
REMARK    8  A    between atoms: C_26  and  C_27 
REMARK    9  A    between atoms: C_30  and  C_31 
ROOT
ATOM      1  C   UNL d   1       7.278   4.314 -13.003  0.00  0.00     0.047 C 
ENDROOT
BRANCH   1   2
ATOM      2  C   UNL d   1       5.785   3.959 -13.082  0.00  0.00     0.067 C 
BRANCH   2   3
ATOM      3  S   UNL d   1       5.456   2.253 -12.578  0.00  0.00    -0.075 SA
BRANCH   3   4
ATOM      4  C   UNL d   1       5.947   1.408 -14.054  0.00  0.00     0.193 A 
ATOM      5  N   UNL d   1       5.264   0.353 -14.532  0.00  0.00    -0.289 N 
ATOM      6  C   UNL d   1       4.063  -0.265 -13.974  0.00  0.00     0.134 C 
ATOM      7  C   UNL d   1       5.906   0.117 -15.699  0.00  0.00     0.168 A 
ATOM      8  N   UNL d   1       6.930   0.943 -15.922  0.00  0.00    -0.128 NA
ATOM      9  N   UNL d   1       6.960   1.780 -14.841  0.00  0.00    -0.122 NA
BRANCH   7  10
ATOM     10  C   UNL d   1       5.554  -0.901 -16.666  0.00  0.00     0.055 A 
ATOM     11  C   UNL d   1       5.414  -0.595 -18.032  0.00  0.00     0.102 A 
ATOM     12  N   UNL d   1       5.111  -1.517 -18.969  0.00  0.00    -0.239 NA
ATOM     13  C   UNL d   1       4.909  -2.795 -18.570  0.00  0.00     0.141 A 
ATOM     14  C   UNL d   1       5.080  -3.202 -17.229  0.00  0.00     0.024 A 
ATOM     15  C   UNL d   1       5.383  -2.234 -16.262  0.00  0.00     0.006 A 
BRANCH  13  16
ATOM     16  C   UNL d   1       4.572  -3.821 -19.611  0.00  0.00     0.314 C 
ATOM     17  N   UNL d   1       3.727  -4.772 -19.215  0.00  0.00    -0.101 N 
ATOM     18  O   UNL d   1       5.000  -3.748 -20.763  0.00  0.00    -0.262 OA
ENDBRANCH  13  16
ENDBRANCH   7  10
ENDBRANCH   3   4
ENDBRANCH   2   3
ENDBRANCH   1   2
BRANCH   1  19
ATOM     19  C   UNL d   1       7.696   4.889 -11.649  0.00  0.00     0.251 C 
BRANCH  19  20
ATOM     20  N   UNL d   1       8.721   5.919 -11.732  0.00  0.00     0.143 N 
ATOM     21  C   UNL d   1       9.126   6.264 -10.380  0.00  0.00     0.284 C 
ATOM     22  C   UNL d   1      10.113   7.452 -10.292  0.00  0.00     0.171 C 
ATOM     23  O   UNL d   1       9.606   8.568 -11.002  0.00  0.00    -0.348 OA
ATOM     24  C   UNL d   1       9.211   8.280 -12.332  0.00  0.00     0.178 C 
ATOM     25  C   UNL d   1       8.206   7.130 -12.373  0.00  0.00     0.282 C 
BRANCH  22  26
ATOM     26  C   UNL d   1      10.472   7.848  -8.860  0.00  0.00     0.007 A 
ATOM     27  C   UNL d   1       9.550   7.717  -7.801  0.00  0.00    -0.002 A 
ATOM     28  C   UNL d   1       9.909   8.080  -6.496  0.00  0.00     0.004 A 
ATOM     29  C   UNL d   1      11.180   8.623  -6.239  0.00  0.00     0.071 A 
ATOM     30  C   UNL d   1      12.084   8.801  -7.301  0.00  0.00     0.004 A 
ATOM     31  C   UNL d   1      11.737   8.411  -8.610  0.00  0.00    -0.002 A 
BRANCH  29  32
ATOM     32  C   UNL d   1      11.536   9.010  -4.816  0.00  0.00     0.419 C 
ATOM     33  F   UNL d   1      10.665   9.922  -4.376  0.00  0.00    -0.166 F 
ATOM     34  F   UNL d   1      11.465   7.926  -4.040  0.00  0.00    -0.166 F 
ATOM     35  F   UNL d   1      12.766   9.518  -4.718  0.00  0.00    -0.166 F 
ENDBRANCH  29  32
ENDBRANCH  22  26
ENDBRANCH  19  20
ENDBRANCH   1  19
TORSDOF 9
