REMARK  9 active torsions:
REMARK  status: ('A' for Active; 'I' for Inactive)
REMARK    1  A    between atoms: O_2  and  C_3 
REMARK    2  A    between atoms: C_7  and  C_8 
REMARK       I    between atoms: C_8  and  N_10 
REMARK    3  A    between atoms: N_10  and  C_11 
REMARK    4  A    between atoms: C_11  and  C_12 
REMARK    5  A    between atoms: C_12  and  C_13 
REMARK    6  A    between atoms: C_13  and  C_14 
REMARK    7  A    between atoms: C_14  and  C_15 
REMARK    8  A    between atoms: C_15  and  N_16 
REMARK    9  A    between atoms: N_19  and  C_20 
ROOT
ATOM      1  C   UNL d   1       8.015   2.935 -14.265  0.00  0.00     0.129 C 
ENDROOT
BRANCH   1   2
ATOM      2  N   UNL d   1       9.084   2.619 -15.211  0.00  0.00    -0.234 NA
ATOM      3  C   UNL d   1       9.003   2.311 -16.518  0.00  0.00     0.282 C 
ATOM      4  O   UNL d   1       7.962   2.181 -17.161  0.00  0.00    -0.265 OA
BRANCH   3   5
ATOM      5  C   UNL d   1      10.294   2.086 -17.177  0.00  0.00     0.101 A 
ATOM      6  S   UNL d   1      11.168   3.548 -17.454  0.00  0.00    -0.062 SA
ATOM      7  C   UNL d   1      12.388   2.675 -18.339  0.00  0.00     0.114 A 
ATOM      8  N   UNL d   1      13.454   3.327 -18.868  0.00  0.00    -0.215 NA
ATOM      9  C   UNL d   1      12.103   1.270 -18.406  0.00  0.00     0.035 A 
ATOM     10  C   UNL d   1      14.345   2.545 -19.515  0.00  0.00     0.189 A 
ATOM     11  C   UNL d   1      14.200   1.149 -19.662  0.00  0.00     0.095 A 
ATOM     12  C   UNL d   1      13.065   0.505 -19.120  0.00  0.00    -0.005 A 
ATOM     13 CL   UNL d   1      15.444   0.268 -20.480  0.00  0.00    -0.079 Cl
ATOM     14  C   UNL d   1      12.878  -0.998 -19.248  0.00  0.00     0.032 C 
ATOM     15  C   UNL d   1      10.864   0.952 -17.717  0.00  0.00     0.082 A 
ATOM     16  N   UNL d   1      10.337  -0.353 -17.634  0.00  0.00    -0.100 NA
BRANCH  10  17
ATOM     17  O   UNL d   1      15.460   3.154 -20.051  0.00  0.00    -0.311 OA
ATOM     18  C   UNL d   1      15.561   4.573 -19.988  0.00  0.00     0.183 C 
ENDBRANCH  10  17
ENDBRANCH   3   5
ENDBRANCH   1   2
BRANCH   1  19
ATOM     19  C   UNL d   1       6.816   1.975 -14.336  0.00  0.00     0.026 C 
BRANCH  19  20
ATOM     20  C   UNL d   1       7.182   0.471 -14.355  0.00  0.00     0.004 C 
BRANCH  20  21
ATOM     21  C   UNL d   1       5.968  -0.457 -14.211  0.00  0.00     0.035 C 
BRANCH  21  22
ATOM     22  C   UNL d   1       4.939  -0.303 -15.355  0.00  0.00     0.250 C 
BRANCH  22  23
ATOM     23  N   UNL d   1       5.382  -0.976 -16.588  0.00  0.00     0.141 N 
ATOM     24  C   UNL d   1       5.066  -2.398 -16.479  0.00  0.00     0.274 C 
ATOM     25  C   UNL d   1       5.498  -3.161 -17.745  0.00  0.00     0.137 C 
ATOM     26  N   UNL d   1       4.916  -2.545 -18.934  0.00  0.00    -0.344 N 
ATOM     27  C   UNL d   1       5.099  -1.103 -19.038  0.00  0.00     0.137 C 
ATOM     28  C   UNL d   1       4.663  -0.416 -17.733  0.00  0.00     0.274 C 
BRANCH  26  29
ATOM     29  C   UNL d   1       4.223  -3.287 -19.894  0.00  0.00     0.068 A 
ATOM     30  C   UNL d   1       4.550  -3.215 -21.273  0.00  0.00     0.084 A 
ATOM     31  C   UNL d   1       3.806  -3.976 -22.218  0.00  0.00     0.070 A 
ATOM     32 CL   UNL d   1       5.881  -2.266 -21.851  0.00  0.00    -0.080 Cl
ATOM     33  C   UNL d   1       2.752  -4.793 -21.785  0.00  0.00     0.012 A 
ATOM     34 CL   UNL d   1       4.190  -3.906 -23.897  0.00  0.00    -0.081 Cl
ATOM     35  C   UNL d   1       2.426  -4.875 -20.425  0.00  0.00     0.002 A 
ATOM     36  C   UNL d   1       3.167  -4.124 -19.482  0.00  0.00     0.018 A 
ENDBRANCH  26  29
ENDBRANCH  22  23
ENDBRANCH  21  22
ENDBRANCH  20  21
ENDBRANCH  19  20
ENDBRANCH   1  19
TORSDOF 9
