REMARK  6 active torsions:
REMARK  status: ('A' for Active; 'I' for Inactive)
REMARK    1  A    between atoms: O_2  and  C_3 
REMARK    2  A    between atoms: C_7  and  C_8 
REMARK       I    between atoms: C_8  and  N_10 
REMARK    3  A    between atoms: N_10  and  C_11 
REMARK    4  A    between atoms: C_11  and  C_12 
REMARK    5  A    between atoms: C_12  and  N_13 
REMARK    6  A    between atoms: N_16  and  C_17 
ROOT
ATOM      1  N   UNL d   1       9.582   6.734  -8.835  0.00  0.00     0.143 N 
ATOM      2  C   UNL d   1       8.924   6.513  -7.548  0.00  0.00     0.274 C 
ATOM      3  C   UNL d   1       9.188   7.695  -6.600  0.00  0.00     0.137 C 
ATOM      4  N   UNL d   1      10.620   7.876  -6.437  0.00  0.00    -0.344 N 
ATOM      5  C   UNL d   1      11.370   8.023  -7.673  0.00  0.00     0.137 C 
ATOM      6  C   UNL d   1      11.025   6.839  -8.596  0.00  0.00     0.274 C 
ENDROOT
BRANCH   1   7
ATOM      7  C   UNL d   1       9.271   5.609  -9.720  0.00  0.00     0.277 C 
BRANCH   7   8
ATOM      8  C   UNL d   1       9.339   6.045 -11.191  0.00  0.00     0.164 C 
BRANCH   8   9
ATOM      9  N   UNL d   1       9.004   4.928 -12.072  0.00  0.00    -0.232 NA
ATOM     10  C   UNL d   1       9.646   4.602 -13.205  0.00  0.00     0.275 C 
ATOM     11  O   UNL d   1      10.644   5.189 -13.626  0.00  0.00    -0.266 OA
BRANCH  10  12
ATOM     12  C   UNL d   1       9.114   3.406 -13.927  0.00  0.00     0.059 A 
ATOM     13  C   UNL d   1       7.726   3.170 -14.039  0.00  0.00     0.005 A 
ATOM     14  C   UNL d   1       7.267   2.037 -14.739  0.00  0.00     0.002 A 
ATOM     15  C   UNL d   1       8.187   1.152 -15.341  0.00  0.00     0.024 A 
ATOM     16  C   UNL d   1       9.571   1.408 -15.273  0.00  0.00     0.094 A 
ATOM     17  C   UNL d   1      10.027   2.524 -14.537  0.00  0.00     0.029 A 
BRANCH  16  18
ATOM     18  O   UNL d   1      10.423   0.541 -15.920  0.00  0.00    -0.328 OA
ATOM     19  C   UNL d   1      11.547   1.129 -16.568  0.00  0.00     0.181 C 
ENDBRANCH  16  18
ENDBRANCH  10  12
ENDBRANCH   8   9
ENDBRANCH   7   8
ENDBRANCH   1   7
BRANCH   4  20
ATOM     20  C   UNL d   1      11.236   7.941  -5.183  0.00  0.00     0.067 A 
ATOM     21  C   UNL d   1      11.513   9.182  -4.576  0.00  0.00     0.073 A 
ATOM     22  C   UNL d   1      12.142   9.247  -3.321  0.00  0.00     0.013 A 
ATOM     23 CL   UNL d   1      11.056  10.626  -5.391  0.00  0.00    -0.081 Cl
ATOM     24  C   UNL d   1      12.521   8.070  -2.654  0.00  0.00     0.001 A 
ATOM     25  C   UNL d   1      12.241   6.823  -3.244  0.00  0.00     0.002 A 
ATOM     26  C   UNL d   1      11.595   6.764  -4.496  0.00  0.00     0.018 A 
ENDBRANCH   4  20
TORSDOF 6
