REMARK  7 active torsions:
REMARK  status: ('A' for Active; 'I' for Inactive)
REMARK    1  A    between atoms: S_2  and  C_5 
REMARK    2  A    between atoms: N_13  and  C_14 
REMARK    3  A    between atoms: C_14  and  C_15 
REMARK    4  A    between atoms: C_15  and  C_16 
REMARK    5  A    between atoms: C_19  and  N_20 
REMARK       I    between atoms: N_20  and  C_21 
REMARK    6  A    between atoms: C_21  and  C_23 
REMARK    7  A    between atoms: C_24  and  C_25 
ROOT
ATOM      1  C   UNL d   1       8.720   4.981 -11.851  0.00  0.00     0.002 C 
ATOM      2  C   UNL d   1       9.529   6.247 -12.147  0.00  0.00     0.002 C 
ATOM      3  C   UNL d   1      10.257   6.758 -10.912  0.00  0.00     0.024 C 
ATOM      4  C   UNL d   1       9.329   7.003  -9.784  0.00  0.00     0.107 C 
ATOM      5  C   UNL d   1       8.494   5.753  -9.462  0.00  0.00     0.024 C 
ATOM      6  C   UNL d   1       7.757   5.251 -10.704  0.00  0.00     0.002 C 
ENDROOT
BRANCH   1   7
ATOM      7  C   UNL d   1       7.950   4.531 -13.083  0.00  0.00     0.035 C 
BRANCH   7   8
ATOM      8  C   UNL d   1       8.892   4.196 -14.247  0.00  0.00     0.250 C 
BRANCH   8   9
ATOM      9  N   UNL d   1       9.420   2.828 -14.194  0.00  0.00     0.138 N 
ATOM     10  C   UNL d   1      10.498   2.666 -15.159  0.00  0.00     0.255 C 
ATOM     11  C   UNL d   1      10.117   3.143 -16.578  0.00  0.00     0.061 C 
ATOM     12  C   UNL d   1       9.131   2.254 -17.304  0.00  0.00    -0.023 A 
ATOM     13  C   UNL d   1       7.885   1.765 -16.789  0.00  0.00    -0.024 A 
ATOM     14  C   UNL d   1       9.496   1.908 -18.634  0.00  0.00     0.006 A 
ATOM     15  C   UNL d   1       7.057   0.938 -17.595  0.00  0.00    -0.004 A 
ATOM     16  C   UNL d   1       7.355   2.009 -15.408  0.00  0.00     0.061 C 
ATOM     17  C   UNL d   1       7.435   0.613 -18.887  0.00  0.00     0.011 A 
ATOM     18  C   UNL d   1       8.636   1.085 -19.388  0.00  0.00     0.084 A 
ATOM     19  C   UNL d   1       8.398   1.789 -14.324  0.00  0.00     0.255 C 
BRANCH  18  20
ATOM     20  S   UNL d   1       9.145   0.699 -21.044  0.00  0.00     0.191 S 
ATOM     21  C   UNL d   1       8.539   2.131 -22.013  0.00  0.00     0.145 C 
ATOM     22  O   UNL d   1       8.399  -0.497 -21.464  0.00  0.00    -0.222 OA
ATOM     23  O   UNL d   1      10.616   0.701 -21.088  0.00  0.00    -0.222 OA
ENDBRANCH  18  20
ENDBRANCH   8   9
ENDBRANCH   7   8
ENDBRANCH   1   7
BRANCH   4  24
ATOM     24  N   UNL d   1      10.080   7.412  -8.616  0.00  0.00    -0.236 NA
ATOM     25  C   UNL d   1      10.637   8.618  -8.459  0.00  0.00     0.275 C 
ATOM     26  O   UNL d   1      10.855   9.421  -9.365  0.00  0.00    -0.266 OA
BRANCH  25  27
ATOM     27  C   UNL d   1      10.822   8.916  -7.067  0.00  0.00     0.062 C 
ATOM     28  C   UNL d   1      11.501   8.091  -6.247  0.00  0.00     0.009 C 
BRANCH  28  29
ATOM     29  C   UNL d   1      11.749   8.319  -4.810  0.00  0.00     0.055 A 
ATOM     30  C   UNL d   1      11.621   9.605  -4.237  0.00  0.00     0.142 A 
ATOM     31  C   UNL d   1      11.850   9.796  -2.867  0.00  0.00     0.030 A 
ATOM     32  F   UNL d   1      11.289  10.687  -4.993  0.00  0.00    -0.204 F 
ATOM     33  C   UNL d   1      12.216   8.716  -2.041  0.00  0.00     0.005 A 
ATOM     34  C   UNL d   1      12.302   7.424  -2.595  0.00  0.00     0.030 A 
ATOM     35  C   UNL d   1      12.080   7.222  -3.979  0.00  0.00     0.142 A 
ATOM     36  F   UNL d   1      12.192   5.990  -4.501  0.00  0.00    -0.204 F 
ENDBRANCH  28  29
ENDBRANCH  25  27
ENDBRANCH   4  24
TORSDOF 7
