REMARK  4 active torsions:
REMARK  status: ('A' for Active; 'I' for Inactive)
REMARK    1  A    between atoms: C_10  and  C_11 
REMARK    2  A    between atoms: C_11  and  C_12 
REMARK    3  A    between atoms: C_12  and  N_13 
REMARK    4  A    between atoms: C_16  and  C_17 
ROOT
ATOM      1  N   UNL d   1       9.181   6.283 -11.294  0.00  0.00     0.137 N 
ATOM      2  C   UNL d   1       7.784   6.397 -11.705  0.00  0.00     0.251 C 
ATOM      3  C   UNL d   1       7.478   5.496 -12.887  0.00  0.00     0.041 C 
ATOM      4  C   UNL d   1       7.846   4.032 -12.592  0.00  0.00     0.047 C 
ATOM      5  C   UNL d   1       9.281   3.989 -12.034  0.00  0.00     0.041 C 
ATOM      6  C   UNL d   1       9.335   4.907 -10.808  0.00  0.00     0.251 C 
ENDROOT
BRANCH   1   7
ATOM      7  C   UNL d   1       9.419   7.236 -10.224  0.00  0.00     0.250 C 
BRANCH   7   8
ATOM      8  C   UNL d   1      10.920   7.378  -9.872  0.00  0.00     0.038 C 
BRANCH   8   9
ATOM      9  C   UNL d   1      11.221   7.968  -8.467  0.00  0.00     0.037 C 
ATOM     10  C   UNL d   1      11.077   6.980  -7.284  0.00  0.00     0.174 C 
ATOM     11  C   UNL d   1      11.261   7.636  -5.923  0.00  0.00     0.005 A 
ATOM     12  O   UNL d   1       9.819   6.356  -7.356  0.00  0.00    -0.219 OA
ATOM     13  C   UNL d   1      11.187   9.034  -5.747  0.00  0.00    -0.024 A 
ATOM     14  C   UNL d   1      11.495   6.809  -4.807  0.00  0.00     0.012 A 
ATOM     15  C   UNL d   1      11.327   9.588  -4.456  0.00  0.00    -0.003 A 
ATOM     16  C   UNL d   1      10.964   9.959  -6.918  0.00  0.00     0.026 C 
ATOM     17  C   UNL d   1      11.584   8.757  -3.353  0.00  0.00     0.014 A 
ATOM     18  C   UNL d   1      11.695   7.362  -3.530  0.00  0.00     0.070 A 
ATOM     19  N   UNL d   1      11.936   6.529  -2.440  0.00  0.00    -0.101 NA
ATOM     20  C   UNL d   1      10.477   9.264  -8.206  0.00  0.00     0.008 C 
ENDBRANCH   8   9
ENDBRANCH   7   8
ENDBRANCH   1   7
BRANCH   4  21
ATOM     21  C   UNL d   1       7.642   3.151 -13.782  0.00  0.00     0.087 A 
ATOM     22  C   UNL d   1       6.702   2.114 -14.043  0.00  0.00     0.041 A 
ATOM     23  C   UNL d   1       6.949   1.569 -15.312  0.00  0.00     0.129 A 
ATOM     24  C   UNL d   1       5.679   1.559 -13.243  0.00  0.00     0.006 A 
ATOM     25  O   UNL d   1       8.024   2.276 -15.811  0.00  0.00    -0.211 OA
ATOM     26  C   UNL d   1       6.205   0.507 -15.843  0.00  0.00     0.057 A 
ATOM     27  N   UNL d   1       8.456   3.248 -14.848  0.00  0.00    -0.131 NA
ATOM     28  C   UNL d   1       5.194  -0.049 -15.035  0.00  0.00     0.142 A 
ATOM     29  F   UNL d   1       4.420  -1.067 -15.511  0.00  0.00    -0.204 F 
ATOM     30  C   UNL d   1       4.951   0.459 -13.731  0.00  0.00     0.030 A 
ENDBRANCH   4  21
TORSDOF 4
