REMARK  7 active torsions:
REMARK  status: ('A' for Active; 'I' for Inactive)
REMARK    1  A    between atoms: C_3  and  S_4 
REMARK    2  A    between atoms: S_4  and  C_5 
REMARK    3  A    between atoms: C_5  and  C_6 
REMARK    4  A    between atoms: C_6  and  C_7 
REMARK    5  A    between atoms: C_7  and  N_8 
REMARK    6  A    between atoms: N_16  and  C_17 
REMARK    7  A    between atoms: C_29  and  C_30 
ROOT
ATOM      1  C   UNL d   1      10.035   0.543 -18.084  0.00  0.00     0.057 A 
ATOM      2  C   UNL d   1      10.812   0.828 -19.229  0.00  0.00     0.017 A 
ATOM      3  C   UNL d   1      10.592   0.128 -20.431  0.00  0.00     0.002 A 
ATOM      4  C   UNL d   1       9.585  -0.847 -20.502  0.00  0.00     0.010 A 
ATOM      5  C   UNL d   1       8.802  -1.130 -19.369  0.00  0.00     0.070 A 
ATOM      6  C   UNL d   1       7.764  -2.153 -19.426  0.00  0.00     0.101 C 
ATOM      7  N   UNL d   1       6.951  -2.963 -19.472  0.00  0.00    -0.191 NA
ATOM      8  C   UNL d   1       9.030  -0.445 -18.164  0.00  0.00     0.027 A 
ENDROOT
BRANCH   1   9
ATOM      9  N   UNL d   1      10.256   1.233 -16.874  0.00  0.00    -0.348 N 
ATOM     10  C   UNL d   1      11.569   1.770 -16.530  0.00  0.00     0.101 C 
ATOM     11  C   UNL d   1      11.464   3.269 -16.206  0.00  0.00     0.024 C 
ATOM     12  C   UNL d   1      10.383   3.534 -15.135  0.00  0.00     0.008 C 
ATOM     13  C   UNL d   1      10.225   5.050 -14.911  0.00  0.00     0.035 C 
ATOM     14  C   UNL d   1       9.036   2.921 -15.601  0.00  0.00     0.024 C 
ATOM     15  C   UNL d   1      10.847   2.921 -13.802  0.00  0.00     0.035 C 
ATOM     16  C   UNL d   1       9.278   5.330 -13.735  0.00  0.00     0.250 C 
ATOM     17  N   UNL d   1       9.806   4.709 -12.531  0.00  0.00     0.137 N 
ATOM     18  C   UNL d   1       9.887   3.263 -12.660  0.00  0.00     0.250 C 
ATOM     19  C   UNL d   1       9.172   1.432 -15.917  0.00  0.00     0.101 C 
BRANCH  17  20
ATOM     20  C   UNL d   1       8.896   5.017 -11.444  0.00  0.00     0.251 C 
BRANCH  20  21
ATOM     21  C   UNL d   1       9.600   5.935 -10.476  0.00  0.00     0.047 C 
BRANCH  21  22
ATOM     22  C   UNL d   1       9.669   7.429 -10.874  0.00  0.00     0.067 C 
BRANCH  22  23
ATOM     23  S   UNL d   1      10.851   8.427  -9.887  0.00  0.00    -0.075 SA
BRANCH  23  24
ATOM     24  C   UNL d   1      10.551   7.919  -8.235  0.00  0.00     0.193 A 
ATOM     25  N   UNL d   1      11.350   8.348  -7.234  0.00  0.00    -0.289 N 
ATOM     26  C   UNL d   1      12.420   9.315  -7.266  0.00  0.00     0.134 C 
ATOM     27  C   UNL d   1      10.871   7.675  -6.180  0.00  0.00     0.167 A 
ATOM     28  N   UNL d   1       9.856   6.872  -6.493  0.00  0.00    -0.128 NA
ATOM     29  N   UNL d   1       9.616   7.080  -7.813  0.00  0.00    -0.122 NA
BRANCH  27  30
ATOM     30  C   UNL d   1      11.338   7.826  -4.821  0.00  0.00     0.036 A 
ATOM     31  C   UNL d   1      11.497   9.111  -4.263  0.00  0.00     0.003 A 
ATOM     32  C   UNL d   1      11.889   9.231  -2.922  0.00  0.00     0.000 A 
ATOM     33  C   UNL d   1      12.106   8.077  -2.143  0.00  0.00     0.000 A 
ATOM     34  C   UNL d   1      11.896   6.793  -2.688  0.00  0.00     0.000 A 
ATOM     35  C   UNL d   1      11.513   6.681  -4.033  0.00  0.00     0.003 A 
ENDBRANCH  27  30
ENDBRANCH  23  24
ENDBRANCH  22  23
ENDBRANCH  21  22
ENDBRANCH  20  21
ENDBRANCH  17  20
ENDBRANCH   1   9
TORSDOF 7
