REMARK  3 active torsions:
REMARK  status: ('A' for Active; 'I' for Inactive)
REMARK    1  A    between atoms: C_18  and  C_19 
REMARK    2  A    between atoms: N_20  and  O_21 
REMARK    3  A    between atoms: O_21  and  C_22 
ROOT
ATOM      1  C   UNL d   1       9.240   0.104 -18.323  0.00  0.00     0.285 C 
ATOM      2  N   UNL d   1       9.703   0.308 -16.950  0.00  0.00     0.138 N 
ATOM      3  C   UNL d   1       8.622   0.129 -15.980  0.00  0.00     0.255 C 
ATOM      4  C   UNL d   1       7.561   1.242 -15.957  0.00  0.00     0.061 C 
ATOM      5  C   UNL d   1       8.020   2.475 -15.199  0.00  0.00    -0.023 A 
ATOM      6  C   UNL d   1       7.315   2.863 -14.045  0.00  0.00     0.009 A 
ATOM      7  C   UNL d   1       7.724   3.980 -13.297  0.00  0.00     0.083 A 
ATOM      8 CL   UNL d   1       6.827   4.442 -11.903  0.00  0.00    -0.080 Cl
ATOM      9  C   UNL d   1       8.865   4.707 -13.685  0.00  0.00     0.141 A 
ATOM     10  O   UNL d   1       9.294   5.763 -12.931  0.00  0.00    -0.189 OA
ATOM     11  C   UNL d   1       9.560   4.343 -14.852  0.00  0.00     0.024 A 
ATOM     12  C   UNL d   1       9.131   3.242 -15.635  0.00  0.00    -0.018 A 
ATOM     13  C   UNL d   1       9.858   2.857 -16.931  0.00  0.00     0.075 C 
ATOM     14  C   UNL d   1      10.749   3.983 -17.488  0.00  0.00    -0.020 A 
ATOM     15  C   UNL d   1      10.121   5.168 -17.930  0.00  0.00    -0.004 A 
ATOM     16  C   UNL d   1      10.888   6.245 -18.404  0.00  0.00    -0.000 A 
ATOM     17  C   UNL d   1      12.290   6.149 -18.417  0.00  0.00     0.001 A 
ATOM     18  C   UNL d   1      12.953   4.975 -17.985  0.00  0.00     0.017 A 
ATOM     19  C   UNL d   1      12.164   3.865 -17.562  0.00  0.00    -0.024 A 
ATOM     20  C   UNL d   1      12.795   2.531 -17.181  0.00  0.00     0.028 C 
ATOM     21  C   UNL d   1      11.874   1.357 -17.501  0.00  0.00     0.039 C 
ATOM     22  C   UNL d   1      10.560   1.484 -16.731  0.00  0.00     0.228 C 
ENDROOT
BRANCH  18  23
ATOM     23  C   UNL d   1      14.442   4.957 -17.981  0.00  0.00     0.128 C 
ATOM     24  N   UNL d   1      15.179   5.970 -18.169  0.00  0.00    -0.125 NA
BRANCH  24  25
ATOM     25  O   UNL d   1      16.530   5.602 -18.171  0.00  0.00    -0.211 OA
BRANCH  25  26
ATOM     26  C   UNL d   1      17.321   6.714 -18.269  0.00  0.00     0.125 A 
ATOM     27  C   UNL d   1      18.260   6.979 -17.253  0.00  0.00     0.027 A 
ATOM     28  C   UNL d   1      19.068   8.129 -17.327  0.00  0.00     0.002 A 
ATOM     29  C   UNL d   1      18.956   9.004 -18.424  0.00  0.00     0.000 A 
ATOM     30  C   UNL d   1      18.033   8.729 -19.452  0.00  0.00     0.002 A 
ATOM     31  C   UNL d   1      17.222   7.579 -19.380  0.00  0.00     0.027 A 
ENDBRANCH  25  26
ENDBRANCH  24  25
ENDBRANCH  18  23
TORSDOF 3
