REMARK  8 active torsions:
REMARK  status: ('A' for Active; 'I' for Inactive)
REMARK    1  A    between atoms: O_2  and  C_3 
REMARK    2  A    between atoms: C_8  and  N_9 
REMARK    3  A    between atoms: N_12  and  C_13 
REMARK    4  A    between atoms: C_13  and  C_14 
REMARK    5  A    between atoms: C_14  and  C_15 
REMARK    6  A    between atoms: C_15  and  C_16 
REMARK    7  A    between atoms: C_16  and  N_17 
REMARK    8  A    between atoms: N_17  and  C_18 
ROOT
ATOM      1  C   UNL d   1       9.431   5.433 -11.874  0.00  0.00     0.251 C 
ENDROOT
BRANCH   1   2
ATOM      2  N   UNL d   1       9.607   4.300 -12.777  0.00  0.00     0.141 N 
ATOM      3  C   UNL d   1      10.515   4.641 -13.874  0.00  0.00     0.274 C 
ATOM      4  C   UNL d   1      10.748   3.417 -14.777  0.00  0.00     0.137 C 
ATOM      5  N   UNL d   1       9.474   2.920 -15.287  0.00  0.00    -0.343 N 
ATOM      6  C   UNL d   1       8.475   2.668 -14.250  0.00  0.00     0.137 C 
ATOM      7  C   UNL d   1       8.312   3.897 -13.334  0.00  0.00     0.274 C 
BRANCH   5   8
ATOM      8  C   UNL d   1       9.217   2.791 -16.664  0.00  0.00     0.079 A 
ATOM      9  C   UNL d   1       8.421   1.728 -17.190  0.00  0.00     0.110 A 
ATOM     10  C   UNL d   1       8.220   1.648 -18.591  0.00  0.00     0.026 A 
ATOM     11  C   UNL d   1       8.797   2.583 -19.468  0.00  0.00     0.002 A 
ATOM     12  C   UNL d   1       9.575   3.627 -18.951  0.00  0.00     0.002 A 
ATOM     13  C   UNL d   1       9.772   3.737 -17.566  0.00  0.00     0.019 A 
BRANCH   9  14
ATOM     14  O   UNL d   1       7.905   0.790 -16.311  0.00  0.00    -0.327 OA
ATOM     15  C   UNL d   1       7.002  -0.191 -16.807  0.00  0.00     0.181 C 
ENDBRANCH   9  14
ENDBRANCH   5   8
ENDBRANCH   1   2
BRANCH   1  16
ATOM     16  C   UNL d   1       9.080   4.929 -10.467  0.00  0.00     0.037 C 
BRANCH  16  17
ATOM     17  C   UNL d   1       9.224   6.039  -9.419  0.00  0.00     0.028 C 
BRANCH  17  18
ATOM     18  C   UNL d   1       9.675   5.524  -8.044  0.00  0.00     0.127 C 
BRANCH  18  19
ATOM     19  N   UNL d   1       9.419   6.448  -6.941  0.00  0.00    -0.253 NA
BRANCH  19  20
ATOM     20  C   UNL d   1      10.287   7.531  -6.760  0.00  0.00     0.158 A 
ATOM     21  C   UNL d   1      11.049   7.721  -5.574  0.00  0.00     0.035 A 
ATOM     22  C   UNL d   1      11.836   8.896  -5.458  0.00  0.00     0.004 A 
ATOM     23  C   UNL d   1      11.070   6.788  -4.526  0.00  0.00     0.003 A 
ATOM     24  C   UNL d   1      11.850   9.806  -6.524  0.00  0.00     0.021 A 
ATOM     25  C   UNL d   1      12.623   9.121  -4.316  0.00  0.00     0.000 A 
ATOM     26  C   UNL d   1      11.103   9.473  -7.672  0.00  0.00     0.101 A 
ATOM     27  N   UNL d   1      10.340   8.388  -7.789  0.00  0.00    -0.226 NA
ATOM     28  C   UNL d   1      12.630   8.193  -3.262  0.00  0.00     0.000 A 
ATOM     29  C   UNL d   1      11.854   7.022  -3.373  0.00  0.00     0.000 A 
ENDBRANCH  19  20
ENDBRANCH  18  19
ENDBRANCH  17  18
ENDBRANCH  16  17
ENDBRANCH   1  16
TORSDOF 8
