REMARK  12 active torsions:
REMARK  status: ('A' for Active; 'I' for Inactive)
REMARK    1  A    between atoms: C_2  and  O_3 
REMARK    2  A    between atoms: O_3  and  C_4 
REMARK    3  A    between atoms: C_4  and  C_5 
REMARK    4  A    between atoms: C_5  and  O_6 
REMARK    5  A    between atoms: O_6  and  C_7 
REMARK    6  A    between atoms: C_13  and  C_14 
REMARK       I    between atoms: C_14  and  N_16 
REMARK    7  A    between atoms: N_16  and  C_17 
REMARK    8  A    between atoms: C_17  and  C_18 
REMARK    9  A    between atoms: C_18  and  C_19 
REMARK   10  A    between atoms: C_19  and  N_20 
REMARK   11  A    between atoms: N_23  and  C_24 
REMARK   12  A    between atoms: C_29  and  O_30 
ROOT
ATOM      1  C   UNL d   1       9.687   4.321 -13.497  0.00  0.00     0.278 C 
ATOM      2  O   UNL d   1      10.253   5.411 -13.460  0.00  0.00    -0.265 OA
ATOM      3  N   UNL d   1       8.659   3.997 -12.703  0.00  0.00    -0.234 NA
ENDROOT
BRANCH   3   4
ATOM      4  C   UNL d   1       8.139   4.800 -11.595  0.00  0.00     0.131 C 
BRANCH   4   5
ATOM      5  C   UNL d   1       9.194   5.006 -10.484  0.00  0.00     0.062 C 
BRANCH   5   6
ATOM      6  C   UNL d   1       8.636   5.761  -9.267  0.00  0.00     0.253 C 
BRANCH   6   7
ATOM      7  N   UNL d   1       9.639   6.622  -8.658  0.00  0.00     0.141 N 
ATOM      8  C   UNL d   1      10.582   5.815  -7.901  0.00  0.00     0.274 C 
ATOM      9  C   UNL d   1      11.657   6.700  -7.245  0.00  0.00     0.137 C 
ATOM     10  N   UNL d   1      11.034   7.711  -6.426  0.00  0.00    -0.343 N 
ATOM     11  C   UNL d   1       9.974   8.472  -7.071  0.00  0.00     0.137 C 
ATOM     12  C   UNL d   1       8.964   7.539  -7.723  0.00  0.00     0.274 C 
BRANCH  10  13
ATOM     13  C   UNL d   1      11.429   7.905  -5.069  0.00  0.00     0.079 A 
ATOM     14  C   UNL d   1      11.519   9.189  -4.495  0.00  0.00     0.110 A 
ATOM     15  C   UNL d   1      11.873   9.302  -3.124  0.00  0.00     0.026 A 
ATOM     16  C   UNL d   1      12.186   8.158  -2.359  0.00  0.00     0.002 A 
ATOM     17  C   UNL d   1      12.108   6.890  -2.946  0.00  0.00     0.002 A 
ATOM     18  C   UNL d   1      11.724   6.772  -4.288  0.00  0.00     0.019 A 
BRANCH  14  19
ATOM     19  O   UNL d   1      11.231  10.358  -5.171  0.00  0.00    -0.327 OA
ATOM     20  C   UNL d   1      12.057  10.654  -6.287  0.00  0.00     0.181 C 
ENDBRANCH  14  19
ENDBRANCH  10  13
ENDBRANCH   6   7
ENDBRANCH   5   6
ENDBRANCH   4   5
ENDBRANCH   3   4
BRANCH   1  21
ATOM     21  C   UNL d   1      10.091   3.245 -14.437  0.00  0.00     0.096 A 
ATOM     22  C   UNL d   1       9.817   1.856 -14.445  0.00  0.00     0.127 A 
ATOM     23  N   UNL d   1      10.393   1.208 -15.435  0.00  0.00    -0.163 NA
ATOM     24  N   UNL d   1      11.093   2.180 -16.107  0.00  0.00    -0.228 N 
ATOM     25  C   UNL d   1      11.861   1.991 -17.216  0.00  0.00     0.102 A 
ATOM     26  C   UNL d   1      10.934   3.443 -15.499  0.00  0.00     0.091 A 
ATOM     27  C   UNL d   1      12.515   3.076 -17.770  0.00  0.00     0.045 A 
ATOM     28  C   UNL d   1      12.379   4.375 -17.198  0.00  0.00     0.097 A 
ATOM     29  C   UNL d   1      11.621   4.542 -16.068  0.00  0.00     0.044 A 
BRANCH  28  30
ATOM     30  O   UNL d   1      13.031   5.420 -17.822  0.00  0.00    -0.328 OA
BRANCH  30  31
ATOM     31  C   UNL d   1      12.291   6.641 -17.975  0.00  0.00     0.181 C 
BRANCH  31  32
ATOM     32  C   UNL d   1      11.200   6.389 -19.018  0.00  0.00     0.175 C 
BRANCH  32  33
ATOM     33  O   UNL d   1      10.459   7.575 -19.247  0.00  0.00    -0.352 OA
BRANCH  33  34
ATOM     34  C   UNL d   1       9.348   7.377 -20.108  0.00  0.00     0.142 C 
ATOM     35  C   UNL d   1       8.200   6.643 -19.387  0.00  0.00     0.035 C 
ENDBRANCH  33  34
ENDBRANCH  32  33
ENDBRANCH  31  32
ENDBRANCH  30  31
ENDBRANCH  28  30
ENDBRANCH   1  21
TORSDOF 12
