REMARK  3 active torsions:
REMARK  status: ('A' for Active; 'I' for Inactive)
REMARK    1  A    between atoms: C_4  and  N_5 
REMARK    2  A    between atoms: N_8  and  C_9 
REMARK    3  A    between atoms: C_9  and  C_10 
ROOT
ATOM      1  N   UNL d   1      11.229   7.579  -7.775  0.00  0.00    -0.344 N 
ATOM      2  C   UNL d   1      11.904   8.210  -8.901  0.00  0.00     0.137 C 
ATOM      3  C   UNL d   1      10.909   8.438 -10.049  0.00  0.00     0.275 C 
ATOM      4  N   UNL d   1      10.232   7.188 -10.412  0.00  0.00     0.146 N 
ATOM      5  C   UNL d   1       9.464   6.725  -9.248  0.00  0.00     0.275 C 
ATOM      6  C   UNL d   1      10.404   6.419  -8.072  0.00  0.00     0.137 C 
ENDROOT
BRANCH   1   7
ATOM      7  C   UNL d   1      11.311   8.091  -6.477  0.00  0.00     0.056 A 
ATOM      8  C   UNL d   1      11.234   9.480  -6.248  0.00  0.00     0.017 A 
ATOM      9  C   UNL d   1      11.288   9.983  -4.938  0.00  0.00     0.002 A 
ATOM     10  C   UNL d   1      11.485   9.108  -3.853  0.00  0.00     0.000 A 
ATOM     11  C   UNL d   1      11.571   7.721  -4.076  0.00  0.00     0.002 A 
ATOM     12  C   UNL d   1      11.454   7.210  -5.381  0.00  0.00     0.017 A 
ENDBRANCH   1   7
BRANCH   4  13
ATOM     13  C   UNL d   1       9.347   7.457 -11.549  0.00  0.00     0.283 C 
BRANCH  13  14
ATOM     14  C   UNL d   1       8.641   6.245 -12.090  0.00  0.00     0.041 A 
ATOM     15  S   UNL d   1       9.458   5.099 -13.120  0.00  0.00    -0.089 SA
ATOM     16  C   UNL d   1       8.033   4.108 -13.241  0.00  0.00     0.035 A 
ATOM     17  C   UNL d   1       6.995   4.632 -12.520  0.00  0.00     0.007 A 
ATOM     18  C   UNL d   1       7.341   5.854 -11.869  0.00  0.00     0.005 A 
ENDBRANCH  13  14
ENDBRANCH   4  13
TORSDOF 3
