REMARK  5 active torsions:
REMARK  status: ('A' for Active; 'I' for Inactive)
REMARK       I    between atoms: C_2  and  N_3 
REMARK    1  A    between atoms: C_2  and  C_15 
REMARK    2  A    between atoms: N_3  and  N_4 
REMARK    3  A    between atoms: N_4  and  S_5 
REMARK    4  A    between atoms: S_5  and  C_8 
REMARK    5  A    between atoms: C_20  and  C_21 
ROOT
ATOM      1  O   UNL d   1       9.290   4.521  -8.839  0.00  0.00    -0.264 OA
ATOM      2  C   UNL d   1       9.518   5.535  -9.492  0.00  0.00     0.297 C 
ATOM      3  N   UNL d   1       9.299   5.614 -10.816  0.00  0.00    -0.095 NA
ENDROOT
BRANCH   2   4
ATOM      4  C   UNL d   1      10.135   6.755  -8.859  0.00  0.00     0.062 A 
ATOM      5  C   UNL d   1      10.442   6.788  -7.472  0.00  0.00     0.006 A 
ATOM      6  C   UNL d   1      11.065   7.911  -6.861  0.00  0.00     0.020 A 
ATOM      7  C   UNL d   1      11.398   9.003  -7.688  0.00  0.00     0.031 A 
ATOM      8  C   UNL d   1      11.123   8.966  -9.068  0.00  0.00     0.140 A 
ATOM      9  C   UNL d   1      10.495   7.869  -9.646  0.00  0.00     0.035 A 
ATOM     10  F   UNL d   1      11.456   9.976  -9.878  0.00  0.00    -0.204 F 
BRANCH   6  11
ATOM     11  C   UNL d   1      11.377   7.953  -5.410  0.00  0.00     0.082 A 
ATOM     12  N   UNL d   1      11.508   6.755  -4.807  0.00  0.00    -0.244 NA
ATOM     13  C   UNL d   1      11.824   6.697  -3.499  0.00  0.00     0.099 A 
ATOM     14  C   UNL d   1      12.002   7.834  -2.699  0.00  0.00     0.021 A 
ATOM     15  C   UNL d   1      11.872   9.093  -3.306  0.00  0.00     0.003 A 
ATOM     16  C   UNL d   1      11.561   9.156  -4.681  0.00  0.00     0.019 A 
ENDBRANCH   6  11
ENDBRANCH   2   4
BRANCH   3  17
ATOM     17  N   UNL d   1       8.904   4.490 -11.558  0.00  0.00    -0.051 NA
BRANCH  17  18
ATOM     18  S   UNL d   1       8.519   4.756 -13.188  0.00  0.00     0.304 S 
ATOM     19  O   UNL d   1       7.484   5.798 -13.177  0.00  0.00    -0.197 OA
ATOM     20  O   UNL d   1       9.794   5.001 -13.875  0.00  0.00    -0.197 OA
BRANCH  18  21
ATOM     21  C   UNL d   1       7.767   3.211 -13.701  0.00  0.00     0.134 A 
ATOM     22  C   UNL d   1       8.523   2.211 -14.357  0.00  0.00     0.152 A 
ATOM     23  C   UNL d   1       7.932   0.969 -14.661  0.00  0.00     0.030 A 
ATOM     24  F   UNL d   1       9.835   2.380 -14.644  0.00  0.00    -0.203 F 
ATOM     25  C   UNL d   1       6.591   0.715 -14.309  0.00  0.00     0.002 A 
ATOM     26  C   UNL d   1       5.842   1.706 -13.643  0.00  0.00     0.001 A 
ATOM     27  C   UNL d   1       6.413   2.971 -13.369  0.00  0.00     0.015 A 
ENDBRANCH  18  21
ENDBRANCH  17  18
ENDBRANCH   3  17
TORSDOF 5
