REMARK  13 active torsions:
REMARK  status: ('A' for Active; 'I' for Inactive)
REMARK    1  A    between atoms: N_2  and  C_4 
REMARK    2  A    between atoms: C_4  and  C_5 
REMARK    3  A    between atoms: C_5  and  N_6 
REMARK    4  A    between atoms: N_6  and  C_7 
REMARK       I    between atoms: N_6  and  C_30 
REMARK    5  A    between atoms: C_7  and  C_8 
REMARK    6  A    between atoms: C_11  and  C_12 
REMARK    7  A    between atoms: C_15  and  C_16 
REMARK    8  A    between atoms: C_16  and  N_17 
REMARK    9  A    between atoms: N_17  and  C_18 
REMARK   10  A    between atoms: C_18  and  C_19 
REMARK   11  A    between atoms: C_19  and  C_20 
REMARK   12  A    between atoms: C_30  and  C_32 
REMARK   13  A    between atoms: C_33  and  C_34 
ROOT
ATOM      1  C   UNL d   1      11.280   3.401 -18.640  0.00  0.00     0.000 A 
ATOM      2  C   UNL d   1      11.679   2.585 -17.561  0.00  0.00    -0.002 A 
ATOM      3  C   UNL d   1      11.178   2.815 -16.265  0.00  0.00    -0.000 A 
ATOM      4  C   UNL d   1      10.273   3.877 -15.998  0.00  0.00    -0.000 A 
ATOM      5  C   UNL d   1       9.899   4.698 -17.093  0.00  0.00    -0.000 A 
ATOM      6  C   UNL d   1      10.386   4.456 -18.392  0.00  0.00    -0.002 A 
ENDROOT
BRANCH   1   7
ATOM      7  C   UNL d   1      11.760   3.175 -20.066  0.00  0.00     0.131 C 
BRANCH   7   8
ATOM      8  N   UNL d   1      13.084   2.532 -20.208  0.00  0.00    -0.310 N 
ATOM      9  C   UNL d   1      14.262   3.200 -20.024  0.00  0.00     0.257 C 
ATOM     10  O   UNL d   1      15.343   2.606 -20.004  0.00  0.00    -0.267 OA
BRANCH   8  11
ATOM     11  C   UNL d   1      12.960   1.081 -20.406  0.00  0.00     0.140 C 
BRANCH  11  12
ATOM     12  C   UNL d   1      14.230   0.340 -20.866  0.00  0.00     0.274 C 
BRANCH  12  13
ATOM     13  N   UNL d   1      14.034  -1.101 -21.088  0.00  0.00     0.143 N 
ATOM     14  C   UNL d   1      13.822  -1.769 -19.813  0.00  0.00     0.286 C 
ATOM     15  C   UNL d   1      15.266  -1.629 -21.665  0.00  0.00     0.286 C 
ENDBRANCH  12  13
ENDBRANCH  11  12
ENDBRANCH   8  11
BRANCH   9  16
ATOM     16  C   UNL d   1      14.166   4.641 -19.877  0.00  0.00     0.060 C 
ATOM     17  C   UNL d   1      15.273   5.367 -19.596  0.00  0.00     0.005 C 
BRANCH  17  18
ATOM     18  C   UNL d   1      15.318   6.823 -19.432  0.00  0.00     0.000 A 
ATOM     19  C   UNL d   1      16.536   7.412 -19.025  0.00  0.00     0.000 A 
ATOM     20  C   UNL d   1      16.625   8.804 -18.840  0.00  0.00     0.000 A 
ATOM     21  C   UNL d   1      15.495   9.615 -19.058  0.00  0.00     0.000 A 
ATOM     22  C   UNL d   1      14.280   9.038 -19.468  0.00  0.00     0.000 A 
ATOM     23  C   UNL d   1      14.192   7.649 -19.652  0.00  0.00     0.000 A 
ENDBRANCH  17  18
ENDBRANCH   9  16
ENDBRANCH   7   8
ENDBRANCH   1   7
BRANCH   4  24
ATOM     24  C   UNL d   1       9.746   4.139 -14.629  0.00  0.00    -0.000 A 
ATOM     25  C   UNL d   1       8.711   5.078 -14.388  0.00  0.00    -0.000 A 
ATOM     26  C   UNL d   1       8.257   5.371 -13.088  0.00  0.00    -0.002 A 
ATOM     27  C   UNL d   1       8.817   4.709 -11.988  0.00  0.00     0.014 A 
ATOM     28  C   UNL d   1       9.823   3.750 -12.202  0.00  0.00    -0.002 A 
ATOM     29  C   UNL d   1      10.278   3.466 -13.503  0.00  0.00    -0.000 A 
BRANCH  27  30
ATOM     30  C   UNL d   1       8.354   5.029 -10.589  0.00  0.00     0.317 C 
BRANCH  30  31
ATOM     31  N   UNL d   1       8.717   6.386 -10.217  0.00  0.00     0.344 N 
BRANCH  31  32
ATOM     32  C   UNL d   1       9.457   6.433  -8.971  0.00  0.00     0.295 C 
BRANCH  32  33
ATOM     33  C   UNL d   1       9.335   7.832  -8.328  0.00  0.00     0.065 C 
BRANCH  33  34
ATOM     34  C   UNL d   1      10.208   7.986  -7.093  0.00  0.00    -0.020 A 
ATOM     35  C   UNL d   1      10.240   6.971  -6.115  0.00  0.00    -0.004 A 
ATOM     36  C   UNL d   1      11.068   7.095  -4.985  0.00  0.00    -0.000 A 
ATOM     37  C   UNL d   1      11.854   8.249  -4.810  0.00  0.00    -0.000 A 
ATOM     38  C   UNL d   1      11.817   9.272  -5.779  0.00  0.00    -0.000 A 
ATOM     39  C   UNL d   1      10.997   9.141  -6.916  0.00  0.00    -0.004 A 
ENDBRANCH  33  34
ENDBRANCH  32  33
ENDBRANCH  31  32
ENDBRANCH  30  31
ENDBRANCH  27  30
ENDBRANCH   4  24
TORSDOF 13
