REMARK  7 active torsions:
REMARK  status: ('A' for Active; 'I' for Inactive)
REMARK    1  A    between atoms: O_2  and  C_3 
REMARK    2  A    between atoms: C_8  and  O_9 
REMARK    3  A    between atoms: O_9  and  C_10 
REMARK    4  A    between atoms: C_10  and  C_11 
REMARK    5  A    between atoms: C_11  and  C_13 
REMARK    6  A    between atoms: C_13  and  O_14 
REMARK    7  A    between atoms: O_14  and  C_15 
ROOT
ATOM      1  O   UNL d   1      11.007   7.961  -6.557  0.00  0.00    -0.326 OA
ENDROOT
BRANCH   1   2
ATOM      2  C   UNL d   1      11.408   7.944  -5.247  0.00  0.00     0.116 A 
ATOM      3  C   UNL d   1      11.511   9.197  -4.574  0.00  0.00     0.116 A 
ATOM      4  C   UNL d   1      11.864   9.227  -3.212  0.00  0.00     0.026 A 
ATOM      5  C   UNL d   1      12.168   8.047  -2.507  0.00  0.00     0.002 A 
ATOM      6  C   UNL d   1      12.088   6.809  -3.172  0.00  0.00     0.002 A 
ATOM      7  C   UNL d   1      11.730   6.770  -4.527  0.00  0.00     0.026 A 
BRANCH   3   8
ATOM      8  O   UNL d   1      11.217  10.389  -5.193  0.00  0.00    -0.326 OA
ATOM      9  C   UNL d   1      11.998  10.693  -6.348  0.00  0.00     0.181 C 
ENDBRANCH   3   8
ENDBRANCH   1   2
BRANCH   1  10
ATOM     10  C   UNL d   1      10.546   6.779  -7.193  0.00  0.00     0.184 C 
BRANCH  10  11
ATOM     11  C   UNL d   1       9.217   7.096  -7.875  0.00  0.00     0.212 C 
ATOM     12  O   UNL d   1       8.256   7.293  -6.846  0.00  0.00    -0.218 OA
BRANCH  11  13
ATOM     13  C   UNL d   1       8.729   5.863  -8.640  0.00  0.00     0.189 C 
BRANCH  13  14
ATOM     14  O   UNL d   1       9.499   5.616  -9.814  0.00  0.00    -0.285 OA
BRANCH  14  15
ATOM     15  C   UNL d   1       8.937   5.294 -11.016  0.00  0.00     0.373 C 
ATOM     16  N   UNL d   1       7.751   5.986 -11.239  0.00  0.00    -0.032 NA
ATOM     17  O   UNL d   1       9.458   4.537 -11.810  0.00  0.00    -0.242 OA
ENDBRANCH  14  15
ENDBRANCH  13  14
ENDBRANCH  11  13
ENDBRANCH  10  11
ENDBRANCH   1  10
TORSDOF 7
