REMARK  7 active torsions:
REMARK  status: ('A' for Active; 'I' for Inactive)
REMARK    1  A    between atoms: C_6  and  C_7 
REMARK    2  A    between atoms: C_10  and  S_11 
REMARK    3  A    between atoms: S_11  and  C_12 
REMARK    4  A    between atoms: C_12  and  C_13 
REMARK    5  A    between atoms: C_13  and  C_14 
REMARK    6  A    between atoms: C_14  and  N_15 
REMARK    7  A    between atoms: C_19  and  C_20 
ROOT
ATOM      1  C   UNL d   1       9.541  -1.072 -20.498  0.00  0.00     0.047 C 
ENDROOT
BRANCH   1   2
ATOM      2  C   UNL d   1      10.489   0.116 -20.281  0.00  0.00     0.067 C 
BRANCH   2   3
ATOM      3  S   UNL d   1      11.797  -0.332 -19.102  0.00  0.00    -0.075 SA
BRANCH   3   4
ATOM      4  C   UNL d   1      11.058   0.347 -17.650  0.00  0.00     0.193 A 
ATOM      5  N   UNL d   1      10.081  -0.221 -16.959  0.00  0.00    -0.122 NA
ATOM      6  N   UNL d   1       9.810   0.658 -15.931  0.00  0.00    -0.126 NA
ATOM      7  C   UNL d   1      10.621   1.704 -16.101  0.00  0.00     0.191 A 
ATOM      8  N   UNL d   1      11.434   1.556 -17.174  0.00  0.00    -0.287 N 
ATOM      9  C   UNL d   1      12.422   2.467 -17.733  0.00  0.00     0.134 C 
BRANCH   7  10
ATOM     10  C   UNL d   1      10.592   2.874 -15.169  0.00  0.00     0.151 A 
ATOM     11  C   UNL d   1      10.905   4.203 -15.236  0.00  0.00     0.087 A 
ATOM     12  C   UNL d   1      11.420   5.048 -16.364  0.00  0.00     0.054 C 
ATOM     13  N   UNL d   1      10.690   4.784 -13.996  0.00  0.00    -0.221 NA
ATOM     14  C   UNL d   1      10.233   3.793 -13.246  0.00  0.00     0.225 A 
ATOM     15  O   UNL d   1      10.169   2.599 -13.892  0.00  0.00    -0.282 OA
ENDBRANCH   7  10
ENDBRANCH   3   4
ENDBRANCH   2   3
ENDBRANCH   1   2
BRANCH   1  16
ATOM     16  C   UNL d   1       8.198  -0.704 -21.156  0.00  0.00     0.251 C 
BRANCH  16  17
ATOM     17  N   UNL d   1       7.215  -0.258 -20.159  0.00  0.00     0.137 N 
ATOM     18  C   UNL d   1       6.738  -1.358 -19.312  0.00  0.00     0.254 C 
ATOM     19  C   UNL d   1       5.433  -0.857 -18.758  0.00  0.00     0.052 A 
ATOM     20  C   UNL d   1       4.969   0.197 -19.707  0.00  0.00     0.039 A 
ATOM     21  C   UNL d   1       4.115  -1.030 -19.483  0.00  0.00     0.008 A 
ATOM     22  C   UNL d   1       6.016   0.285 -20.796  0.00  0.00     0.251 C 
BRANCH  19  23
ATOM     23  C   UNL d   1       5.461  -0.541 -17.282  0.00  0.00    -0.021 A 
ATOM     24  C   UNL d   1       6.350   0.433 -16.782  0.00  0.00    -0.003 A 
ATOM     25  C   UNL d   1       6.354   0.763 -15.415  0.00  0.00     0.011 A 
ATOM     26  C   UNL d   1       5.460   0.126 -14.535  0.00  0.00     0.058 A 
ATOM     27  C   UNL d   1       4.577  -0.856 -15.025  0.00  0.00     0.011 A 
ATOM     28 CL   UNL d   1       5.412   0.554 -12.870  0.00  0.00    -0.082 Cl
ATOM     29  C   UNL d   1       4.582  -1.192 -16.390  0.00  0.00    -0.003 A 
ENDBRANCH  19  23
ENDBRANCH  16  17
ENDBRANCH   1  16
TORSDOF 7
