REMARK  6 active torsions:
REMARK  status: ('A' for Active; 'I' for Inactive)
REMARK    1  A    between atoms: C_2  and  C_5 
REMARK    2  A    between atoms: C_9  and  N_10 
REMARK    3  A    between atoms: N_13  and  C_14 
REMARK    4  A    between atoms: C_14  and  C_15 
REMARK    5  A    between atoms: C_15  and  O_16 
REMARK    6  A    between atoms: O_16  and  C_17 
ROOT
ATOM      1  N   UNL d   1      10.945   7.336  -7.425  0.00  0.00    -0.344 N 
ATOM      2  C   UNL d   1      10.591   5.936  -7.337  0.00  0.00     0.137 C 
ATOM      3  C   UNL d   1       9.355   5.605  -8.182  0.00  0.00     0.274 C 
ATOM      4  N   UNL d   1       9.566   6.012  -9.572  0.00  0.00     0.144 N 
ATOM      5  C   UNL d   1       9.791   7.470  -9.573  0.00  0.00     0.274 C 
ATOM      6  C   UNL d   1      11.053   7.847  -8.787  0.00  0.00     0.137 C 
ENDROOT
BRANCH   4   7
ATOM      7  C   UNL d   1       8.363   5.649 -10.317  0.00  0.00     0.283 C 
BRANCH   7   8
ATOM      8  C   UNL d   1       8.496   5.964 -11.816  0.00  0.00     0.184 C 
BRANCH   8   9
ATOM      9  O   UNL d   1       7.288   5.550 -12.456  0.00  0.00    -0.329 OA
BRANCH   9  10
ATOM     10  C   UNL d   1       7.340   4.368 -13.146  0.00  0.00     0.096 A 
ATOM     11  C   UNL d   1       8.421   4.028 -14.000  0.00  0.00     0.026 A 
ATOM     12  C   UNL d   1       8.449   2.783 -14.647  0.00  0.00     0.025 A 
ATOM     13  C   UNL d   1       7.371   1.909 -14.461  0.00  0.00     0.124 A 
ATOM     14  N   UNL d   1       7.038   0.648 -14.898  0.00  0.00    -0.127 NA
ATOM     15  C   UNL d   1       6.256   2.228 -13.646  0.00  0.00     0.126 A 
ATOM     16  N   UNL d   1       5.859   0.215 -14.379  0.00  0.00    -0.042 NA
ATOM     17  N   UNL d   1       5.389   1.149 -13.605  0.00  0.00    -0.127 NA
ATOM     18  C   UNL d   1       6.246   3.491 -13.002  0.00  0.00     0.047 A 
ENDBRANCH   9  10
ENDBRANCH   8   9
ENDBRANCH   7   8
ENDBRANCH   4   7
BRANCH   1  19
ATOM     19  C   UNL d   1      11.098   8.111  -6.261  0.00  0.00     0.056 A 
ATOM     20  C   UNL d   1      10.886   9.505  -6.289  0.00  0.00     0.017 A 
ATOM     21  C   UNL d   1      11.059  10.275  -5.127  0.00  0.00     0.001 A 
ATOM     22  C   UNL d   1      11.463   9.672  -3.922  0.00  0.00     0.004 A 
ATOM     23  C   UNL d   1      11.676   8.285  -3.867  0.00  0.00     0.073 A 
ATOM     24  C   UNL d   1      11.476   7.515  -5.028  0.00  0.00     0.021 A 
BRANCH  23  25
ATOM     25  C   UNL d   1      12.100   7.599  -2.578  0.00  0.00     0.419 C 
ATOM     26  F   UNL d   1      11.069   6.954  -2.036  0.00  0.00    -0.166 F 
ATOM     27  F   UNL d   1      12.579   8.474  -1.693  0.00  0.00    -0.166 F 
ATOM     28  F   UNL d   1      13.047   6.713  -2.843  0.00  0.00    -0.166 F 
ENDBRANCH  23  25
ENDBRANCH   1  19
TORSDOF 6
