REMARK  4 active torsions:
REMARK  status: ('A' for Active; 'I' for Inactive)
REMARK    1  A    between atoms: C_8  and  C_9 
REMARK    2  A    between atoms: C_9  and  N_10 
REMARK    3  A    between atoms: C_13  and  C_14 
REMARK    4  A    between atoms: C_14  and  C_16 
ROOT
ATOM      1  N   UNL d   1       9.462   6.228  -8.694  0.00  0.00     0.137 N 
ATOM      2  C   UNL d   1       9.616   7.294  -9.691  0.00  0.00     0.251 C 
ATOM      3  C   UNL d   1      10.001   6.736 -11.049  0.00  0.00     0.043 C 
ATOM      4  C   UNL d   1       9.006   5.664 -11.581  0.00  0.00     0.066 C 
ATOM      5  C   UNL d   1       8.723   4.656 -10.447  0.00  0.00     0.043 C 
ATOM      6  C   UNL d   1       8.363   5.378  -9.145  0.00  0.00     0.251 C 
ENDROOT
BRANCH   1   7
ATOM      7  C   UNL d   1       9.047   6.838  -7.431  0.00  0.00     0.251 C 
BRANCH   7   8
ATOM      8  C   UNL d   1      10.262   7.461  -6.726  0.00  0.00     0.047 C 
ATOM      9  C   UNL d   1      10.511   6.795  -5.362  0.00  0.00     0.048 C 
ATOM     10  C   UNL d   1      11.415   7.626  -4.529  0.00  0.00     0.060 A 
ATOM     11  N   UNL d   1      12.146   7.264  -3.393  0.00  0.00    -0.253 N 
ATOM     12  C   UNL d   1      11.706   8.939  -4.729  0.00  0.00     0.069 A 
ATOM     13  C   UNL d   1      12.284   6.014  -2.696  0.00  0.00     0.153 C 
ATOM     14  N   UNL d   1      12.838   8.302  -2.885  0.00  0.00    -0.168 NA
ATOM     15  C   UNL d   1      12.634   9.283  -3.740  0.00  0.00     0.124 A 
ATOM     16  C   UNL d   1      11.201   9.694  -5.868  0.00  0.00     0.176 C 
ATOM     17  C   UNL d   1      10.072   9.000  -6.616  0.00  0.00     0.072 C 
ATOM     18  O   UNL d   1      11.633  10.795  -6.208  0.00  0.00    -0.291 OA
ENDBRANCH   7   8
ENDBRANCH   1   7
BRANCH   4  19
ATOM     19  C   UNL d   1       9.492   4.947 -12.865  0.00  0.00     0.173 C 
ATOM     20  O   UNL d   1      10.623   5.156 -13.308  0.00  0.00    -0.291 OA
BRANCH  19  21
ATOM     21  C   UNL d   1       8.591   3.971 -13.537  0.00  0.00     0.035 A 
ATOM     22  C   UNL d   1       7.202   3.923 -13.277  0.00  0.00     0.005 A 
ATOM     23  C   UNL d   1       6.402   2.955 -13.916  0.00  0.00     0.030 A 
ATOM     24  C   UNL d   1       6.979   2.058 -14.837  0.00  0.00     0.140 A 
ATOM     25  C   UNL d   1       8.351   2.123 -15.130  0.00  0.00     0.030 A 
ATOM     26  F   UNL d   1       6.219   1.133 -15.465  0.00  0.00    -0.204 F 
ATOM     27  C   UNL d   1       9.155   3.073 -14.476  0.00  0.00     0.005 A 
ENDBRANCH  19  21
ENDBRANCH   4  19
TORSDOF 4
