REMARK  2 active torsions:
REMARK  status: ('A' for Active; 'I' for Inactive)
REMARK    1  A    between atoms: C_5  and  C_6 
REMARK    2  A    between atoms: C_8  and  C_9 
ROOT
ATOM      1  C   UNL d   1      11.085   8.174  -8.055  0.00  0.00     0.082 A 
ATOM      2  C   UNL d   1      10.273   7.050  -8.392  0.00  0.00     0.037 A 
ATOM      3  C   UNL d   1       9.988   7.228  -9.713  0.00  0.00     0.104 A 
ATOM      4  N   UNL d   1      10.608   8.397 -10.095  0.00  0.00    -0.148 NA
ATOM      5  N   UNL d   1      11.291   8.977  -9.092  0.00  0.00    -0.152 NA
ENDROOT
BRANCH   1   6
ATOM      6  C   UNL d   1      11.708   8.510  -6.730  0.00  0.00     0.046 C 
ATOM      7  C   UNL d   1      11.670   7.306  -5.761  0.00  0.00     0.041 C 
ATOM      8  C   UNL d   1      12.218   7.657  -4.370  0.00  0.00     0.251 C 
ATOM      9  N   UNL d   1      11.459   8.770  -3.813  0.00  0.00     0.139 N 
ATOM     10  C   UNL d   1      11.976   9.061  -2.485  0.00  0.00     0.285 C 
ATOM     11  C   UNL d   1      11.612   9.936  -4.673  0.00  0.00     0.251 C 
ATOM     12  C   UNL d   1      11.015   9.703  -6.065  0.00  0.00     0.041 C 
ENDBRANCH   1   6
BRANCH   3  13
ATOM     13  C   UNL d   1       9.195   6.420 -10.641  0.00  0.00     0.019 A 
ATOM     14  C   UNL d   1       8.488   5.294 -10.167  0.00  0.00     0.002 A 
ATOM     15  C   UNL d   1       7.680   4.538 -11.039  0.00  0.00     0.011 A 
ATOM     16  C   UNL d   1       7.587   4.871 -12.395  0.00  0.00     0.058 A 
ATOM     17  C   UNL d   1       8.293   5.983 -12.884  0.00  0.00     0.011 A 
ATOM     18 CL   UNL d   1       6.590   3.923 -13.434  0.00  0.00    -0.082 Cl
ATOM     19  C   UNL d   1       9.074   6.763 -12.009  0.00  0.00     0.002 A 
ENDBRANCH   3  13
TORSDOF 2
