REMARK  5 active torsions:
REMARK  status: ('A' for Active; 'I' for Inactive)
REMARK    1  A    between atoms: N_11  and  C_12 
REMARK    2  A    between atoms: C_12  and  C_13 
REMARK    3  A    between atoms: C_13  and  C_14 
REMARK    4  A    between atoms: C_14  and  N_15 
REMARK    5  A    between atoms: N_18  and  C_19 
ROOT
ATOM      1  C   UNL d   1       8.211   5.661 -11.334  0.00  0.00     0.060 C 
ENDROOT
BRANCH   1   2
ATOM      2  C   UNL d   1       8.112   5.663 -12.876  0.00  0.00     0.111 C 
BRANCH   2   3
ATOM      3  N   UNL d   1       8.570   4.398 -13.478  0.00  0.00    -0.299 N 
ATOM      4  C   UNL d   1       9.870   4.256 -13.831  0.00  0.00     0.238 C 
ATOM      5  O   UNL d   1      10.701   5.160 -13.727  0.00  0.00    -0.272 OA
ATOM      6  C   UNL d   1      10.361   2.897 -14.354  0.00  0.00     0.093 C 
ATOM      7  C   UNL d   1       9.294   2.156 -15.159  0.00  0.00     0.038 C 
ATOM      8  C   UNL d   1       7.948   2.195 -14.454  0.00  0.00    -0.006 A 
ATOM      9  C   UNL d   1       7.612   3.332 -13.664  0.00  0.00     0.058 A 
ATOM     10  C   UNL d   1       7.032   1.130 -14.615  0.00  0.00    -0.003 A 
ATOM     11  C   UNL d   1       6.351   3.341 -13.013  0.00  0.00     0.017 A 
ATOM     12  C   UNL d   1       5.460   2.271 -13.163  0.00  0.00     0.002 A 
ATOM     13  C   UNL d   1       5.790   1.163 -13.960  0.00  0.00    -0.000 A 
ENDBRANCH   2   3
ENDBRANCH   1   2
BRANCH   1  14
ATOM     14  C   UNL d   1       9.606   6.074 -10.832  0.00  0.00     0.252 C 
BRANCH  14  15
ATOM     15  N   UNL d   1       9.519   6.910  -9.643  0.00  0.00     0.141 N 
ATOM     16  C   UNL d   1      10.772   7.641  -9.466  0.00  0.00     0.274 C 
ATOM     17  C   UNL d   1      10.683   8.587  -8.261  0.00  0.00     0.137 C 
ATOM     18  N   UNL d   1      10.317   7.839  -7.061  0.00  0.00    -0.344 N 
ATOM     19  C   UNL d   1       9.106   7.027  -7.208  0.00  0.00     0.137 C 
ATOM     20  C   UNL d   1       9.224   6.116  -8.446  0.00  0.00     0.274 C 
BRANCH  18  21
ATOM     21  C   UNL d   1      11.057   7.930  -5.857  0.00  0.00     0.056 A 
ATOM     22  C   UNL d   1      11.843   9.073  -5.567  0.00  0.00     0.017 A 
ATOM     23  C   UNL d   1      12.610   9.136  -4.382  0.00  0.00     0.002 A 
ATOM     24  C   UNL d   1      12.596   8.068  -3.465  0.00  0.00     0.000 A 
ATOM     25  C   UNL d   1      11.823   6.930  -3.739  0.00  0.00     0.002 A 
ATOM     26  C   UNL d   1      11.061   6.870  -4.921  0.00  0.00     0.017 A 
ENDBRANCH  18  21
ENDBRANCH  14  15
ENDBRANCH   1  14
TORSDOF 5
