REMARK  6 active torsions:
REMARK  status: ('A' for Active; 'I' for Inactive)
REMARK    1  A    between atoms: S_2  and  N_5 
REMARK    2  A    between atoms: N_5  and  C_6 
REMARK    3  A    between atoms: C_9  and  C_10 
REMARK    4  A    between atoms: C_10  and  C_11 
REMARK    5  A    between atoms: C_11  and  N_12 
REMARK    6  A    between atoms: N_15  and  C_16 
ROOT
ATOM      1  N   UNL d   1       8.433   4.765 -12.529  0.00  0.00     0.141 N 
ATOM      2  C   UNL d   1       7.081   4.366 -12.109  0.00  0.00     0.274 C 
ATOM      3  C   UNL d   1       6.236   3.930 -13.320  0.00  0.00     0.138 C 
ATOM      4  N   UNL d   1       6.918   2.883 -14.075  0.00  0.00    -0.329 N 
ATOM      5  C   UNL d   1       8.295   3.204 -14.428  0.00  0.00     0.138 C 
ATOM      6  C   UNL d   1       9.087   3.632 -13.187  0.00  0.00     0.274 C 
ENDROOT
BRANCH   1   7
ATOM      7  C   UNL d   1       9.214   5.155 -11.357  0.00  0.00     0.250 C 
BRANCH   7   8
ATOM      8  C   UNL d   1       9.275   6.687 -11.253  0.00  0.00     0.035 C 
BRANCH   8   9
ATOM      9  C   UNL d   1      10.289   7.194 -10.206  0.00  0.00     0.002 C 
ATOM     10  C   UNL d   1      10.398   8.729 -10.213  0.00  0.00     0.002 C 
ATOM     11  C   UNL d   1      11.421   9.245  -9.188  0.00  0.00     0.025 C 
ATOM     12  C   UNL d   1      11.063   8.748  -7.767  0.00  0.00     0.116 C 
ATOM     13  C   UNL d   1      10.970   7.208  -7.775  0.00  0.00     0.025 C 
ATOM     14  C   UNL d   1       9.954   6.716  -8.786  0.00  0.00     0.002 C 
BRANCH  12  15
ATOM     15  N   UNL d   1      12.101   9.161  -6.809  0.00  0.00    -0.190 NA
BRANCH  15  16
ATOM     16  S   UNL d   1      11.798   9.209  -5.102  0.00  0.00     0.262 S 
ATOM     17  C   UNL d   1      11.329   7.515  -4.609  0.00  0.00     0.165 C 
ATOM     18  O   UNL d   1      10.657  10.115  -4.890  0.00  0.00    -0.203 OA
ATOM     19  O   UNL d   1      13.057   9.470  -4.436  0.00  0.00    -0.203 OA
ENDBRANCH  15  16
ENDBRANCH  12  15
ENDBRANCH   8   9
ENDBRANCH   7   8
ENDBRANCH   1   7
BRANCH   4  20
ATOM     20  C   UNL d   1       6.314   1.648 -14.400  0.00  0.00     0.148 A 
ATOM     21  C   UNL d   1       6.532   0.984 -15.677  0.00  0.00     0.042 A 
ATOM     22  C   UNL d   1       5.756  -0.212 -15.723  0.00  0.00     0.050 A 
ATOM     23  C   UNL d   1       7.281   1.294 -16.840  0.00  0.00     0.004 A 
ATOM     24  S   UNL d   1       4.870  -0.341 -14.223  0.00  0.00     0.015 SA
ATOM     25  C   UNL d   1       5.758  -1.069 -16.837  0.00  0.00     0.008 A 
ATOM     26  N   UNL d   1       5.465   1.081 -13.564  0.00  0.00    -0.192 NA
ATOM     27  C   UNL d   1       6.541  -0.743 -17.958  0.00  0.00     0.001 A 
ATOM     28  C   UNL d   1       7.297   0.444 -17.961  0.00  0.00     0.000 A 
ENDBRANCH   4  20
TORSDOF 6
