REMARK  6 active torsions:
REMARK  status: ('A' for Active; 'I' for Inactive)
REMARK    1  A    between atoms: C_2  and  C_3 
REMARK    2  A    between atoms: C_3  and  N_4 
REMARK    3  A    between atoms: N_4  and  C_5 
REMARK    4  A    between atoms: N_4  and  C_8 
REMARK    5  A    between atoms: C_5  and  C_6 
REMARK    6  A    between atoms: C_8  and  C_9 
ROOT
ATOM      1  C   UNL d   1       9.062   6.059  -9.576  0.00  0.00     0.039 C 
ATOM      2  C   UNL d   1       8.794   5.432  -8.200  0.00  0.00     0.007 C 
ATOM      3  C   UNL d   1       8.806   6.494  -7.077  0.00  0.00     0.027 C 
ATOM      4  C   UNL d   1       9.951   7.453  -7.218  0.00  0.00    -0.020 A 
ATOM      5  C   UNL d   1      10.417   8.352  -6.217  0.00  0.00     0.003 A 
ATOM      6  C   UNL d   1      11.464   9.117  -6.641  0.00  0.00     0.035 A 
ATOM      7  S   UNL d   1      11.916   8.749  -8.278  0.00  0.00    -0.091 SA
ATOM      8  C   UNL d   1      10.658   7.565  -8.382  0.00  0.00     0.003 A 
ATOM      9  C   UNL d   1      10.407   6.792  -9.614  0.00  0.00     0.035 C 
ENDROOT
BRANCH   1  10
ATOM     10  C   UNL d   1       8.964   5.000 -10.690  0.00  0.00     0.251 C 
BRANCH  10  11
ATOM     11  N   UNL d   1       9.183   5.522 -12.050  0.00  0.00     0.137 N 
BRANCH  11  12
ATOM     12  C   UNL d   1       8.389   6.729 -12.332  0.00  0.00     0.250 C 
BRANCH  12  13
ATOM     13  C   UNL d   1       6.867   6.510 -12.286  0.00  0.00     0.035 C 
ATOM     14  C   UNL d   1       6.112   7.755 -12.698  0.00  0.00     0.002 C 
ENDBRANCH  12  13
ENDBRANCH  11  12
BRANCH  11  15
ATOM     15  C   UNL d   1       8.910   4.495 -13.063  0.00  0.00     0.250 C 
BRANCH  15  16
ATOM     16  C   UNL d   1       9.942   3.361 -13.117  0.00  0.00     0.035 C 
ATOM     17  C   UNL d   1      11.141   3.688 -14.007  0.00  0.00     0.002 C 
ENDBRANCH  15  16
ENDBRANCH  11  15
ENDBRANCH  10  11
ENDBRANCH   1  10
TORSDOF 6
