REMARK  8 active torsions:
REMARK  status: ('A' for Active; 'I' for Inactive)
REMARK    1  A    between atoms: S_2  and  N_4 
REMARK    2  A    between atoms: S_2  and  C_25 
REMARK    3  A    between atoms: N_4  and  C_5 
REMARK    4  A    between atoms: C_5  and  C_6 
REMARK    5  A    between atoms: C_6  and  C_7 
REMARK    6  A    between atoms: C_7  and  C_8 
REMARK    7  A    between atoms: C_8  and  N_9 
REMARK    8  A    between atoms: C_12  and  C_13 
ROOT
ATOM      1  C   UNL d   1       6.772   2.403 -15.072  0.00  0.00     0.037 C 
ENDROOT
BRANCH   1   2
ATOM      2  C   UNL d   1       6.227   0.973 -14.924  0.00  0.00     0.029 C 
BRANCH   2   3
ATOM      3  C   UNL d   1       6.532   0.092 -16.144  0.00  0.00     0.139 C 
BRANCH   3   4
ATOM      4  N   UNL d   1       5.790   0.584 -17.308  0.00  0.00    -0.185 NA
BRANCH   4   5
ATOM      5  S   UNL d   1       6.156  -0.017 -18.871  0.00  0.00     0.281 S 
ATOM      6  O   UNL d   1       5.301   0.717 -19.822  0.00  0.00    -0.199 OA
ATOM      7  O   UNL d   1       7.617   0.000 -19.013  0.00  0.00    -0.199 OA
BRANCH   5   8
ATOM      8  C   UNL d   1       5.599  -1.711 -18.754  0.00  0.00     0.105 A 
ATOM      9  C   UNL d   1       6.528  -2.726 -18.451  0.00  0.00     0.013 A 
ATOM     10  C   UNL d   1       6.093  -4.062 -18.347  0.00  0.00     0.001 A 
ATOM     11  C   UNL d   1       4.724  -4.374 -18.549  0.00  0.00     0.001 A 
ATOM     12  C   UNL d   1       7.011  -5.086 -18.038  0.00  0.00     0.001 A 
ATOM     13  C   UNL d   1       3.803  -3.348 -18.852  0.00  0.00     0.001 A 
ATOM     14  C   UNL d   1       4.288  -5.711 -18.440  0.00  0.00     0.011 A 
ATOM     15  C   UNL d   1       4.239  -2.013 -18.957  0.00  0.00     0.013 A 
ATOM     16  C   UNL d   1       5.209  -6.731 -18.132  0.00  0.00     0.058 A 
ATOM     17 CL   UNL d   1       4.678  -8.368 -18.020  0.00  0.00    -0.082 Cl
ATOM     18  C   UNL d   1       6.567  -6.418 -17.928  0.00  0.00     0.011 A 
ENDBRANCH   5   8
ENDBRANCH   4   5
ENDBRANCH   3   4
ENDBRANCH   2   3
ENDBRANCH   1   2
BRANCH   1  19
ATOM     19  C   UNL d   1       6.062   3.401 -14.128  0.00  0.00     0.250 C 
BRANCH  19  20
ATOM     20  N   UNL d   1       6.955   4.390 -13.530  0.00  0.00     0.137 N 
ATOM     21  C   UNL d   1       6.136   5.346 -12.790  0.00  0.00     0.251 C 
ATOM     22  C   UNL d   1       7.030   6.437 -12.188  0.00  0.00     0.041 C 
ATOM     23  C   UNL d   1       8.111   5.843 -11.253  0.00  0.00     0.047 C 
ATOM     24  C   UNL d   1       8.845   4.729 -11.986  0.00  0.00     0.041 C 
ATOM     25  C   UNL d   1       7.850   3.740 -12.582  0.00  0.00     0.251 C 
BRANCH  23  26
ATOM     26  C   UNL d   1       9.075   6.873 -10.753  0.00  0.00     0.087 A 
ATOM     27  C   UNL d   1       9.659   7.074  -9.475  0.00  0.00     0.041 A 
ATOM     28  C   UNL d   1      10.477   8.201  -9.521  0.00  0.00     0.129 A 
ATOM     29  C   UNL d   1       9.508   6.384  -8.252  0.00  0.00     0.006 A 
ATOM     30  O   UNL d   1      10.385   8.661 -10.825  0.00  0.00    -0.211 OA
ATOM     31  C   UNL d   1      11.190   8.683  -8.421  0.00  0.00     0.057 A 
ATOM     32  N   UNL d   1       9.524   7.823 -11.578  0.00  0.00    -0.131 NA
ATOM     33  C   UNL d   1      11.041   7.999  -7.196  0.00  0.00     0.142 A 
ATOM     34  F   UNL d   1      11.696   8.438  -6.096  0.00  0.00    -0.204 F 
ATOM     35  C   UNL d   1      10.207   6.856  -7.116  0.00  0.00     0.030 A 
ENDBRANCH  23  26
ENDBRANCH  19  20
ENDBRANCH   1  19
TORSDOF 8
