REMARK  7 active torsions:
REMARK  status: ('A' for Active; 'I' for Inactive)
REMARK    1  A    between atoms: C_2  and  C_3 
REMARK    2  A    between atoms: C_3  and  C_5 
REMARK       I    between atoms: C_5  and  N_7 
REMARK    3  A    between atoms: N_7  and  C_8 
REMARK    4  A    between atoms: C_11  and  C_12 
REMARK    5  A    between atoms: C_12  and  C_13 
REMARK    6  A    between atoms: C_13  and  N_14 
REMARK    7  A    between atoms: N_17  and  C_18 
ROOT
ATOM      1  N   UNL d   1       7.521   5.927 -12.647  0.00  0.00     0.141 N 
ATOM      2  C   UNL d   1       6.147   5.404 -12.630  0.00  0.00     0.274 C 
ATOM      3  C   UNL d   1       6.127   3.888 -12.379  0.00  0.00     0.137 C 
ATOM      4  N   UNL d   1       6.995   3.239 -13.363  0.00  0.00    -0.343 N 
ATOM      5  C   UNL d   1       8.371   3.745 -13.439  0.00  0.00     0.137 C 
ATOM      6  C   UNL d   1       8.315   5.261 -13.688  0.00  0.00     0.274 C 
ENDROOT
BRANCH   1   7
ATOM      7  C   UNL d   1       8.103   5.794 -11.314  0.00  0.00     0.250 C 
BRANCH   7   8
ATOM      8  C   UNL d   1       9.523   6.359 -11.234  0.00  0.00     0.035 C 
BRANCH   8   9
ATOM      9  C   UNL d   1       9.752   7.132  -9.943  0.00  0.00     0.002 C 
ATOM     10  C   UNL d   1       9.433   6.285  -8.696  0.00  0.00     0.002 C 
ATOM     11  C   UNL d   1       9.701   7.087  -7.426  0.00  0.00     0.024 C 
ATOM     12  C   UNL d   1      11.156   7.606  -7.385  0.00  0.00     0.106 C 
ATOM     13  C   UNL d   1      11.492   8.426  -8.633  0.00  0.00     0.024 C 
ATOM     14  C   UNL d   1      11.192   7.651  -9.919  0.00  0.00     0.002 C 
BRANCH  12  15
ATOM     15  N   UNL d   1      11.400   8.421  -6.205  0.00  0.00    -0.238 NA
ATOM     16  C   UNL d   1      11.464   7.898  -4.965  0.00  0.00     0.282 C 
ATOM     17  O   UNL d   1      11.135   6.752  -4.707  0.00  0.00    -0.268 OA
BRANCH  16  18
ATOM     18  C   UNL d   1      12.016   8.792  -3.859  0.00  0.00     0.232 C 
ATOM     19  O   UNL d   1      11.261   9.983  -3.817  0.00  0.00    -0.213 OA
BRANCH  18  20
ATOM     20  C   UNL d   1      12.053   8.130  -2.458  0.00  0.00     0.043 C 
ATOM     21  C   UNL d   1      12.569   6.678  -2.368  0.00  0.00     0.003 C 
ENDBRANCH  18  20
ENDBRANCH  16  18
ENDBRANCH  12  15
ENDBRANCH   8   9
ENDBRANCH   7   8
ENDBRANCH   1   7
BRANCH   4  22
ATOM     22  C   UNL d   1       6.604   2.084 -14.053  0.00  0.00     0.081 A 
ATOM     23  C   UNL d   1       7.157   1.736 -15.302  0.00  0.00     0.135 A 
ATOM     24  C   UNL d   1       6.724   0.625 -16.012  0.00  0.00     0.121 A 
ATOM     25  O   UNL d   1       8.110   2.375 -16.036  0.00  0.00    -0.298 OA
ATOM     26  C   UNL d   1       5.708  -0.207 -15.520  0.00  0.00     0.026 A 
ATOM     27  O   UNL d   1       7.402   0.538 -17.186  0.00  0.00    -0.299 OA
ATOM     28  C   UNL d   1       5.144   0.104 -14.269  0.00  0.00     0.004 A 
ATOM     29  C   UNL d   1       5.592   1.229 -13.534  0.00  0.00     0.019 A 
ATOM     30  C   UNL d   1       8.297   1.618 -17.201  0.00  0.00     0.304 A 
ENDBRANCH   4  22
TORSDOF 7
