REMARK  2 active torsions:
REMARK  status: ('A' for Active; 'I' for Inactive)
REMARK    1  A    between atoms: C_2  and  C_3 
REMARK    2  A    between atoms: C_3  and  N_4 
ROOT
ATOM      1  N   UNL d   1      10.250   5.311 -12.536  0.00  0.00     0.143 N 
ATOM      2  C   UNL d   1       9.456   4.588 -11.568  0.00  0.00     0.277 C 
ATOM      3  C   UNL d   1       8.150   4.165 -12.199  0.00  0.00     0.007 A 
ATOM      4  C   UNL d   1       7.056   4.085 -11.366  0.00  0.00    -0.003 A 
ATOM      5  C   UNL d   1       5.823   3.668 -11.852  0.00  0.00    -0.000 A 
ATOM      6  C   UNL d   1       5.651   3.416 -13.206  0.00  0.00    -0.000 A 
ATOM      7  C   UNL d   1       6.763   3.449 -14.057  0.00  0.00    -0.004 A 
ATOM      8  C   UNL d   1       8.041   3.812 -13.565  0.00  0.00    -0.018 A 
ATOM      9  C   UNL d   1       9.270   3.955 -14.443  0.00  0.00     0.080 C 
ATOM     10  C   UNL d   1       9.705   2.783 -15.320  0.00  0.00     0.008 A 
ATOM     11  C   UNL d   1       8.862   1.692 -15.641  0.00  0.00     0.028 A 
ATOM     12  C   UNL d   1       9.302   0.690 -16.524  0.00  0.00     0.156 A 
ATOM     13  O   UNL d   1       8.463  -0.318 -16.898  0.00  0.00    -0.188 OA
ATOM     14  C   UNL d   1      10.605   0.732 -17.045  0.00  0.00     0.158 A 
ATOM     15  O   UNL d   1      11.019  -0.244 -17.900  0.00  0.00    -0.188 OA
ATOM     16  C   UNL d   1      11.468   1.779 -16.688  0.00  0.00     0.053 A 
ATOM     17  C   UNL d   1      11.029   2.804 -15.832  0.00  0.00     0.093 A 
ATOM     18  O   UNL d   1      11.959   3.773 -15.502  0.00  0.00    -0.329 OA
ATOM     19  C   UNL d   1      11.573   4.835 -14.636  0.00  0.00     0.183 C 
ATOM     20  C   UNL d   1      10.517   4.368 -13.634  0.00  0.00     0.257 C 
ENDROOT
BRANCH   1  21
ATOM     21  C   UNL d   1       9.582   6.567 -12.907  0.00  0.00     0.251 C 
BRANCH  21  22
ATOM     22  C   UNL d   1       9.369   7.600 -11.775  0.00  0.00     0.035 C 
ATOM     23  C   UNL d   1       8.609   8.840 -12.247  0.00  0.00     0.002 C 
ENDBRANCH  21  22
ENDBRANCH   1  21
TORSDOF 2
