REMARK  6 active torsions:
REMARK  status: ('A' for Active; 'I' for Inactive)
REMARK    1  A    between atoms: C_2  and  O_3 
REMARK    2  A    between atoms: C_2  and  C_18 
REMARK    3  A    between atoms: O_3  and  C_4 
REMARK    4  A    between atoms: C_4  and  C_5 
REMARK    5  A    between atoms: N_8  and  C_9 
REMARK    6  A    between atoms: C_9  and  C_10 
ROOT
ATOM      1  C   UNL d   1       9.337   6.741 -10.793  0.00  0.00     0.034 C 
ATOM      2  C   UNL d   1      10.033   8.117 -10.743  0.00  0.00     0.038 C 
ATOM      3  C   UNL d   1       9.752   8.868  -9.423  0.00  0.00     0.251 C 
ATOM      4  N   UNL d   1      10.141   8.047  -8.274  0.00  0.00     0.141 N 
ATOM      5  C   UNL d   1       9.341   6.815  -8.264  0.00  0.00     0.251 C 
ATOM      6  C   UNL d   1       9.633   5.961  -9.502  0.00  0.00     0.038 C 
ENDROOT
BRANCH   1   7
ATOM      7  C   UNL d   1       9.674   5.972 -12.092  0.00  0.00     0.152 C 
BRANCH   7   8
ATOM      8  O   UNL d   1       8.710   4.959 -12.344  0.00  0.00    -0.298 OA
BRANCH   8   9
ATOM      9  C   UNL d   1       8.666   4.398 -13.554  0.00  0.00     0.296 C 
ATOM     10  O   UNL d   1       9.441   4.669 -14.473  0.00  0.00    -0.259 OA
BRANCH   9  11
ATOM     11  C   UNL d   1       7.609   3.369 -13.646  0.00  0.00     0.063 A 
ATOM     12  C   UNL d   1       7.865   2.242 -14.449  0.00  0.00     0.006 A 
ATOM     13  C   UNL d   1       6.950   1.191 -14.510  0.00  0.00     0.012 A 
ATOM     14  C   UNL d   1       5.754   1.258 -13.771  0.00  0.00     0.058 A 
ATOM     15  C   UNL d   1       5.467   2.405 -12.989  0.00  0.00     0.012 A 
ATOM     16 CL   UNL d   1       4.645  -0.047 -13.878  0.00  0.00    -0.082 Cl
ATOM     17  C   UNL d   1       6.389   3.466 -12.931  0.00  0.00     0.006 A 
ENDBRANCH   9  11
ENDBRANCH   8   9
ENDBRANCH   7   8
ENDBRANCH   1   7
BRANCH   4  18
ATOM     18  C   UNL d   1       9.897   8.822  -7.047  0.00  0.00     0.277 C 
BRANCH  18  19
ATOM     19  C   UNL d   1      10.759   8.434  -5.861  0.00  0.00     0.011 A 
ATOM     20  C   UNL d   1      11.700   9.363  -5.345  0.00  0.00    -0.002 A 
ATOM     21  C   UNL d   1      12.513   9.029  -4.247  0.00  0.00    -0.000 A 
ATOM     22  C   UNL d   1      12.418   7.747  -3.670  0.00  0.00    -0.000 A 
ATOM     23  C   UNL d   1      11.495   6.813  -4.183  0.00  0.00    -0.000 A 
ATOM     24  C   UNL d   1      10.651   7.165  -5.258  0.00  0.00    -0.002 A 
ENDBRANCH  18  19
ENDBRANCH   4  18
TORSDOF 6
