REMARK  6 active torsions:
REMARK  status: ('A' for Active; 'I' for Inactive)
REMARK    1  A    between atoms: C_3  and  C_4 
REMARK       I    between atoms: C_4  and  N_6 
REMARK    2  A    between atoms: N_6  and  C_7 
REMARK    3  A    between atoms: C_10  and  C_11 
REMARK    4  A    between atoms: C_11  and  C_12 
REMARK    5  A    between atoms: C_12  and  N_13 
REMARK    6  A    between atoms: C_16  and  C_17 
ROOT
ATOM      1  N   UNL d   1      11.458  -0.417 -18.061  0.00  0.00    -0.196 NA
ATOM      2  C   UNL d   1      10.341  -0.128 -17.972  0.00  0.00     0.084 C 
ATOM      3  C   UNL d   1       8.921   0.241 -17.854  0.00  0.00     0.194 C 
ENDROOT
BRANCH   3   4
ATOM      4  C   UNL d   1       8.719   1.602 -17.197  0.00  0.00     0.267 C 
ATOM      5  O   UNL d   1       7.859   2.369 -17.638  0.00  0.00    -0.269 OA
ATOM      6  N   UNL d   1       9.488   1.889 -16.142  0.00  0.00    -0.239 NA
BRANCH   6   7
ATOM      7  C   UNL d   1       9.366   3.083 -15.319  0.00  0.00     0.106 C 
ATOM      8  C   UNL d   1      10.724   3.384 -14.664  0.00  0.00     0.024 C 
ATOM      9  C   UNL d   1      10.615   4.593 -13.736  0.00  0.00     0.002 C 
ATOM     10  C   UNL d   1       9.523   4.410 -12.667  0.00  0.00     0.002 C 
ATOM     11  C   UNL d   1       8.174   4.066 -13.306  0.00  0.00     0.002 C 
ATOM     12  C   UNL d   1       8.276   2.864 -14.253  0.00  0.00     0.024 C 
BRANCH  10  13
ATOM     13  C   UNL d   1       9.395   5.676 -11.809  0.00  0.00     0.035 C 
BRANCH  13  14
ATOM     14  C   UNL d   1       8.720   5.430 -10.443  0.00  0.00     0.250 C 
BRANCH  14  15
ATOM     15  N   UNL d   1       9.191   6.316  -9.383  0.00  0.00     0.137 N 
ATOM     16  C   UNL d   1       8.632   5.826  -8.120  0.00  0.00     0.251 C 
ATOM     17  C   UNL d   1       8.989   6.780  -6.970  0.00  0.00     0.040 C 
ATOM     18  C   UNL d   1      10.511   6.946  -6.840  0.00  0.00     0.028 C 
ATOM     19  C   UNL d   1      11.107   7.321  -8.197  0.00  0.00     0.040 C 
ATOM     20  C   UNL d   1      10.650   6.347  -9.268  0.00  0.00     0.251 C 
BRANCH  18  21
ATOM     21  C   UNL d   1      10.875   7.975  -5.788  0.00  0.00     0.002 A 
ATOM     22  C   UNL d   1      11.462   7.605  -4.563  0.00  0.00     0.115 A 
ATOM     23  C   UNL d   1      11.812   8.528  -3.600  0.00  0.00     0.119 A 
ATOM     24  O   UNL d   1      11.790   6.370  -4.120  0.00  0.00    -0.300 OA
ATOM     25  C   UNL d   1      11.575   9.895  -3.792  0.00  0.00     0.026 A 
ATOM     26  O   UNL d   1      12.351   7.903  -2.523  0.00  0.00    -0.300 OA
ATOM     27  C   UNL d   1      11.015  10.300  -5.025  0.00  0.00     0.002 A 
ATOM     28  C   UNL d   1      10.657   9.352  -6.009  0.00  0.00    -0.002 A 
ATOM     29  C   UNL d   1      12.319   6.535  -2.835  0.00  0.00     0.304 A 
ENDBRANCH  18  21
ENDBRANCH  14  15
ENDBRANCH  13  14
ENDBRANCH  10  13
ENDBRANCH   6   7
ENDBRANCH   3   4
TORSDOF 6
