REMARK  7 active torsions:
REMARK  status: ('A' for Active; 'I' for Inactive)
REMARK    1  A    between atoms: N_11  and  C_12 
REMARK    2  A    between atoms: C_12  and  C_13 
REMARK    3  A    between atoms: C_13  and  C_14 
REMARK    4  A    between atoms: C_14  and  C_15 
REMARK    5  A    between atoms: C_15  and  N_16 
REMARK       I    between atoms: N_16  and  C_17 
REMARK    6  A    between atoms: C_17  and  C_19 
REMARK    7  A    between atoms: C_22  and  C_23 
ROOT
ATOM      1  N   UNL d   1       7.430  -4.835 -18.886  0.00  0.00    -0.191 NA
ATOM      2  C   UNL d   1       7.445  -3.680 -18.964  0.00  0.00     0.101 C 
ATOM      3  C   UNL d   1       7.473  -2.229 -19.063  0.00  0.00     0.068 A 
ATOM      4  C   UNL d   1       6.466  -1.541 -19.770  0.00  0.00     0.012 A 
ATOM      5  C   UNL d   1       6.500  -0.135 -19.859  0.00  0.00     0.025 A 
ATOM      6  C   UNL d   1       7.546   0.590 -19.251  0.00  0.00     0.090 A 
ATOM      7  C   UNL d   1       8.543  -0.100 -18.522  0.00  0.00     0.003 A 
ATOM      8  C   UNL d   1       8.514  -1.506 -18.445  0.00  0.00     0.008 A 
ATOM      9  C   UNL d   1       9.609   0.683 -17.773  0.00  0.00     0.062 C 
ATOM     10  C   UNL d   1       9.309   0.758 -16.269  0.00  0.00     0.255 C 
ATOM     11  N   UNL d   1       9.837   2.058 -15.869  0.00  0.00     0.137 N 
ATOM     12  C   UNL d   1       9.373   2.930 -16.940  0.00  0.00     0.253 C 
ATOM     13  C   UNL d   1       9.722   2.150 -18.201  0.00  0.00     0.070 C 
ATOM     14  C   UNL d   1       8.872   2.524 -19.426  0.00  0.00     0.151 C 
ATOM     15  O   UNL d   1       7.567   1.960 -19.368  0.00  0.00    -0.331 OA
ENDROOT
BRANCH  11  16
ATOM     16  C   UNL d   1       9.362   2.442 -14.540  0.00  0.00     0.250 C 
BRANCH  16  17
ATOM     17  C   UNL d   1       9.638   3.925 -14.222  0.00  0.00     0.037 C 
BRANCH  17  18
ATOM     18  C   UNL d   1       9.403   4.281 -12.749  0.00  0.00     0.029 C 
BRANCH  18  19
ATOM     19  C   UNL d   1       9.179   5.788 -12.540  0.00  0.00     0.129 C 
BRANCH  19  20
ATOM     20  N   UNL d   1       9.449   6.157 -11.159  0.00  0.00    -0.234 NA
ATOM     21  C   UNL d   1       9.696   7.409 -10.752  0.00  0.00     0.275 C 
ATOM     22  O   UNL d   1       9.648   8.385 -11.499  0.00  0.00    -0.266 OA
BRANCH  21  23
ATOM     23  C   UNL d   1      10.140   7.538  -9.325  0.00  0.00     0.058 A 
ATOM     24  C   UNL d   1      11.196   8.411  -8.980  0.00  0.00     0.005 A 
ATOM     25  C   UNL d   1      11.604   8.535  -7.634  0.00  0.00     0.000 A 
ATOM     26  C   UNL d   1      10.958   7.811  -6.607  0.00  0.00     0.000 A 
ATOM     27  C   UNL d   1       9.890   6.956  -6.962  0.00  0.00     0.000 A 
ATOM     28  C   UNL d   1       9.479   6.825  -8.302  0.00  0.00     0.005 A 
BRANCH  26  29
ATOM     29  C   UNL d   1      11.383   7.936  -5.199  0.00  0.00     0.000 A 
ATOM     30  C   UNL d   1      11.524   6.790  -4.387  0.00  0.00     0.000 A 
ATOM     31  C   UNL d   1      11.931   6.892  -3.041  0.00  0.00     0.000 A 
ATOM     32  C   UNL d   1      12.202   8.155  -2.484  0.00  0.00     0.000 A 
ATOM     33  C   UNL d   1      12.055   9.307  -3.276  0.00  0.00     0.000 A 
ATOM     34  C   UNL d   1      11.657   9.198  -4.625  0.00  0.00     0.000 A 
ENDBRANCH  26  29
ENDBRANCH  21  23
ENDBRANCH  19  20
ENDBRANCH  18  19
ENDBRANCH  17  18
ENDBRANCH  16  17
ENDBRANCH  11  16
TORSDOF 7
