REMARK  6 active torsions:
REMARK  status: ('A' for Active; 'I' for Inactive)
REMARK       I    between atoms: C_2  and  N_3 
REMARK    1  A    between atoms: C_2  and  C_27 
REMARK    2  A    between atoms: N_3  and  C_4 
REMARK    3  A    between atoms: C_7  and  C_8 
REMARK    4  A    between atoms: C_8  and  C_9 
REMARK    5  A    between atoms: C_9  and  N_10 
REMARK    6  A    between atoms: C_13  and  C_14 
ROOT
ATOM      1  C   UNL d   1       8.515   4.850 -10.749  0.00  0.00     0.250 C 
ENDROOT
BRANCH   1   2
ATOM      2  C   UNL d   1       8.422   5.432 -12.167  0.00  0.00     0.035 C 
BRANCH   2   3
ATOM      3  C   UNL d   1       8.085   4.378 -13.235  0.00  0.00     0.002 C 
ATOM      4  C   UNL d   1       9.210   3.325 -13.389  0.00  0.00     0.002 C 
ATOM      5  C   UNL d   1       8.894   2.303 -14.491  0.00  0.00     0.024 C 
ATOM      6  C   UNL d   1       7.510   1.624 -14.305  0.00  0.00     0.106 C 
ATOM      7  C   UNL d   1       6.396   2.676 -14.089  0.00  0.00     0.024 C 
ATOM      8  C   UNL d   1       6.714   3.704 -12.999  0.00  0.00     0.002 C 
BRANCH   6   9
ATOM      9  N   UNL d   1       7.190   0.699 -15.376  0.00  0.00    -0.240 NA
ATOM     10  C   UNL d   1       7.078   0.962 -16.671  0.00  0.00     0.253 C 
ATOM     11  O   UNL d   1       7.269   2.073 -17.166  0.00  0.00    -0.271 OA
BRANCH  10  12
ATOM     12  C   UNL d   1       6.651  -0.198 -17.557  0.00  0.00     0.113 C 
ATOM     13  C   UNL d   1       7.639  -0.435 -18.701  0.00  0.00     0.152 C 
ATOM     14  O   UNL d   1       6.864  -0.950 -19.784  0.00  0.00    -0.354 OA
ATOM     15  C   UNL d   1       5.477  -0.804 -19.501  0.00  0.00     0.143 C 
ATOM     16  C   UNL d   1       5.377   0.122 -18.305  0.00  0.00     0.044 C 
ENDBRANCH  10  12
ENDBRANCH   6   9
ENDBRANCH   2   3
ENDBRANCH   1   2
BRANCH   1  17
ATOM     17  N   UNL d   1       8.856   5.865  -9.757  0.00  0.00     0.137 N 
ATOM     18  C   UNL d   1       8.547   5.347  -8.428  0.00  0.00     0.251 C 
ATOM     19  C   UNL d   1       8.868   6.400  -7.350  0.00  0.00     0.040 C 
ATOM     20  C   UNL d   1      10.345   6.803  -7.378  0.00  0.00     0.028 C 
ATOM     21  C   UNL d   1      10.699   7.225  -8.812  0.00  0.00     0.040 C 
ATOM     22  C   UNL d   1      10.276   6.147  -9.813  0.00  0.00     0.251 C 
BRANCH  20  23
ATOM     23  C   UNL d   1      10.629   7.900  -6.396  0.00  0.00     0.004 A 
ATOM     24  C   UNL d   1      11.239   7.804  -5.107  0.00  0.00     0.021 A 
ATOM     25  C   UNL d   1      11.281   9.117  -4.579  0.00  0.00     0.100 A 
ATOM     26  C   UNL d   1      11.760   6.776  -4.300  0.00  0.00     0.002 A 
ATOM     27  O   UNL d   1      10.709   9.984  -5.485  0.00  0.00    -0.305 OA
ATOM     28  C   UNL d   1      11.798   9.422  -3.309  0.00  0.00     0.025 A 
ATOM     29  C   UNL d   1      10.332   9.219  -6.558  0.00  0.00     0.118 A 
ATOM     30  C   UNL d   1      12.300   8.366  -2.518  0.00  0.00     0.002 A 
ATOM     31  C   UNL d   1      12.276   7.045  -3.016  0.00  0.00     0.000 A 
ENDBRANCH  20  23
ENDBRANCH   1  17
TORSDOF 6
