REMARK  2 active torsions:
REMARK  status: ('A' for Active; 'I' for Inactive)
REMARK    1  A    between atoms: C_2  and  C_3 
REMARK    2  A    between atoms: C_3  and  N_4 
ROOT
ATOM      1  N   UNL d   1       8.749   4.442 -13.437  0.00  0.00    -0.252 N 
ATOM      2  N   UNL d   1       9.759   5.143 -14.004  0.00  0.00    -0.168 NA
ATOM      3  C   UNL d   1       9.962   4.575 -15.186  0.00  0.00     0.117 A 
ATOM      4  C   UNL d   1       9.091   3.478 -15.416  0.00  0.00     0.016 A 
ATOM      5  C   UNL d   1       8.293   3.464 -14.312  0.00  0.00     0.075 A 
ATOM      6  C   UNL d   1       7.247   2.495 -14.043  0.00  0.00     0.015 C 
ATOM      7  C   UNL d   1       5.973   2.701 -13.577  0.00  0.00     0.008 C 
ATOM      8  C   UNL d   1       5.272   3.996 -13.305  0.00  0.00     0.038 C 
ATOM      9  S   UNL d   1       5.184   1.195 -13.228  0.00  0.00    -0.096 SA
ATOM     10  C   UNL d   1       6.483   0.289 -13.924  0.00  0.00     0.003 C 
ATOM     11  C   UNL d   1       6.364  -1.190 -13.992  0.00  0.00     0.038 C 
ATOM     12  C   UNL d   1       7.513   1.110 -14.300  0.00  0.00    -0.019 C 
ATOM     13  C   UNL d   1       8.859   0.643 -14.766  0.00  0.00     0.027 C 
ATOM     14  C   UNL d   1       9.235   1.054 -16.197  0.00  0.00     0.009 C 
ATOM     15  C   UNL d   1       8.987   2.528 -16.583  0.00  0.00     0.030 C 
ENDROOT
BRANCH   1  16
ATOM     16  C   UNL d   1       8.323   4.800 -12.083  0.00  0.00     0.128 C 
BRANCH  16  17
ATOM     17  C   UNL d   1       9.488   4.742 -11.089  0.00  0.00     0.026 C 
ATOM     18  C   UNL d   1       9.087   4.984  -9.631  0.00  0.00     0.002 C 
ENDBRANCH  16  17
ENDBRANCH   1  16
TORSDOF 2
