REMARK  6 active torsions:
REMARK  status: ('A' for Active; 'I' for Inactive)
REMARK    1  A    between atoms: C_2  and  C_3 
REMARK    2  A    between atoms: C_2  and  C_20 
REMARK    3  A    between atoms: C_3  and  C_4 
REMARK    4  A    between atoms: C_4  and  C_5 
REMARK    5  A    between atoms: C_5  and  N_6 
REMARK    6  A    between atoms: C_12  and  C_13 
ROOT
ATOM      1  N   UNL d   1       9.845   5.588 -12.287  0.00  0.00     0.133 N 
ATOM      2  C   UNL d   1       8.884   6.692 -12.238  0.00  0.00     0.220 C 
ATOM      3  C   UNL d   1       7.532   6.009 -11.982  0.00  0.00     0.035 C 
ATOM      4  C   UNL d   1       7.906   4.728 -11.244  0.00  0.00     0.035 C 
ATOM      5  C   UNL d   1       9.431   4.783 -11.136  0.00  0.00     0.220 C 
ATOM      6  C   UNL d   1       9.893   5.506  -9.840  0.00  0.00     0.038 C 
ATOM      7  C   UNL d   1       9.347   6.934  -9.718  0.00  0.00     0.026 C 
ATOM      8  C   UNL d   1       9.324   7.644 -11.102  0.00  0.00     0.038 C 
ENDROOT
BRANCH   1   9
ATOM      9  C   UNL d   1       9.802   4.875 -13.571  0.00  0.00     0.251 C 
BRANCH   9  10
ATOM     10  C   UNL d   1      10.959   3.869 -13.691  0.00  0.00     0.043 C 
BRANCH  10  11
ATOM     11  C   UNL d   1      11.284   3.474 -15.139  0.00  0.00     0.071 C 
BRANCH  11  12
ATOM     12  C   UNL d   1      11.924   4.639 -15.921  0.00  0.00     0.173 C 
ATOM     13  O   UNL d   1      13.030   5.040 -15.555  0.00  0.00    -0.291 OA
BRANCH  12  14
ATOM     14  C   UNL d   1      11.188   5.260 -17.068  0.00  0.00     0.035 A 
ATOM     15  C   UNL d   1       9.887   4.845 -17.445  0.00  0.00     0.005 A 
ATOM     16  C   UNL d   1       9.243   5.436 -18.549  0.00  0.00     0.030 A 
ATOM     17  C   UNL d   1       9.868   6.459 -19.286  0.00  0.00     0.140 A 
ATOM     18  C   UNL d   1      11.153   6.890 -18.915  0.00  0.00     0.030 A 
ATOM     19  F   UNL d   1       9.229   7.027 -20.338  0.00  0.00    -0.204 F 
ATOM     20  C   UNL d   1      11.806   6.297 -17.811  0.00  0.00     0.005 A 
ENDBRANCH  12  14
ENDBRANCH  11  12
ENDBRANCH  10  11
ENDBRANCH   9  10
ENDBRANCH   1   9
BRANCH   7  21
ATOM     21  C   UNL d   1      10.115   7.741  -8.673  0.00  0.00    -0.022 A 
ATOM     22  C   UNL d   1       9.461   8.187  -7.501  0.00  0.00    -0.004 A 
ATOM     23  C   UNL d   1      10.177   8.917  -6.533  0.00  0.00    -0.000 A 
ATOM     24  C   UNL d   1      11.536   9.225  -6.724  0.00  0.00    -0.000 A 
ATOM     25  C   UNL d   1      12.194   8.778  -7.888  0.00  0.00    -0.000 A 
ATOM     26  C   UNL d   1      11.485   8.044  -8.853  0.00  0.00    -0.004 A 
ENDBRANCH   7  21
TORSDOF 6
