REMARK  5 active torsions:
REMARK  status: ('A' for Active; 'I' for Inactive)
REMARK    1  A    between atoms: N_12  and  C_13 
REMARK    2  A    between atoms: C_13  and  C_14 
REMARK    3  A    between atoms: C_14  and  C_15 
REMARK    4  A    between atoms: C_15  and  N_16 
REMARK    5  A    between atoms: N_19  and  C_20 
ROOT
ATOM      1  N   UNL d   1       8.554   4.531 -13.001  0.00  0.00     0.141 N 
ATOM      2  C   UNL d   1       9.489   4.179 -11.926  0.00  0.00     0.274 C 
ATOM      3  C   UNL d   1       9.125   4.904 -10.622  0.00  0.00     0.137 C 
ATOM      4  N   UNL d   1       9.112   6.331 -10.863  0.00  0.00    -0.344 N 
ATOM      5  C   UNL d   1       8.264   6.761 -11.961  0.00  0.00     0.137 C 
ATOM      6  C   UNL d   1       8.640   5.976 -13.227  0.00  0.00     0.274 C 
ENDROOT
BRANCH   1   7
ATOM      7  C   UNL d   1       8.931   3.840 -14.229  0.00  0.00     0.252 C 
BRANCH   7   8
ATOM      8  C   UNL d   1       8.636   2.340 -14.134  0.00  0.00     0.060 C 
BRANCH   8   9
ATOM      9  C   UNL d   1       8.827   1.586 -15.465  0.00  0.00     0.114 C 
BRANCH   9  10
ATOM     10  N   UNL d   1       7.565   1.083 -16.027  0.00  0.00    -0.271 N 
ATOM     11  C   UNL d   1       7.148   1.365 -17.268  0.00  0.00     0.240 A 
ATOM     12  O   UNL d   1       7.732   2.062 -18.095  0.00  0.00    -0.272 OA
ATOM     13  C   UNL d   1       5.808   0.706 -17.565  0.00  0.00     0.093 A 
ATOM     14  C   UNL d   1       5.514  -0.073 -16.261  0.00  0.00     0.093 A 
ATOM     15  C   UNL d   1       5.840  -0.411 -18.642  0.00  0.00     0.031 C 
ATOM     16  C   UNL d   1       5.420  -1.539 -16.756  0.00  0.00     0.031 C 
ATOM     17  C   UNL d   1       6.726   0.242 -15.395  0.00  0.00     0.240 A 
ATOM     18  C   UNL d   1       4.178  -1.625 -17.619  0.00  0.00    -0.030 C 
ATOM     19  C   UNL d   1       6.487  -1.566 -17.864  0.00  0.00     0.010 C 
ATOM     20  C   UNL d   1       4.428  -0.950 -18.745  0.00  0.00    -0.030 C 
ATOM     21  O   UNL d   1       6.871  -0.227 -14.266  0.00  0.00    -0.272 OA
ENDBRANCH   9  10
ENDBRANCH   8   9
ENDBRANCH   7   8
ENDBRANCH   1   7
BRANCH   4  22
ATOM     22  C   UNL d   1       9.777   7.248 -10.030  0.00  0.00     0.057 A 
ATOM     23  C   UNL d   1       9.712   7.160  -8.615  0.00  0.00     0.022 A 
ATOM     24  C   UNL d   1      10.463   8.118  -7.859  0.00  0.00     0.031 A 
ATOM     25  C   UNL d   1       8.992   6.265  -7.754  0.00  0.00     0.009 A 
ATOM     26  C   UNL d   1      11.225   9.110  -8.466  0.00  0.00     0.007 A 
ATOM     27  S   UNL d   1      10.282   7.881  -6.143  0.00  0.00    -0.086 SA
ATOM     28  C   UNL d   1      11.259   9.187  -9.863  0.00  0.00     0.002 A 
ATOM     29  C   UNL d   1      10.497   8.296 -10.625  0.00  0.00     0.017 A 
ATOM     30  C   UNL d   1       9.197   6.573  -6.442  0.00  0.00     0.035 A 
ENDBRANCH   4  22
TORSDOF 5
