REMARK  3 active torsions:
REMARK  status: ('A' for Active; 'I' for Inactive)
REMARK    1  A    between atoms: C_6  and  S_7 
REMARK    2  A    between atoms: S_7  and  S_8 
REMARK    3  A    between atoms: S_8  and  C_9 
ROOT
ATOM      1  S   UNL d   1       9.170   5.679 -12.267  0.00  0.00    -0.023 SA
ENDROOT
BRANCH   1   2
ATOM      2  C   UNL d   1       9.462   6.269 -10.647  0.00  0.00     0.146 A 
ATOM      3  S   UNL d   1       9.054   5.324  -9.213  0.00  0.00    -0.059 SA
ATOM      4  C   UNL d   1       9.657   6.662  -8.234  0.00  0.00     0.049 A 
ATOM      5  C   UNL d   1       9.692   6.792  -6.838  0.00  0.00     0.008 A 
ATOM      6  C   UNL d   1      10.148   7.696  -9.081  0.00  0.00     0.088 A 
ATOM      7  C   UNL d   1      10.245   7.950  -6.261  0.00  0.00     0.001 A 
ATOM      8  C   UNL d   1      10.739   8.984  -7.077  0.00  0.00     0.002 A 
ATOM      9  C   UNL d   1      10.699   8.846  -8.476  0.00  0.00     0.020 A 
ATOM     10  N   UNL d   1      10.053   7.451 -10.437  0.00  0.00    -0.232 NA
ENDBRANCH   1   2
BRANCH   1  11
ATOM     11  S   UNL d   1       7.150   5.592 -12.439  0.00  0.00    -0.023 SA
BRANCH  11  12
ATOM     12  C   UNL d   1       6.816   3.989 -13.062  0.00  0.00     0.146 A 
ATOM     13  S   UNL d   1       5.457   3.046 -12.445  0.00  0.00    -0.059 SA
ATOM     14  C   UNL d   1       5.858   1.776 -13.602  0.00  0.00     0.049 A 
ATOM     15  C   UNL d   1       6.997   2.172 -14.369  0.00  0.00     0.088 A 
ATOM     16  C   UNL d   1       5.225   0.535 -13.816  0.00  0.00     0.008 A 
ATOM     17  N   UNL d   1       7.536   3.414 -14.040  0.00  0.00    -0.232 NA
ATOM     18  C   UNL d   1       7.461   1.282 -15.363  0.00  0.00     0.020 A 
ATOM     19  C   UNL d   1       6.822   0.046 -15.589  0.00  0.00     0.002 A 
ATOM     20  C   UNL d   1       5.707  -0.327 -14.817  0.00  0.00     0.001 A 
ENDBRANCH  11  12
ENDBRANCH   1  11
TORSDOF 3
