REMARK  5 active torsions:
REMARK  status: ('A' for Active; 'I' for Inactive)
REMARK    1  A    between atoms: N_11  and  C_12 
REMARK    2  A    between atoms: C_12  and  C_13 
REMARK    3  A    between atoms: C_13  and  C_14 
REMARK    4  A    between atoms: C_17  and  N_18 
REMARK       I    between atoms: N_18  and  C_19 
REMARK    5  A    between atoms: C_19  and  C_21 
ROOT
ATOM      1  N   UNL d   1      12.670   8.380  -1.234  0.00  0.00    -0.191 NA
ATOM      2  C   UNL d   1      12.270   8.469  -2.294  0.00  0.00     0.101 C 
ATOM      3  C   UNL d   1      11.771   8.571  -3.642  0.00  0.00     0.068 A 
ATOM      4  C   UNL d   1      11.211   9.789  -4.063  0.00  0.00     0.010 A 
ATOM      5  C   UNL d   1      10.750   9.895  -5.392  0.00  0.00    -0.004 A 
ATOM      6  C   UNL d   1      10.831   8.821  -6.291  0.00  0.00    -0.024 A 
ATOM      7  C   UNL d   1      11.377   7.593  -5.831  0.00  0.00    -0.023 A 
ATOM      8  C   UNL d   1      11.824   7.476  -4.500  0.00  0.00     0.006 A 
ATOM      9  C   UNL d   1      11.585   6.428  -6.777  0.00  0.00     0.061 C 
ATOM     10  C   UNL d   1      10.337   5.948  -7.516  0.00  0.00     0.255 C 
ATOM     11  N   UNL d   1       9.974   6.743  -8.663  0.00  0.00     0.138 N 
ATOM     12  C   UNL d   1       9.348   7.977  -8.233  0.00  0.00     0.255 C 
ATOM     13  C   UNL d   1      10.347   9.016  -7.736  0.00  0.00     0.061 C 
ENDROOT
BRANCH  11  14
ATOM     14  C   UNL d   1       9.030   5.963  -9.469  0.00  0.00     0.250 C 
BRANCH  14  15
ATOM     15  C   UNL d   1       9.180   6.363 -10.946  0.00  0.00     0.035 C 
BRANCH  15  16
ATOM     16  C   UNL d   1       9.070   5.153 -11.904  0.00  0.00     0.002 C 
ATOM     17  C   UNL d   1      10.024   5.316 -13.086  0.00  0.00     0.002 C 
ATOM     18  C   UNL d   1      10.007   4.139 -14.036  0.00  0.00     0.024 C 
ATOM     19  C   UNL d   1       8.599   3.926 -14.568  0.00  0.00     0.107 C 
ATOM     20  C   UNL d   1       7.561   3.801 -13.446  0.00  0.00     0.024 C 
ATOM     21  C   UNL d   1       7.635   4.939 -12.415  0.00  0.00     0.002 C 
BRANCH  19  22
ATOM     22  N   UNL d   1       8.608   2.716 -15.384  0.00  0.00    -0.236 NA
ATOM     23  C   UNL d   1       8.994   2.653 -16.662  0.00  0.00     0.275 C 
ATOM     24  O   UNL d   1       9.425   3.618 -17.292  0.00  0.00    -0.266 OA
BRANCH  23  25
ATOM     25  C   UNL d   1       8.923   1.300 -17.300  0.00  0.00     0.058 A 
ATOM     26  C   UNL d   1       7.754   0.474 -17.281  0.00  0.00     0.005 A 
ATOM     27  C   UNL d   1       7.782  -0.770 -17.967  0.00  0.00     0.000 A 
ATOM     28  C   UNL d   1       6.555   0.834 -16.616  0.00  0.00     0.000 A 
ATOM     29  C   UNL d   1       8.956  -1.198 -18.613  0.00  0.00     0.000 A 
ATOM     30  C   UNL d   1       6.641  -1.606 -17.993  0.00  0.00     0.000 A 
ATOM     31  C   UNL d   1      10.105  -0.390 -18.615  0.00  0.00     0.000 A 
ATOM     32  C   UNL d   1      10.076   0.861 -17.980  0.00  0.00     0.005 A 
ATOM     33  C   UNL d   1       5.476  -1.240 -17.295  0.00  0.00     0.000 A 
ATOM     34  C   UNL d   1       5.447  -0.026 -16.596  0.00  0.00     0.000 A 
ENDBRANCH  23  25
ENDBRANCH  19  22
ENDBRANCH  15  16
ENDBRANCH  14  15
ENDBRANCH  11  14
TORSDOF 5
