REMARK  6 active torsions:
REMARK  status: ('A' for Active; 'I' for Inactive)
REMARK    1  A    between atoms: C_2  and  C_5 
REMARK    2  A    between atoms: C_9  and  N_10 
REMARK    3  A    between atoms: N_13  and  C_14 
REMARK    4  A    between atoms: C_14  and  C_15 
REMARK    5  A    between atoms: C_15  and  O_16 
REMARK    6  A    between atoms: O_16  and  C_17 
ROOT
ATOM      1  N   UNL d   1      10.881   7.375  -7.387  0.00  0.00    -0.344 N 
ATOM      2  C   UNL d   1      10.589   5.955  -7.338  0.00  0.00     0.137 C 
ATOM      3  C   UNL d   1       9.330   5.607  -8.145  0.00  0.00     0.274 C 
ATOM      4  N   UNL d   1       9.473   6.065  -9.527  0.00  0.00     0.144 N 
ATOM      5  C   UNL d   1       9.643   7.529  -9.484  0.00  0.00     0.274 C 
ATOM      6  C   UNL d   1      10.924   7.921  -8.742  0.00  0.00     0.137 C 
ENDROOT
BRANCH   4   7
ATOM      7  C   UNL d   1       8.270   5.663 -10.253  0.00  0.00     0.283 C 
BRANCH   7   8
ATOM      8  C   UNL d   1       8.328   6.130 -11.720  0.00  0.00     0.184 C 
BRANCH   8   9
ATOM      9  O   UNL d   1       7.238   5.574 -12.446  0.00  0.00    -0.329 OA
BRANCH   9  10
ATOM     10  C   UNL d   1       7.415   4.403 -13.140  0.00  0.00     0.096 A 
ATOM     11  C   UNL d   1       8.654   4.032 -13.733  0.00  0.00     0.045 A 
ATOM     12  C   UNL d   1       8.688   2.827 -14.435  0.00  0.00     0.103 A 
ATOM     13  C   UNL d   1       7.580   2.023 -14.587  0.00  0.00     0.102 A 
ATOM     14  N   UNL d   1       9.732   2.199 -15.113  0.00  0.00    -0.216 NA
ATOM     15  C   UNL d   1       6.330   2.363 -14.035  0.00  0.00     0.023 A 
ATOM     16  N   UNL d   1       7.994   0.931 -15.354  0.00  0.00    -0.216 NA
ATOM     17  C   UNL d   1       6.266   3.576 -13.312  0.00  0.00     0.026 A 
ATOM     18  C   UNL d   1       9.310   1.044 -15.680  0.00  0.00     0.221 A 
ATOM     19  S   UNL d   1      10.213  -0.000 -16.595  0.00  0.00    -0.037 SA
ENDBRANCH   9  10
ENDBRANCH   8   9
ENDBRANCH   7   8
ENDBRANCH   4   7
BRANCH   1  20
ATOM     20  C   UNL d   1      11.069   8.122  -6.213  0.00  0.00     0.056 A 
ATOM     21  C   UNL d   1      10.865   9.522  -6.205  0.00  0.00     0.017 A 
ATOM     22  C   UNL d   1      11.060  10.271  -5.035  0.00  0.00     0.001 A 
ATOM     23  C   UNL d   1      11.460   9.644  -3.844  0.00  0.00     0.004 A 
ATOM     24  C   UNL d   1      11.679   8.256  -3.823  0.00  0.00     0.073 A 
ATOM     25  C   UNL d   1      11.464   7.503  -4.991  0.00  0.00     0.021 A 
BRANCH  24  26
ATOM     26  C   UNL d   1      12.097   7.540  -2.547  0.00  0.00     0.419 C 
ATOM     27  F   UNL d   1      11.060   6.873  -2.039  0.00  0.00    -0.166 F 
ATOM     28  F   UNL d   1      12.559   8.394  -1.633  0.00  0.00    -0.166 F 
ATOM     29  F   UNL d   1      13.052   6.664  -2.830  0.00  0.00    -0.166 F 
ENDBRANCH  24  26
ENDBRANCH   1  20
TORSDOF 6
