REMARK  8 active torsions:
REMARK  status: ('A' for Active; 'I' for Inactive)
REMARK    1  A    between atoms: N_5  and  C_6 
REMARK    2  A    between atoms: C_6  and  C_7 
REMARK    3  A    between atoms: C_7  and  C_8 
REMARK    4  A    between atoms: C_8  and  C_9 
REMARK    5  A    between atoms: C_9  and  N_10 
REMARK    6  A    between atoms: N_13  and  C_14 
REMARK    7  A    between atoms: C_16  and  C_17 
REMARK    8  A    between atoms: C_22  and  C_23 
ROOT
ATOM      1  N   UNL d   1       8.979   5.910 -10.140  0.00  0.00     0.141 N 
ATOM      2  C   UNL d   1       9.775   6.640 -11.119  0.00  0.00     0.274 C 
ATOM      3  C   UNL d   1       9.222   6.537 -12.540  0.00  0.00     0.138 C 
ATOM      4  N   UNL d   1       9.044   5.133 -12.918  0.00  0.00    -0.330 N 
ATOM      5  C   UNL d   1       8.243   4.390 -11.947  0.00  0.00     0.138 C 
ATOM      6  C   UNL d   1       8.864   4.512 -10.538  0.00  0.00     0.274 C 
ENDROOT
BRANCH   4   7
ATOM      7  C   UNL d   1       9.564   4.525 -14.078  0.00  0.00     0.143 A 
ATOM      8  N   UNL d   1       9.024   3.346 -14.479  0.00  0.00    -0.214 NA
ATOM      9  C   UNL d   1       9.452   2.766 -15.594  0.00  0.00     0.140 A 
ATOM     10  N   UNL d   1      10.450   3.231 -16.351  0.00  0.00    -0.227 NA
ATOM     11  C   UNL d   1      11.020   4.397 -15.986  0.00  0.00     0.157 A 
ATOM     12  C   UNL d   1      10.611   5.088 -14.836  0.00  0.00     0.060 A 
BRANCH   9  13
ATOM     13  C   UNL d   1       8.921   1.357 -15.942  0.00  0.00     0.052 C 
ATOM     14  C   UNL d   1       9.895   0.287 -15.431  0.00  0.00     0.008 C 
ATOM     15  C   UNL d   1       8.739   1.223 -17.476  0.00  0.00     0.008 C 
ATOM     16  C   UNL d   1       7.531   1.105 -15.309  0.00  0.00     0.008 C 
ENDBRANCH   9  13
BRANCH  11  17
ATOM     17  C   UNL d   1      12.130   4.942 -16.880  0.00  0.00     0.435 C 
ATOM     18  F   UNL d   1      12.622   6.081 -16.395  0.00  0.00    -0.165 F 
ATOM     19  F   UNL d   1      13.122   4.055 -16.948  0.00  0.00    -0.165 F 
ATOM     20  F   UNL d   1      11.666   5.178 -18.108  0.00  0.00    -0.165 F 
ENDBRANCH  11  17
ENDBRANCH   4   7
BRANCH   1  21
ATOM     21  C   UNL d   1       9.623   6.011  -8.846  0.00  0.00     0.251 C 
BRANCH  21  22
ATOM     22  C   UNL d   1       8.678   6.690  -7.863  0.00  0.00     0.037 C 
BRANCH  22  23
ATOM     23  C   UNL d   1       9.288   6.998  -6.500  0.00  0.00     0.027 C 
BRANCH  23  24
ATOM     24  C   UNL d   1      10.732   7.523  -6.583  0.00  0.00     0.109 C 
BRANCH  24  25
ATOM     25  N   UNL d   1      11.252   7.884  -5.270  0.00  0.00    -0.294 N 
ATOM     26  C   UNL d   1      11.530   6.806  -4.405  0.00  0.00     0.078 A 
ATOM     27  C   UNL d   1      12.039   7.004  -3.183  0.00  0.00     0.015 A 
ATOM     28  C   UNL d   1      12.316   8.359  -2.759  0.00  0.00    -0.016 A 
ATOM     29  C   UNL d   1      12.893   8.646  -1.406  0.00  0.00     0.031 C 
ATOM     30  C   UNL d   1      12.039   9.382  -3.594  0.00  0.00     0.057 A 
ATOM     31  C   UNL d   1      11.483   9.183  -4.927  0.00  0.00     0.261 A 
ATOM     32  O   UNL d   1      11.247  10.128  -5.684  0.00  0.00    -0.267 OA
ENDBRANCH  24  25
ENDBRANCH  23  24
ENDBRANCH  22  23
ENDBRANCH  21  22
ENDBRANCH   1  21
TORSDOF 8
