REMARK  6 active torsions:
REMARK  status: ('A' for Active; 'I' for Inactive)
REMARK    1  A    between atoms: N_3  and  C_4 
REMARK    2  A    between atoms: C_4  and  C_5 
REMARK    3  A    between atoms: C_5  and  C_6 
REMARK    4  A    between atoms: C_6  and  C_7 
REMARK    5  A    between atoms: C_7  and  N_8 
REMARK    6  A    between atoms: N_11  and  C_12 
ROOT
ATOM      1  N   UNL d   1       8.643   4.542 -13.039  0.00  0.00     0.141 N 
ATOM      2  C   UNL d   1       7.627   4.556 -11.962  0.00  0.00     0.274 C 
ATOM      3  C   UNL d   1       7.639   5.879 -11.194  0.00  0.00     0.137 C 
ATOM      4  N   UNL d   1       8.978   6.073 -10.638  0.00  0.00    -0.344 N 
ATOM      5  C   UNL d   1       9.982   6.070 -11.661  0.00  0.00     0.137 C 
ATOM      6  C   UNL d   1       9.963   4.744 -12.432  0.00  0.00     0.274 C 
ENDROOT
BRANCH   1   7
ATOM      7  C   UNL d   1       8.706   3.266 -13.741  0.00  0.00     0.251 C 
BRANCH   7   8
ATOM      8  C   UNL d   1       7.304   2.762 -14.106  0.00  0.00     0.037 C 
BRANCH   8   9
ATOM      9  C   UNL d   1       7.371   1.487 -14.921  0.00  0.00     0.029 C 
BRANCH   9  10
ATOM     10  C   UNL d   1       6.043   0.703 -14.780  0.00  0.00     0.133 C 
BRANCH  10  11
ATOM     11  N   UNL d   1       5.642   0.009 -15.996  0.00  0.00    -0.201 N 
ATOM     12  C   UNL d   1       4.687  -0.921 -16.109  0.00  0.00     0.352 A 
ATOM     13  O   UNL d   1       3.970  -1.384 -15.228  0.00  0.00    -0.244 OA
ATOM     14  N   UNL d   1       4.678  -1.189 -17.413  0.00  0.00    -0.239 N 
ATOM     15  C   UNL d   1       5.601  -0.384 -18.034  0.00  0.00     0.199 A 
ATOM     16  C   UNL d   1       3.880  -2.125 -18.109  0.00  0.00     0.086 A 
ATOM     17  N   UNL d   1       6.193   0.394 -17.168  0.00  0.00    -0.145 NA
ATOM     18  C   UNL d   1       5.759  -0.522 -19.451  0.00  0.00     0.176 A 
ATOM     19  F   UNL d   1       6.647   0.224 -20.115  0.00  0.00    -0.201 F 
ATOM     20  C   UNL d   1       5.008  -1.429 -20.141  0.00  0.00     0.034 A 
ATOM     21  C   UNL d   1       4.032  -2.261 -19.447  0.00  0.00     0.022 A 
ENDBRANCH  10  11
ENDBRANCH   9  10
ENDBRANCH   8   9
ENDBRANCH   7   8
ENDBRANCH   1   7
BRANCH   4  22
ATOM     22  C   UNL d   1       9.254   6.473  -9.322  0.00  0.00     0.057 A 
ATOM     23  C   UNL d   1      10.334   7.356  -8.934  0.00  0.00     0.022 A 
ATOM     24  C   UNL d   1      10.476   7.639  -7.543  0.00  0.00     0.031 A 
ATOM     25  C   UNL d   1      11.315   8.068  -9.720  0.00  0.00     0.009 C 
ATOM     26  C   UNL d   1       9.614   7.164  -6.561  0.00  0.00     0.007 A 
ATOM     27  S   UNL d   1      11.847   8.668  -7.222  0.00  0.00    -0.086 SA
ATOM     28  C   UNL d   1       8.537   6.385  -6.966  0.00  0.00     0.002 A 
ATOM     29  C   UNL d   1       8.401   5.986  -8.297  0.00  0.00     0.017 A 
ATOM     30  C   UNL d   1      12.220   8.680  -8.902  0.00  0.00     0.035 C 
ENDBRANCH   4  22
TORSDOF 6
