REMARK  9 active torsions:
REMARK  status: ('A' for Active; 'I' for Inactive)
REMARK    1  A    between atoms: C_2  and  C_3 
REMARK    2  A    between atoms: C_3  and  N_4 
REMARK    3  A    between atoms: C_11  and  O_12 
REMARK    4  A    between atoms: O_12  and  C_13 
REMARK    5  A    between atoms: C_13  and  C_14 
REMARK    6  A    between atoms: C_14  and  C_15 
REMARK    7  A    between atoms: C_15  and  C_16 
REMARK    8  A    between atoms: C_16  and  N_17 
REMARK       I    between atoms: N_17  and  C_18 
REMARK    9  A    between atoms: C_18  and  C_20 
ROOT
ATOM      1  N   UNL d   1      12.835   7.262 -18.959  0.00  0.00     0.143 N 
ATOM      2  C   UNL d   1      11.614   7.685 -19.655  0.00  0.00     0.282 C 
ATOM      3  C   UNL d   1      10.661   6.512 -19.961  0.00  0.00     0.178 C 
ATOM      4  O   UNL d   1      10.348   5.825 -18.754  0.00  0.00    -0.348 OA
ATOM      5  C   UNL d   1      11.514   5.354 -18.086  0.00  0.00     0.173 C 
ATOM      6  C   UNL d   1      11.181   4.527 -16.857  0.00  0.00     0.031 A 
ATOM      7  C   UNL d   1      10.083   3.647 -16.871  0.00  0.00     0.024 A 
ATOM      8  C   UNL d   1       9.766   2.872 -15.731  0.00  0.00     0.094 A 
ATOM      9  C   UNL d   1      10.574   2.989 -14.571  0.00  0.00     0.026 A 
ATOM     10  C   UNL d   1      11.673   3.869 -14.558  0.00  0.00     0.026 A 
ATOM     11  C   UNL d   1      11.992   4.620 -15.705  0.00  0.00     0.092 A 
ATOM     12  O   UNL d   1      13.077   5.447 -15.628  0.00  0.00    -0.329 OA
ATOM     13  C   UNL d   1      13.554   6.023 -16.829  0.00  0.00     0.185 C 
ATOM     14  C   UNL d   1      12.429   6.549 -17.733  0.00  0.00     0.280 C 
ENDROOT
BRANCH   8  15
ATOM     15  O   UNL d   1       8.653   2.071 -15.819  0.00  0.00    -0.331 OA
BRANCH  15  16
ATOM     16  C   UNL d   1       7.951   1.741 -14.624  0.00  0.00     0.149 C 
BRANCH  16  17
ATOM     17  C   UNL d   1       7.546   3.026 -13.880  0.00  0.00     0.035 C 
BRANCH  17  18
ATOM     18  C   UNL d   1       6.148   3.054 -13.261  0.00  0.00     0.029 C 
BRANCH  18  19
ATOM     19  C   UNL d   1       5.741   4.463 -12.771  0.00  0.00     0.129 C 
BRANCH  19  20
ATOM     20  N   UNL d   1       6.660   5.006 -11.766  0.00  0.00    -0.234 NA
ATOM     21  C   UNL d   1       7.827   5.617 -12.018  0.00  0.00     0.275 C 
ATOM     22  O   UNL d   1       8.209   5.950 -13.141  0.00  0.00    -0.266 OA
BRANCH  21  23
ATOM     23  C   UNL d   1       8.670   5.920 -10.810  0.00  0.00     0.059 A 
ATOM     24  C   UNL d   1       9.565   7.005 -10.864  0.00  0.00     0.024 A 
ATOM     25  C   UNL d   1      10.346   7.365  -9.742  0.00  0.00     0.088 A 
ATOM     26  C   UNL d   1      10.228   6.562  -8.573  0.00  0.00     0.049 A 
ATOM     27  N   UNL d   1      11.239   8.421  -9.666  0.00  0.00    -0.236 NA
ATOM     28  C   UNL d   1       9.389   5.445  -8.538  0.00  0.00     0.008 A 
ATOM     29  S   UNL d   1      11.248   7.218  -7.295  0.00  0.00    -0.064 SA
ATOM     30  C   UNL d   1       8.618   5.105  -9.662  0.00  0.00     0.005 A 
ATOM     31  C   UNL d   1      11.801   8.428  -8.453  0.00  0.00     0.135 A 
ENDBRANCH  21  23
ENDBRANCH  19  20
ENDBRANCH  18  19
ENDBRANCH  17  18
ENDBRANCH  16  17
ENDBRANCH  15  16
ENDBRANCH   8  15
BRANCH   1  32
ATOM     32  C   UNL d   1      13.715   8.411 -18.727  0.00  0.00     0.251 C 
BRANCH  32  33
ATOM     33  C   UNL d   1      15.224   8.107 -18.689  0.00  0.00     0.035 C 
ATOM     34  C   UNL d   1      16.081   9.370 -18.602  0.00  0.00     0.002 C 
ENDBRANCH  32  33
ENDBRANCH   1  32
TORSDOF 9
