REMARK  6 active torsions:
REMARK  status: ('A' for Active; 'I' for Inactive)
REMARK       I    between atoms: C_2  and  N_3 
REMARK    1  A    between atoms: C_2  and  C_30 
REMARK    2  A    between atoms: N_3  and  C_4 
REMARK    3  A    between atoms: C_10  and  C_11 
REMARK    4  A    between atoms: C_11  and  C_12 
REMARK    5  A    between atoms: C_12  and  N_13 
REMARK    6  A    between atoms: N_16  and  C_17 
ROOT
ATOM      1  C   UNL d   1       6.907  -0.734 -18.379  0.00  0.00     0.129 C 
ATOM      2  C   UNL d   1       6.598  -2.257 -18.328  0.00  0.00     0.034 C 
ATOM      3  C   UNL d   1       5.701  -2.520 -17.092  0.00  0.00     0.028 C 
ATOM      4  C   UNL d   1       5.793  -1.239 -16.311  0.00  0.00    -0.024 A 
ATOM      5  C   UNL d   1       5.351  -1.041 -14.993  0.00  0.00    -0.005 A 
ATOM      6  C   UNL d   1       5.593   0.212 -14.405  0.00  0.00    -0.005 A 
ATOM      7  C   UNL d   1       6.259   1.223 -15.127  0.00  0.00    -0.020 A 
ATOM      8  C   UNL d   1       6.705   1.011 -16.446  0.00  0.00    -0.007 A 
ATOM      9  C   UNL d   1       6.472  -0.255 -17.019  0.00  0.00    -0.004 A 
ENDROOT
BRANCH   7  10
ATOM     10  C   UNL d   1       6.439   2.582 -14.500  0.00  0.00     0.062 C 
BRANCH  10  11
ATOM     11  C   UNL d   1       7.915   2.927 -14.203  0.00  0.00     0.255 C 
BRANCH  11  12
ATOM     12  N   UNL d   1       8.079   4.213 -13.533  0.00  0.00     0.141 N 
ATOM     13  C   UNL d   1       7.077   4.446 -12.477  0.00  0.00     0.274 C 
ATOM     14  C   UNL d   1       7.304   5.781 -11.778  0.00  0.00     0.138 C 
ATOM     15  N   UNL d   1       8.664   5.873 -11.308  0.00  0.00    -0.329 N 
ATOM     16  C   UNL d   1       9.680   5.615 -12.281  0.00  0.00     0.138 C 
ATOM     17  C   UNL d   1       9.421   4.239 -12.938  0.00  0.00     0.274 C 
BRANCH  15  18
ATOM     18  C   UNL d   1       8.962   6.117  -9.945  0.00  0.00     0.148 C 
ATOM     19  C   UNL d   1       9.809   7.214  -9.540  0.00  0.00     0.042 A 
ATOM     20  C   UNL d   1       9.823   7.279  -8.123  0.00  0.00     0.050 A 
ATOM     21  C   UNL d   1      10.516   8.213 -10.242  0.00  0.00     0.004 A 
ATOM     22  S   UNL d   1       8.709   6.085  -7.540  0.00  0.00     0.015 SA
ATOM     23  C   UNL d   1      10.585   8.226  -7.425  0.00  0.00     0.008 A 
ATOM     24  N   UNL d   1       8.410   5.383  -9.023  0.00  0.00    -0.192 NA
ATOM     25  C   UNL d   1      11.313   9.176  -8.146  0.00  0.00     0.001 A 
ATOM     26  C   UNL d   1      11.276   9.176  -9.556  0.00  0.00     0.000 A 
ENDBRANCH  15  18
ENDBRANCH  11  12
ENDBRANCH  10  11
ENDBRANCH   7  10
BRANCH   1  27
ATOM     27  N   UNL d   1       8.319  -0.455 -18.662  0.00  0.00    -0.232 NA
ATOM     28  C   UNL d   1       8.805   0.721 -19.081  0.00  0.00     0.275 C 
ATOM     29  O   UNL d   1       8.121   1.717 -19.323  0.00  0.00    -0.266 OA
BRANCH  28  30
ATOM     30  C   UNL d   1      10.287   0.767 -19.235  0.00  0.00     0.058 A 
ATOM     31  C   UNL d   1      10.888   0.242 -20.395  0.00  0.00     0.007 A 
ATOM     32  C   UNL d   1      12.286   0.316 -20.562  0.00  0.00     0.030 A 
ATOM     33  C   UNL d   1      13.082   0.905 -19.559  0.00  0.00     0.140 A 
ATOM     34  C   UNL d   1      12.481   1.431 -18.398  0.00  0.00     0.030 A 
ATOM     35  F   UNL d   1      14.426   0.975 -19.718  0.00  0.00    -0.204 F 
ATOM     36  C   UNL d   1      11.083   1.363 -18.235  0.00  0.00     0.007 A 
ENDBRANCH  28  30
ENDBRANCH   1  27
TORSDOF 6
