REMARK  12 active torsions:
REMARK  status: ('A' for Active; 'I' for Inactive)
REMARK    1  A    between atoms: C_9  and  C_10 
REMARK    2  A    between atoms: C_10  and  C_12 
REMARK    3  A    between atoms: C_12  and  N_13 
REMARK    4  A    between atoms: N_13  and  C_14 
REMARK    5  A    between atoms: C_14  and  C_15 
REMARK    6  A    between atoms: C_15  and  O_16 
REMARK    7  A    between atoms: O_16  and  C_17 
REMARK    8  A    between atoms: C_21  and  C_22 
REMARK    9  A    between atoms: C_22  and  N_23 
REMARK   10  A    between atoms: N_23  and  C_24 
REMARK   11  A    between atoms: C_24  and  C_25 
REMARK   12  A    between atoms: C_25  and  C_26 
ROOT
ATOM      1  O   UNL d   1       8.901   3.028 -14.640  0.00  0.00    -0.329 OA
ENDROOT
BRANCH   1   2
ATOM      2  C   UNL d   1      10.303   3.115 -14.875  0.00  0.00     0.187 C 
BRANCH   2   3
ATOM      3  C   UNL d   1      10.621   4.432 -15.602  0.00  0.00     0.323 C 
BRANCH   3   4
ATOM      4  N   UNL d   1      11.985   4.424 -16.103  0.00  0.00     0.345 N 
BRANCH   4   5
ATOM      5  C   UNL d   1      12.340   5.654 -16.804  0.00  0.00     0.327 C 
BRANCH   5   6
ATOM      6  C   UNL d   1      13.728   5.541 -17.472  0.00  0.00     0.211 C 
ATOM      7  O   UNL d   1      14.601   5.245 -16.413  0.00  0.00    -0.216 OA
BRANCH   6   8
ATOM      8  C   UNL d   1      14.161   6.790 -18.258  0.00  0.00     0.018 A 
ATOM      9  C   UNL d   1      13.188   7.594 -18.906  0.00  0.00     0.001 A 
ATOM     10  C   UNL d   1      13.557   8.732 -19.655  0.00  0.00     0.029 A 
ATOM     11  C   UNL d   1      14.906   9.118 -19.773  0.00  0.00     0.149 A 
ATOM     12  C   UNL d   1      15.875   8.321 -19.139  0.00  0.00     0.116 A 
ATOM     13  O   UNL d   1      15.256  10.223 -20.495  0.00  0.00    -0.189 OA
ATOM     14  N   UNL d   1      17.263   8.551 -19.176  0.00  0.00    -0.200 NA
ATOM     15  C   UNL d   1      15.518   7.181 -18.418  0.00  0.00     0.052 A 
ATOM     16  C   UNL d   1      18.050   7.629 -18.506  0.00  0.00     0.311 A 
ATOM     17  O   UNL d   1      19.272   7.624 -18.366  0.00  0.00    -0.258 OA
ATOM     18  S   UNL d   1      16.959   6.375 -17.816  0.00  0.00    -0.024 SA
ENDBRANCH   6   8
ENDBRANCH   5   6
ENDBRANCH   4   5
ENDBRANCH   3   4
ENDBRANCH   2   3
ENDBRANCH   1   2
BRANCH   1  19
ATOM     19  C   UNL d   1       8.345   3.791 -13.636  0.00  0.00     0.094 A 
ATOM     20  C   UNL d   1       9.099   4.388 -12.598  0.00  0.00     0.022 A 
ATOM     21  C   UNL d   1       8.454   5.142 -11.603  0.00  0.00     0.015 A 
ATOM     22  C   UNL d   1       7.058   5.329 -11.641  0.00  0.00    -0.002 A 
ATOM     23  C   UNL d   1       6.293   4.722 -12.655  0.00  0.00     0.002 A 
ATOM     24  C   UNL d   1       6.941   3.950 -13.639  0.00  0.00     0.024 A 
BRANCH  21  25
ATOM     25  C   UNL d   1       9.262   5.727 -10.474  0.00  0.00     0.317 C 
BRANCH  25  26
ATOM     26  N   UNL d   1       9.456   7.155 -10.637  0.00  0.00     0.344 N 
BRANCH  26  27
ATOM     27  C   UNL d   1      10.325   7.688  -9.605  0.00  0.00     0.295 C 
BRANCH  27  28
ATOM     28  C   UNL d   1       9.599   7.767  -8.246  0.00  0.00     0.067 C 
BRANCH  28  29
ATOM     29  C   UNL d   1      10.479   8.271  -7.118  0.00  0.00     0.007 A 
ATOM     30  C   UNL d   1      10.558   7.564  -5.902  0.00  0.00     0.136 A 
ATOM     31  C   UNL d   1      11.385   8.033  -4.860  0.00  0.00     0.029 A 
ATOM     32  F   UNL d   1       9.834   6.451  -5.715  0.00  0.00    -0.204 F 
ATOM     33  C   UNL d   1      12.107   9.232  -5.014  0.00  0.00     0.002 A 
ATOM     34  C   UNL d   1      12.020   9.948  -6.223  0.00  0.00    -0.000 A 
ATOM     35  C   UNL d   1      11.220   9.459  -7.269  0.00  0.00    -0.002 A 
ENDBRANCH  28  29
ENDBRANCH  27  28
ENDBRANCH  26  27
ENDBRANCH  25  26
ENDBRANCH  21  25
ENDBRANCH   1  19
TORSDOF 12
