REMARK  4 active torsions:
REMARK  status: ('A' for Active; 'I' for Inactive)
REMARK    1  A    between atoms: C_4  and  C_5 
REMARK    2  A    between atoms: C_8  and  C_9 
REMARK    3  A    between atoms: C_9  and  N_10 
REMARK    4  A    between atoms: N_13  and  C_14 
ROOT
ATOM      1  N   UNL d   1      10.214   7.962  -9.105  0.00  0.00     0.147 N 
ATOM      2  C   UNL d   1      11.253   8.842  -8.559  0.00  0.00     0.275 C 
ATOM      3  C   UNL d   1      10.825   9.361  -7.179  0.00  0.00     0.137 C 
ATOM      4  N   UNL d   1      10.548   8.244  -6.293  0.00  0.00    -0.344 N 
ATOM      5  C   UNL d   1       9.610   7.254  -6.824  0.00  0.00     0.137 C 
ATOM      6  C   UNL d   1      10.063   6.799  -8.220  0.00  0.00     0.275 C 
ENDROOT
BRANCH   1   7
ATOM      7  C   UNL d   1      10.615   7.534 -10.435  0.00  0.00     0.296 C 
BRANCH   7   8
ATOM      8  C   UNL d   1       9.537   6.877 -11.244  0.00  0.00     0.092 A 
ATOM      9  N   UNL d   1       8.688   7.633 -12.035  0.00  0.00    -0.246 NA
ATOM     10  C   UNL d   1       7.739   6.845 -12.645  0.00  0.00     0.099 A 
ATOM     11  C   UNL d   1       8.043   5.564 -12.304  0.00  0.00     0.020 A 
ATOM     12  C   UNL d   1       9.171   5.569 -11.432  0.00  0.00     0.018 A 
BRANCH  11  13
ATOM     13  C   UNL d   1       7.303   4.392 -12.772  0.00  0.00     0.002 A 
ATOM     14  C   UNL d   1       5.987   4.139 -12.335  0.00  0.00     0.000 A 
ATOM     15  C   UNL d   1       5.296   2.995 -12.781  0.00  0.00     0.000 A 
ATOM     16  C   UNL d   1       5.915   2.102 -13.672  0.00  0.00     0.000 A 
ATOM     17  C   UNL d   1       7.219   2.362 -14.135  0.00  0.00     0.000 A 
ATOM     18  C   UNL d   1       7.913   3.500 -13.673  0.00  0.00     0.000 A 
ENDBRANCH  11  13
ENDBRANCH   7   8
ENDBRANCH   1   7
BRANCH   4  19
ATOM     19  C   UNL d   1      11.162   8.145  -5.032  0.00  0.00     0.056 A 
ATOM     20  C   UNL d   1      11.463   9.311  -4.290  0.00  0.00     0.017 A 
ATOM     21  C   UNL d   1      12.058   9.211  -3.020  0.00  0.00     0.002 A 
ATOM     22  C   UNL d   1      12.359   7.960  -2.469  0.00  0.00     0.000 A 
ATOM     23  C   UNL d   1      12.066   6.796  -3.196  0.00  0.00     0.002 A 
ATOM     24  C   UNL d   1      11.464   6.883  -4.468  0.00  0.00     0.017 A 
ENDBRANCH   4  19
TORSDOF 4
