REMARK  4 active torsions:
REMARK  status: ('A' for Active; 'I' for Inactive)
REMARK    1  A    between atoms: C_5  and  C_6 
REMARK    2  A    between atoms: C_6  and  C_7 
REMARK    3  A    between atoms: C_7  and  N_8 
REMARK    4  A    between atoms: N_11  and  C_12 
ROOT
ATOM      1  N   UNL d   1       9.534   6.758  -9.002  0.00  0.00     0.141 N 
ATOM      2  C   UNL d   1       9.035   5.394  -9.166  0.00  0.00     0.274 C 
ATOM      3  C   UNL d   1       8.141   5.287 -10.407  0.00  0.00     0.138 C 
ATOM      4  N   UNL d   1       8.846   5.734 -11.598  0.00  0.00    -0.329 N 
ATOM      5  C   UNL d   1       9.434   7.062 -11.454  0.00  0.00     0.138 C 
ATOM      6  C   UNL d   1      10.312   7.131 -10.185  0.00  0.00     0.274 C 
ENDROOT
BRANCH   1   7
ATOM      7  C   UNL d   1      10.359   6.821  -7.807  0.00  0.00     0.250 C 
BRANCH   7   8
ATOM      8  C   UNL d   1      10.316   8.226  -7.198  0.00  0.00     0.035 C 
BRANCH   8   9
ATOM      9  C   UNL d   1      11.238   8.368  -5.967  0.00  0.00     0.002 C 
ATOM     10  C   UNL d   1      10.926   9.681  -5.206  0.00  0.00     0.002 C 
ATOM     11  C   UNL d   1      11.806   9.836  -3.954  0.00  0.00     0.039 C 
ATOM     12  C   UNL d   1      11.720   8.618  -3.027  0.00  0.00     0.302 C 
ATOM     13  N   UNL d   1      12.661   8.773  -1.937  0.00  0.00     0.616 N 
ATOM     14  C   UNL d   1      12.038   7.317  -3.764  0.00  0.00     0.039 C 
ATOM     15  C   UNL d   1      11.172   7.137  -5.022  0.00  0.00     0.002 C 
ENDBRANCH   8   9
ENDBRANCH   7   8
ENDBRANCH   1   7
BRANCH   4  16
ATOM     16  C   UNL d   1       8.930   4.959 -12.773  0.00  0.00     0.148 A 
ATOM     17  C   UNL d   1       7.891   4.022 -13.190  0.00  0.00     0.042 A 
ATOM     18  C   UNL d   1       8.315   3.340 -14.370  0.00  0.00     0.050 A 
ATOM     19  C   UNL d   1       6.608   3.671 -12.687  0.00  0.00     0.004 A 
ATOM     20  S   UNL d   1       9.877   3.988 -14.830  0.00  0.00     0.015 SA
ATOM     21  C   UNL d   1       7.540   2.340 -14.993  0.00  0.00     0.008 A 
ATOM     22  N   UNL d   1       9.997   5.057 -13.543  0.00  0.00    -0.192 NA
ATOM     23  C   UNL d   1       6.306   1.974 -14.430  0.00  0.00     0.001 A 
ATOM     24  C   UNL d   1       5.849   2.643 -13.279  0.00  0.00     0.000 A 
ENDBRANCH   4  16
TORSDOF 4
