REMARK  2 active torsions:
REMARK  status: ('A' for Active; 'I' for Inactive)
REMARK    1  A    between atoms: C_10  and  C_11 
REMARK    2  A    between atoms: C_11  and  C_12 
ROOT
ATOM      1  C   UNL d   1      11.905   7.854  -3.840  0.00  0.00     0.002 A 
ATOM      2  C   UNL d   1      12.410   9.017  -4.472  0.00  0.00     0.000 A 
ATOM      3  C   UNL d   1      12.126   9.268  -5.818  0.00  0.00     0.001 A 
ATOM      4  C   UNL d   1      11.305   8.345  -6.536  0.00  0.00     0.015 A 
ATOM      5  C   UNL d   1      10.896   8.235  -7.880  0.00  0.00    -0.003 A 
ATOM      6  C   UNL d   1      10.099   7.142  -8.017  0.00  0.00     0.089 A 
ATOM      7  N   UNL d   1      10.000   6.516  -6.792  0.00  0.00    -0.248 NA
ATOM      8  C   UNL d   1      10.786   7.206  -5.873  0.00  0.00     0.081 A 
ATOM      9  C   UNL d   1      11.092   6.934  -4.557  0.00  0.00     0.019 A 
ATOM     10  C   UNL d   1       9.408   6.761  -9.288  0.00  0.00     0.300 C 
ATOM     11  N   UNL d   1       9.934   7.518 -10.420  0.00  0.00     0.344 N 
ATOM     12  C   UNL d   1      10.142   8.915 -10.112  0.00  0.00     0.295 C 
ATOM     13  C   UNL d   1      11.200   9.092  -9.021  0.00  0.00     0.066 C 
ENDROOT
BRANCH  10  14
ATOM     14  C   UNL d   1       9.488   5.273  -9.641  0.00  0.00     0.069 C 
BRANCH  14  15
ATOM     15  C   UNL d   1       8.821   4.889 -10.974  0.00  0.00    -0.018 A 
ATOM     16  C   UNL d   1       9.498   4.076 -11.905  0.00  0.00     0.022 A 
ATOM     17  C   UNL d   1       8.849   3.672 -13.072  0.00  0.00     0.119 A 
ATOM     18  C   UNL d   1       7.532   3.996 -13.309  0.00  0.00     0.119 A 
ATOM     19  O   UNL d   1       9.317   2.867 -14.047  0.00  0.00    -0.300 OA
ATOM     20  C   UNL d   1       6.808   4.804 -12.410  0.00  0.00     0.026 A 
ATOM     21  O   UNL d   1       7.125   3.380 -14.444  0.00  0.00    -0.300 OA
ATOM     22  C   UNL d   1       7.485   5.264 -11.255  0.00  0.00    -0.002 A 
ATOM     23  C   UNL d   1       8.257   2.718 -14.946  0.00  0.00     0.304 A 
ENDBRANCH  14  15
ENDBRANCH  10  14
TORSDOF 2
