REMARK  1 active torsions:
REMARK  status: ('A' for Active; 'I' for Inactive)
REMARK    1  A    between atoms: O_2  and  C_3 
ROOT
ATOM      1  C   UNL d   1       8.874   4.712 -13.615  0.00  0.00     0.140 A 
ATOM      2  C   UNL d   1       7.629   4.069 -13.464  0.00  0.00     0.124 A 
ATOM      3  O   UNL d   1       6.530   4.517 -12.762  0.00  0.00    -0.303 OA
ATOM      4  C   UNL d   1       5.574   3.542 -12.865  0.00  0.00     0.123 A 
ATOM      5  C   UNL d   1       5.988   2.485 -13.638  0.00  0.00     0.029 A 
ATOM      6  C   UNL d   1       7.319   2.814 -14.057  0.00  0.00     0.027 A 
ATOM      7  C   UNL d   1       8.319   2.215 -14.856  0.00  0.00     0.004 A 
ATOM      8  C   UNL d   1       9.558   2.860 -15.050  0.00  0.00     0.025 A 
ATOM      9  C   UNL d   1      10.615   2.274 -15.868  0.00  0.00     0.007 A 
ATOM     10  C   UNL d   1      11.791   2.901 -16.027  0.00  0.00     0.069 A 
ATOM     11  C   UNL d   1      12.065   4.209 -15.390  0.00  0.00     0.300 A 
ATOM     12  O   UNL d   1      13.132   4.797 -15.534  0.00  0.00    -0.259 OA
ATOM     13  O   UNL d   1      11.056   4.729 -14.625  0.00  0.00    -0.271 OA
ATOM     14  C   UNL d   1       9.841   4.105 -14.440  0.00  0.00     0.127 A 
ENDROOT
BRANCH   1  15
ATOM     15  O   UNL d   1       9.160   5.911 -13.005  0.00  0.00    -0.324 OA
ATOM     16  C   UNL d   1       9.104   5.897 -11.585  0.00  0.00     0.182 C 
ENDBRANCH   1  15
TORSDOF 1
