REMARK  4 active torsions:
REMARK  status: ('A' for Active; 'I' for Inactive)
REMARK    1  A    between atoms: C_2  and  N_3 
REMARK    2  A    between atoms: C_6  and  N_7 
REMARK    3  A    between atoms: N_10  and  C_11 
REMARK    4  A    between atoms: C_11  and  C_12 
ROOT
ATOM      1  N   UNL d   1      10.089   2.542 -18.250  0.00  0.00    -0.298 N 
ATOM      2  C   UNL d   1      10.657   1.843 -17.226  0.00  0.00     0.269 C 
ATOM      3  O   UNL d   1      10.653   0.601 -17.162  0.00  0.00    -0.270 OA
ATOM      4  C   UNL d   1      11.368   2.607 -16.074  0.00  0.00     0.297 C 
ATOM      5  C   UNL d   1      12.705   3.196 -16.569  0.00  0.00     0.048 C 
ATOM      6  C   UNL d   1      12.728   3.879 -17.936  0.00  0.00     0.030 C 
ATOM      7  C   UNL d   1      11.461   4.649 -18.256  0.00  0.00    -0.006 A 
ATOM      8  C   UNL d   1      11.526   6.053 -18.443  0.00  0.00    -0.003 A 
ATOM      9  C   UNL d   1      10.389   6.791 -18.814  0.00  0.00    -0.000 A 
ATOM     10  C   UNL d   1       9.165   6.134 -18.987  0.00  0.00     0.002 A 
ATOM     11  C   UNL d   1       9.098   4.743 -18.797  0.00  0.00     0.017 A 
ATOM     12  C   UNL d   1      10.220   3.979 -18.421  0.00  0.00     0.058 A 
ENDROOT
BRANCH   4  13
ATOM     13  N   UNL d   1      10.463   3.525 -15.328  0.00  0.00     0.148 N 
ATOM     14  C   UNL d   1      11.075   4.027 -14.095  0.00  0.00     0.286 C 
ATOM     15  C   UNL d   1      10.165   4.986 -13.352  0.00  0.00     0.286 C 
ATOM     16  N   UNL d   1       8.908   4.378 -12.958  0.00  0.00     0.146 N 
ATOM     17  C   UNL d   1       8.263   3.894 -14.166  0.00  0.00     0.286 C 
ATOM     18  C   UNL d   1       9.161   2.922 -14.946  0.00  0.00     0.286 C 
BRANCH  16  19
ATOM     19  C   UNL d   1       8.053   5.308 -12.232  0.00  0.00     0.277 C 
BRANCH  19  20
ATOM     20  C   UNL d   1       8.695   5.857 -10.967  0.00  0.00     0.011 A 
ATOM     21  C   UNL d   1       9.458   7.049 -11.011  0.00  0.00    -0.002 A 
ATOM     22  C   UNL d   1      10.068   7.550  -9.845  0.00  0.00     0.011 A 
ATOM     23  C   UNL d   1       9.894   6.878  -8.620  0.00  0.00     0.058 A 
ATOM     24  C   UNL d   1       9.129   5.699  -8.572  0.00  0.00     0.011 A 
ATOM     25 CL   UNL d   1      10.615   7.498  -7.179  0.00  0.00    -0.082 Cl
ATOM     26  C   UNL d   1       8.547   5.184  -9.741  0.00  0.00    -0.002 A 
ENDBRANCH  19  20
ENDBRANCH  16  19
ENDBRANCH   4  13
BRANCH   1  27
ATOM     27  C   UNL d   1       9.154   1.821 -19.166  0.00  0.00     0.109 C 
ATOM     28  C   UNL d   1       7.825   1.480 -18.463  0.00  0.00     0.027 C 
ENDBRANCH   1  27
TORSDOF 4
