REMARK  7 active torsions:
REMARK  status: ('A' for Active; 'I' for Inactive)
REMARK       I    between atoms: C_2  and  N_3 
REMARK    1  A    between atoms: C_2  and  C_22 
REMARK    2  A    between atoms: N_3  and  C_4 
REMARK    3  A    between atoms: C_4  and  C_5 
REMARK    4  A    between atoms: C_5  and  C_6 
REMARK    5  A    between atoms: C_6  and  C_7 
REMARK    6  A    between atoms: C_7  and  N_8 
REMARK    7  A    between atoms: N_11  and  C_12 
ROOT
ATOM      1  C   UNL d   1       7.417   5.476 -11.759  0.00  0.00     0.037 C 
ENDROOT
BRANCH   1   2
ATOM      2  C   UNL d   1       8.288   5.731 -10.547  0.00  0.00     0.029 C 
BRANCH   2   3
ATOM      3  C   UNL d   1       9.319   6.867 -10.720  0.00  0.00     0.129 C 
BRANCH   3   4
ATOM      4  N   UNL d   1       9.858   7.349  -9.453  0.00  0.00    -0.233 NA
ATOM      5  C   UNL d   1      10.219   6.599  -8.403  0.00  0.00     0.293 C 
ATOM      6  O   UNL d   1      10.238   5.369  -8.416  0.00  0.00    -0.264 OA
BRANCH   5   7
ATOM      7  C   UNL d   1      10.631   7.338  -7.204  0.00  0.00     0.139 A 
ATOM      8  N   UNL d   1      11.074   6.617  -6.113  0.00  0.00    -0.241 NA
ATOM      9  C   UNL d   1      11.393   7.444  -5.061  0.00  0.00     0.082 A 
ATOM     10  C   UNL d   1      11.117   8.759  -5.533  0.00  0.00     0.019 A 
ATOM     11  C   UNL d   1      11.877   7.189  -3.768  0.00  0.00     0.019 A 
ATOM     12  C   UNL d   1      10.627   8.671  -6.879  0.00  0.00     0.025 A 
ATOM     13  C   UNL d   1      11.355   9.822  -4.637  0.00  0.00     0.002 A 
ATOM     14  C   UNL d   1      11.862   9.582  -3.342  0.00  0.00     0.000 A 
ATOM     15  C   UNL d   1      12.122   8.273  -2.903  0.00  0.00     0.002 A 
ENDBRANCH   5   7
ENDBRANCH   3   4
ENDBRANCH   2   3
ENDBRANCH   1   2
BRANCH   1  16
ATOM     16  C   UNL d   1       8.226   5.071 -13.012  0.00  0.00     0.251 C 
BRANCH  16  17
ATOM     17  N   UNL d   1       8.050   3.675 -13.374  0.00  0.00     0.141 N 
ATOM     18  C   UNL d   1       6.667   3.404 -13.782  0.00  0.00     0.274 C 
ATOM     19  C   UNL d   1       6.497   1.930 -14.129  0.00  0.00     0.137 C 
ATOM     20  N   UNL d   1       7.450   1.533 -15.152  0.00  0.00    -0.344 N 
ATOM     21  C   UNL d   1       8.846   1.862 -14.867  0.00  0.00     0.137 C 
ATOM     22  C   UNL d   1       8.967   3.349 -14.475  0.00  0.00     0.274 C 
BRANCH  20  23
ATOM     23  C   UNL d   1       7.056   0.867 -16.319  0.00  0.00     0.068 A 
ATOM     24  C   UNL d   1       6.114  -0.210 -16.324  0.00  0.00     0.084 A 
ATOM     25  C   UNL d   1       5.755  -0.821 -17.541  0.00  0.00     0.070 A 
ATOM     26 CL   UNL d   1       5.438  -0.844 -14.853  0.00  0.00    -0.080 Cl
ATOM     27  C   UNL d   1       6.320  -0.387 -18.750  0.00  0.00     0.012 A 
ATOM     28 CL   UNL d   1       4.639  -2.132 -17.576  0.00  0.00    -0.081 Cl
ATOM     29  C   UNL d   1       7.246   0.665 -18.761  0.00  0.00     0.002 A 
ATOM     30  C   UNL d   1       7.608   1.288 -17.558  0.00  0.00     0.018 A 
ENDBRANCH  20  23
ENDBRANCH  16  17
ENDBRANCH   1  16
TORSDOF 7
