REMARK  6 active torsions:
REMARK  status: ('A' for Active; 'I' for Inactive)
REMARK    1  A    between atoms: C_2  and  C_3 
REMARK    2  A    between atoms: C_3  and  N_4 
REMARK    3  A    between atoms: N_4  and  C_5 
REMARK    4  A    between atoms: N_4  and  C_8 
REMARK    5  A    between atoms: C_5  and  C_6 
REMARK    6  A    between atoms: C_16  and  C_17 
ROOT
ATOM      1  C   UNL d   1       8.535   1.091 -17.319  0.00  0.00     0.253 C 
ATOM      2  C   UNL d   1       9.249   1.868 -16.200  0.00  0.00     0.182 C 
ATOM      3  O   UNL d   1       8.246   2.561 -15.447  0.00  0.00    -0.329 OA
ATOM      4  C   UNL d   1       7.224   1.834 -14.911  0.00  0.00     0.090 A 
ATOM      5  C   UNL d   1       6.855   0.572 -15.438  0.00  0.00     0.002 A 
ATOM      6  C   UNL d   1       5.784  -0.142 -14.885  0.00  0.00    -0.002 A 
ATOM      7  C   UNL d   1       5.087   0.376 -13.774  0.00  0.00    -0.000 A 
ATOM      8  C   UNL d   1       5.457   1.633 -13.249  0.00  0.00     0.002 A 
ATOM      9  C   UNL d   1       6.510   2.368 -13.808  0.00  0.00     0.022 A 
ATOM     10  C   UNL d   1       7.620   0.037 -16.635  0.00  0.00     0.064 C 
ENDROOT
BRANCH   1  11
ATOM     11  N   UNL d   1       9.437   0.457 -18.295  0.00  0.00     0.138 N 
BRANCH  11  12
ATOM     12  C   UNL d   1      10.265   1.460 -18.996  0.00  0.00     0.250 C 
BRANCH  12  13
ATOM     13  C   UNL d   1      11.489   0.792 -19.637  0.00  0.00     0.035 C 
ATOM     14  C   UNL d   1      12.411   0.193 -18.570  0.00  0.00     0.002 C 
ENDBRANCH  12  13
ENDBRANCH  11  12
BRANCH  11  15
ATOM     15  C   UNL d   1       8.716  -0.401 -19.267  0.00  0.00     0.250 C 
BRANCH  15  16
ATOM     16  C   UNL d   1       7.713   0.364 -20.206  0.00  0.00     0.035 C 
ATOM     17  C   UNL d   1       6.396   0.892 -19.544  0.00  0.00     0.002 C 
ENDBRANCH  15  16
ENDBRANCH  11  15
ENDBRANCH   1  11
BRANCH   9  18
ATOM     18  C   UNL d   1       6.907   3.670 -13.236  0.00  0.00     0.002 A 
ATOM     19  C   UNL d   1       8.261   4.007 -13.047  0.00  0.00     0.000 A 
ATOM     20  C   UNL d   1       8.634   5.253 -12.511  0.00  0.00     0.000 A 
ATOM     21  C   UNL d   1       7.635   6.171 -12.142  0.00  0.00     0.000 A 
ATOM     22  C   UNL d   1       6.278   5.843 -12.304  0.00  0.00     0.000 A 
ATOM     23  C   UNL d   1       5.913   4.595 -12.847  0.00  0.00     0.000 A 
ENDBRANCH   9  18
TORSDOF 6
