REMARK  8 active torsions:
REMARK  status: ('A' for Active; 'I' for Inactive)
REMARK    1  A    between atoms: O_2  and  C_3 
REMARK    2  A    between atoms: C_8  and  N_9 
REMARK    3  A    between atoms: N_12  and  C_13 
REMARK    4  A    between atoms: C_13  and  C_14 
REMARK    5  A    between atoms: C_14  and  C_15 
REMARK    6  A    between atoms: C_15  and  C_16 
REMARK    7  A    between atoms: C_16  and  C_17 
REMARK    8  A    between atoms: C_19  and  C_20 
ROOT
ATOM      1  N   UNL d   1       8.716   3.197 -15.232  0.00  0.00    -0.343 N 
ATOM      2  C   UNL d   1       9.375   4.499 -15.355  0.00  0.00     0.137 C 
ATOM      3  C   UNL d   1       9.970   4.915 -14.000  0.00  0.00     0.274 C 
ATOM      4  N   UNL d   1       8.910   4.947 -12.984  0.00  0.00     0.141 N 
ATOM      5  C   UNL d   1       8.370   3.593 -12.850  0.00  0.00     0.274 C 
ATOM      6  C   UNL d   1       7.733   3.113 -14.164  0.00  0.00     0.137 C 
ENDROOT
BRANCH   4   7
ATOM      7  C   UNL d   1       9.486   5.381 -11.716  0.00  0.00     0.250 C 
BRANCH   7   8
ATOM      8  C   UNL d   1       8.429   5.647 -10.626  0.00  0.00     0.036 C 
BRANCH   8   9
ATOM      9  C   UNL d   1       9.040   6.077  -9.287  0.00  0.00     0.009 C 
BRANCH   9  10
ATOM     10  C   UNL d   1       9.766   7.428  -9.342  0.00  0.00     0.054 C 
BRANCH  10  11
ATOM     11  C   UNL d   1      10.292   7.867  -8.020  0.00  0.00     0.104 A 
ATOM     12  O   UNL d   1      10.598   9.182  -7.904  0.00  0.00    -0.215 OA
ATOM     13  N   UNL d   1      11.069   9.410  -6.609  0.00  0.00    -0.126 NA
ATOM     14  C   UNL d   1      11.070   8.232  -6.002  0.00  0.00     0.116 A 
ATOM     15  C   UNL d   1      10.582   7.208  -6.858  0.00  0.00     0.044 A 
BRANCH  14  16
ATOM     16  C   UNL d   1      11.548   8.110  -4.630  0.00  0.00     0.049 A 
ATOM     17  S   UNL d   1      11.859   9.543  -3.684  0.00  0.00    -0.085 SA
ATOM     18  C   UNL d   1      12.331   8.586  -2.310  0.00  0.00     0.035 A 
ATOM     19  C   UNL d   1      12.257   7.243  -2.578  0.00  0.00     0.007 A 
ATOM     20  C   UNL d   1      11.814   6.973  -3.908  0.00  0.00     0.009 A 
ENDBRANCH  14  16
ENDBRANCH  10  11
ENDBRANCH   9  10
ENDBRANCH   8   9
ENDBRANCH   7   8
ENDBRANCH   4   7
BRANCH   1  21
ATOM     21  C   UNL d   1       9.021   2.091 -16.042  0.00  0.00     0.079 A 
ATOM     22  C   UNL d   1      10.358   1.798 -16.411  0.00  0.00     0.110 A 
ATOM     23  C   UNL d   1      10.616   0.702 -17.276  0.00  0.00     0.026 A 
ATOM     24  C   UNL d   1       9.564  -0.114 -17.732  0.00  0.00     0.002 A 
ATOM     25  C   UNL d   1       8.245   0.160 -17.341  0.00  0.00     0.002 A 
ATOM     26  C   UNL d   1       7.974   1.260 -16.504  0.00  0.00     0.019 A 
BRANCH  22  27
ATOM     27  O   UNL d   1      11.357   2.583 -15.875  0.00  0.00    -0.327 OA
ATOM     28  C   UNL d   1      12.593   2.625 -16.549  0.00  0.00     0.181 C 
ENDBRANCH  22  27
ENDBRANCH   1  21
TORSDOF 8
