REMARK  7 active torsions:
REMARK  status: ('A' for Active; 'I' for Inactive)
REMARK    1  A    between atoms: C_5  and  C_6 
REMARK    2  A    between atoms: C_10  and  C_11 
REMARK       I    between atoms: C_11  and  N_13 
REMARK    3  A    between atoms: N_13  and  C_14 
REMARK    4  A    between atoms: C_17  and  C_18 
REMARK    5  A    between atoms: C_18  and  C_19 
REMARK    6  A    between atoms: C_19  and  N_20 
REMARK    7  A    between atoms: C_26  and  S_27 
ROOT
ATOM      1  C   UNL d   1       7.775   2.996 -13.641  0.00  0.00     0.107 C 
ATOM      2  C   UNL d   1       8.639   3.989 -14.423  0.00  0.00     0.024 C 
ATOM      3  C   UNL d   1       9.579   4.791 -13.534  0.00  0.00     0.002 C 
ATOM      4  C   UNL d   1       8.788   5.530 -12.432  0.00  0.00     0.002 C 
ATOM      5  C   UNL d   1       7.945   4.531 -11.638  0.00  0.00     0.002 C 
ATOM      6  C   UNL d   1       7.005   3.712 -12.521  0.00  0.00     0.024 C 
ENDROOT
BRANCH   4   7
ATOM      7  C   UNL d   1       9.739   6.328 -11.534  0.00  0.00     0.035 C 
BRANCH   7   8
ATOM      8  C   UNL d   1       9.076   7.114 -10.405  0.00  0.00     0.250 C 
BRANCH   8   9
ATOM      9  N   UNL d   1      10.014   7.511  -9.351  0.00  0.00     0.138 N 
ATOM     10  C   UNL d   1      10.198   6.371  -8.450  0.00  0.00     0.255 C 
ATOM     11  C   UNL d   1      11.399   6.528  -7.519  0.00  0.00     0.061 C 
ATOM     12  C   UNL d   1      11.230   7.419  -6.328  0.00  0.00    -0.023 A 
ATOM     13  C   UNL d   1      10.804   8.763  -6.445  0.00  0.00    -0.024 A 
ATOM     14  C   UNL d   1      11.594   6.925  -5.076  0.00  0.00     0.006 A 
ATOM     15  C   UNL d   1      10.434   9.369  -7.761  0.00  0.00     0.061 C 
ATOM     16  C   UNL d   1      10.722   9.575  -5.297  0.00  0.00    -0.004 A 
ATOM     17  C   UNL d   1       9.410   8.632  -8.630  0.00  0.00     0.255 C 
ATOM     18  C   UNL d   1      11.107   9.086  -4.051  0.00  0.00     0.011 A 
ATOM     19  C   UNL d   1      11.566   7.754  -3.957  0.00  0.00     0.084 A 
BRANCH  19  20
ATOM     20  S   UNL d   1      12.002   7.123  -2.363  0.00  0.00     0.191 S 
ATOM     21  C   UNL d   1      10.427   6.412  -1.744  0.00  0.00     0.145 C 
ATOM     22  O   UNL d   1      12.945   5.990  -2.550  0.00  0.00    -0.222 OA
ATOM     23  O   UNL d   1      12.401   8.239  -1.530  0.00  0.00    -0.222 OA
ENDBRANCH  19  20
ENDBRANCH   8   9
ENDBRANCH   7   8
ENDBRANCH   4   7
BRANCH   1  24
ATOM     24  N   UNL d   1       6.834   2.311 -14.521  0.00  0.00    -0.236 NA
ATOM     25  C   UNL d   1       6.382   1.052 -14.357  0.00  0.00     0.275 C 
ATOM     26  O   UNL d   1       6.433   0.423 -13.300  0.00  0.00    -0.266 OA
BRANCH  25  27
ATOM     27  C   UNL d   1       5.758   0.427 -15.566  0.00  0.00     0.058 A 
ATOM     28  C   UNL d   1       4.728  -0.521 -15.402  0.00  0.00     0.005 A 
ATOM     29  C   UNL d   1       4.144  -1.130 -16.526  0.00  0.00     0.000 A 
ATOM     30  C   UNL d   1       4.573  -0.775 -17.819  0.00  0.00     0.002 A 
ATOM     31  C   UNL d   1       5.605   0.171 -18.005  0.00  0.00     0.025 A 
ATOM     32  C   UNL d   1       6.205   0.757 -16.868  0.00  0.00     0.007 A 
BRANCH  31  33
ATOM     33  C   UNL d   1       6.045   0.529 -19.351  0.00  0.00     0.120 A 
ATOM     34  C   UNL d   1       5.637   0.123 -20.598  0.00  0.00     0.125 A 
ATOM     35  N   UNL d   1       6.409   0.782 -21.545  0.00  0.00    -0.222 NA
ATOM     36  C   UNL d   1       7.241   1.542 -20.838  0.00  0.00     0.159 A 
ATOM     37  C   UNL d   1       8.287   2.465 -21.359  0.00  0.00     0.080 C 
ATOM     38  O   UNL d   1       7.062   1.440 -19.494  0.00  0.00    -0.292 OA
ENDBRANCH  31  33
ENDBRANCH  25  27
ENDBRANCH   1  24
TORSDOF 7
