REMARK  8 active torsions:
REMARK  status: ('A' for Active; 'I' for Inactive)
REMARK    1  A    between atoms: C_2  and  O_3 
REMARK    2  A    between atoms: O_3  and  N_4 
REMARK    3  A    between atoms: C_5  and  C_6 
REMARK    4  A    between atoms: C_5  and  C_22 
REMARK    5  A    between atoms: C_6  and  C_7 
REMARK    6  A    between atoms: C_7  and  N_8 
REMARK    7  A    between atoms: N_11  and  C_12 
REMARK    8  A    between atoms: C_15  and  O_16 
ROOT
ATOM      1  N   UNL d   1       9.523   7.581 -10.501  0.00  0.00     0.141 N 
ATOM      2  C   UNL d   1       9.243   6.508  -9.525  0.00  0.00     0.274 C 
ATOM      3  C   UNL d   1       9.079   7.087  -8.107  0.00  0.00     0.137 C 
ATOM      4  N   UNL d   1      10.237   7.877  -7.814  0.00  0.00    -0.344 N 
ATOM      5  C   UNL d   1      10.549   8.936  -8.739  0.00  0.00     0.137 C 
ATOM      6  C   UNL d   1      10.758   8.293 -10.112  0.00  0.00     0.274 C 
ENDROOT
BRANCH   1   7
ATOM      7  C   UNL d   1       9.750   6.984 -11.805  0.00  0.00     0.257 C 
BRANCH   7   8
ATOM      8  C   UNL d   1       8.493   6.467 -12.572  0.00  0.00     0.083 C 
BRANCH   8   9
ATOM      9  C   UNL d   1       8.680   5.094 -13.323  0.00  0.00     0.087 C 
ATOM     10  N   UNL d   1       9.665   4.789 -14.066  0.00  0.00    -0.136 NA
BRANCH  10  11
ATOM     11  O   UNL d   1      10.690   5.729 -14.062  0.00  0.00    -0.237 OA
BRANCH  11  12
ATOM     12  C   UNL d   1      11.526   5.572 -15.199  0.00  0.00     0.176 C 
ATOM     13  C   UNL d   1      12.530   4.466 -14.854  0.00  0.00     0.038 C 
ENDBRANCH  11  12
ENDBRANCH  10  11
BRANCH   9  14
ATOM     14  C   UNL d   1       7.591   4.091 -13.207  0.00  0.00     0.016 A 
ATOM     15  C   UNL d   1       6.683   4.072 -12.127  0.00  0.00     0.001 A 
ATOM     16  C   UNL d   1       5.633   3.145 -12.105  0.00  0.00     0.000 A 
ATOM     17  C   UNL d   1       5.506   2.162 -13.115  0.00  0.00     0.000 A 
ATOM     18  C   UNL d   1       6.442   2.119 -14.168  0.00  0.00     0.000 A 
ATOM     19  C   UNL d   1       7.470   3.088 -14.211  0.00  0.00     0.001 A 
ENDBRANCH   9  14
ENDBRANCH   8   9
ENDBRANCH   7   8
ENDBRANCH   1   7
BRANCH   4  20
ATOM     20  C   UNL d   1      10.760   7.830  -6.530  0.00  0.00     0.056 A 
ATOM     21  C   UNL d   1      11.213   6.596  -6.091  0.00  0.00     0.019 A 
ATOM     22  C   UNL d   1      11.829   6.500  -4.829  0.00  0.00     0.026 A 
ATOM     23  C   UNL d   1      11.942   7.643  -4.011  0.00  0.00     0.094 A 
ATOM     24  C   UNL d   1      11.447   8.897  -4.473  0.00  0.00     0.026 A 
ATOM     25  C   UNL d   1      10.836   8.983  -5.740  0.00  0.00     0.019 A 
BRANCH  23  26
ATOM     26  O   UNL d   1      12.562   7.402  -2.812  0.00  0.00    -0.328 OA
ATOM     27  C   UNL d   1      12.788   8.502  -1.958  0.00  0.00     0.181 C 
ENDBRANCH  23  26
ENDBRANCH   4  20
TORSDOF 8
