REMARK  6 active torsions:
REMARK  status: ('A' for Active; 'I' for Inactive)
REMARK    1  A    between atoms: O_2  and  C_3 
REMARK    2  A    between atoms: C_8  and  N_9 
REMARK    3  A    between atoms: N_12  and  C_13 
REMARK    4  A    between atoms: C_13  and  C_14 
REMARK    5  A    between atoms: C_14  and  N_15 
REMARK    6  A    between atoms: N_18  and  C_19 
ROOT
ATOM      1  C   UNL d   1       7.089   2.554 -14.133  0.00  0.00     0.150 A 
ATOM      2  N   UNL d   1       6.030   1.970 -13.530  0.00  0.00    -0.227 NA
ATOM      3  C   UNL d   1       5.454   0.875 -14.051  0.00  0.00     0.101 A 
ATOM      4  C   UNL d   1       5.865   0.347 -15.297  0.00  0.00     0.021 A 
ATOM      5  C   UNL d   1       6.935   0.953 -15.956  0.00  0.00     0.015 A 
ATOM      6  C   UNL d   1       7.592   2.042 -15.382  0.00  0.00     0.102 A 
ATOM      7  C   UNL d   1       8.677   2.640 -16.192  0.00  0.00     0.104 C 
ATOM      8  N   UNL d   1       9.529   3.104 -16.802  0.00  0.00    -0.191 NA
ENDROOT
BRANCH   1   9
ATOM      9  N   UNL d   1       7.619   3.687 -13.482  0.00  0.00    -0.329 N 
ATOM     10  C   UNL d   1       9.035   4.045 -13.570  0.00  0.00     0.138 C 
ATOM     11  C   UNL d   1       9.654   4.195 -12.201  0.00  0.00     0.274 C 
ATOM     12  N   UNL d   1       8.913   5.088 -11.338  0.00  0.00     0.143 N 
ATOM     13  C   UNL d   1       7.527   4.616 -11.170  0.00  0.00     0.274 C 
ATOM     14  C   UNL d   1       6.823   4.495 -12.531  0.00  0.00     0.138 C 
BRANCH  12  15
ATOM     15  C   UNL d   1       9.628   5.254 -10.072  0.00  0.00     0.286 C 
BRANCH  15  16
ATOM     16  C   UNL d   1       8.995   6.206  -9.051  0.00  0.00     0.286 C 
BRANCH  16  17
ATOM     17  N   UNL d   1       9.691   7.483  -8.847  0.00  0.00     0.143 N 
ATOM     18  C   UNL d   1      11.126   7.361  -8.530  0.00  0.00     0.274 C 
ATOM     19  C   UNL d   1      11.315   6.571  -7.214  0.00  0.00     0.137 C 
ATOM     20  N   UNL d   1      10.542   7.201  -6.149  0.00  0.00    -0.343 N 
ATOM     21  C   UNL d   1       9.154   7.566  -6.408  0.00  0.00     0.137 C 
ATOM     22  C   UNL d   1       9.071   8.274  -7.776  0.00  0.00     0.274 C 
BRANCH  20  23
ATOM     23  C   UNL d   1      11.176   7.637  -4.983  0.00  0.00     0.079 A 
ATOM     24  C   UNL d   1      11.386   8.990  -4.693  0.00  0.00     0.110 A 
ATOM     25  C   UNL d   1      11.990   9.363  -3.486  0.00  0.00     0.026 A 
ATOM     26  C   UNL d   1      12.369   8.380  -2.544  0.00  0.00     0.002 A 
ATOM     27  C   UNL d   1      12.141   7.026  -2.826  0.00  0.00     0.002 A 
ATOM     28  C   UNL d   1      11.566   6.656  -4.054  0.00  0.00     0.019 A 
BRANCH  24  29
ATOM     29  O   UNL d   1      10.949   9.979  -5.548  0.00  0.00    -0.327 OA
ATOM     30  C   UNL d   1      11.926  10.393  -6.475  0.00  0.00     0.181 C 
ENDBRANCH  24  29
ENDBRANCH  20  23
ENDBRANCH  16  17
ENDBRANCH  15  16
ENDBRANCH  12  15
ENDBRANCH   1   9
TORSDOF 6
