REMARK  6 active torsions:
REMARK  status: ('A' for Active; 'I' for Inactive)
REMARK       I    between atoms: C_2  and  N_3 
REMARK    1  A    between atoms: C_2  and  C_27 
REMARK    2  A    between atoms: N_3  and  C_4 
REMARK    3  A    between atoms: C_4  and  C_5 
REMARK    4  A    between atoms: C_5  and  C_6 
REMARK    5  A    between atoms: C_6  and  C_7 
REMARK    6  A    between atoms: C_7  and  N_8 
ROOT
ATOM      1  N   UNL d   1       8.892   3.266 -14.438  0.00  0.00     0.141 N 
ATOM      2  C   UNL d   1       7.811   2.316 -14.160  0.00  0.00     0.274 C 
ATOM      3  C   UNL d   1       7.118   1.909 -15.469  0.00  0.00     0.137 C 
ATOM      4  N   UNL d   1       8.082   1.316 -16.393  0.00  0.00    -0.343 N 
ATOM      5  C   UNL d   1       7.579   0.474 -17.403  0.00  0.00     0.053 A 
ATOM      6  C   UNL d   1       6.278   0.644 -17.937  0.00  0.00     0.017 A 
ATOM      7  C   UNL d   1       5.782  -0.244 -18.912  0.00  0.00     0.002 A 
ATOM      8  C   UNL d   1       6.580  -1.310 -19.364  0.00  0.00    -0.000 A 
ATOM      9  C   UNL d   1       7.875  -1.486 -18.844  0.00  0.00    -0.003 A 
ATOM     10  C   UNL d   1       8.374  -0.597 -17.868  0.00  0.00    -0.002 A 
ATOM     11  C   UNL d   1       9.774  -0.779 -17.323  0.00  0.00     0.054 C 
ATOM     12  C   UNL d   1      10.656   0.325 -17.856  0.00  0.00    -0.020 A 
ATOM     13  C   UNL d   1      11.742  -0.018 -18.691  0.00  0.00    -0.004 A 
ATOM     14  C   UNL d   1      12.545   0.983 -19.265  0.00  0.00    -0.000 A 
ATOM     15  C   UNL d   1      12.262   2.336 -19.010  0.00  0.00    -0.000 A 
ATOM     16  C   UNL d   1      11.183   2.682 -18.176  0.00  0.00    -0.003 A 
ATOM     17  C   UNL d   1      10.367   1.690 -17.587  0.00  0.00    -0.004 A 
ATOM     18  C   UNL d   1       9.247   2.176 -16.652  0.00  0.00     0.137 C 
ATOM     19  C   UNL d   1       9.872   2.600 -15.301  0.00  0.00     0.277 C 
ENDROOT
BRANCH   1  20
ATOM     20  C   UNL d   1       9.555   3.672 -13.200  0.00  0.00     0.251 C 
BRANCH  20  21
ATOM     21  C   UNL d   1       8.730   4.719 -12.433  0.00  0.00     0.037 C 
BRANCH  21  22
ATOM     22  C   UNL d   1       9.519   5.277 -11.245  0.00  0.00     0.029 C 
BRANCH  22  23
ATOM     23  C   UNL d   1       8.769   6.314 -10.415  0.00  0.00     0.129 C 
BRANCH  23  24
ATOM     24  N   UNL d   1       9.462   6.584  -9.157  0.00  0.00    -0.234 NA
ATOM     25  C   UNL d   1      10.148   7.694  -8.862  0.00  0.00     0.281 C 
ATOM     26  O   UNL d   1      10.357   8.606  -9.664  0.00  0.00    -0.265 OA
BRANCH  25  27
ATOM     27  C   UNL d   1      10.606   7.789  -7.460  0.00  0.00     0.087 A 
ATOM     28  S   UNL d   1      10.732   9.398  -6.813  0.00  0.00    -0.082 SA
ATOM     29  C   UNL d   1      11.265   8.785  -5.263  0.00  0.00     0.030 A 
ATOM     30  C   UNL d   1      11.382   7.360  -5.301  0.00  0.00     0.007 A 
ATOM     31  C   UNL d   1      11.569   9.525  -4.104  0.00  0.00     0.006 A 
ATOM     32  C   UNL d   1      11.007   6.808  -6.588  0.00  0.00     0.012 A 
ATOM     33  C   UNL d   1      11.854   6.739  -4.124  0.00  0.00     0.001 A 
ATOM     34  C   UNL d   1      12.182   7.468  -2.966  0.00  0.00     0.000 A 
ATOM     35  C   UNL d   1      12.037   8.866  -2.955  0.00  0.00     0.001 A 
ENDBRANCH  25  27
ENDBRANCH  23  24
ENDBRANCH  22  23
ENDBRANCH  21  22
ENDBRANCH  20  21
ENDBRANCH   1  20
TORSDOF 6
