REMARK  8 active torsions:
REMARK  status: ('A' for Active; 'I' for Inactive)
REMARK    1  A    between atoms: C_6  and  C_7 
REMARK    2  A    between atoms: C_10  and  S_11 
REMARK    3  A    between atoms: S_11  and  C_12 
REMARK    4  A    between atoms: C_12  and  C_13 
REMARK    5  A    between atoms: C_13  and  C_14 
REMARK    6  A    between atoms: C_14  and  N_15 
REMARK    7  A    between atoms: C_19  and  C_20 
REMARK    8  A    between atoms: C_23  and  C_24 
ROOT
ATOM      1  N   UNL d   1       8.402   3.401 -13.464  0.00  0.00     0.143 N 
ATOM      2  C   UNL d   1       7.326   4.190 -14.036  0.00  0.00     0.282 C 
ATOM      3  C   UNL d   1       6.373   4.766 -12.960  0.00  0.00     0.178 C 
ATOM      4  O   UNL d   1       7.135   5.556 -12.050  0.00  0.00    -0.348 OA
ATOM      5  C   UNL d   1       8.142   4.792 -11.397  0.00  0.00     0.171 C 
ATOM      6  C   UNL d   1       9.096   4.198 -12.456  0.00  0.00     0.284 C 
ENDROOT
BRANCH   1   7
ATOM      7  C   UNL d   1       9.334   2.870 -14.463  0.00  0.00     0.251 C 
BRANCH   7   8
ATOM      8  C   UNL d   1       9.292   1.330 -14.586  0.00  0.00     0.047 C 
BRANCH   8   9
ATOM      9  C   UNL d   1      10.600   0.741 -15.140  0.00  0.00     0.067 C 
BRANCH   9  10
ATOM     10  S   UNL d   1      10.841   1.094 -16.910  0.00  0.00    -0.075 SA
BRANCH  10  11
ATOM     11  C   UNL d   1       9.549   0.113 -17.599  0.00  0.00     0.193 A 
ATOM     12  N   UNL d   1       9.685  -1.174 -17.921  0.00  0.00    -0.122 NA
ATOM     13  N   UNL d   1       8.470  -1.551 -18.437  0.00  0.00    -0.127 NA
ATOM     14  C   UNL d   1       7.686  -0.466 -18.378  0.00  0.00     0.183 A 
ATOM     15  N   UNL d   1       8.325   0.608 -17.861  0.00  0.00    -0.288 N 
ATOM     16  C   UNL d   1       7.811   1.956 -17.650  0.00  0.00     0.134 C 
BRANCH  14  17
ATOM     17  C   UNL d   1       6.285  -0.459 -18.776  0.00  0.00     0.097 A 
ATOM     18  N   UNL d   1       5.349  -1.338 -18.241  0.00  0.00    -0.322 N 
ATOM     19  C   UNL d   1       5.590  -2.373 -17.253  0.00  0.00     0.131 C 
ATOM     20  C   UNL d   1       4.111  -1.065 -18.797  0.00  0.00     0.076 A 
ATOM     21  C   UNL d   1       4.255  -0.012 -19.653  0.00  0.00     0.020 A 
ATOM     22  C   UNL d   1       5.619   0.379 -19.629  0.00  0.00     0.022 A 
ENDBRANCH  14  17
ENDBRANCH  10  11
ENDBRANCH   9  10
ENDBRANCH   8   9
ENDBRANCH   7   8
ENDBRANCH   1   7
BRANCH   5  23
ATOM     23  C   UNL d   1       8.915   5.655 -10.405  0.00  0.00     0.007 A 
ATOM     24  C   UNL d   1       9.518   6.858 -10.833  0.00  0.00    -0.002 A 
ATOM     25  C   UNL d   1      10.259   7.646  -9.930  0.00  0.00     0.004 A 
ATOM     26  C   UNL d   1      10.397   7.244  -8.588  0.00  0.00     0.071 A 
ATOM     27  C   UNL d   1       9.788   6.042  -8.159  0.00  0.00     0.004 A 
ATOM     28  C   UNL d   1       9.058   5.248  -9.063  0.00  0.00    -0.002 A 
BRANCH  26  29
ATOM     29  C   UNL d   1      11.195   8.096  -7.613  0.00  0.00     0.419 C 
ATOM     30  F   UNL d   1      11.454   7.432  -6.487  0.00  0.00    -0.166 F 
ATOM     31  F   UNL d   1      12.355   8.459  -8.166  0.00  0.00    -0.166 F 
ATOM     32  F   UNL d   1      10.505   9.194  -7.305  0.00  0.00    -0.166 F 
ENDBRANCH  26  29
ENDBRANCH   5  23
TORSDOF 8
