REMARK  4 active torsions:
REMARK  status: ('A' for Active; 'I' for Inactive)
REMARK       I    between atoms: N_10  and  C_11 
REMARK    1  A    between atoms: C_11  and  C_13 
REMARK    2  A    between atoms: C_13  and  N_14 
REMARK    3  A    between atoms: N_17  and  C_18 
REMARK    4  A    between atoms: C_18  and  C_19 
ROOT
ATOM      1  N   UNL d   1       9.038   4.472 -13.582  0.00  0.00     0.151 N 
ATOM      2  C   UNL d   1      10.356   3.863 -13.334  0.00  0.00     0.286 C 
ATOM      3  C   UNL d   1      11.018   3.350 -14.632  0.00  0.00     0.286 C 
ATOM      4  N   UNL d   1      10.165   2.390 -15.340  0.00  0.00     0.146 N 
ATOM      5  C   UNL d   1       8.870   3.031 -15.581  0.00  0.00     0.286 C 
ATOM      6  C   UNL d   1       8.210   3.504 -14.278  0.00  0.00     0.286 C 
ENDROOT
BRANCH   1   7
ATOM      7  C   UNL d   1       8.363   4.922 -12.358  0.00  0.00     0.337 C 
BRANCH   7   8
ATOM      8  C   UNL d   1       9.020   6.156 -11.717  0.00  0.00     0.272 C 
ATOM      9  N   UNL d   1       9.174   6.201 -10.376  0.00  0.00    -0.298 N 
ATOM     10  C   UNL d   1       9.891   7.180  -9.652  0.00  0.00     0.058 A 
ATOM     11  C   UNL d   1       8.550   5.260  -9.444  0.00  0.00     0.114 A 
ATOM     12  C   UNL d   1      10.579   8.316 -10.124  0.00  0.00     0.017 A 
ATOM     13  C   UNL d   1       9.861   6.886  -8.291  0.00  0.00    -0.008 A 
ATOM     14  C   UNL d   1      11.244   9.131  -9.194  0.00  0.00     0.001 A 
ATOM     15  C   UNL d   1      11.226   8.825  -7.811  0.00  0.00    -0.004 A 
ATOM     16  C   UNL d   1      10.531   7.688  -7.344  0.00  0.00    -0.024 A 
ATOM     17  C   UNL d   1      10.499   7.342  -5.875  0.00  0.00     0.031 C 
ATOM     18  C   UNL d   1       9.049   5.646  -8.042  0.00  0.00     0.052 A 
ATOM     19  O   UNL d   1       9.365   7.069 -12.469  0.00  0.00    -0.270 OA
ENDBRANCH   7   8
ENDBRANCH   1   7
BRANCH   4  20
ATOM     20  C   UNL d   1      10.806   1.932 -16.575  0.00  0.00     0.277 C 
BRANCH  20  21
ATOM     21  C   UNL d   1       9.934   1.017 -17.426  0.00  0.00     0.011 A 
ATOM     22  C   UNL d   1       9.042   1.575 -18.371  0.00  0.00    -0.002 A 
ATOM     23  C   UNL d   1       8.198   0.745 -19.133  0.00  0.00     0.011 A 
ATOM     24  C   UNL d   1       8.263  -0.652 -18.975  0.00  0.00     0.058 A 
ATOM     25  C   UNL d   1       9.166  -1.214 -18.050  0.00  0.00     0.011 A 
ATOM     26 CL   UNL d   1       7.239  -1.679 -19.912  0.00  0.00    -0.082 Cl
ATOM     27  C   UNL d   1       9.992  -0.381 -17.266  0.00  0.00    -0.002 A 
ENDBRANCH  20  21
ENDBRANCH   4  20
TORSDOF 4
