REMARK  6 active torsions:
REMARK  status: ('A' for Active; 'I' for Inactive)
REMARK    1  A    between atoms: N_2  and  C_3 
REMARK    2  A    between atoms: N_2  and  C_12 
REMARK    3  A    between atoms: C_3  and  C_4 
REMARK    4  A    between atoms: C_5  and  C_6 
REMARK    5  A    between atoms: C_7  and  C_8 
REMARK    6  A    between atoms: C_12  and  C_13 
ROOT
ATOM      1  C   UNL d   1      11.395   4.332 -13.807  0.00  0.00     0.286 C 
ATOM      2  N   UNL d   1      10.174   5.076 -14.080  0.00  0.00     0.148 N 
ENDROOT
BRANCH   2   3
ATOM      3  C   UNL d   1       9.258   4.943 -12.951  0.00  0.00     0.278 C 
BRANCH   3   4
ATOM      4  C   UNL d   1       9.620   5.734 -11.735  0.00  0.00     0.018 C 
ATOM      5  C   UNL d   1       9.729   5.197 -10.507  0.00  0.00     0.046 C 
BRANCH   5   6
ATOM      6  C   UNL d   1       9.977   6.001  -9.367  0.00  0.00    -0.064 C 
ATOM      7  C   UNL d   1      10.188   6.754  -8.429  0.00  0.00    -0.088 C 
BRANCH   7   8
ATOM      8  C   UNL d   1      10.402   7.665  -7.298  0.00  0.00     0.054 C 
ATOM      9  C   UNL d   1      11.598   8.582  -7.597  0.00  0.00     0.013 C 
ATOM     10  C   UNL d   1      10.682   6.841  -6.032  0.00  0.00     0.013 C 
ATOM     11  C   UNL d   1       9.133   8.510  -7.100  0.00  0.00     0.013 C 
ENDBRANCH   7   8
ENDBRANCH   5   6
ENDBRANCH   3   4
ENDBRANCH   2   3
BRANCH   2  12
ATOM     12  C   UNL d   1       9.568   4.624 -15.342  0.00  0.00     0.277 C 
BRANCH  12  13
ATOM     13  C   UNL d   1       9.228   3.130 -15.460  0.00  0.00     0.011 A 
ATOM     14  C   UNL d   1       8.071   2.555 -14.847  0.00  0.00    -0.002 A 
ATOM     15  C   UNL d   1       7.859   1.154 -14.959  0.00  0.00    -0.000 A 
ATOM     16  C   UNL d   1       7.109   3.333 -14.145  0.00  0.00    -0.000 A 
ATOM     17  C   UNL d   1       8.741   0.358 -15.722  0.00  0.00    -0.000 A 
ATOM     18  C   UNL d   1       6.738   0.549 -14.340  0.00  0.00    -0.000 A 
ATOM     19  C   UNL d   1       9.858   0.933 -16.358  0.00  0.00    -0.000 A 
ATOM     20  C   UNL d   1      10.101   2.313 -16.218  0.00  0.00    -0.002 A 
ATOM     21  C   UNL d   1       5.842   1.321 -13.568  0.00  0.00    -0.000 A 
ATOM     22  C   UNL d   1       6.053   2.720 -13.463  0.00  0.00    -0.000 A 
ENDBRANCH  12  13
ENDBRANCH   2  12
TORSDOF 6
