REMARK  3 active torsions:
REMARK  status: ('A' for Active; 'I' for Inactive)
REMARK    1  A    between atoms: C_6  and  N_7 
REMARK    2  A    between atoms: N_10  and  C_11 
REMARK    3  A    between atoms: C_11  and  C_12 
ROOT
ATOM      1  N   UNL d   1       9.006   5.867 -10.953  0.00  0.00    -0.330 N 
ATOM      2  C   UNL d   1       9.704   7.139 -10.774  0.00  0.00     0.138 C 
ATOM      3  C   UNL d   1      10.642   7.088  -9.558  0.00  0.00     0.275 C 
ATOM      4  N   UNL d   1       9.934   6.623  -8.350  0.00  0.00     0.146 N 
ATOM      5  C   UNL d   1       9.349   5.298  -8.615  0.00  0.00     0.275 C 
ATOM      6  C   UNL d   1       8.340   5.348  -9.773  0.00  0.00     0.138 C 
ENDROOT
BRANCH   4   7
ATOM      7  C   UNL d   1      10.856   6.569  -7.216  0.00  0.00     0.280 C 
BRANCH   7   8
ATOM      8  C   UNL d   1      11.048   7.769  -6.344  0.00  0.00     0.050 A 
ATOM      9  C   UNL d   1      11.460   7.809  -5.035  0.00  0.00     0.082 A 
ATOM     10  N   UNL d   1      11.482   9.168  -4.662  0.00  0.00    -0.229 N 
ATOM     11  C   UNL d   1      11.857   6.849  -4.062  0.00  0.00     0.019 A 
ATOM     12  N   UNL d   1      11.059   9.974  -5.687  0.00  0.00    -0.164 NA
ATOM     13  C   UNL d   1      11.860   9.582  -3.422  0.00  0.00     0.100 A 
ATOM     14  C   UNL d   1      10.815   9.131  -6.668  0.00  0.00     0.120 A 
ATOM     15  C   UNL d   1      12.258   8.651  -2.491  0.00  0.00     0.021 A 
ATOM     16  C   UNL d   1      12.253   7.271  -2.810  0.00  0.00     0.003 A 
ENDBRANCH   7   8
ENDBRANCH   4   7
BRANCH   1  17
ATOM     17  C   UNL d   1       8.975   5.176 -12.174  0.00  0.00     0.142 A 
ATOM     18  C   UNL d   1       7.808   4.508 -12.604  0.00  0.00     0.037 A 
ATOM     19  C   UNL d   1       7.832   3.832 -13.840  0.00  0.00     0.007 A 
ATOM     20  C   UNL d   1       9.018   3.843 -14.598  0.00  0.00     0.050 A 
ATOM     21  C   UNL d   1      10.128   4.535 -14.094  0.00  0.00     0.224 A 
ATOM     22  F   UNL d   1      11.276   4.571 -14.809  0.00  0.00    -0.183 F 
ATOM     23  N   UNL d   1      10.107   5.187 -12.914  0.00  0.00    -0.201 NA
ENDBRANCH   1  17
TORSDOF 3
