REMARK  14 active torsions:
REMARK  status: ('A' for Active; 'I' for Inactive)
REMARK    1  A    between atoms: O_2  and  C_3 
REMARK    2  A    between atoms: C_8  and  N_9 
REMARK    3  A    between atoms: N_12  and  C_13 
REMARK    4  A    between atoms: C_13  and  C_14 
REMARK    5  A    between atoms: C_14  and  C_15 
REMARK    6  A    between atoms: C_15  and  C_16 
REMARK    7  A    between atoms: C_16  and  N_17 
REMARK       I    between atoms: N_17  and  C_18 
REMARK    8  A    between atoms: C_18  and  C_20 
REMARK    9  A    between atoms: C_23  and  O_24 
REMARK   10  A    between atoms: O_24  and  C_25 
REMARK   11  A    between atoms: C_25  and  C_26 
REMARK   12  A    between atoms: C_26  and  O_27 
REMARK   13  A    between atoms: O_27  and  C_28 
REMARK   14  A    between atoms: C_28  and  C_29 
ROOT
ATOM      1  C   UNL d   1       5.944   6.456 -12.410  0.00  0.00     0.029 C 
ENDROOT
BRANCH   1   2
ATOM      2  C   UNL d   1       6.593   5.100 -12.621  0.00  0.00     0.037 C 
BRANCH   2   3
ATOM      3  C   UNL d   1       5.608   3.913 -12.570  0.00  0.00     0.251 C 
BRANCH   3   4
ATOM      4  N   UNL d   1       6.252   2.736 -13.144  0.00  0.00     0.141 N 
ATOM      5  C   UNL d   1       6.736   2.942 -14.515  0.00  0.00     0.274 C 
ATOM      6  C   UNL d   1       7.341   1.642 -15.070  0.00  0.00     0.137 C 
ATOM      7  N   UNL d   1       6.422   0.526 -14.954  0.00  0.00    -0.343 N 
ATOM      8  C   UNL d   1       5.942   0.265 -13.613  0.00  0.00     0.137 C 
ATOM      9  C   UNL d   1       5.394   1.554 -12.992  0.00  0.00     0.274 C 
BRANCH   7  10
ATOM     10  C   UNL d   1       6.085  -0.262 -16.103  0.00  0.00     0.079 A 
ATOM     11  C   UNL d   1       7.034  -0.493 -17.124  0.00  0.00     0.110 A 
ATOM     12  C   UNL d   1       6.648  -1.260 -18.262  0.00  0.00     0.026 A 
ATOM     13  C   UNL d   1       5.354  -1.797 -18.361  0.00  0.00     0.002 A 
ATOM     14  C   UNL d   1       4.423  -1.575 -17.329  0.00  0.00     0.002 A 
ATOM     15  C   UNL d   1       4.798  -0.802 -16.204  0.00  0.00     0.019 A 
BRANCH  11  16
ATOM     16  O   UNL d   1       8.335  -0.045 -16.952  0.00  0.00    -0.327 OA
ATOM     17  C   UNL d   1       9.311  -0.280 -17.951  0.00  0.00     0.181 C 
ENDBRANCH  11  16
ENDBRANCH   7  10
ENDBRANCH   3   4
ENDBRANCH   2   3
ENDBRANCH   1   2
BRANCH   1  18
ATOM     18  C   UNL d   1       6.838   7.622 -12.818  0.00  0.00     0.129 C 
BRANCH  18  19
ATOM     19  N   UNL d   1       8.131   7.784 -12.141  0.00  0.00    -0.234 NA
ATOM     20  C   UNL d   1       9.078   6.870 -11.941  0.00  0.00     0.275 C 
ATOM     21  O   UNL d   1       9.391   5.967 -12.760  0.00  0.00    -0.266 OA
BRANCH  20  22
ATOM     22  C   UNL d   1       9.621   6.872 -10.558  0.00  0.00     0.058 A 
ATOM     23  C   UNL d   1      10.412   7.955 -10.130  0.00  0.00     0.007 A 
ATOM     24  C   UNL d   1      11.027   7.942  -8.863  0.00  0.00     0.024 A 
ATOM     25  C   UNL d   1      10.780   6.876  -7.982  0.00  0.00     0.094 A 
ATOM     26  C   UNL d   1       9.912   5.833  -8.363  0.00  0.00     0.024 A 
ATOM     27  C   UNL d   1       9.337   5.818  -9.650  0.00  0.00     0.007 A 
BRANCH  25  28
ATOM     28  O   UNL d   1      11.486   6.796  -6.806  0.00  0.00    -0.328 OA
BRANCH  28  29
ATOM     29  C   UNL d   1      10.735   7.093  -5.645  0.00  0.00     0.181 C 
BRANCH  29  30
ATOM     30  C   UNL d   1      11.435   6.491  -4.426  0.00  0.00     0.175 C 
BRANCH  30  31
ATOM     31  O   UNL d   1      12.169   7.484  -3.733  0.00  0.00    -0.348 OA
BRANCH  31  32
ATOM     32  C   UNL d   1      12.517   7.080  -2.420  0.00  0.00     0.180 C 
BRANCH  32  33
ATOM     33  C   UNL d   1      12.981   8.309  -1.648  0.00  0.00     0.225 C 
ATOM     34  F   UNL d   1      12.034   9.236  -1.664  0.00  0.00    -0.232 F 
ENDBRANCH  32  33
ENDBRANCH  31  32
ENDBRANCH  30  31
ENDBRANCH  29  30
ENDBRANCH  28  29
ENDBRANCH  25  28
ENDBRANCH  20  22
ENDBRANCH  18  19
ENDBRANCH   1  18
TORSDOF 14
