REMARK  3 active torsions:
REMARK  status: ('A' for Active; 'I' for Inactive)
REMARK    1  A    between atoms: N_5  and  C_6 
REMARK    2  A    between atoms: N_15  and  N_16 
REMARK       I    between atoms: N_16  and  C_17 
REMARK    3  A    between atoms: C_17  and  C_19 
ROOT
ATOM      1  C   UNL d   1       8.281   1.191 -20.343  0.00  0.00     0.142 C 
ATOM      2  N   UNL d   1       7.033   0.838 -20.191  0.00  0.00    -0.227 NA
ATOM      3  C   UNL d   1       6.528  -0.051 -19.234  0.00  0.00     0.101 A 
ATOM      4  C   UNL d   1       5.433  -0.852 -19.637  0.00  0.00     0.032 A 
ATOM      5  C   UNL d   1       4.792  -1.711 -18.731  0.00  0.00     0.059 A 
ATOM      6 CL   UNL d   1       3.498  -2.739 -19.240  0.00  0.00    -0.082 Cl
ATOM      7  C   UNL d   1       5.208  -1.753 -17.395  0.00  0.00     0.013 A 
ATOM      8  C   UNL d   1       6.269  -0.933 -16.971  0.00  0.00     0.022 A 
ATOM      9  C   UNL d   1       6.968  -0.112 -17.885  0.00  0.00     0.101 A 
ATOM     10  N   UNL d   1       8.129   0.564 -17.469  0.00  0.00    -0.225 N 
ATOM     11  C   UNL d   1       9.343   0.383 -18.136  0.00  0.00     0.086 A 
ATOM     12  C   UNL d   1      10.494   0.014 -17.408  0.00  0.00     0.019 A 
ATOM     13  C   UNL d   1      11.731  -0.147 -18.052  0.00  0.00     0.002 A 
ATOM     14  C   UNL d   1      11.817   0.029 -19.445  0.00  0.00     0.000 A 
ATOM     15  C   UNL d   1      10.674   0.397 -20.178  0.00  0.00     0.004 A 
ATOM     16  C   UNL d   1       9.435   0.618 -19.535  0.00  0.00     0.051 A 
ENDROOT
BRANCH  10  17
ATOM     17  N   UNL d   1       8.099   1.252 -16.235  0.00  0.00    -0.123 NA
ATOM     18  C   UNL d   1       8.658   2.453 -16.017  0.00  0.00     0.295 C 
ATOM     19  O   UNL d   1       9.426   3.035 -16.795  0.00  0.00    -0.264 OA
BRANCH  18  20
ATOM     20  C   UNL d   1       8.308   3.086 -14.705  0.00  0.00     0.061 A 
ATOM     21  C   UNL d   1       9.229   3.969 -14.099  0.00  0.00     0.031 A 
ATOM     22  C   UNL d   1       8.836   4.616 -12.920  0.00  0.00     0.119 A 
ATOM     23  C   UNL d   1       7.579   4.435 -12.386  0.00  0.00     0.119 A 
ATOM     24  O   UNL d   1       9.545   5.473 -12.143  0.00  0.00    -0.300 OA
ATOM     25  C   UNL d   1       6.626   3.603 -12.982  0.00  0.00     0.026 A 
ATOM     26  O   UNL d   1       7.467   5.157 -11.245  0.00  0.00    -0.300 OA
ATOM     27  C   UNL d   1       7.000   2.924 -14.162  0.00  0.00     0.007 A 
ATOM     28  C   UNL d   1       8.698   5.804 -11.071  0.00  0.00     0.304 A 
ENDBRANCH  18  20
ENDBRANCH  10  17
BRANCH   1  29
ATOM     29  N   UNL d   1       8.627   2.168 -21.266  0.00  0.00    -0.330 N 
ATOM     30  C   UNL d   1       7.968   2.306 -22.569  0.00  0.00     0.138 C 
ATOM     31  C   UNL d   1       7.455   3.737 -22.782  0.00  0.00     0.274 C 
ATOM     32  N   UNL d   1       8.553   4.689 -22.656  0.00  0.00     0.143 N 
ATOM     33  C   UNL d   1       8.059   6.035 -22.890  0.00  0.00     0.286 C 
ATOM     34  C   UNL d   1       9.094   4.605 -21.302  0.00  0.00     0.274 C 
ATOM     35  C   UNL d   1       9.654   3.197 -21.058  0.00  0.00     0.138 C 
ENDBRANCH   1  29
TORSDOF 3
