REMARK  8 active torsions:
REMARK  status: ('A' for Active; 'I' for Inactive)
REMARK       I    between atoms: N_2  and  C_4 
REMARK    1  A    between atoms: C_4  and  O_6 
REMARK    2  A    between atoms: O_6  and  C_7 
REMARK    3  A    between atoms: C_9  and  O_10 
REMARK    4  A    between atoms: O_10  and  C_11 
REMARK       I    between atoms: C_11  and  N_13 
REMARK    5  A    between atoms: C_17  and  C_18 
REMARK    6  A    between atoms: C_18  and  C_20 
REMARK    7  A    between atoms: C_20  and  N_21 
REMARK    8  A    between atoms: N_21  and  C_22 
ROOT
ATOM      1  C   UNL d   1       7.847   2.461 -14.218  0.00  0.00     0.106 A 
ATOM      2  C   UNL d   1       8.824   2.592 -15.220  0.00  0.00     0.050 A 
ATOM      3  C   UNL d   1       9.613   3.767 -15.309  0.00  0.00     0.106 A 
ATOM      4  C   UNL d   1       9.444   4.788 -14.359  0.00  0.00     0.023 A 
ATOM      5  C   UNL d   1       8.472   4.696 -13.353  0.00  0.00     0.014 A 
ATOM      6  C   UNL d   1       7.687   3.515 -13.285  0.00  0.00     0.023 A 
ENDROOT
BRANCH   5   7
ATOM      7  C   UNL d   1       8.220   5.762 -12.307  0.00  0.00     0.198 C 
ATOM      8  O   UNL d   1       6.851   5.902 -11.973  0.00  0.00    -0.216 OA
BRANCH   7   9
ATOM      9  C   UNL d   1       9.060   5.464 -11.053  0.00  0.00     0.157 C 
BRANCH   9  10
ATOM     10  N   UNL d   1       8.764   6.385  -9.945  0.00  0.00    -0.296 NA
BRANCH  10  11
ATOM     11  C   UNL d   1       9.777   6.651  -8.933  0.00  0.00     0.080 C 
ATOM     12  C   UNL d   1      10.245   5.346  -8.307  0.00  0.00     0.024 C 
ATOM     13  C   UNL d   1       9.140   7.532  -7.833  0.00  0.00     0.024 C 
ATOM     14  C   UNL d   1      10.943   7.427  -9.575  0.00  0.00     0.024 C 
ENDBRANCH  10  11
ENDBRANCH   9  10
ENDBRANCH   7   9
ENDBRANCH   5   7
BRANCH   3  15
ATOM     15  O   UNL d   1      10.546   3.954 -16.303  0.00  0.00    -0.259 OA
BRANCH  15  16
ATOM     16  C   UNL d   1      10.197   3.878 -17.615  0.00  0.00     0.370 C 
ATOM     17  O   UNL d   1       9.061   3.647 -18.030  0.00  0.00    -0.238 OA
ATOM     18  N   UNL d   1      11.323   4.104 -18.416  0.00  0.00    -0.292 N 
ATOM     19  C   UNL d   1      12.657   4.349 -17.859  0.00  0.00     0.131 C 
ATOM     20  C   UNL d   1      11.188   4.070 -19.869  0.00  0.00     0.131 C 
ENDBRANCH  15  16
ENDBRANCH   3  15
BRANCH   1  21
ATOM     21  O   UNL d   1       7.092   1.285 -14.245  0.00  0.00    -0.259 OA
BRANCH  21  22
ATOM     22  C   UNL d   1       5.817   1.208 -13.768  0.00  0.00     0.370 C 
ATOM     23  N   UNL d   1       5.201   0.014 -14.150  0.00  0.00    -0.292 N 
ATOM     24  C   UNL d   1       3.779  -0.183 -13.891  0.00  0.00     0.131 C 
ATOM     25  C   UNL d   1       5.928  -1.065 -14.813  0.00  0.00     0.131 C 
ATOM     26  O   UNL d   1       5.231   2.107 -13.166  0.00  0.00    -0.238 OA
ENDBRANCH  21  22
ENDBRANCH   1  21
TORSDOF 8
