REMARK  10 active torsions:
REMARK  status: ('A' for Active; 'I' for Inactive)
REMARK    1  A    between atoms: C_7  and  C_8 
REMARK    2  A    between atoms: C_11  and  C_12 
REMARK       I    between atoms: C_12  and  N_14 
REMARK    3  A    between atoms: N_14  and  C_15 
REMARK    4  A    between atoms: C_15  and  C_16 
REMARK    5  A    between atoms: C_16  and  C_17 
REMARK    6  A    between atoms: C_17  and  C_18 
REMARK    7  A    between atoms: C_18  and  N_19 
REMARK    8  A    between atoms: C_25  and  O_26 
REMARK    9  A    between atoms: O_26  and  S_27 
REMARK   10  A    between atoms: S_27  and  C_30 
ROOT
ATOM      1  C   UNL d   1       8.540   3.896 -13.848  0.00  0.00     0.037 C 
ENDROOT
BRANCH   1   2
ATOM      2  C   UNL d   1       9.126   4.401 -12.528  0.00  0.00     0.029 C 
BRANCH   2   3
ATOM      3  C   UNL d   1       8.073   5.037 -11.603  0.00  0.00     0.129 C 
BRANCH   3   4
ATOM      4  N   UNL d   1       8.669   5.514 -10.363  0.00  0.00    -0.234 NA
ATOM      5  C   UNL d   1       9.460   6.594 -10.249  0.00  0.00     0.275 C 
ATOM      6  O   UNL d   1       9.809   7.278 -11.211  0.00  0.00    -0.266 OA
BRANCH   5   7
ATOM      7  C   UNL d   1       9.959   6.897  -8.870  0.00  0.00     0.058 A 
ATOM      8  C   UNL d   1       9.243   6.493  -7.718  0.00  0.00     0.005 A 
ATOM      9  C   UNL d   1       9.734   6.803  -6.441  0.00  0.00     0.000 A 
ATOM     10  C   UNL d   1      10.930   7.532  -6.272  0.00  0.00    -0.000 A 
ATOM     11  C   UNL d   1      11.623   7.955  -7.425  0.00  0.00     0.000 A 
ATOM     12  C   UNL d   1      11.142   7.646  -8.708  0.00  0.00     0.005 A 
BRANCH  10  13
ATOM     13  C   UNL d   1      11.437   7.857  -4.927  0.00  0.00    -0.004 A 
ATOM     14  C   UNL d   1      11.467   9.185  -4.433  0.00  0.00    -0.022 A 
ATOM     15  C   UNL d   1      10.945  10.339  -5.260  0.00  0.00     0.031 C 
ATOM     16  C   UNL d   1      11.896   9.440  -3.117  0.00  0.00    -0.004 A 
ATOM     17  C   UNL d   1      12.323   8.388  -2.288  0.00  0.00    -0.000 A 
ATOM     18  C   UNL d   1      12.304   7.069  -2.771  0.00  0.00    -0.000 A 
ATOM     19  C   UNL d   1      11.863   6.809  -4.082  0.00  0.00    -0.000 A 
ENDBRANCH  10  13
ENDBRANCH   5   7
ENDBRANCH   3   4
ENDBRANCH   2   3
ENDBRANCH   1   2
BRANCH   1  20
ATOM     20  C   UNL d   1       9.640   3.398 -14.803  0.00  0.00     0.251 C 
BRANCH  20  21
ATOM     21  N   UNL d   1       9.073   2.967 -16.078  0.00  0.00     0.142 N 
ATOM     22  C   UNL d   1       8.561   1.595 -15.974  0.00  0.00     0.277 C 
ATOM     23  C   UNL d   1       8.051   1.028 -17.288  0.00  0.00     0.009 A 
ATOM     24  C   UNL d   1       8.496   1.578 -18.511  0.00  0.00    -0.022 A 
ATOM     25  C   UNL d   1       7.180  -0.079 -17.292  0.00  0.00     0.023 A 
ATOM     26  C   UNL d   1       9.422   2.782 -18.498  0.00  0.00     0.061 C 
ATOM     27  C   UNL d   1       8.065   1.025 -19.732  0.00  0.00    -0.002 A 
ATOM     28  C   UNL d   1      10.092   3.006 -17.129  0.00  0.00     0.255 C 
ATOM     29  C   UNL d   1       7.194  -0.079 -19.733  0.00  0.00     0.025 A 
ATOM     30  C   UNL d   1       6.743  -0.628 -18.516  0.00  0.00     0.113 A 
BRANCH  30  31
ATOM     31  O   UNL d   1       5.896  -1.700 -18.542  0.00  0.00    -0.224 OA
BRANCH  31  32
ATOM     32  S   UNL d   1       4.243  -1.356 -18.551  0.00  0.00     0.374 S 
ATOM     33  O   UNL d   1       3.821  -1.213 -17.149  0.00  0.00    -0.189 OA
ATOM     34  O   UNL d   1       4.017  -0.270 -19.520  0.00  0.00    -0.189 OA
BRANCH  32  35
ATOM     35  C   UNL d   1       3.629  -2.948 -19.264  0.00  0.00     0.524 C 
ATOM     36  F   UNL d   1       3.643  -2.863 -20.592  0.00  0.00    -0.155 F 
ATOM     37  F   UNL d   1       4.417  -3.942 -18.860  0.00  0.00    -0.155 F 
ATOM     38  F   UNL d   1       2.387  -3.173 -18.841  0.00  0.00    -0.155 F 
ENDBRANCH  32  35
ENDBRANCH  31  32
ENDBRANCH  30  31
ENDBRANCH  20  21
ENDBRANCH   1  20
TORSDOF 10
