REMARK  12 active torsions:
REMARK  status: ('A' for Active; 'I' for Inactive)
REMARK    1  A    between atoms: C_2  and  C_3 
REMARK    2  A    between atoms: C_3  and  N_4 
REMARK    3  A    between atoms: N_4  and  C_5 
REMARK    4  A    between atoms: N_4  and  C_24 
REMARK    5  A    between atoms: C_5  and  C_6 
REMARK    6  A    between atoms: C_6  and  C_7 
REMARK    7  A    between atoms: C_7  and  C_8 
REMARK    8  A    between atoms: C_8  and  N_9 
REMARK       I    between atoms: N_9  and  C_10 
REMARK    9  A    between atoms: C_10  and  C_12 
REMARK   10  A    between atoms: C_15  and  C_16 
REMARK   11  A    between atoms: C_24  and  C_25 
REMARK   12  A    between atoms: C_27  and  C_28 
ROOT
ATOM      1  C   UNL d   1       8.856   5.005 -14.980  0.00  0.00     0.037 C 
ENDROOT
BRANCH   1   2
ATOM      2  C   UNL d   1       9.729   3.979 -15.728  0.00  0.00     0.250 C 
BRANCH   2   3
ATOM      3  N   UNL d   1       9.194   3.771 -17.083  0.00  0.00     0.137 N 
BRANCH   3   4
ATOM      4  C   UNL d   1       9.684   2.515 -17.677  0.00  0.00     0.250 C 
BRANCH   4   5
ATOM      5  C   UNL d   1       8.809   2.034 -18.869  0.00  0.00     0.035 C 
ATOM      6  C   UNL d   1       9.421   0.815 -19.571  0.00  0.00     0.002 C 
ENDBRANCH   4   5
ENDBRANCH   3   4
BRANCH   3   7
ATOM      7  C   UNL d   1       9.384   4.905 -17.993  0.00  0.00     0.251 C 
BRANCH   7   8
ATOM      8  C   UNL d   1      10.866   5.294 -18.212  0.00  0.00     0.038 A 
ATOM      9  C   UNL d   1      11.243   6.152 -19.413  0.00  0.00     0.024 A 
ATOM     10  C   UNL d   1      11.682   4.702 -19.362  0.00  0.00     0.007 A 
BRANCH   9  11
ATOM     11  C   UNL d   1      10.173   6.654 -20.356  0.00  0.00    -0.022 A 
ATOM     12  C   UNL d   1       9.342   5.745 -21.056  0.00  0.00     0.007 A 
ATOM     13  C   UNL d   1       8.325   6.218 -21.893  0.00  0.00     0.057 A 
ATOM     14  C   UNL d   1       8.117   7.609 -22.062  0.00  0.00     0.011 A 
ATOM     15 CL   UNL d   1       7.308   5.072 -22.680  0.00  0.00    -0.082 Cl
ATOM     16  C   UNL d   1       8.953   8.521 -21.381  0.00  0.00     0.001 A 
ATOM     17  C   UNL d   1       9.977   8.045 -20.528  0.00  0.00    -0.004 A 
ENDBRANCH   9  11
ENDBRANCH   7   8
ENDBRANCH   3   7
ENDBRANCH   2   3
ENDBRANCH   1   2
BRANCH   1  18
ATOM     18  C   UNL d   1       9.463   5.375 -13.625  0.00  0.00     0.029 C 
BRANCH  18  19
ATOM     19  C   UNL d   1       8.562   6.337 -12.808  0.00  0.00     0.129 C 
BRANCH  19  20
ATOM     20  N   UNL d   1       9.166   6.598 -11.520  0.00  0.00    -0.234 NA
ATOM     21  C   UNL d   1       9.020   5.801 -10.476  0.00  0.00     0.275 C 
ATOM     22  O   UNL d   1       8.400   4.736 -10.515  0.00  0.00    -0.266 OA
BRANCH  21  23
ATOM     23  C   UNL d   1       9.596   6.329  -9.206  0.00  0.00     0.058 A 
ATOM     24  C   UNL d   1       9.002   5.965  -7.990  0.00  0.00     0.005 A 
ATOM     25  C   UNL d   1       9.555   6.421  -6.783  0.00  0.00     0.002 A 
ATOM     26  C   UNL d   1      10.711   7.218  -6.758  0.00  0.00     0.018 A 
ATOM     27  C   UNL d   1      11.303   7.587  -7.988  0.00  0.00     0.002 A 
ATOM     28  C   UNL d   1      10.753   7.138  -9.205  0.00  0.00     0.005 A 
BRANCH  26  29
ATOM     29  C   UNL d   1      11.278   7.680  -5.473  0.00  0.00     0.081 A 
ATOM     30  N   UNL d   1      11.327   6.761  -4.476  0.00  0.00    -0.244 NA
ATOM     31  C   UNL d   1      11.848   7.109  -3.276  0.00  0.00     0.099 A 
ATOM     32  C   UNL d   1      12.359   8.390  -3.013  0.00  0.00     0.021 A 
ATOM     33  C   UNL d   1      12.329   9.333  -4.046  0.00  0.00     0.003 A 
ATOM     34  C   UNL d   1      11.779   8.984  -5.303  0.00  0.00     0.019 A 
ENDBRANCH  26  29
ENDBRANCH  21  23
ENDBRANCH  19  20
ENDBRANCH  18  19
ENDBRANCH   1  18
TORSDOF 12
