REMARK  7 active torsions:
REMARK  status: ('A' for Active; 'I' for Inactive)
REMARK    1  A    between atoms: O_2  and  C_3 
REMARK    2  A    between atoms: C_4  and  C_5 
REMARK       I    between atoms: C_5  and  N_7 
REMARK    3  A    between atoms: N_7  and  C_8 
REMARK    4  A    between atoms: C_8  and  C_9 
REMARK    5  A    between atoms: C_9  and  N_10 
REMARK    6  A    between atoms: N_13  and  C_14 
REMARK    7  A    between atoms: C_17  and  N_18 
ROOT
ATOM      1  C   UNL d   1       8.252   6.003 -11.967  0.00  0.00     0.164 C 
ENDROOT
BRANCH   1   2
ATOM      2  N   UNL d   1       8.228   4.945 -12.978  0.00  0.00    -0.232 NA
ATOM      3  C   UNL d   1       9.259   4.544 -13.745  0.00  0.00     0.277 C 
ATOM      4  O   UNL d   1      10.352   5.114 -13.731  0.00  0.00    -0.266 OA
BRANCH   3   5
ATOM      5  C   UNL d   1       9.009   3.354 -14.649  0.00  0.00     0.080 A 
ATOM      6  C   UNL d   1       9.903   3.022 -15.707  0.00  0.00     0.099 A 
ATOM      7  C   UNL d   1       9.646   1.903 -16.533  0.00  0.00     0.023 A 
ATOM      8  C   UNL d   1       8.508   1.083 -16.303  0.00  0.00     0.008 A 
ATOM      9  C   UNL d   1      10.527   1.599 -17.595  0.00  0.00     0.002 A 
ATOM     10  C   UNL d   1       7.630   1.391 -15.239  0.00  0.00     0.035 A 
ATOM     11  C   UNL d   1       8.275  -0.025 -17.145  0.00  0.00     0.001 A 
ATOM     12  C   UNL d   1       7.885   2.513 -14.437  0.00  0.00     0.013 A 
ATOM     13 BR   UNL d   1       6.088   0.328 -14.845  0.00  0.00    -0.049 Br
ATOM     14  C   UNL d   1       9.169  -0.328 -18.190  0.00  0.00     0.000 A 
ATOM     15  C   UNL d   1      10.296   0.482 -18.415  0.00  0.00     0.000 A 
BRANCH   6  16
ATOM     16  O   UNL d   1      11.006   3.799 -15.973  0.00  0.00    -0.328 OA
ATOM     17  C   UNL d   1      12.203   3.349 -15.349  0.00  0.00     0.181 C 
ENDBRANCH   6  16
ENDBRANCH   3   5
ENDBRANCH   1   2
BRANCH   1  18
ATOM     18  C   UNL d   1       9.532   5.994 -11.103  0.00  0.00     0.277 C 
BRANCH  18  19
ATOM     19  N   UNL d   1       9.562   7.029 -10.096  0.00  0.00     0.143 N 
ATOM     20  C   UNL d   1       8.858   6.539  -8.911  0.00  0.00     0.274 C 
ATOM     21  C   UNL d   1       8.843   7.621  -7.816  0.00  0.00     0.137 C 
ATOM     22  N   UNL d   1      10.201   8.064  -7.543  0.00  0.00    -0.344 N 
ATOM     23  C   UNL d   1      11.010   8.451  -8.679  0.00  0.00     0.137 C 
ATOM     24  C   UNL d   1      10.947   7.349  -9.739  0.00  0.00     0.274 C 
BRANCH  22  25
ATOM     25  C   UNL d   1      10.714   8.103  -6.255  0.00  0.00     0.056 A 
ATOM     26  C   UNL d   1      11.000   9.336  -5.642  0.00  0.00     0.019 A 
ATOM     27  C   UNL d   1      11.509   9.354  -4.329  0.00  0.00     0.025 A 
ATOM     28  C   UNL d   1      11.765   8.141  -3.639  0.00  0.00     0.127 A 
ATOM     29  C   UNL d   1      11.487   6.914  -4.283  0.00  0.00     0.025 A 
ATOM     30  C   UNL d   1      10.959   6.896  -5.582  0.00  0.00     0.019 A 
BRANCH  28  31
ATOM     31  N   UNL d   1      12.219   8.130  -2.249  0.00  0.00    -0.114 N 
ATOM     32  O   UNL d   1      12.261   9.190  -1.645  0.00  0.00    -0.532 OA
ATOM     33  O   UNL d   1      12.510   7.058  -1.742  0.00  0.00    -0.532 OA
ENDBRANCH  28  31
ENDBRANCH  22  25
ENDBRANCH  18  19
ENDBRANCH   1  18
TORSDOF 7
