REMARK  5 active torsions:
REMARK  status: ('A' for Active; 'I' for Inactive)
REMARK    1  A    between atoms: C_9  and  N_10 
REMARK    2  A    between atoms: N_13  and  C_14 
REMARK    3  A    between atoms: C_14  and  C_15 
REMARK    4  A    between atoms: C_15  and  C_16 
REMARK    5  A    between atoms: C_16  and  C_17 
ROOT
ATOM      1  N   UNL d   1       7.655   4.978 -12.454  0.00  0.00    -0.344 N 
ATOM      2  C   UNL d   1       7.484   5.016 -11.008  0.00  0.00     0.137 C 
ATOM      3  C   UNL d   1       8.789   5.494 -10.333  0.00  0.00     0.274 C 
ATOM      4  N   UNL d   1       9.213   6.790 -10.884  0.00  0.00     0.141 N 
ATOM      5  C   UNL d   1       9.425   6.682 -12.326  0.00  0.00     0.274 C 
ATOM      6  C   UNL d   1       8.119   6.235 -13.031  0.00  0.00     0.137 C 
ENDROOT
BRANCH   4   7
ATOM      7  C   UNL d   1      10.432   7.245 -10.235  0.00  0.00     0.251 C 
BRANCH   7   8
ATOM      8  C   UNL d   1      10.130   7.828  -8.848  0.00  0.00     0.040 C 
BRANCH   8   9
ATOM      9  C   UNL d   1      11.147   7.369  -7.787  0.00  0.00     0.030 C 
BRANCH   9  10
ATOM     10  C   UNL d   1      11.260   8.317  -6.635  0.00  0.00    -0.002 A 
ATOM     11  C   UNL d   1      11.463   7.996  -5.248  0.00  0.00     0.015 A 
ATOM     12  C   UNL d   1      11.586   9.218  -4.526  0.00  0.00     0.081 A 
ATOM     13  C   UNL d   1      11.615   6.795  -4.519  0.00  0.00     0.001 A 
ATOM     14  N   UNL d   1      11.422  10.220  -5.457  0.00  0.00    -0.244 NA
ATOM     15  C   UNL d   1      11.829   9.247  -3.142  0.00  0.00     0.019 A 
ATOM     16  C   UNL d   1      11.256   9.684  -6.715  0.00  0.00     0.095 A 
ATOM     17  C   UNL d   1      11.954   8.035  -2.440  0.00  0.00     0.002 A 
ATOM     18  C   UNL d   1      11.861   6.812  -3.130  0.00  0.00     0.000 A 
ENDBRANCH   9  10
ENDBRANCH   8   9
ENDBRANCH   7   8
ENDBRANCH   4   7
BRANCH   1  19
ATOM     19  C   UNL d   1       7.380   3.826 -13.208  0.00  0.00     0.054 A 
ATOM     20  C   UNL d   1       6.144   3.170 -13.028  0.00  0.00     0.017 A 
ATOM     21  C   UNL d   1       5.862   1.984 -13.734  0.00  0.00     0.003 A 
ATOM     22  C   UNL d   1       6.807   1.459 -14.643  0.00  0.00     0.018 A 
ATOM     23  C   UNL d   1       8.048   2.098 -14.824  0.00  0.00     0.073 A 
ATOM     24  N   UNL d   1       8.990   1.519 -15.707  0.00  0.00    -0.271 NA
ATOM     25  C   UNL d   1       8.339   3.275 -14.099  0.00  0.00     0.011 A 
ATOM     26  C   UNL d   1      10.221   2.236 -16.017  0.00  0.00     0.126 C 
ATOM     27  C   UNL d   1      10.784   2.995 -14.815  0.00  0.00     0.029 C 
ATOM     28  C   UNL d   1      12.023   3.828 -15.178  0.00  0.00     0.002 C 
ATOM     29  C   UNL d   1       9.715   3.910 -14.236  0.00  0.00     0.031 C 
ENDBRANCH   1  19
TORSDOF 5
