REMARK  5 active torsions:
REMARK  status: ('A' for Active; 'I' for Inactive)
REMARK    1  A    between atoms: C_2  and  C_3 
REMARK    2  A    between atoms: C_3  and  N_4 
REMARK    3  A    between atoms: N_4  and  C_5 
REMARK    4  A    between atoms: N_4  and  C_9 
REMARK    5  A    between atoms: C_5  and  C_6 
ROOT
ATOM      1  C   UNL d   1       7.553   4.609 -12.992  0.00  0.00     0.254 C 
ATOM      2  C   UNL d   1       6.184   4.187 -13.627  0.00  0.00     0.182 C 
ATOM      3  O   UNL d   1       5.982   2.817 -13.535  0.00  0.00    -0.329 OA
ATOM      4  C   UNL d   1       7.008   2.095 -14.042  0.00  0.00     0.090 A 
ATOM      5  C   UNL d   1       6.688   0.773 -14.320  0.00  0.00     0.026 A 
ATOM      6  C   UNL d   1       7.709  -0.069 -14.729  0.00  0.00     0.029 A 
ATOM      7  C   UNL d   1       9.022   0.388 -14.944  0.00  0.00     0.131 A 
ATOM      8  O   UNL d   1       9.985  -0.434 -15.452  0.00  0.00    -0.190 OA
ATOM      9  C   UNL d   1       9.369   1.704 -14.619  0.00  0.00     0.025 A 
ATOM     10  C   UNL d   1       8.349   2.553 -14.163  0.00  0.00     0.004 A 
ATOM     11  C   UNL d   1       8.709   3.957 -13.786  0.00  0.00     0.064 C 
ENDROOT
BRANCH   1  12
ATOM     12  N   UNL d   1       7.773   6.063 -12.986  0.00  0.00     0.142 N 
BRANCH  12  13
ATOM     13  C   UNL d   1       6.705   6.741 -12.264  0.00  0.00     0.251 C 
BRANCH  13  14
ATOM     14  C   UNL d   1       6.402   8.131 -12.832  0.00  0.00     0.035 C 
ATOM     15  C   UNL d   1       5.087   8.755 -12.305  0.00  0.00     0.002 C 
ENDBRANCH  13  14
ENDBRANCH  12  13
BRANCH  12  16
ATOM     16  C   UNL d   1       9.089   6.511 -12.476  0.00  0.00     0.277 C 
BRANCH  16  17
ATOM     17  C   UNL d   1       9.353   6.074 -11.044  0.00  0.00     0.015 C 
ATOM     18  C   UNL d   1       9.483   6.938 -10.016  0.00  0.00     0.033 C 
ATOM     19  I   UNL d   1       9.774   6.198  -8.034  0.00  0.00    -0.043 I 
ENDBRANCH  16  17
ENDBRANCH  12  16
ENDBRANCH   1  12
TORSDOF 5
