REMARK  3 active torsions:
REMARK  status: ('A' for Active; 'I' for Inactive)
REMARK    1  A    between atoms: C_5  and  N_6 
REMARK    2  A    between atoms: N_9  and  C_10 
REMARK    3  A    between atoms: C_10  and  C_11 
ROOT
ATOM      1  N   UNL d   1       9.906   7.962  -6.867  0.00  0.00    -0.344 N 
ATOM      2  C   UNL d   1       9.220   6.725  -7.233  0.00  0.00     0.137 C 
ATOM      3  C   UNL d   1       9.712   6.235  -8.600  0.00  0.00     0.275 C 
ATOM      4  N   UNL d   1       9.483   7.292  -9.598  0.00  0.00     0.149 N 
ATOM      5  C   UNL d   1      10.273   8.476  -9.235  0.00  0.00     0.275 C 
ATOM      6  C   UNL d   1       9.803   9.004  -7.880  0.00  0.00     0.137 C 
ENDROOT
BRANCH   4   7
ATOM      7  C   UNL d   1       9.860   6.859 -10.927  0.00  0.00     0.315 C 
BRANCH   7   8
ATOM      8  C   UNL d   1       8.947   5.864 -11.568  0.00  0.00     0.173 A 
ATOM      9  N   UNL d   1       9.309   5.197 -12.682  0.00  0.00    -0.227 NA
ATOM     10  C   UNL d   1       8.247   4.380 -13.020  0.00  0.00     0.100 A 
ATOM     11  C   UNL d   1       7.273   4.650 -12.018  0.00  0.00     0.100 A 
ATOM     12  C   UNL d   1       8.019   3.451 -14.049  0.00  0.00     0.021 A 
ATOM     13  N   UNL d   1       7.724   5.595 -11.128  0.00  0.00    -0.227 NA
ATOM     14  C   UNL d   1       6.057   3.946 -12.055  0.00  0.00     0.021 A 
ATOM     15  C   UNL d   1       5.810   3.010 -13.083  0.00  0.00     0.002 A 
ATOM     16  C   UNL d   1       6.784   2.768 -14.079  0.00  0.00     0.002 A 
ENDBRANCH   7   8
ENDBRANCH   4   7
BRANCH   1  17
ATOM     17  C   UNL d   1      10.651   8.134  -5.691  0.00  0.00     0.056 A 
ATOM     18  C   UNL d   1      11.219   7.030  -4.998  0.00  0.00     0.018 A 
ATOM     19  C   UNL d   1      11.875   7.230  -3.764  0.00  0.00     0.013 A 
ATOM     20  C   UNL d   1      11.977   8.519  -3.219  0.00  0.00     0.058 A 
ATOM     21 CL   UNL d   1      12.640   8.764  -1.656  0.00  0.00    -0.082 Cl
ATOM     22  C   UNL d   1      11.445   9.609  -3.910  0.00  0.00     0.013 A 
ATOM     23  C   UNL d   1      10.776   9.433  -5.130  0.00  0.00     0.018 A 
ENDBRANCH   1  17
TORSDOF 3
