REMARK  8 active torsions:
REMARK  status: ('A' for Active; 'I' for Inactive)
REMARK    1  A    between atoms: C_3  and  S_4 
REMARK    2  A    between atoms: S_4  and  C_5 
REMARK    3  A    between atoms: C_5  and  C_6 
REMARK    4  A    between atoms: C_6  and  C_7 
REMARK    5  A    between atoms: C_7  and  N_8 
REMARK    6  A    between atoms: C_13  and  C_14 
REMARK    7  A    between atoms: C_17  and  C_18 
REMARK    8  A    between atoms: C_27  and  C_28 
ROOT
ATOM      1  C   UNL d   1      10.320   3.525 -15.007  0.00  0.00     0.251 C 
ENDROOT
BRANCH   1   2
ATOM      2  C   UNL d   1      11.024   2.173 -15.139  0.00  0.00     0.047 C 
BRANCH   2   3
ATOM      3  C   UNL d   1      12.089   2.166 -16.241  0.00  0.00     0.067 C 
BRANCH   3   4
ATOM      4  S   UNL d   1      11.424   2.407 -17.907  0.00  0.00    -0.075 SA
BRANCH   4   5
ATOM      5  C   UNL d   1      10.458   0.930 -18.031  0.00  0.00     0.193 A 
ATOM      6  N   UNL d   1       9.145   0.952 -18.359  0.00  0.00    -0.289 N 
ATOM      7  C   UNL d   1       8.376   2.178 -18.630  0.00  0.00     0.134 C 
ATOM      8  C   UNL d   1       8.850  -0.381 -18.396  0.00  0.00     0.167 A 
ATOM      9  N   UNL d   1       9.919  -1.156 -18.097  0.00  0.00    -0.128 NA
ATOM     10  N   UNL d   1      10.964  -0.293 -17.842  0.00  0.00    -0.122 NA
BRANCH   8  11
ATOM     11  C   UNL d   1       7.545  -1.020 -18.738  0.00  0.00     0.042 A 
ATOM     12  C   UNL d   1       6.415  -0.313 -18.986  0.00  0.00     0.064 A 
ATOM     13  C   UNL d   1       5.136  -0.919 -19.277  0.00  0.00     0.261 A 
ATOM     14  N   UNL d   1       5.116  -2.271 -19.364  0.00  0.00    -0.292 N 
ATOM     15  O   UNL d   1       4.116  -0.251 -19.430  0.00  0.00    -0.267 OA
ATOM     16  C   UNL d   1       6.250  -3.075 -19.137  0.00  0.00     0.079 A 
ATOM     17  C   UNL d   1       3.844  -2.931 -19.709  0.00  0.00     0.134 C 
ATOM     18  C   UNL d   1       7.444  -2.493 -18.823  0.00  0.00     0.022 A 
ENDBRANCH   8  11
ENDBRANCH   4   5
ENDBRANCH   3   4
ENDBRANCH   2   3
ENDBRANCH   1   2
BRANCH   1  19
ATOM     19  N   UNL d   1       9.205   3.441 -14.087  0.00  0.00     0.137 N 
ATOM     20  C   UNL d   1       8.676   4.774 -13.868  0.00  0.00     0.251 C 
ATOM     21  C   UNL d   1       7.343   4.568 -13.165  0.00  0.00     0.037 A 
ATOM     22  C   UNL d   1       6.915   3.232 -13.704  0.00  0.00     0.038 C 
ATOM     23  C   UNL d   1       7.120   4.986 -11.736  0.00  0.00     0.024 A 
ATOM     24  C   UNL d   1       6.319   5.644 -12.836  0.00  0.00     0.007 A 
ATOM     25  C   UNL d   1       8.030   2.734 -14.601  0.00  0.00     0.250 C 
BRANCH  23  26
ATOM     26  C   UNL d   1       8.206   5.685 -10.968  0.00  0.00    -0.022 A 
ATOM     27  C   UNL d   1       8.828   6.847 -11.479  0.00  0.00    -0.004 A 
ATOM     28  C   UNL d   1       9.845   7.510 -10.785  0.00  0.00     0.004 A 
ATOM     29  C   UNL d   1      10.274   7.022  -9.546  0.00  0.00     0.071 A 
ATOM     30  C   UNL d   1       9.686   5.845  -9.025  0.00  0.00     0.004 A 
ATOM     31  C   UNL d   1       8.658   5.180  -9.725  0.00  0.00    -0.004 A 
BRANCH  29  32
ATOM     32  C   UNL d   1      11.379   7.776  -8.826  0.00  0.00     0.419 C 
ATOM     33  F   UNL d   1      11.633   7.229  -7.636  0.00  0.00    -0.166 F 
ATOM     34  F   UNL d   1      12.484   7.767  -9.577  0.00  0.00    -0.166 F 
ATOM     35  F   UNL d   1      11.016   9.042  -8.637  0.00  0.00    -0.166 F 
ENDBRANCH  29  32
ENDBRANCH  23  26
ENDBRANCH   1  19
TORSDOF 8
