REMARK  7 active torsions:
REMARK  status: ('A' for Active; 'I' for Inactive)
REMARK    1  A    between atoms: C_6  and  N_7 
REMARK    2  A    between atoms: N_10  and  C_11 
REMARK    3  A    between atoms: C_11  and  C_12 
REMARK    4  A    between atoms: C_12  and  C_13 
REMARK    5  A    between atoms: C_13  and  C_14 
REMARK    6  A    between atoms: C_14  and  N_15 
REMARK       I    between atoms: N_15  and  C_16 
REMARK    7  A    between atoms: C_16  and  C_18 
ROOT
ATOM      1  C   UNL d   1       9.179   7.240 -12.380  0.00  0.00     0.037 C 
ENDROOT
BRANCH   1   2
ATOM      2  C   UNL d   1       8.522   6.016 -13.041  0.00  0.00     0.251 C 
BRANCH   2   3
ATOM      3  N   UNL d   1       9.488   4.951 -13.321  0.00  0.00     0.141 N 
ATOM      4  C   UNL d   1       8.762   3.684 -13.422  0.00  0.00     0.274 C 
ATOM      5  C   UNL d   1       9.747   2.526 -13.666  0.00  0.00     0.137 C 
ATOM      6  N   UNL d   1      10.522   2.763 -14.883  0.00  0.00    -0.344 N 
ATOM      7  C   UNL d   1      11.188   4.063 -14.902  0.00  0.00     0.137 C 
ATOM      8  C   UNL d   1      10.172   5.173 -14.600  0.00  0.00     0.274 C 
BRANCH   6   9
ATOM      9  C   UNL d   1      10.611   1.842 -15.950  0.00  0.00     0.056 A 
ATOM     10  C   UNL d   1       9.637   0.826 -16.111  0.00  0.00     0.017 A 
ATOM     11  C   UNL d   1       9.733  -0.101 -17.169  0.00  0.00     0.001 A 
ATOM     12  C   UNL d   1      10.786  -0.020 -18.094  0.00  0.00    -0.004 A 
ATOM     13  C   UNL d   1      11.756   0.990 -17.960  0.00  0.00    -0.020 A 
ATOM     14  C   UNL d   1      12.894   1.099 -18.956  0.00  0.00     0.031 C 
ATOM     15  C   UNL d   1      11.674   1.911 -16.889  0.00  0.00     0.013 A 
ENDBRANCH   6   9
ENDBRANCH   2   3
ENDBRANCH   1   2
BRANCH   1  16
ATOM     16  C   UNL d   1       9.626   6.956 -10.936  0.00  0.00     0.029 C 
BRANCH  16  17
ATOM     17  C   UNL d   1      10.389   8.127 -10.309  0.00  0.00     0.129 C 
BRANCH  17  18
ATOM     18  N   UNL d   1      10.682   7.860  -8.903  0.00  0.00    -0.233 NA
ATOM     19  C   UNL d   1      10.049   8.445  -7.880  0.00  0.00     0.298 C 
ATOM     20  O   UNL d   1       9.082   9.190  -8.009  0.00  0.00    -0.263 OA
BRANCH  19  21
ATOM     21  C   UNL d   1      10.631   8.193  -6.554  0.00  0.00     0.157 A 
ATOM     22  O   UNL d   1      10.825   9.269  -5.715  0.00  0.00    -0.302 OA
ATOM     23  C   UNL d   1      11.384   8.784  -4.553  0.00  0.00     0.100 A 
ATOM     24  C   UNL d   1      11.492   7.374  -4.647  0.00  0.00     0.025 A 
ATOM     25  C   UNL d   1      11.760   9.503  -3.405  0.00  0.00     0.025 A 
ATOM     26  C   UNL d   1      11.017   7.019  -5.949  0.00  0.00     0.032 A 
ATOM     27  C   UNL d   1      11.995   6.697  -3.520  0.00  0.00     0.002 A 
ATOM     28  C   UNL d   1      12.370   7.392  -2.357  0.00  0.00     0.000 A 
ATOM     29  C   UNL d   1      12.264   8.794  -2.300  0.00  0.00     0.002 A 
ENDBRANCH  19  21
ENDBRANCH  17  18
ENDBRANCH  16  17
ENDBRANCH   1  16
TORSDOF 7
