REMARK  5 active torsions:
REMARK  status: ('A' for Active; 'I' for Inactive)
REMARK    1  A    between atoms: C_4  and  C_5 
REMARK    2  A    between atoms: C_5  and  C_6 
REMARK    3  A    between atoms: C_6  and  N_7 
REMARK    4  A    between atoms: C_11  and  C_12 
REMARK    5  A    between atoms: C_13  and  C_14 
ROOT
ATOM      1  C   UNL d   1       8.665   3.963 -13.810  0.00  0.00    -0.001 A 
ATOM      2  C   UNL d   1       9.430   3.233 -14.707  0.00  0.00     0.077 A 
ATOM      3  N   UNL d   1       8.747   2.065 -15.014  0.00  0.00    -0.246 NA
ATOM      4  C   UNL d   1       7.540   1.990 -14.370  0.00  0.00     0.081 A 
ATOM      5  C   UNL d   1       6.564   0.999 -14.332  0.00  0.00     0.019 A 
ATOM      6  C   UNL d   1       5.435   1.168 -13.520  0.00  0.00     0.002 A 
ATOM      7  C   UNL d   1       5.302   2.352 -12.760  0.00  0.00     0.000 A 
ATOM      8  C   UNL d   1       6.270   3.357 -12.810  0.00  0.00     0.001 A 
ATOM      9  C   UNL d   1       7.428   3.212 -13.624  0.00  0.00     0.015 A 
ENDROOT
BRANCH   1  10
ATOM     10  C   UNL d   1       9.042   5.271 -13.160  0.00  0.00     0.057 C 
ATOM     11  C   UNL d   1       7.968   6.330 -13.337  0.00  0.00     0.009 C 
ATOM     12  C   UNL d   1       8.436   7.646 -12.722  0.00  0.00     0.036 C 
ATOM     13  C   UNL d   1       8.820   7.373 -11.289  0.00  0.00     0.250 C 
ATOM     14  N   UNL d   1       9.883   6.388 -11.158  0.00  0.00     0.138 N 
ATOM     15  C   UNL d   1       9.421   5.104 -11.690  0.00  0.00     0.255 C 
BRANCH  14  16
ATOM     16  C   UNL d   1      10.216   6.250  -9.743  0.00  0.00     0.255 C 
BRANCH  16  17
ATOM     17  C   UNL d   1      11.156   7.367  -9.237  0.00  0.00     0.062 C 
BRANCH  17  18
ATOM     18  C   UNL d   1      11.136   7.469  -7.723  0.00  0.00    -0.020 A 
ATOM     19  C   UNL d   1      11.470   6.363  -6.917  0.00  0.00    -0.004 A 
ATOM     20  C   UNL d   1      11.447   6.443  -5.513  0.00  0.00    -0.000 A 
ATOM     21  C   UNL d   1      11.087   7.652  -4.901  0.00  0.00    -0.000 A 
ATOM     22  C   UNL d   1      10.732   8.762  -5.691  0.00  0.00    -0.000 A 
ATOM     23  C   UNL d   1      10.762   8.667  -7.094  0.00  0.00    -0.004 A 
ENDBRANCH  17  18
ENDBRANCH  16  17
ENDBRANCH  14  16
ENDBRANCH   1  10
BRANCH   2  24
ATOM     24  C   UNL d   1      10.742   3.503 -15.339  0.00  0.00     0.017 A 
ATOM     25  C   UNL d   1      11.562   4.618 -15.020  0.00  0.00     0.002 A 
ATOM     26  C   UNL d   1      12.758   4.862 -15.667  0.00  0.00     0.000 A 
ATOM     27  C   UNL d   1      13.233   3.972 -16.645  0.00  0.00     0.000 A 
ATOM     28  C   UNL d   1      12.473   2.830 -16.965  0.00  0.00     0.000 A 
ATOM     29  C   UNL d   1      11.234   2.598 -16.334  0.00  0.00     0.002 A 
ENDBRANCH   2  24
TORSDOF 5
