REMARK  8 active torsions:
REMARK  status: ('A' for Active; 'I' for Inactive)
REMARK    1  A    between atoms: O_2  and  C_3 
REMARK    2  A    between atoms: C_9  and  C_10 
REMARK    3  A    between atoms: C_12  and  N_13 
REMARK    4  A    between atoms: N_13  and  C_14 
REMARK    5  A    between atoms: C_14  and  C_15 
REMARK    6  A    between atoms: C_15  and  C_16 
REMARK    7  A    between atoms: N_26  and  S_27 
REMARK    8  A    between atoms: S_27  and  C_30 
ROOT
ATOM      1  C   UNL d   1       9.282   6.614 -19.325  0.00  0.00     0.094 A 
ATOM      2  C   UNL d   1      10.424   6.754 -20.150  0.00  0.00     0.026 A 
ATOM      3  C   UNL d   1      11.677   6.284 -19.690  0.00  0.00     0.020 A 
ATOM      4  C   UNL d   1      11.785   5.704 -18.429  0.00  0.00     0.075 A 
ATOM      5  C   UNL d   1      10.666   5.528 -17.570  0.00  0.00     0.022 A 
ATOM      6  C   UNL d   1       9.416   6.005 -18.061  0.00  0.00     0.026 A 
ATOM      7  C   UNL d   1      11.134   4.888 -16.359  0.00  0.00     0.039 A 
ATOM      8  C   UNL d   1      12.489   4.708 -16.525  0.00  0.00     0.093 A 
ATOM      9  N   UNL d   1      12.882   5.193 -17.762  0.00  0.00    -0.231 N 
ENDROOT
BRANCH   7  10
ATOM     10  C   UNL d   1      10.308   4.519 -15.212  0.00  0.00     0.115 A 
ATOM     11  N   UNL d   1      10.490   5.134 -13.962  0.00  0.00    -0.058 NA
ATOM     12  C   UNL d   1       9.579   4.586 -13.167  0.00  0.00     0.746 A 
ATOM     13  N   UNL d   1       8.875   3.640 -13.783  0.00  0.00    -0.062 NA
ATOM     14  C   UNL d   1       9.313   3.566 -15.098  0.00  0.00     0.096 A 
ATOM     15  C   UNL d   1       8.758   2.595 -16.087  0.00  0.00     0.054 C 
BRANCH  12  16
ATOM     16  N   UNL d   1       9.323   4.909 -11.845  0.00  0.00    -0.086 NA
BRANCH  16  17
ATOM     17  C   UNL d   1       9.924   5.824 -10.894  0.00  0.00     0.150 C 
BRANCH  17  18
ATOM     18  C   UNL d   1       8.931   6.711 -10.189  0.00  0.00     0.053 C 
BRANCH  18  19
ATOM     19  C   UNL d   1       9.514   7.260  -8.895  0.00  0.00    -0.020 A 
ATOM     20  C   UNL d   1      10.476   8.293  -8.899  0.00  0.00    -0.004 A 
ATOM     21  C   UNL d   1      10.990   8.788  -7.680  0.00  0.00    -0.000 A 
ATOM     22  C   UNL d   1      10.546   8.255  -6.453  0.00  0.00    -0.000 A 
ATOM     23  C   UNL d   1       9.608   7.207  -6.448  0.00  0.00    -0.000 A 
ATOM     24  C   UNL d   1       9.093   6.717  -7.663  0.00  0.00    -0.004 A 
ENDBRANCH  18  19
ENDBRANCH  17  18
ENDBRANCH  16  17
ENDBRANCH  12  16
ENDBRANCH   7  10
BRANCH   9  25
ATOM     25  S   UNL d   1      14.480   5.104 -18.395  0.00  0.00     0.271 S 
ATOM     26  O   UNL d   1      14.651   6.263 -19.286  0.00  0.00    -0.200 OA
ATOM     27  O   UNL d   1      15.368   4.922 -17.242  0.00  0.00    -0.200 OA
BRANCH  25  28
ATOM     28  C   UNL d   1      14.453   3.601 -19.366  0.00  0.00     0.104 A 
ATOM     29  C   UNL d   1      15.020   3.593 -20.659  0.00  0.00     0.013 A 
ATOM     30  C   UNL d   1      15.006   2.407 -21.418  0.00  0.00     0.001 A 
ATOM     31  C   UNL d   1      14.417   1.239 -20.894  0.00  0.00     0.000 A 
ATOM     32  C   UNL d   1      13.842   1.256 -19.605  0.00  0.00     0.001 A 
ATOM     33  C   UNL d   1      13.860   2.437 -18.839  0.00  0.00     0.013 A 
ENDBRANCH  25  28
ENDBRANCH   9  25
BRANCH   1  34
ATOM     34  O   UNL d   1       8.026   7.069 -19.685  0.00  0.00    -0.328 OA
ATOM     35  C   UNL d   1       7.851   7.660 -20.960  0.00  0.00     0.181 C 
ENDBRANCH   1  34
TORSDOF 8
