REMARK  6 active torsions:
REMARK  status: ('A' for Active; 'I' for Inactive)
REMARK    1  A    between atoms: C_2  and  C_3 
REMARK    2  A    between atoms: C_3  and  O_4 
REMARK    3  A    between atoms: O_4  and  C_5 
REMARK    4  A    between atoms: C_5  and  C_6 
REMARK    5  A    between atoms: N_15  and  C_16 
REMARK    6  A    between atoms: C_16  and  C_17 
ROOT
ATOM      1  C   UNL d   1       8.882   3.918 -13.995  0.00  0.00     0.116 C 
ATOM      2  C   UNL d   1       9.071   3.588 -12.520  0.00  0.00     0.067 C 
ATOM      3  C   UNL d   1       9.686   4.712 -11.706  0.00  0.00     0.253 C 
ATOM      4  N   UNL d   1       8.778   5.846 -11.685  0.00  0.00     0.142 N 
ATOM      5  C   UNL d   1       8.688   6.312 -13.058  0.00  0.00     0.253 C 
ATOM      6  C   UNL d   1       8.095   5.235 -13.984  0.00  0.00     0.067 C 
ENDROOT
BRANCH   1   7
ATOM      7  O   UNL d   1      10.156   4.142 -14.610  0.00  0.00    -0.350 OA
BRANCH   7   8
ATOM      8  C   UNL d   1      11.119   3.088 -14.609  0.00  0.00     0.169 C 
BRANCH   8   9
ATOM      9  C   UNL d   1      12.150   3.404 -15.678  0.00  0.00     0.006 C 
ATOM     10  C   UNL d   1      12.275   2.721 -16.828  0.00  0.00    -0.002 C 
ENDBRANCH   8   9
ENDBRANCH   7   8
ENDBRANCH   1   7
BRANCH   1  11
ATOM     11  C   UNL d   1       8.106   2.833 -14.773  0.00  0.00     0.002 A 
ATOM     12  C   UNL d   1       8.528   2.396 -16.050  0.00  0.00    -0.001 A 
ATOM     13  C   UNL d   1       7.845   1.346 -16.728  0.00  0.00     0.011 A 
ATOM     14  C   UNL d   1       6.698   0.761 -16.160  0.00  0.00     0.058 A 
ATOM     15  C   UNL d   1       6.252   1.220 -14.902  0.00  0.00     0.011 A 
ATOM     16 CL   UNL d   1       5.836  -0.497 -17.000  0.00  0.00    -0.082 Cl
ATOM     17  C   UNL d   1       6.909   2.267 -14.244  0.00  0.00    -0.001 A 
ENDBRANCH   1  11
BRANCH   4  18
ATOM     18  C   UNL d   1       9.374   6.906 -10.866  0.00  0.00     0.278 C 
BRANCH  18  19
ATOM     19  C   UNL d   1       9.440   6.717  -9.386  0.00  0.00     0.032 A 
ATOM     20  C   UNL d   1      10.219   7.430  -8.420  0.00  0.00     0.017 A 
ATOM     21  C   UNL d   1       9.850   6.965  -7.120  0.00  0.00     0.081 A 
ATOM     22  C   UNL d   1      11.206   8.434  -8.483  0.00  0.00     0.001 A 
ATOM     23  N   UNL d   1       8.868   6.033  -7.332  0.00  0.00    -0.244 NA
ATOM     24  C   UNL d   1      10.439   7.448  -5.945  0.00  0.00     0.019 A 
ATOM     25  C   UNL d   1       8.658   5.846  -8.679  0.00  0.00     0.097 A 
ATOM     26  C   UNL d   1      11.438   8.427  -6.040  0.00  0.00     0.002 A 
ATOM     27  C   UNL d   1      11.831   8.897  -7.308  0.00  0.00     0.000 A 
ENDBRANCH  18  19
ENDBRANCH   4  18
TORSDOF 6
