REMARK  6 active torsions:
REMARK  status: ('A' for Active; 'I' for Inactive)
REMARK       I    between atoms: C_2  and  N_3 
REMARK    1  A    between atoms: C_2  and  C_27 
REMARK    2  A    between atoms: N_3  and  C_4 
REMARK    3  A    between atoms: C_7  and  C_8 
REMARK    4  A    between atoms: C_8  and  C_9 
REMARK    5  A    between atoms: C_9  and  N_10 
REMARK    6  A    between atoms: N_13  and  C_14 
ROOT
ATOM      1  C   UNL d   1       8.894   6.052 -12.193  0.00  0.00     0.035 C 
ENDROOT
BRANCH   1   2
ATOM      2  C   UNL d   1       9.572   6.541 -10.912  0.00  0.00     0.002 C 
ATOM      3  C   UNL d   1       9.630   8.087 -10.937  0.00  0.00     0.002 C 
ATOM      4  C   UNL d   1      10.332   8.629  -9.698  0.00  0.00     0.024 C 
ATOM      5  C   UNL d   1       9.672   8.124  -8.404  0.00  0.00     0.106 C 
ATOM      6  C   UNL d   1       9.540   6.587  -8.361  0.00  0.00     0.024 C 
ATOM      7  C   UNL d   1       8.885   6.008  -9.633  0.00  0.00     0.002 C 
BRANCH   5   8
ATOM      8  N   UNL d   1      10.329   8.625  -7.199  0.00  0.00    -0.240 NA
ATOM      9  C   UNL d   1      11.639   8.599  -6.919  0.00  0.00     0.251 C 
ATOM     10  O   UNL d   1      12.517   8.354  -7.741  0.00  0.00    -0.271 OA
BRANCH   9  11
ATOM     11  C   UNL d   1      12.036   8.817  -5.462  0.00  0.00     0.086 C 
ATOM     12  C   UNL d   1      11.225   9.910  -4.780  0.00  0.00     0.042 C 
ATOM     13  C   UNL d   1      11.662   9.988  -3.319  0.00  0.00     0.143 C 
ATOM     14  O   UNL d   1      11.468   8.729  -2.683  0.00  0.00    -0.354 OA
ATOM     15  C   UNL d   1      12.305   7.702  -3.201  0.00  0.00     0.143 C 
ATOM     16  C   UNL d   1      11.929   7.480  -4.669  0.00  0.00     0.042 C 
ENDBRANCH   9  11
ENDBRANCH   5   8
ENDBRANCH   1   2
BRANCH   1  17
ATOM     17  C   UNL d   1       9.207   4.584 -12.536  0.00  0.00     0.250 C 
BRANCH  17  18
ATOM     18  N   UNL d   1       8.341   4.095 -13.600  0.00  0.00     0.141 N 
ATOM     19  C   UNL d   1       8.928   2.852 -14.133  0.00  0.00     0.274 C 
ATOM     20  C   UNL d   1       8.052   2.276 -15.260  0.00  0.00     0.137 C 
ATOM     21  N   UNL d   1       6.699   2.092 -14.757  0.00  0.00    -0.343 N 
ATOM     22  C   UNL d   1       6.066   3.244 -14.114  0.00  0.00     0.137 C 
ATOM     23  C   UNL d   1       6.985   3.868 -13.060  0.00  0.00     0.274 C 
BRANCH  21  24
ATOM     24  C   UNL d   1       6.021   0.864 -14.932  0.00  0.00     0.081 A 
ATOM     25  C   UNL d   1       6.190   0.066 -16.086  0.00  0.00     0.135 A 
ATOM     26  C   UNL d   1       5.472  -1.099 -16.271  0.00  0.00     0.121 A 
ATOM     27  O   UNL d   1       6.967   0.281 -17.183  0.00  0.00    -0.298 OA
ATOM     28  C   UNL d   1       4.531  -1.542 -15.338  0.00  0.00     0.026 A 
ATOM     29  O   UNL d   1       5.818  -1.672 -17.457  0.00  0.00    -0.299 OA
ATOM     30  C   UNL d   1       4.316  -0.748 -14.193  0.00  0.00     0.004 A 
ATOM     31  C   UNL d   1       5.073   0.425 -13.983  0.00  0.00     0.019 A 
ATOM     32  C   UNL d   1       6.778  -0.829 -18.023  0.00  0.00     0.304 A 
ENDBRANCH  21  24
ENDBRANCH  17  18
ENDBRANCH   1  17
TORSDOF 6
