REMARK  14 active torsions:
REMARK  status: ('A' for Active; 'I' for Inactive)
REMARK    1  A    between atoms: C_9  and  C_10 
REMARK    2  A    between atoms: C_10  and  C_12 
REMARK    3  A    between atoms: C_12  and  N_13 
REMARK    4  A    between atoms: N_13  and  C_14 
REMARK    5  A    between atoms: C_14  and  C_15 
REMARK    6  A    between atoms: C_15  and  S_16 
REMARK    7  A    between atoms: S_16  and  C_17 
REMARK    8  A    between atoms: C_17  and  C_18 
REMARK    9  A    between atoms: C_18  and  C_19 
REMARK   10  A    between atoms: C_19  and  N_20 
REMARK   11  A    between atoms: N_20  and  C_21 
REMARK   12  A    between atoms: C_21  and  C_22 
REMARK   13  A    between atoms: C_22  and  C_23 
REMARK   14  A    between atoms: C_27  and  C_28 
ROOT
ATOM      1  C   UNL d   1       9.333   4.663 -12.342  0.00  0.00     0.083 C 
ENDROOT
BRANCH   1   2
ATOM      2  C   UNL d   1       9.757   5.988 -11.725  0.00  0.00     0.132 C 
BRANCH   2   3
ATOM      3  N   UNL d   1       9.226   6.217 -10.408  0.00  0.00    -0.292 NA
BRANCH   3   4
ATOM      4  C   UNL d   1       9.807   5.374  -9.351  0.00  0.00     0.157 C 
BRANCH   4   5
ATOM      5  C   UNL d   1       9.538   5.925  -7.955  0.00  0.00     0.199 C 
ATOM      6  O   UNL d   1       8.172   5.853  -7.739  0.00  0.00    -0.216 OA
BRANCH   5   7
ATOM      7  C   UNL d   1      10.167   7.286  -7.650  0.00  0.00     0.018 C 
ATOM      8  C   UNL d   1      10.255   8.318  -8.628  0.00  0.00     0.001 C 
ATOM      9  C   UNL d   1      10.960   9.508  -8.332  0.00  0.00     0.029 C 
ATOM     10  C   UNL d   1      11.361   9.836  -7.007  0.00  0.00     0.149 C 
ATOM     11  C   UNL d   1      11.278   8.825  -6.050  0.00  0.00     0.116 A 
ATOM     12  O   UNL d   1      11.794  11.069  -6.557  0.00  0.00    -0.189 OA
ATOM     13  N   UNL d   1      11.758   8.953  -4.736  0.00  0.00    -0.200 NA
ATOM     14  C   UNL d   1      10.730   7.579  -6.385  0.00  0.00     0.052 A 
ATOM     15  C   UNL d   1      11.659   7.802  -3.965  0.00  0.00     0.311 A 
ATOM     16  O   UNL d   1      11.977   7.655  -2.786  0.00  0.00    -0.258 OA
ATOM     17  S   UNL d   1      10.919   6.516  -5.009  0.00  0.00    -0.024 SA
ENDBRANCH   5   7
ENDBRANCH   4   5
ENDBRANCH   3   4
ENDBRANCH   2   3
ENDBRANCH   1   2
BRANCH   1  18
ATOM     18  S   UNL d   1      10.576   4.085 -13.526  0.00  0.00    -0.138 SA
BRANCH  18  19
ATOM     19  C   UNL d   1       9.552   3.803 -14.967  0.00  0.00     0.060 C 
BRANCH  19  20
ATOM     20  C   UNL d   1      10.399   4.056 -16.207  0.00  0.00     0.050 C 
BRANCH  20  21
ATOM     21  C   UNL d   1       9.732   3.482 -17.450  0.00  0.00     0.291 C 
BRANCH  21  22
ATOM     22  N   UNL d   1      10.226   4.186 -18.619  0.00  0.00     0.339 N 
BRANCH  22  23
ATOM     23  C   UNL d   1       9.171   4.276 -19.613  0.00  0.00     0.295 C 
BRANCH  23  24
ATOM     24  C   UNL d   1       9.628   5.168 -20.771  0.00  0.00     0.065 C 
BRANCH  24  25
ATOM     25  C   UNL d   1       8.481   5.550 -21.688  0.00  0.00    -0.020 A 
ATOM     26  C   UNL d   1       8.059   6.895 -21.746  0.00  0.00    -0.000 A 
ATOM     27  C   UNL d   1       6.992   7.279 -22.584  0.00  0.00     0.071 A 
ATOM     28  C   UNL d   1       6.348   6.299 -23.369  0.00  0.00     0.004 A 
ATOM     29  C   UNL d   1       6.763   4.953 -23.313  0.00  0.00    -0.000 A 
ATOM     30  C   UNL d   1       7.829   4.576 -22.473  0.00  0.00    -0.004 A 
BRANCH  27  31
ATOM     31  C   UNL d   1       6.534   8.730 -22.656  0.00  0.00     0.419 C 
ATOM     32  F   UNL d   1       6.615   9.162 -23.913  0.00  0.00    -0.166 F 
ATOM     33  F   UNL d   1       5.268   8.817 -22.254  0.00  0.00    -0.166 F 
ATOM     34  F   UNL d   1       7.277   9.531 -21.886  0.00  0.00    -0.166 F 
ENDBRANCH  27  31
ENDBRANCH  24  25
ENDBRANCH  23  24
ENDBRANCH  22  23
ENDBRANCH  21  22
ENDBRANCH  20  21
ENDBRANCH  19  20
ENDBRANCH  18  19
ENDBRANCH   1  18
TORSDOF 14
