REMARK  5 active torsions:
REMARK  status: ('A' for Active; 'I' for Inactive)
REMARK    1  A    between atoms: C_10  and  N_11 
REMARK    2  A    between atoms: N_14  and  C_15 
REMARK    3  A    between atoms: C_15  and  C_16 
REMARK    4  A    between atoms: C_16  and  C_17 
REMARK    5  A    between atoms: C_17  and  C_18 
ROOT
ATOM      1  N   UNL d   1       7.614   5.118 -12.397  0.00  0.00    -0.343 N 
ATOM      2  C   UNL d   1       7.466   5.155 -10.956  0.00  0.00     0.137 C 
ATOM      3  C   UNL d   1       8.785   5.587 -10.286  0.00  0.00     0.274 C 
ATOM      4  N   UNL d   1       9.257   6.858 -10.854  0.00  0.00     0.141 N 
ATOM      5  C   UNL d   1       9.456   6.715 -12.296  0.00  0.00     0.274 C 
ATOM      6  C   UNL d   1       8.130   6.344 -12.977  0.00  0.00     0.137 C 
ENDROOT
BRANCH   1   7
ATOM      7  C   UNL d   1       7.332   3.964 -13.150  0.00  0.00     0.080 A 
ATOM      8  C   UNL d   1       8.188   3.532 -14.194  0.00  0.00     0.127 A 
ATOM      9  O   UNL d   1       9.314   4.253 -14.506  0.00  0.00    -0.324 OA
ATOM     10  C   UNL d   1       7.859   2.388 -14.958  0.00  0.00     0.108 A 
ATOM     11  C   UNL d   1      10.385   3.601 -15.204  0.00  0.00     0.171 C 
ATOM     12  C   UNL d   1      11.186   4.739 -15.862  0.00  0.00     0.040 C 
ATOM     13  C   UNL d   1       9.882   2.577 -16.258  0.00  0.00     0.281 C 
ATOM     14  C   UNL d   1      11.242   2.885 -14.152  0.00  0.00     0.040 C 
ATOM     15  N   UNL d   1       8.684   2.020 -16.044  0.00  0.00    -0.208 NA
ATOM     16  O   UNL d   1      10.566   2.271 -17.229  0.00  0.00    -0.268 OA
ATOM     17  C   UNL d   1       6.699   1.645 -14.671  0.00  0.00     0.021 A 
ATOM     18  C   UNL d   1       5.866   2.043 -13.608  0.00  0.00     0.003 A 
ATOM     19  C   UNL d   1       6.175   3.201 -12.864  0.00  0.00     0.019 A 
ENDBRANCH   1   7
BRANCH   4  20
ATOM     20  C   UNL d   1      10.477   7.286 -10.196  0.00  0.00     0.251 C 
BRANCH  20  21
ATOM     21  C   UNL d   1      10.158   7.987  -8.865  0.00  0.00     0.040 C 
BRANCH  21  22
ATOM     22  C   UNL d   1      10.916   7.375  -7.668  0.00  0.00     0.030 C 
BRANCH  22  23
ATOM     23  C   UNL d   1      11.155   8.332  -6.533  0.00  0.00    -0.002 A 
ATOM     24  C   UNL d   1      11.439   7.994  -5.160  0.00  0.00     0.015 A 
ATOM     25  C   UNL d   1      11.623   9.210  -4.436  0.00  0.00     0.081 A 
ATOM     26  C   UNL d   1      11.572   6.793  -4.435  0.00  0.00     0.001 A 
ATOM     27  N   UNL d   1      11.450  10.218  -5.354  0.00  0.00    -0.244 NA
ATOM     28  C   UNL d   1      11.918   9.227  -3.064  0.00  0.00     0.019 A 
ATOM     29  C   UNL d   1      11.213   9.699  -6.606  0.00  0.00     0.095 A 
ATOM     30  C   UNL d   1      12.045   8.012  -2.371  0.00  0.00     0.002 A 
ATOM     31  C   UNL d   1      11.869   6.793  -3.055  0.00  0.00     0.000 A 
ENDBRANCH  22  23
ENDBRANCH  21  22
ENDBRANCH  20  21
ENDBRANCH   4  20
TORSDOF 5
