REMARK  9 active torsions:
REMARK  status: ('A' for Active; 'I' for Inactive)
REMARK    1  A    between atoms: C_2  and  C_3 
REMARK    2  A    between atoms: C_3  and  C_4 
REMARK    3  A    between atoms: C_4  and  C_7 
REMARK       I    between atoms: C_7  and  N_9 
REMARK    4  A    between atoms: N_9  and  C_10 
REMARK    5  A    between atoms: C_10  and  C_11 
REMARK    6  A    between atoms: C_11  and  C_12 
REMARK    7  A    between atoms: C_12  and  C_13 
REMARK    8  A    between atoms: C_13  and  N_14 
REMARK    9  A    between atoms: N_17  and  C_18 
ROOT
ATOM      1  N   UNL d   1       9.253   6.236  -9.322  0.00  0.00     0.141 N 
ATOM      2  C   UNL d   1       8.566   6.158  -8.033  0.00  0.00     0.274 C 
ATOM      3  C   UNL d   1       8.724   7.480  -7.231  0.00  0.00     0.137 C 
ATOM      4  N   UNL d   1      10.123   7.821  -7.094  0.00  0.00    -0.344 N 
ATOM      5  C   UNL d   1      10.900   7.806  -8.309  0.00  0.00     0.137 C 
ATOM      6  C   UNL d   1      10.668   6.479  -9.062  0.00  0.00     0.274 C 
ENDROOT
BRANCH   1   7
ATOM      7  C   UNL d   1       9.072   4.992 -10.071  0.00  0.00     0.251 C 
BRANCH   7   8
ATOM      8  C   UNL d   1       9.259   5.262 -11.575  0.00  0.00     0.037 C 
BRANCH   8   9
ATOM      9  C   UNL d   1       9.022   4.017 -12.430  0.00  0.00     0.029 C 
BRANCH   9  10
ATOM     10  C   UNL d   1       9.242   4.300 -13.929  0.00  0.00     0.129 C 
BRANCH  10  11
ATOM     11  N   UNL d   1       9.118   3.081 -14.720  0.00  0.00    -0.238 NA
ATOM     12  C   UNL d   1       7.956   2.426 -14.924  0.00  0.00     0.250 C 
ATOM     13  O   UNL d   1       6.894   2.849 -14.463  0.00  0.00    -0.271 OA
BRANCH  12  14
ATOM     14  C   UNL d   1       7.974   1.176 -15.833  0.00  0.00     0.073 C 
ATOM     15  C   UNL d   1       9.415   0.584 -15.950  0.00  0.00     0.009 C 
ATOM     16  C   UNL d   1       7.535   1.619 -17.246  0.00  0.00     0.009 C 
BRANCH  14  17
ATOM     17  C   UNL d   1       7.027   0.034 -15.330  0.00  0.00     0.009 C 
BRANCH  17  18
ATOM     18  C   UNL d   1       5.513   0.342 -15.101  0.00  0.00     0.001 C 
ATOM     19  C   UNL d   1       4.708  -0.858 -14.607  0.00  0.00     0.000 C 
ENDBRANCH  17  18
ENDBRANCH  14  17
ENDBRANCH  12  14
ENDBRANCH  10  11
ENDBRANCH   9  10
ENDBRANCH   8   9
ENDBRANCH   7   8
ENDBRANCH   1   7
BRANCH   4  20
ATOM     20  C   UNL d   1      10.725   8.042  -5.847  0.00  0.00     0.056 A 
ATOM     21  C   UNL d   1      11.244   6.967  -5.104  0.00  0.00     0.018 A 
ATOM     22  C   UNL d   1      11.859   7.179  -3.868  0.00  0.00     0.013 A 
ATOM     23  C   UNL d   1      11.949   8.490  -3.341  0.00  0.00     0.058 A 
ATOM     24  C   UNL d   1      11.419   9.573  -4.087  0.00  0.00     0.013 A 
ATOM     25 CL   UNL d   1      12.646   8.745  -1.798  0.00  0.00    -0.082 Cl
ATOM     26  C   UNL d   1      10.822   9.352  -5.329  0.00  0.00     0.018 A 
ENDBRANCH   4  20
TORSDOF 9
