REMARK  9 active torsions:
REMARK  status: ('A' for Active; 'I' for Inactive)
REMARK    1  A    between atoms: N_2  and  C_4 
REMARK    2  A    between atoms: C_9  and  N_10 
REMARK    3  A    between atoms: N_13  and  C_14 
REMARK    4  A    between atoms: C_14  and  C_15 
REMARK    5  A    between atoms: C_15  and  C_16 
REMARK    6  A    between atoms: C_16  and  C_17 
REMARK    7  A    between atoms: C_17  and  C_18 
REMARK    8  A    between atoms: C_18  and  C_19 
REMARK    9  A    between atoms: C_19  and  N_20 
ROOT
ATOM      1  C   UNL d   1       7.346   2.780 -14.245  0.00  0.00     0.002 C 
ENDROOT
BRANCH   1   2
ATOM      2  C   UNL d   1       8.384   3.646 -13.509  0.00  0.00     0.035 C 
BRANCH   2   3
ATOM      3  C   UNL d   1       7.738   4.750 -12.667  0.00  0.00     0.250 C 
BRANCH   3   4
ATOM      4  N   UNL d   1       8.760   5.688 -12.198  0.00  0.00     0.141 N 
ATOM      5  C   UNL d   1       9.385   5.113 -11.003  0.00  0.00     0.274 C 
ATOM      6  C   UNL d   1      10.371   6.100 -10.392  0.00  0.00     0.137 C 
ATOM      7  N   UNL d   1       9.799   7.383 -10.122  0.00  0.00    -0.343 N 
ATOM      8  C   UNL d   1       9.097   7.986 -11.240  0.00  0.00     0.137 C 
ATOM      9  C   UNL d   1       8.077   6.916 -11.784  0.00  0.00     0.274 C 
BRANCH   7  10
ATOM     10  C   UNL d   1      10.033   7.992  -8.882  0.00  0.00     0.078 C 
ATOM     11  C   UNL d   1      11.233   8.642  -8.518  0.00  0.00     0.142 C 
ATOM     12  C   UNL d   1      11.394   9.228  -7.231  0.00  0.00     0.025 C 
ATOM     13  C   UNL d   1      10.336   9.174  -6.315  0.00  0.00     0.002 C 
ATOM     14  C   UNL d   1       9.166   8.478  -6.644  0.00  0.00     0.002 C 
ATOM     15  C   UNL d   1       9.057   7.849  -7.905  0.00  0.00     0.019 C 
BRANCH  11  16
ATOM     16  N   UNL d   1      12.305   8.685  -9.461  0.00  0.00    -0.112 N 
ATOM     17  O   UNL d   1      12.046   9.121 -10.565  0.00  0.00    -0.532 OA
ATOM     18  O   UNL d   1      13.398   8.241  -9.104  0.00  0.00    -0.532 OA
ENDBRANCH  11  16
ENDBRANCH   7  10
ENDBRANCH   3   4
ENDBRANCH   2   3
ENDBRANCH   1   2
BRANCH   1  19
ATOM     19  C   UNL d   1       7.986   1.723 -15.168  0.00  0.00     0.002 C 
BRANCH  19  20
ATOM     20  C   UNL d   1       8.730   2.308 -16.382  0.00  0.00     0.025 C 
BRANCH  20  21
ATOM     21  C   UNL d   1       9.354   1.235 -17.280  0.00  0.00     0.118 C 
BRANCH  21  22
ATOM     22  N   UNL d   1      10.094   1.822 -18.395  0.00  0.00    -0.254 N 
ATOM     23  S   UNL d   1       9.448   3.065 -19.402  0.00  0.00     0.268 S 
ATOM     24  C   UNL d   1      10.720   2.769 -20.597  0.00  0.00     0.105 A 
ATOM     25  O   UNL d   1       8.148   2.594 -19.905  0.00  0.00    -0.200 OA
ATOM     26  O   UNL d   1       9.647   4.351 -18.723  0.00  0.00    -0.200 OA
ATOM     27  C   UNL d   1      10.956   3.426 -21.818  0.00  0.00     0.013 A 
ATOM     28  C   UNL d   1      11.552   1.709 -20.209  0.00  0.00     0.029 A 
ATOM     29  C   UNL d   1      12.036   3.002 -22.623  0.00  0.00     0.001 A 
ATOM     30  C   UNL d   1      12.865   1.930 -22.211  0.00  0.00     0.000 A 
ATOM     31  C   UNL d   1      12.630   1.256 -20.992  0.00  0.00     0.002 A 
ATOM     32  C   UNL d   1      13.374   0.172 -20.478  0.00  0.00     0.000 A 
ATOM     33  C   UNL d   1      13.026  -0.420 -19.242  0.00  0.00     0.002 A 
ATOM     34  C   UNL d   1      11.934   0.063 -18.491  0.00  0.00     0.018 A 
ATOM     35  C   UNL d   1      11.184   1.157 -18.968  0.00  0.00     0.071 A 
ENDBRANCH  21  22
ENDBRANCH  20  21
ENDBRANCH  19  20
ENDBRANCH   1  19
TORSDOF 9
