REMARK  7 active torsions:
REMARK  status: ('A' for Active; 'I' for Inactive)
REMARK    1  A    between atoms: C_3  and  S_4 
REMARK    2  A    between atoms: S_4  and  C_5 
REMARK    3  A    between atoms: C_5  and  C_6 
REMARK    4  A    between atoms: C_6  and  C_7 
REMARK    5  A    between atoms: C_7  and  N_8 
REMARK    6  A    between atoms: N_13  and  C_14 
REMARK    7  A    between atoms: C_25  and  C_26 
ROOT
ATOM      1  C   UNL d   1       8.448   5.378  -9.965  0.00  0.00     0.251 C 
ENDROOT
BRANCH   1   2
ATOM      2  C   UNL d   1       8.651   4.633 -11.319  0.00  0.00     0.047 C 
BRANCH   2   3
ATOM      3  C   UNL d   1       7.352   4.585 -12.199  0.00  0.00     0.067 C 
BRANCH   3   4
ATOM      4  S   UNL d   1       7.441   3.488 -13.664  0.00  0.00    -0.075 SA
BRANCH   4   5
ATOM      5  C   UNL d   1       8.911   4.046 -14.458  0.00  0.00     0.193 C 
ATOM      6  N   UNL d   1       9.356   3.609 -15.661  0.00  0.00    -0.292 N 
ATOM      7  C   UNL d   1       8.726   2.703 -16.636  0.00  0.00     0.134 C 
ATOM      8  C   UNL d   1      10.517   4.300 -15.796  0.00  0.00     0.143 C 
ATOM      9  N   UNL d   1      10.776   5.073 -14.736  0.00  0.00    -0.133 NA
ATOM     10  N   UNL d   1       9.715   4.976 -13.969  0.00  0.00    -0.122 NA
BRANCH   8  11
ATOM     11  C   UNL d   1      11.392   4.262 -17.023  0.00  0.00     0.064 C 
ATOM     12  C   UNL d   1      11.384   5.647 -17.745  0.00  0.00     0.040 C 
ATOM     13  C   UNL d   1      12.169   6.745 -16.981  0.00  0.00     0.143 C 
ATOM     14  O   UNL d   1      13.504   6.293 -16.730  0.00  0.00    -0.354 OA
ATOM     15  C   UNL d   1      13.596   5.114 -15.919  0.00  0.00     0.143 C 
ATOM     16  C   UNL d   1      12.871   3.934 -16.631  0.00  0.00     0.040 C 
ENDBRANCH   8  11
ENDBRANCH   4   5
ENDBRANCH   3   4
ENDBRANCH   2   3
ENDBRANCH   1   2
BRANCH   1  17
ATOM     17  N   UNL d   1       9.755   5.927  -9.570  0.00  0.00     0.139 N 
ATOM     18  C   UNL d   1       9.706   6.466  -8.232  0.00  0.00     0.272 C 
ATOM     19  C   UNL d   1      11.037   7.197  -8.120  0.00  0.00     0.117 C 
ATOM     20  C   UNL d   1      11.281   7.762  -9.514  0.00  0.00     0.058 C 
ATOM     21  N   UNL d   1      10.976   8.308  -7.187  0.00  0.00    -0.348 N 
ATOM     22  C   UNL d   1      10.207   7.083 -10.368  0.00  0.00     0.252 C 
ATOM     23  C   UNL d   1      11.142   9.276  -9.347  0.00  0.00     0.028 C 
ATOM     24  C   UNL d   1      11.491   9.480  -7.864  0.00  0.00     0.102 C 
BRANCH  21  25
ATOM     25  C   UNL d   1      11.294   8.110  -5.831  0.00  0.00     0.056 A 
ATOM     26  C   UNL d   1      11.501   9.218  -4.974  0.00  0.00     0.019 A 
ATOM     27  C   UNL d   1      11.809   9.038  -3.611  0.00  0.00     0.031 A 
ATOM     28  C   UNL d   1      11.925   7.742  -3.083  0.00  0.00     0.140 A 
ATOM     29  C   UNL d   1      11.729   6.634  -3.920  0.00  0.00     0.031 A 
ATOM     30  F   UNL d   1      12.210   7.563  -1.774  0.00  0.00    -0.204 F 
ATOM     31  C   UNL d   1      11.413   6.812  -5.277  0.00  0.00     0.019 A 
ENDBRANCH  21  25
ENDBRANCH   1  17
TORSDOF 7
