REMARK  6 active torsions:
REMARK  status: ('A' for Active; 'I' for Inactive)
REMARK    1  A    between atoms: N_8  and  C_9 
REMARK    2  A    between atoms: C_9  and  C_10 
REMARK    3  A    between atoms: C_10  and  C_11 
REMARK    4  A    between atoms: C_11  and  C_12 
REMARK    5  A    between atoms: C_12  and  N_13 
REMARK    6  A    between atoms: N_16  and  C_17 
ROOT
ATOM      1  N   UNL d   1      21.197  11.123 -16.996  0.00  0.00    -0.191 NA
ATOM      2  C   UNL d   1      20.401  10.404 -17.427  0.00  0.00     0.102 C 
ATOM      3  C   UNL d   1      19.451   9.481 -17.957  0.00  0.00     0.086 A 
ATOM      4  C   UNL d   1      18.881   9.674 -19.283  0.00  0.00     0.015 A 
ATOM      5  C   UNL d   1      17.968   8.816 -19.797  0.00  0.00     0.040 A 
ATOM      6  C   UNL d   1      17.537   7.664 -19.023  0.00  0.00     0.171 A 
ATOM      7  N   UNL d   1      16.667   6.736 -19.241  0.00  0.00    -0.147 NA
ATOM      8  N   UNL d   1      16.721   5.986 -18.105  0.00  0.00    -0.201 N 
ATOM      9  C   UNL d   1      17.609   6.429 -17.205  0.00  0.00     0.352 A 
ATOM     10  O   UNL d   1      17.839   5.987 -16.078  0.00  0.00    -0.244 OA
ATOM     11  N   UNL d   1      18.145   7.498 -17.789  0.00  0.00    -0.240 N 
ATOM     12  C   UNL d   1      19.069   8.400 -17.248  0.00  0.00     0.096 A 
ENDROOT
BRANCH   8  13
ATOM     13  C   UNL d   1      15.836   4.831 -17.968  0.00  0.00     0.133 C 
BRANCH  13  14
ATOM     14  C   UNL d   1      14.407   5.242 -17.575  0.00  0.00     0.029 C 
BRANCH  14  15
ATOM     15  C   UNL d   1      13.491   4.040 -17.300  0.00  0.00     0.037 C 
BRANCH  15  16
ATOM     16  C   UNL d   1      11.999   4.423 -17.241  0.00  0.00     0.251 C 
BRANCH  16  17
ATOM     17  N   UNL d   1      11.131   3.247 -17.146  0.00  0.00     0.141 N 
ATOM     18  C   UNL d   1       9.747   3.631 -17.470  0.00  0.00     0.274 C 
ATOM     19  C   UNL d   1       8.806   2.407 -17.426  0.00  0.00     0.137 C 
ATOM     20  N   UNL d   1       8.912   1.735 -16.145  0.00  0.00    -0.344 N 
ATOM     21  C   UNL d   1      10.254   1.434 -15.679  0.00  0.00     0.137 C 
ATOM     22  C   UNL d   1      11.154   2.684 -15.786  0.00  0.00     0.274 C 
BRANCH  20  23
ATOM     23  C   UNL d   1       7.783   1.517 -15.340  0.00  0.00     0.057 A 
ATOM     24  C   UNL d   1       7.346   2.486 -14.395  0.00  0.00     0.022 A 
ATOM     25  C   UNL d   1       6.164   2.180 -13.638  0.00  0.00     0.031 A 
ATOM     26  C   UNL d   1       7.893   3.777 -14.031  0.00  0.00     0.009 A 
ATOM     27  C   UNL d   1       5.477   0.964 -13.796  0.00  0.00     0.007 A 
ATOM     28  S   UNL d   1       5.746   3.506 -12.564  0.00  0.00    -0.086 SA
ATOM     29  C   UNL d   1       5.933   0.024 -14.731  0.00  0.00     0.002 A 
ATOM     30  C   UNL d   1       7.076   0.308 -15.501  0.00  0.00     0.017 A 
ATOM     31  C   UNL d   1       7.147   4.400 -13.062  0.00  0.00     0.035 A 
ENDBRANCH  20  23
ENDBRANCH  16  17
ENDBRANCH  15  16
ENDBRANCH  14  15
ENDBRANCH  13  14
ENDBRANCH   8  13
TORSDOF 6
