REMARK  7 active torsions:
REMARK  status: ('A' for Active; 'I' for Inactive)
REMARK    1  A    between atoms: C_2  and  C_3 
REMARK    2  A    between atoms: C_3  and  C_4 
REMARK    3  A    between atoms: C_8  and  O_9 
REMARK    4  A    between atoms: C_11  and  C_12 
REMARK       I    between atoms: C_12  and  N_14 
REMARK    5  A    between atoms: N_14  and  C_15 
REMARK    6  A    between atoms: C_15  and  C_16 
REMARK    7  A    between atoms: N_20  and  C_21 
ROOT
ATOM      1  C   UNL d   1      11.934   7.684  -4.365  0.00  0.00    -0.020 A 
ATOM      2  C   UNL d   1      12.431   8.934  -4.780  0.00  0.00     0.025 A 
ATOM      3  C   UNL d   1      11.923   9.542  -5.929  0.00  0.00     0.153 A 
ATOM      4  O   UNL d   1      12.357  10.765  -6.286  0.00  0.00    -0.188 OA
ATOM      5  C   UNL d   1      10.970   8.897  -6.718  0.00  0.00     0.124 A 
ATOM      6  C   UNL d   1      10.473   7.640  -6.316  0.00  0.00     0.082 A 
ATOM      7  C   UNL d   1      10.964   7.035  -5.143  0.00  0.00     0.003 A 
ENDROOT
BRANCH   6   8
ATOM      8  C   UNL d   1       9.429   6.925  -7.117  0.00  0.00     0.277 C 
ATOM      9  O   UNL d   1       8.474   6.388  -6.577  0.00  0.00    -0.266 OA
ATOM     10  N   UNL d   1       9.670   6.875  -8.426  0.00  0.00    -0.232 NA
BRANCH  10  11
ATOM     11  C   UNL d   1       8.806   6.333  -9.434  0.00  0.00     0.162 C 
BRANCH  11  12
ATOM     12  C   UNL d   1       9.619   5.821 -10.583  0.00  0.00     0.243 C 
ATOM     13  N   UNL d   1       9.326   4.414 -10.696  0.00  0.00     0.137 N 
ATOM     14  C   UNL d   1       9.781   4.007 -12.016  0.00  0.00     0.250 C 
ATOM     15  C   UNL d   1       9.364   5.134 -12.943  0.00  0.00     0.037 C 
ATOM     16  C   UNL d   1       9.205   6.311 -11.985  0.00  0.00     0.037 C 
BRANCH  13  17
ATOM     17  C   UNL d   1       9.907   3.612  -9.595  0.00  0.00     0.250 C 
ATOM     18  C   UNL d   1       8.884   3.299  -8.406  0.00  0.00     0.037 C 
ENDBRANCH  13  17
ENDBRANCH  11  12
ENDBRANCH  10  11
ENDBRANCH   6   8
BRANCH   5  19
ATOM     19  O   UNL d   1      10.505   9.522  -7.842  0.00  0.00    -0.326 OA
ATOM     20  C   UNL d   1      11.333   9.372  -8.993  0.00  0.00     0.181 C 
ENDBRANCH   5  19
BRANCH   1  21
ATOM     21  C   UNL d   1      12.486   7.021  -3.123  0.00  0.00     0.026 C 
BRANCH  21  22
ATOM     22  C   UNL d   1      12.095   7.708  -1.824  0.00  0.00     0.005 C 
ATOM     23  C   UNL d   1      12.444   9.172  -1.737  0.00  0.00     0.000 C 
ENDBRANCH  21  22
ENDBRANCH   1  21
TORSDOF 7
