REMARK  4 active torsions:
REMARK  status: ('A' for Active; 'I' for Inactive)
REMARK    1  A    between atoms: C_5  and  C_6 
REMARK    2  A    between atoms: C_9  and  S_10 
REMARK    3  A    between atoms: S_10  and  N_13 
REMARK    4  A    between atoms: N_13  and  C_14 
ROOT
ATOM      1  S   UNL d   1       8.628   5.749 -12.958  0.00  0.00     0.285 S 
ATOM      2  O   UNL d   1      10.007   5.701 -13.454  0.00  0.00    -0.198 OA
ATOM      3  O   UNL d   1       7.732   6.882 -13.142  0.00  0.00    -0.198 OA
ENDROOT
BRANCH   1   4
ATOM      4  C   UNL d   1       7.821   4.275 -13.480  0.00  0.00     0.105 A 
ATOM      5  C   UNL d   1       8.498   3.412 -14.362  0.00  0.00     0.013 A 
ATOM      6  C   UNL d   1       7.877   2.218 -14.766  0.00  0.00     0.001 A 
ATOM      7  C   UNL d   1       6.585   1.887 -14.295  0.00  0.00     0.006 A 
ATOM      8  C   UNL d   1       5.922   2.781 -13.415  0.00  0.00     0.001 A 
ATOM      9  C   UNL d   1       6.532   3.983 -13.013  0.00  0.00     0.013 A 
BRANCH   7  10
ATOM     10  C   UNL d   1       5.931   0.648 -14.697  0.00  0.00     0.029 A 
ATOM     11  C   UNL d   1       4.880  -0.005 -14.104  0.00  0.00     0.007 A 
ATOM     12  C   UNL d   1       4.484  -1.179 -14.806  0.00  0.00     0.003 A 
ATOM     13  C   UNL d   1       5.244  -1.428 -15.917  0.00  0.00     0.008 A 
ATOM     14  C   UNL d   1       5.141  -2.585 -16.857  0.00  0.00     0.038 C 
ATOM     15  S   UNL d   1       6.417  -0.163 -16.165  0.00  0.00    -0.091 SA
ENDBRANCH   7  10
ENDBRANCH   1   4
BRANCH   1  16
ATOM     16  N   UNL d   1       8.765   5.579 -11.303  0.00  0.00    -0.158 NA
BRANCH  16  17
ATOM     17  C   UNL d   1       9.267   6.517 -10.392  0.00  0.00     0.093 A 
ATOM     18  C   UNL d   1       9.088   6.228  -9.060  0.00  0.00     0.015 A 
ATOM     19  C   UNL d   1       9.530   7.110  -8.062  0.00  0.00    -0.022 A 
ATOM     20  C   UNL d   1      10.201   8.296  -8.427  0.00  0.00    -0.024 A 
ATOM     21  C   UNL d   1       9.243   6.730  -6.622  0.00  0.00     0.061 C 
ATOM     22  C   UNL d   1      10.364   8.596  -9.782  0.00  0.00    -0.003 A 
ATOM     23  C   UNL d   1      10.733   9.265  -7.373  0.00  0.00     0.061 C 
ATOM     24  C   UNL d   1       9.885   7.735 -10.795  0.00  0.00     0.020 A 
ATOM     25  C   UNL d   1      11.655   8.660  -6.321  0.00  0.00     0.255 C 
ATOM     26  N   UNL d   1      10.943   7.912  -5.288  0.00  0.00     0.140 N 
ATOM     27  C   UNL d   1      10.486   6.610  -5.741  0.00  0.00     0.255 C 
ATOM     28  C   UNL d   1      11.814   7.681  -4.146  0.00  0.00     0.285 C 
ENDBRANCH  16  17
ENDBRANCH   1  16
TORSDOF 4
