REMARK  9 active torsions:
REMARK  status: ('A' for Active; 'I' for Inactive)
REMARK    1  A    between atoms: O_2  and  C_3 
REMARK    2  A    between atoms: C_7  and  C_8 
REMARK    3  A    between atoms: C_8  and  C_9 
REMARK    4  A    between atoms: C_9  and  C_10 
REMARK    5  A    between atoms: C_15  and  O_16 
REMARK    6  A    between atoms: O_16  and  C_17 
REMARK    7  A    between atoms: C_17  and  C_18 
REMARK    8  A    between atoms: C_18  and  C_19 
REMARK    9  A    between atoms: C_19  and  N_20 
ROOT
ATOM      1  C   UNL d   1       8.033   4.083 -13.834  0.00  0.00     0.001 A 
ATOM      2  C   UNL d   1       6.925   3.206 -13.889  0.00  0.00    -0.002 A 
ATOM      3  C   UNL d   1       5.852   3.356 -12.994  0.00  0.00    -0.000 A 
ATOM      4  C   UNL d   1       5.881   4.392 -12.045  0.00  0.00     0.002 A 
ATOM      5  C   UNL d   1       6.976   5.274 -11.987  0.00  0.00     0.024 A 
ATOM      6  C   UNL d   1       8.061   5.139 -12.889  0.00  0.00     0.090 A 
ENDROOT
BRANCH   6   7
ATOM      7  O   UNL d   1       9.145   5.994 -12.914  0.00  0.00    -0.331 OA
BRANCH   7   8
ATOM      8  C   UNL d   1       9.142   7.183 -12.130  0.00  0.00     0.151 C 
BRANCH   8   9
ATOM      9  C   UNL d   1       9.721   6.875 -10.743  0.00  0.00     0.068 C 
BRANCH   9  10
ATOM     10  C   UNL d   1       9.995   8.137  -9.914  0.00  0.00     0.253 C 
BRANCH  10  11
ATOM     11  N   UNL d   1      10.702   7.909  -8.649  0.00  0.00     0.141 N 
ATOM     12  C   UNL d   1      10.880   9.172  -7.938  0.00  0.00     0.285 C 
ATOM     13  C   UNL d   1      11.620   8.990  -6.595  0.00  0.00     0.285 C 
ATOM     14  N   UNL d   1      10.919   8.046  -5.723  0.00  0.00     0.143 N 
ATOM     15  C   UNL d   1      10.725   6.790  -6.434  0.00  0.00     0.285 C 
ATOM     16  C   UNL d   1      11.604   7.840  -4.452  0.00  0.00     0.285 C 
ATOM     17  C   UNL d   1       9.980   6.992  -7.768  0.00  0.00     0.285 C 
ENDBRANCH  10  11
ENDBRANCH   9  10
ENDBRANCH   8   9
ENDBRANCH   7   8
ENDBRANCH   6   7
BRANCH   1  18
ATOM     18  C   UNL d   1       9.166   3.888 -14.831  0.00  0.00     0.033 C 
BRANCH  18  19
ATOM     19  C   UNL d   1       9.944   2.598 -14.575  0.00  0.00     0.031 C 
BRANCH  19  20
ATOM     20  C   UNL d   1      10.815   2.243 -15.758  0.00  0.00    -0.020 A 
ATOM     21  C   UNL d   1      11.868   3.069 -16.183  0.00  0.00    -0.004 A 
ATOM     22  C   UNL d   1      12.636   2.692 -17.311  0.00  0.00     0.002 A 
ATOM     23  C   UNL d   1      12.335   1.496 -17.999  0.00  0.00     0.024 A 
ATOM     24  C   UNL d   1      11.281   0.665 -17.587  0.00  0.00     0.094 A 
ATOM     25  C   UNL d   1      10.512   1.056 -16.453  0.00  0.00     0.020 A 
BRANCH  24  26
ATOM     26  O   UNL d   1      11.044  -0.499 -18.294  0.00  0.00    -0.328 OA
ATOM     27  C   UNL d   1       9.924  -1.284 -17.887  0.00  0.00     0.181 C 
ENDBRANCH  24  26
ENDBRANCH  19  20
ENDBRANCH  18  19
ENDBRANCH   1  18
TORSDOF 9
