REMARK  4 active torsions:
REMARK  status: ('A' for Active; 'I' for Inactive)
REMARK    1  A    between atoms: C_2  and  O_3 
REMARK    2  A    between atoms: C_2  and  C_13 
REMARK    3  A    between atoms: O_3  and  C_4 
REMARK    4  A    between atoms: C_4  and  C_5 
ROOT
ATOM      1  O   UNL d   1      10.688   9.291  -8.216  0.00  0.00    -0.259 OA
ATOM      2  C   UNL d   1      10.805   8.558  -7.238  0.00  0.00     0.297 C 
ENDROOT
BRANCH   2   3
ATOM      3  O   UNL d   1      10.786   7.241  -7.327  0.00  0.00    -0.298 OA
BRANCH   3   4
ATOM      4  C   UNL d   1      10.764   6.653  -8.602  0.00  0.00     0.154 C 
BRANCH   4   5
ATOM      5  C   UNL d   1       9.448   6.652  -9.330  0.00  0.00     0.064 C 
ATOM      6  C   UNL d   1       9.590   6.115 -10.765  0.00  0.00     0.222 C 
ATOM      7  N   UNL d   1       8.963   4.790 -10.792  0.00  0.00     0.135 N 
ATOM      8  C   UNL d   1       8.927   6.945 -11.873  0.00  0.00     0.035 C 
ATOM      9  C   UNL d   1       8.736   4.392  -9.396  0.00  0.00     0.250 C 
ATOM     10  C   UNL d   1       7.721   4.940 -11.552  0.00  0.00     0.250 C 
ATOM     11  C   UNL d   1       8.533   5.675  -8.644  0.00  0.00     0.040 C 
ATOM     12  C   UNL d   1       8.089   5.945 -12.636  0.00  0.00     0.037 C 
ENDBRANCH   4   5
ENDBRANCH   3   4
ENDBRANCH   2   3
BRANCH   2  13
ATOM     13  C   UNL d   1      11.000   8.997  -5.886  0.00  0.00     0.084 A 
ATOM     14  C   UNL d   1      11.447   8.249  -4.742  0.00  0.00     0.024 A 
ATOM     15  C   UNL d   1      11.519   9.153  -3.652  0.00  0.00     0.082 A 
ATOM     16  C   UNL d   1      11.816   6.914  -4.507  0.00  0.00     0.002 A 
ATOM     17  N   UNL d   1      11.055  10.353  -4.116  0.00  0.00    -0.244 NA
ATOM     18  C   UNL d   1      11.980   8.759  -2.385  0.00  0.00     0.019 A 
ATOM     19  C   UNL d   1      10.825  10.281  -5.471  0.00  0.00     0.104 A 
ATOM     20  C   UNL d   1      12.327   7.424  -2.183  0.00  0.00     0.002 A 
ATOM     21  C   UNL d   1      12.247   6.516  -3.234  0.00  0.00     0.000 A 
ENDBRANCH   2  13
TORSDOF 4
