REMARK  1 active torsions:
REMARK  status: ('A' for Active; 'I' for Inactive)
REMARK    1  A    between atoms: C_5  and  C_6 
ROOT
ATOM      1  C   UNL d   1       9.210   5.504 -11.332  0.00  0.00     0.079 C 
ATOM      2  N   UNL d   1       9.510   4.305 -11.703  0.00  0.00    -0.244 NA
ATOM      3  C   UNL d   1       9.070   3.717 -12.894  0.00  0.00     0.100 A 
ATOM      4  C   UNL d   1      10.025   3.022 -13.655  0.00  0.00     0.032 A 
ATOM      5  C   UNL d   1       9.611   2.174 -14.701  0.00  0.00     0.059 A 
ATOM      6 CL   UNL d   1      10.751   1.216 -15.574  0.00  0.00    -0.082 Cl
ATOM      7  C   UNL d   1       8.243   2.039 -14.995  0.00  0.00     0.013 A 
ATOM      8  C   UNL d   1       7.287   2.785 -14.284  0.00  0.00     0.021 A 
ATOM      9  C   UNL d   1       7.712   3.632 -13.254  0.00  0.00     0.099 A 
ATOM     10  N   UNL d   1       6.766   4.377 -12.568  0.00  0.00    -0.244 NA
ATOM     11  C   UNL d   1       6.978   5.746 -12.456  0.00  0.00     0.083 C 
ATOM     12  C   UNL d   1       5.893   6.530 -12.817  0.00  0.00     0.019 C 
ATOM     13  C   UNL d   1       5.987   7.928 -12.825  0.00  0.00     0.002 C 
ATOM     14  C   UNL d   1       7.240   8.515 -12.434  0.00  0.00     0.000 C 
ATOM     15  C   UNL d   1       8.358   7.748 -12.106  0.00  0.00     0.003 C 
ATOM     16  C   UNL d   1       8.213   6.336 -12.023  0.00  0.00     0.035 C 
ENDROOT
BRANCH   1  17
ATOM     17  C   UNL d   1       9.885   6.015 -10.091  0.00  0.00    -0.005 C 
ATOM     18  C   UNL d   1       9.924   5.221  -9.007  0.00  0.00     0.006 C 
ATOM     19  C   UNL d   1      10.512   5.678  -7.695  0.00  0.00     0.276 C 
ATOM     20  N   UNL d   1      10.624   7.123  -7.549  0.00  0.00     0.144 N 
ATOM     21  C   UNL d   1      11.427   7.343  -6.364  0.00  0.00     0.286 C 
ATOM     22  C   UNL d   1      11.281   7.659  -8.730  0.00  0.00     0.255 C 
ATOM     23  C   UNL d   1      10.286   7.477  -9.872  0.00  0.00     0.063 C 
ENDBRANCH   1  17
TORSDOF 1
