REMARK  3 active torsions:
REMARK  status: ('A' for Active; 'I' for Inactive)
REMARK    1  A    between atoms: N_12  and  C_13 
REMARK    2  A    between atoms: C_13  and  C_14 
REMARK    3  A    between atoms: C_14  and  C_15 
ROOT
ATOM      1  O   UNL d   1       8.673   5.494 -14.172  0.00  0.00    -0.190 OA
ATOM      2  C   UNL d   1       8.619   5.482 -12.824  0.00  0.00     0.131 A 
ATOM      3  C   UNL d   1       7.880   4.470 -12.213  0.00  0.00     0.027 A 
ATOM      4  C   UNL d   1       7.842   4.401 -10.814  0.00  0.00    -0.002 A 
ATOM      5  C   UNL d   1       8.537   5.341 -10.020  0.00  0.00    -0.024 A 
ATOM      6  C   UNL d   1       9.246   6.384 -10.643  0.00  0.00     0.005 A 
ATOM      7  C   UNL d   1       9.265   6.462 -12.056  0.00  0.00     0.025 A 
ATOM      8  C   UNL d   1       9.915   7.459  -9.816  0.00  0.00     0.169 C 
ATOM      9  O   UNL d   1      11.109   7.859 -10.430  0.00  0.00    -0.348 OA
ATOM     10  C   UNL d   1      11.756   8.931  -9.798  0.00  0.00     0.178 C 
ATOM     11  C   UNL d   1      12.048   8.575  -8.341  0.00  0.00     0.282 C 
ATOM     12  N   UNL d   1      10.832   8.191  -7.628  0.00  0.00     0.141 N 
ATOM     13  C   UNL d   1      10.236   7.052  -8.348  0.00  0.00     0.251 C 
ATOM     14  C   UNL d   1       8.965   6.466  -7.734  0.00  0.00     0.041 C 
ATOM     15  C   UNL d   1       8.489   5.219  -8.498  0.00  0.00     0.028 C 
ENDROOT
BRANCH  12  16
ATOM     16  C   UNL d   1      11.131   7.898  -6.238  0.00  0.00     0.256 C 
BRANCH  16  17
ATOM     17  C   UNL d   1      11.624   9.092  -5.390  0.00  0.00     0.068 C 
BRANCH  17  18
ATOM     18  C   UNL d   1      11.926   8.710  -3.988  0.00  0.00     0.009 A 
ATOM     19  S   UNL d   1      12.145   7.046  -3.519  0.00  0.00    -0.091 SA
ATOM     20  C   UNL d   1      12.624   7.507  -1.942  0.00  0.00     0.035 A 
ATOM     21  C   UNL d   1      12.571   8.856  -1.764  0.00  0.00     0.007 A 
ATOM     22  C   UNL d   1      12.144   9.546  -2.928  0.00  0.00     0.003 A 
ENDBRANCH  17  18
ENDBRANCH  16  17
ENDBRANCH  12  16
TORSDOF 3
