REMARK  7 active torsions:
REMARK  status: ('A' for Active; 'I' for Inactive)
REMARK    1  A    between atoms: C_6  and  C_7 
REMARK    2  A    between atoms: C_10  and  S_11 
REMARK    3  A    between atoms: S_11  and  C_12 
REMARK    4  A    between atoms: C_12  and  C_13 
REMARK    5  A    between atoms: C_13  and  C_14 
REMARK    6  A    between atoms: C_14  and  N_15 
REMARK    7  A    between atoms: C_20  and  C_21 
ROOT
ATOM      1  C   UNL d   1       8.184   4.775 -11.784  0.00  0.00     0.047 C 
ENDROOT
BRANCH   1   2
ATOM      2  C   UNL d   1       7.327   4.869 -13.062  0.00  0.00     0.067 C 
BRANCH   2   3
ATOM      3  S   UNL d   1       6.806   3.240 -13.679  0.00  0.00    -0.075 SA
BRANCH   3   4
ATOM      4  C   UNL d   1       8.281   2.699 -14.487  0.00  0.00     0.193 A 
ATOM      5  N   UNL d   1       9.464   3.310 -14.391  0.00  0.00    -0.122 NA
ATOM      6  N   UNL d   1      10.316   2.605 -15.209  0.00  0.00    -0.126 NA
ATOM      7  C   UNL d   1       9.588   1.618 -15.741  0.00  0.00     0.191 A 
ATOM      8  N   UNL d   1       8.302   1.628 -15.311  0.00  0.00    -0.287 N 
ATOM      9  C   UNL d   1       7.204   0.743 -15.684  0.00  0.00     0.134 C 
BRANCH   7  10
ATOM     10  C   UNL d   1      10.169   0.687 -16.706  0.00  0.00     0.151 A 
ATOM     11  C   UNL d   1      11.338   0.711 -17.433  0.00  0.00     0.087 A 
ATOM     12  C   UNL d   1      12.428   1.737 -17.471  0.00  0.00     0.054 C 
ATOM     13  N   UNL d   1      11.397  -0.436 -18.212  0.00  0.00    -0.221 NA
ATOM     14  C   UNL d   1      10.266  -1.080 -17.938  0.00  0.00     0.225 A 
ATOM     15  O   UNL d   1       9.478  -0.449 -17.032  0.00  0.00    -0.282 OA
ENDBRANCH   7  10
ENDBRANCH   3   4
ENDBRANCH   2   3
ENDBRANCH   1   2
BRANCH   1  16
ATOM     16  C   UNL d   1       8.276   6.134 -11.082  0.00  0.00     0.251 C 
BRANCH  16  17
ATOM     17  N   UNL d   1       9.342   6.154 -10.124  0.00  0.00     0.137 N 
ATOM     18  C   UNL d   1       9.867   7.490  -9.943  0.00  0.00     0.251 C 
ATOM     19  C   UNL d   1      10.681   7.425  -8.671  0.00  0.00     0.037 A 
ATOM     20  C   UNL d   1      10.020   6.296  -7.912  0.00  0.00     0.038 C 
ATOM     21  C   UNL d   1      11.250   8.648  -8.012  0.00  0.00     0.024 A 
ATOM     22  C   UNL d   1      12.169   7.698  -8.697  0.00  0.00     0.007 A 
ATOM     23  C   UNL d   1       8.879   5.791  -8.793  0.00  0.00     0.250 C 
BRANCH  21  24
ATOM     24  C   UNL d   1      11.283   8.763  -6.503  0.00  0.00    -0.022 A 
ATOM     25  C   UNL d   1      11.560   7.641  -5.687  0.00  0.00    -0.002 A 
ATOM     26  C   UNL d   1      11.703   7.783  -4.298  0.00  0.00     0.029 A 
ATOM     27  C   UNL d   1      11.462   9.025  -3.700  0.00  0.00     0.140 A 
ATOM     28  C   UNL d   1      11.108  10.131  -4.494  0.00  0.00     0.029 A 
ATOM     29  F   UNL d   1      11.646   9.175  -2.362  0.00  0.00    -0.204 F 
ATOM     30  C   UNL d   1      11.052  10.010  -5.890  0.00  0.00    -0.002 A 
ENDBRANCH  21  24
ENDBRANCH  16  17
ENDBRANCH   1  16
TORSDOF 7
