REMARK  2 active torsions:
REMARK  status: ('A' for Active; 'I' for Inactive)
REMARK    1  A    between atoms: C_2  and  N_3 
REMARK       I    between atoms: N_3  and  C_4 
REMARK       I    between atoms: C_4  and  N_6 
REMARK    2  A    between atoms: N_6  and  C_7 
ROOT
ATOM      1  C   UNL d   1       8.885   5.942 -12.224  0.00  0.00     0.086 A 
ATOM      2  C   UNL d   1       9.929   5.110 -12.665  0.00  0.00     0.019 A 
ATOM      3  C   UNL d   1       9.684   3.935 -13.379  0.00  0.00    -0.003 A 
ATOM      4  C   UNL d   1       8.366   3.588 -13.705  0.00  0.00    -0.020 A 
ATOM      5  C   UNL d   1       7.291   4.394 -13.241  0.00  0.00    -0.024 A 
ATOM      6  C   UNL d   1       7.549   5.588 -12.531  0.00  0.00     0.015 A 
ATOM      7  C   UNL d   1       5.867   3.972 -13.481  0.00  0.00     0.028 C 
ATOM      8  C   UNL d   1       5.791   2.444 -13.423  0.00  0.00     0.039 C 
ATOM      9  C   UNL d   1       6.675   1.838 -14.535  0.00  0.00     0.228 C 
ATOM     10  C   UNL d   1       8.162   2.298 -14.503  0.00  0.00     0.075 C 
ATOM     11  C   UNL d   1       8.783   2.356 -15.918  0.00  0.00    -0.018 A 
ATOM     12  C   UNL d   1       9.196   3.578 -16.511  0.00  0.00     0.024 A 
ATOM     13  C   UNL d   1       9.664   3.622 -17.835  0.00  0.00     0.141 A 
ATOM     14  O   UNL d   1       9.953   4.832 -18.393  0.00  0.00    -0.189 OA
ATOM     15  C   UNL d   1       9.824   2.432 -18.570  0.00  0.00     0.083 A 
ATOM     16 CL   UNL d   1      10.453   2.471 -20.182  0.00  0.00    -0.080 Cl
ATOM     17  C   UNL d   1       9.458   1.208 -17.989  0.00  0.00     0.009 A 
ATOM     18  C   UNL d   1       8.923   1.168 -16.681  0.00  0.00    -0.023 A 
ATOM     19  C   UNL d   1       8.460  -0.161 -16.118  0.00  0.00     0.061 C 
ATOM     20  C   UNL d   1       6.935  -0.216 -15.870  0.00  0.00     0.255 C 
ATOM     21  N   UNL d   1       6.475   0.390 -14.618  0.00  0.00     0.138 N 
ATOM     22  C   UNL d   1       6.869  -0.373 -13.433  0.00  0.00     0.285 C 
ENDROOT
BRANCH   1  23
ATOM     23  N   UNL d   1       9.177   7.147 -11.536  0.00  0.00    -0.191 NA
ATOM     24  C   UNL d   1       9.836   7.302 -10.373  0.00  0.00     0.364 C 
ATOM     25  N   UNL d   1       9.898   6.191  -9.625  0.00  0.00    -0.217 NA
ATOM     26  O   UNL d   1      10.288   8.394 -10.024  0.00  0.00    -0.243 OA
BRANCH  25  27
ATOM     27  C   UNL d   1      10.377   6.138  -8.250  0.00  0.00     0.131 C 
ATOM     28  C   UNL d   1       9.292   6.542  -7.251  0.00  0.00     0.029 C 
ENDBRANCH  25  27
ENDBRANCH   1  23
TORSDOF 2
