REMARK  5 active torsions:
REMARK  status: ('A' for Active; 'I' for Inactive)
REMARK    1  A    between atoms: O_2  and  C_3 
REMARK    2  A    between atoms: C_6  and  O_7 
REMARK    3  A    between atoms: O_7  and  C_8 
REMARK    4  A    between atoms: C_8  and  C_9 
REMARK    5  A    between atoms: C_9  and  N_10 
REMARK       I    between atoms: N_13  and  C_14 
ROOT
ATOM      1  C   UNL d   1       9.025   5.545 -11.464  0.00  0.00     0.184 C 
ENDROOT
BRANCH   1   2
ATOM      2  O   UNL d   1       9.714   6.735 -11.120  0.00  0.00    -0.329 OA
BRANCH   2   3
ATOM      3  C   UNL d   1       9.857   7.096  -9.800  0.00  0.00     0.094 A 
ATOM      4  C   UNL d   1      10.620   8.262  -9.570  0.00  0.00     0.026 A 
ATOM      5  C   UNL d   1      10.873   8.722  -8.260  0.00  0.00     0.026 A 
ATOM      6  C   UNL d   1      10.363   8.017  -7.140  0.00  0.00     0.094 A 
ATOM      7  C   UNL d   1       9.587   6.857  -7.375  0.00  0.00     0.026 A 
ATOM      8  C   UNL d   1       9.328   6.405  -8.682  0.00  0.00     0.026 A 
BRANCH   6   9
ATOM      9  O   UNL d   1      10.579   8.405  -5.837  0.00  0.00    -0.328 OA
ATOM     10  C   UNL d   1      11.312   9.597  -5.627  0.00  0.00     0.181 C 
ENDBRANCH   6   9
ENDBRANCH   2   3
ENDBRANCH   1   2
BRANCH   1  11
ATOM     11  C   UNL d   1       9.676   5.015 -12.747  0.00  0.00     0.283 C 
BRANCH  11  12
ATOM     12  N   UNL d   1       9.019   3.788 -13.200  0.00  0.00     0.144 N 
ATOM     13  C   UNL d   1       7.851   4.135 -13.997  0.00  0.00     0.274 C 
ATOM     14  C   UNL d   1       7.132   2.860 -14.478  0.00  0.00     0.140 C 
ATOM     15  N   UNL d   1       8.060   2.004 -15.232  0.00  0.00    -0.316 N 
ATOM     16  C   UNL d   1       9.274   1.692 -14.473  0.00  0.00     0.140 C 
ATOM     17  C   UNL d   1       7.799   1.533 -16.480  0.00  0.00     0.234 C 
ATOM     18  C   UNL d   1       9.944   2.994 -14.007  0.00  0.00     0.274 C 
ATOM     19  C   UNL d   1       8.725   0.493 -17.102  0.00  0.00     0.098 C 
ATOM     20  O   UNL d   1       6.814   1.899 -17.137  0.00  0.00    -0.272 OA
ENDBRANCH  11  12
ENDBRANCH   1  11
TORSDOF 5
