REMARK  3 active torsions:
REMARK  status: ('A' for Active; 'I' for Inactive)
REMARK    1  A    between atoms: C_2  and  N_3 
REMARK    2  A    between atoms: C_5  and  C_6 
REMARK    3  A    between atoms: C_15  and  N_16 
ROOT
ATOM      1  N   UNL d   1       6.846   4.046 -13.342  0.00  0.00    -0.311 N 
ATOM      2  C   UNL d   1       7.386   5.014 -12.498  0.00  0.00     0.086 A 
ATOM      3  C   UNL d   1       8.706   5.308 -12.411  0.00  0.00     0.120 A 
ATOM      4  C   UNL d   1       9.648   4.554 -13.272  0.00  0.00     0.206 A 
ATOM      5  O   UNL d   1      10.856   4.784 -13.258  0.00  0.00    -0.286 OA
ATOM      6  C   UNL d   1       9.067   3.541 -14.191  0.00  0.00     0.076 A 
ATOM      7  C   UNL d   1       9.889   2.834 -15.088  0.00  0.00     0.039 A 
ATOM      8  C   UNL d   1       9.316   1.912 -15.973  0.00  0.00     0.174 A 
ATOM      9  F   UNL d   1      10.113   1.259 -16.859  0.00  0.00    -0.201 F 
ATOM     10  C   UNL d   1       7.915   1.720 -15.934  0.00  0.00     0.169 A 
ATOM     11  N   UNL d   1       7.122   2.386 -15.061  0.00  0.00    -0.209 NA
ATOM     12  C   UNL d   1       7.676   3.278 -14.196  0.00  0.00     0.149 A 
ENDROOT
BRANCH  10  13
ATOM     13  N   UNL d   1       7.284   0.848 -16.838  0.00  0.00    -0.328 N 
ATOM     14  C   UNL d   1       6.103   1.193 -17.614  0.00  0.00     0.141 C 
ATOM     15  C   UNL d   1       6.354   0.863 -19.098  0.00  0.00     0.314 C 
ATOM     16  N   UNL d   1       6.732  -0.542 -19.259  0.00  0.00     0.343 N 
ATOM     17  C   UNL d   1       7.975  -0.795 -18.526  0.00  0.00     0.314 C 
ATOM     18  C   UNL d   1       7.776  -0.499 -17.028  0.00  0.00     0.141 C 
ENDBRANCH  10  13
BRANCH   1  19
ATOM     19  C   UNL d   1       5.409   3.825 -13.406  0.00  0.00     0.108 C 
ATOM     20  C   UNL d   1       4.992   2.511 -12.739  0.00  0.00     0.027 C 
ENDBRANCH   1  19
BRANCH   3  21
ATOM     21  C   UNL d   1       9.120   6.265 -11.399  0.00  0.00     0.215 C 
ATOM     22  O   UNL d   1       9.828   6.000 -10.426  0.00  0.00    -0.644 OA
ATOM     23  O   UNL d   1       8.632   7.516 -11.643  0.00  0.00    -0.644 OA
ENDBRANCH   3  21
TORSDOF 3
