REMARK  4 active torsions:
REMARK  status: ('A' for Active; 'I' for Inactive)
REMARK    1  A    between atoms: C_8  and  C_9 
REMARK    2  A    between atoms: C_9  and  N_10 
REMARK    3  A    between atoms: N_13  and  C_14 
REMARK    4  A    between atoms: C_14  and  C_15 
ROOT
ATOM      1  N   UNL d   1       6.112   1.805 -13.966  0.00  0.00     0.146 N 
ATOM      2  C   UNL d   1       5.488   2.113 -12.680  0.00  0.00     0.286 C 
ATOM      3  C   UNL d   1       5.088   3.594 -12.543  0.00  0.00     0.285 C 
ATOM      4  N   UNL d   1       6.223   4.485 -12.725  0.00  0.00     0.141 N 
ATOM      5  C   UNL d   1       6.749   4.173 -14.037  0.00  0.00     0.285 C 
ATOM      6  C   UNL d   1       7.216   2.732 -14.195  0.00  0.00     0.286 C 
ENDROOT
BRANCH   4   7
ATOM      7  C   UNL d   1       7.220   4.393 -11.655  0.00  0.00     0.251 C 
BRANCH   7   8
ATOM      8  C   UNL d   1       7.778   5.728 -11.162  0.00  0.00     0.038 C 
ATOM      9  C   UNL d   1       8.599   5.505  -9.836  0.00  0.00     0.030 C 
ATOM     10  C   UNL d   1       9.463   6.692  -9.486  0.00  0.00    -0.007 A 
ATOM     11  C   UNL d   1       9.733   7.664 -10.412  0.00  0.00     0.055 A 
ATOM     12  C   UNL d   1      10.117   7.130  -8.262  0.00  0.00     0.017 A 
ATOM     13  C   UNL d   1       9.212   7.743 -11.783  0.00  0.00     0.046 C 
ATOM     14  N   UNL d   1      10.478   8.656  -9.848  0.00  0.00    -0.250 NA
ATOM     15  C   UNL d   1       8.617   6.432 -12.259  0.00  0.00     0.009 C 
ATOM     16  C   UNL d   1      10.739   8.379  -8.531  0.00  0.00     0.081 A 
ATOM     17  C   UNL d   1      11.426   9.091  -7.562  0.00  0.00     0.021 A 
ATOM     18  C   UNL d   1      11.585   8.603  -6.254  0.00  0.00     0.031 A 
ATOM     19  C   UNL d   1      10.992   7.370  -5.962  0.00  0.00     0.140 A 
ATOM     20  F   UNL d   1      11.148   6.825  -4.732  0.00  0.00    -0.204 F 
ATOM     21  C   UNL d   1      10.259   6.668  -6.946  0.00  0.00     0.031 A 
ENDBRANCH   7   8
ENDBRANCH   4   7
BRANCH   1  22
ATOM     22  C   UNL d   1       6.542   0.416 -14.046  0.00  0.00     0.279 C 
BRANCH  22  23
ATOM     23  C   UNL d   1       7.114   0.081 -15.409  0.00  0.00     0.035 A 
ATOM     24  C   UNL d   1       8.489   0.290 -15.699  0.00  0.00    -0.000 A 
ATOM     25  C   UNL d   1       9.017  -0.009 -16.981  0.00  0.00     0.001 A 
ATOM     26  C   UNL d   1       8.182  -0.525 -17.998  0.00  0.00     0.021 A 
ATOM     27  C   UNL d   1       6.827  -0.710 -17.678  0.00  0.00     0.109 A 
ATOM     28  N   UNL d   1       5.778  -1.222 -18.423  0.00  0.00    -0.184 NA
ATOM     29  C   UNL d   1       6.297  -0.415 -16.439  0.00  0.00     0.120 A 
ATOM     30  C   UNL d   1       4.622  -1.237 -17.653  0.00  0.00     0.392 A 
ATOM     31  O   UNL d   1       3.503  -1.609 -17.996  0.00  0.00    -0.236 OA
ATOM     32  O   UNL d   1       4.966  -0.728 -16.425  0.00  0.00    -0.257 OA
ENDBRANCH  22  23
ENDBRANCH   1  22
TORSDOF 4
