REMARK  6 active torsions:
REMARK  status: ('A' for Active; 'I' for Inactive)
REMARK    1  A    between atoms: C_2  and  C_3 
REMARK    2  A    between atoms: C_3  and  N_4 
REMARK    3  A    between atoms: N_4  and  C_5 
REMARK    4  A    between atoms: N_4  and  C_13 
REMARK    5  A    between atoms: C_5  and  C_6 
REMARK    6  A    between atoms: C_21  and  O_22 
ROOT
ATOM      1  C   UNL d   1       7.171   4.245 -12.800  0.00  0.00     0.224 C 
ATOM      2  C   UNL d   1       6.130   3.581 -11.876  0.00  0.00     0.038 C 
ATOM      3  C   UNL d   1       5.192   2.667 -12.658  0.00  0.00     0.030 C 
ATOM      4  C   UNL d   1       5.912   1.753 -13.652  0.00  0.00    -0.004 A 
ATOM      5  C   UNL d   1       7.229   2.058 -14.110  0.00  0.00    -0.022 A 
ATOM      6  C   UNL d   1       7.848   1.234 -15.065  0.00  0.00    -0.004 A 
ATOM      7  C   UNL d   1       7.169   0.124 -15.584  0.00  0.00     0.002 A 
ATOM      8  C   UNL d   1       5.880  -0.195 -15.132  0.00  0.00     0.024 A 
ATOM      9  C   UNL d   1       5.250   0.601 -14.145  0.00  0.00     0.090 A 
ATOM     10  C   UNL d   1       8.043   3.217 -13.549  0.00  0.00     0.059 C 
ENDROOT
BRANCH   1  11
ATOM     11  N   UNL d   1       7.982   5.258 -12.105  0.00  0.00     0.140 N 
BRANCH  11  12
ATOM     12  C   UNL d   1       7.151   6.385 -11.686  0.00  0.00     0.251 C 
BRANCH  12  13
ATOM     13  C   UNL d   1       6.351   7.017 -12.823  0.00  0.00     0.035 C 
ATOM     14  C   UNL d   1       5.557   8.249 -12.418  0.00  0.00     0.002 C 
ENDBRANCH  12  13
ENDBRANCH  11  12
BRANCH  11  15
ATOM     15  C   UNL d   1       8.733   4.709 -10.956  0.00  0.00     0.277 C 
BRANCH  15  16
ATOM     16  C   UNL d   1       9.442   5.712 -10.051  0.00  0.00     0.011 A 
ATOM     17  C   UNL d   1      10.002   6.897 -10.569  0.00  0.00    -0.000 A 
ATOM     18  C   UNL d   1      10.565   7.861  -9.716  0.00  0.00     0.029 A 
ATOM     19  C   UNL d   1      10.636   7.617  -8.330  0.00  0.00     0.140 A 
ATOM     20  C   UNL d   1      10.112   6.419  -7.802  0.00  0.00     0.029 A 
ATOM     21  F   UNL d   1      11.196   8.538  -7.510  0.00  0.00    -0.204 F 
ATOM     22  C   UNL d   1       9.515   5.471  -8.660  0.00  0.00    -0.000 A 
ENDBRANCH  15  16
ENDBRANCH  11  15
ENDBRANCH   1  11
BRANCH   9  23
ATOM     23  O   UNL d   1       3.985   0.317 -13.664  0.00  0.00    -0.328 OA
ATOM     24  C   UNL d   1       3.239  -0.685 -14.350  0.00  0.00     0.181 C 
ENDBRANCH   9  23
TORSDOF 6
