REMARK  7 active torsions:
REMARK  status: ('A' for Active; 'I' for Inactive)
REMARK    1  A    between atoms: O_2  and  C_3 
REMARK    2  A    between atoms: C_4  and  C_5 
REMARK       I    between atoms: C_5  and  N_7 
REMARK    3  A    between atoms: N_7  and  C_8 
REMARK    4  A    between atoms: N_11  and  C_12 
REMARK    5  A    between atoms: C_12  and  C_13 
REMARK    6  A    between atoms: C_21  and  C_22 
REMARK    7  A    between atoms: C_23  and  C_24 
ROOT
ATOM      1  C   UNL d   1       7.671   3.475 -13.642  0.00  0.00     0.099 A 
ATOM      2  C   UNL d   1       8.561   4.525 -13.287  0.00  0.00     0.080 A 
ATOM      3  C   UNL d   1       9.704   4.753 -14.073  0.00  0.00     0.015 A 
ATOM      4  C   UNL d   1      10.044   3.913 -15.150  0.00  0.00     0.042 A 
ATOM      5  C   UNL d   1       9.215   2.808 -15.469  0.00  0.00     0.009 A 
ATOM      6  C   UNL d   1       9.532   1.919 -16.535  0.00  0.00     0.001 A 
ATOM      7  C   UNL d   1       8.708   0.819 -16.831  0.00  0.00     0.000 A 
ATOM      8  C   UNL d   1       7.554   0.592 -16.059  0.00  0.00     0.000 A 
ATOM      9  C   UNL d   1       7.223   1.475 -15.008  0.00  0.00     0.002 A 
ATOM     10  C   UNL d   1       8.036   2.589 -14.697  0.00  0.00     0.023 A 
ENDROOT
BRANCH   2  11
ATOM     11  C   UNL d   1       8.297   5.438 -12.133  0.00  0.00     0.277 C 
ATOM     12  O   UNL d   1       7.189   5.891 -11.909  0.00  0.00    -0.266 OA
ATOM     13  N   UNL d   1       9.377   5.751 -11.408  0.00  0.00    -0.234 NA
BRANCH  13  14
ATOM     14  C   UNL d   1       9.363   6.828 -10.427  0.00  0.00     0.142 C 
ATOM     15  C   UNL d   1       8.912   6.318  -9.047  0.00  0.00     0.275 C 
ATOM     16  N   UNL d   1       9.621   7.212  -8.136  0.00  0.00     0.143 N 
ATOM     17  C   UNL d   1      10.965   7.229  -8.686  0.00  0.00     0.253 C 
ATOM     18  C   UNL d   1      10.733   7.424 -10.169  0.00  0.00     0.062 C 
BRANCH  16  19
ATOM     19  C   UNL d   1       9.613   6.666  -6.789  0.00  0.00     0.277 C 
BRANCH  19  20
ATOM     20  C   UNL d   1      10.461   7.463  -5.809  0.00  0.00     0.011 A 
ATOM     21  C   UNL d   1      10.546   8.869  -5.913  0.00  0.00    -0.002 A 
ATOM     22  C   UNL d   1      11.328   9.604  -5.004  0.00  0.00    -0.000 A 
ATOM     23  C   UNL d   1      12.026   8.941  -3.977  0.00  0.00    -0.000 A 
ATOM     24  C   UNL d   1      11.943   7.538  -3.866  0.00  0.00    -0.000 A 
ATOM     25  C   UNL d   1      11.168   6.802  -4.784  0.00  0.00    -0.002 A 
ENDBRANCH  19  20
ENDBRANCH  16  19
ENDBRANCH  13  14
ENDBRANCH   2  11
BRANCH   1  26
ATOM     26  O   UNL d   1       6.506   3.269 -12.941  0.00  0.00    -0.328 OA
ATOM     27  C   UNL d   1       5.388   4.044 -13.342  0.00  0.00     0.181 C 
ENDBRANCH   1  26
BRANCH   4  28
ATOM     28  C   UNL d   1      11.256   4.234 -15.905  0.00  0.00    -0.059 C 
ATOM     29  C   UNL d   1      12.263   4.517 -16.522  0.00  0.00    -0.059 C 
BRANCH  29  30
ATOM     30  C   UNL d   1      13.463   4.872 -17.276  0.00  0.00     0.042 A 
ATOM     31  C   UNL d   1      14.226   5.996 -16.900  0.00  0.00     0.008 A 
ATOM     32  C   UNL d   1      15.381   6.339 -17.630  0.00  0.00     0.001 A 
ATOM     33  C   UNL d   1      15.771   5.571 -18.742  0.00  0.00     0.000 A 
ATOM     34  C   UNL d   1      15.010   4.447 -19.120  0.00  0.00     0.001 A 
ATOM     35  C   UNL d   1      13.859   4.096 -18.386  0.00  0.00     0.008 A 
ENDBRANCH  29  30
ENDBRANCH   4  28
TORSDOF 7
