REMARK  6 active torsions:
REMARK  status: ('A' for Active; 'I' for Inactive)
REMARK       I    between atoms: C_2  and  N_3 
REMARK    1  A    between atoms: C_2  and  C_27 
REMARK    2  A    between atoms: N_3  and  C_4 
REMARK    3  A    between atoms: C_7  and  C_8 
REMARK    4  A    between atoms: C_8  and  C_9 
REMARK    5  A    between atoms: C_9  and  N_10 
REMARK    6  A    between atoms: C_13  and  C_14 
ROOT
ATOM      1  C   UNL d   1       8.696   5.526 -10.505  0.00  0.00     0.250 C 
ENDROOT
BRANCH   1   2
ATOM      2  C   UNL d   1       9.422   5.729 -11.852  0.00  0.00     0.035 C 
BRANCH   2   3
ATOM      3  C   UNL d   1       9.531   4.449 -12.684  0.00  0.00     0.002 C 
ATOM      4  C   UNL d   1       8.180   4.116 -13.321  0.00  0.00     0.002 C 
ATOM      5  C   UNL d   1       8.286   2.897 -14.243  0.00  0.00     0.024 C 
ATOM      6  C   UNL d   1       9.381   3.093 -15.311  0.00  0.00     0.106 C 
ATOM      7  C   UNL d   1      10.740   3.386 -14.664  0.00  0.00     0.024 C 
ATOM      8  C   UNL d   1      10.638   4.604 -13.744  0.00  0.00     0.002 C 
BRANCH   6   9
ATOM      9  N   UNL d   1       9.501   1.901 -16.132  0.00  0.00    -0.238 NA
ATOM     10  C   UNL d   1       8.737   1.632 -17.197  0.00  0.00     0.279 C 
ATOM     11  O   UNL d   1       7.856   2.390 -17.609  0.00  0.00    -0.268 OA
BRANCH  10  12
ATOM     12  C   UNL d   1       8.999   0.301 -17.904  0.00  0.00     0.195 C 
ATOM     13  O   UNL d   1      10.348  -0.113 -17.708  0.00  0.00    -0.347 OA
ATOM     14  C   UNL d   1      10.601  -1.109 -18.685  0.00  0.00     0.143 C 
ATOM     15  C   UNL d   1       9.915  -0.591 -19.948  0.00  0.00     0.035 C 
ATOM     16  C   UNL d   1       8.866   0.379 -19.432  0.00  0.00     0.042 C 
ENDBRANCH  10  12
ENDBRANCH   6   9
ENDBRANCH   2   3
ENDBRANCH   1   2
BRANCH   1  17
ATOM     17  N   UNL d   1       9.178   6.381  -9.423  0.00  0.00     0.137 N 
ATOM     18  C   UNL d   1       8.620   5.869  -8.166  0.00  0.00     0.251 C 
ATOM     19  C   UNL d   1       8.986   6.798  -6.993  0.00  0.00     0.040 C 
ATOM     20  C   UNL d   1      10.509   6.966  -6.876  0.00  0.00     0.026 C 
ATOM     21  C   UNL d   1      11.088   7.375  -8.223  0.00  0.00     0.040 C 
ATOM     22  C   UNL d   1      10.638   6.430  -9.311  0.00  0.00     0.251 C 
BRANCH  20  23
ATOM     23  C   UNL d   1      10.886   7.981  -5.814  0.00  0.00    -0.024 A 
ATOM     24  C   UNL d   1      11.482   7.607  -4.598  0.00  0.00    -0.001 A 
ATOM     25  C   UNL d   1      11.822   8.522  -3.617  0.00  0.00     0.090 A 
ATOM     26  C   UNL d   1      11.807   6.249  -4.122  0.00  0.00     0.061 A 
ATOM     27  C   UNL d   1      11.558   9.881  -3.801  0.00  0.00     0.024 A 
ATOM     28  O   UNL d   1      12.352   7.947  -2.494  0.00  0.00    -0.331 OA
ATOM     29  C   UNL d   1      11.005  10.296  -5.036  0.00  0.00     0.002 A 
ATOM     30  C   UNL d   1      10.659   9.359  -6.022  0.00  0.00    -0.004 A 
ATOM     31  C   UNL d   1      12.418   6.533  -2.731  0.00  0.00     0.154 A 
ENDBRANCH  20  23
ENDBRANCH   1  17
TORSDOF 6
