REMARK  6 active torsions:
REMARK  status: ('A' for Active; 'I' for Inactive)
REMARK       I    between atoms: C_2  and  N_3 
REMARK    1  A    between atoms: C_2  and  C_27 
REMARK    2  A    between atoms: N_3  and  C_4 
REMARK    3  A    between atoms: C_7  and  C_8 
REMARK    4  A    between atoms: C_8  and  C_9 
REMARK    5  A    between atoms: C_9  and  N_10 
REMARK    6  A    between atoms: C_13  and  C_14 
ROOT
ATOM      1  C   UNL d   1       8.569   4.815 -11.532  0.00  0.00     0.107 C 
ATOM      2  C   UNL d   1       9.597   4.387 -12.629  0.00  0.00     0.024 C 
ATOM      3  C   UNL d   1       9.042   3.360 -13.615  0.00  0.00     0.002 C 
ATOM      4  C   UNL d   1       7.704   3.839 -14.145  0.00  0.00     0.002 C 
ATOM      5  C   UNL d   1       6.678   4.277 -13.056  0.00  0.00     0.002 C 
ATOM      6  C   UNL d   1       7.261   5.351 -12.123  0.00  0.00     0.024 C 
ENDROOT
BRANCH   4   7
ATOM      7  C   UNL d   1       7.093   2.672 -14.949  0.00  0.00     0.035 C 
BRANCH   7   8
ATOM      8  C   UNL d   1       7.971   2.116 -16.101  0.00  0.00     0.250 C 
BRANCH   8   9
ATOM      9  N   UNL d   1       7.261   1.174 -16.954  0.00  0.00     0.137 N 
ATOM     10  C   UNL d   1       8.224   0.759 -17.986  0.00  0.00     0.251 C 
ATOM     11  C   UNL d   1       7.572  -0.235 -18.955  0.00  0.00     0.040 C 
ATOM     12  C   UNL d   1       7.021  -1.474 -18.216  0.00  0.00     0.026 C 
ATOM     13  C   UNL d   1       6.153  -1.030 -17.032  0.00  0.00     0.040 C 
ATOM     14  C   UNL d   1       6.883  -0.010 -16.172  0.00  0.00     0.251 C 
BRANCH  12  15
ATOM     15  C   UNL d   1       6.268  -2.438 -19.114  0.00  0.00    -0.024 A 
ATOM     16  C   UNL d   1       6.516  -3.824 -19.119  0.00  0.00    -0.001 A 
ATOM     17  C   UNL d   1       5.815  -4.698 -19.944  0.00  0.00     0.090 A 
ATOM     18  C   UNL d   1       7.478  -4.609 -18.290  0.00  0.00     0.061 A 
ATOM     19  C   UNL d   1       4.821  -4.231 -20.812  0.00  0.00     0.024 A 
ATOM     20  O   UNL d   1       6.210  -6.002 -19.796  0.00  0.00    -0.331 OA
ATOM     21  C   UNL d   1       4.542  -2.846 -20.825  0.00  0.00     0.002 A 
ATOM     22  C   UNL d   1       5.234  -1.963 -19.978  0.00  0.00    -0.004 A 
ATOM     23  C   UNL d   1       7.278  -6.040 -18.839  0.00  0.00     0.154 A 
ENDBRANCH  12  15
ENDBRANCH   8   9
ENDBRANCH   7   8
ENDBRANCH   4   7
BRANCH   1  24
ATOM     24  N   UNL d   1       9.159   5.767 -10.623  0.00  0.00    -0.236 NA
ATOM     25  C   UNL d   1       9.594   5.489  -9.388  0.00  0.00     0.275 C 
ATOM     26  O   UNL d   1       9.602   4.353  -8.888  0.00  0.00    -0.266 OA
BRANCH  25  27
ATOM     27  C   UNL d   1      10.056   6.659  -8.618  0.00  0.00     0.058 A 
ATOM     28  C   UNL d   1      10.378   6.532  -7.250  0.00  0.00     0.006 A 
ATOM     29  C   UNL d   1      10.775   7.641  -6.484  0.00  0.00     0.018 A 
ATOM     30  C   UNL d   1      10.838   8.926  -7.092  0.00  0.00     0.081 A 
ATOM     31  C   UNL d   1      11.096   7.481  -5.135  0.00  0.00     0.003 A 
ATOM     32  C   UNL d   1      10.555   9.045  -8.471  0.00  0.00     0.019 A 
ATOM     33  N   UNL d   1      11.145  10.018  -6.374  0.00  0.00    -0.244 NA
ATOM     34  C   UNL d   1      10.169   7.950  -9.223  0.00  0.00     0.006 A 
ATOM     35  C   UNL d   1      11.420   9.876  -5.067  0.00  0.00     0.099 A 
ATOM     36  C   UNL d   1      11.467   8.637  -4.404  0.00  0.00     0.021 A 
ENDBRANCH  25  27
ENDBRANCH   1  24
TORSDOF 6
