REMARK  4 active torsions:
REMARK  status: ('A' for Active; 'I' for Inactive)
REMARK    1  A    between atoms: C_12  and  C_13 
REMARK    2  A    between atoms: C_13  and  C_14 
REMARK    3  A    between atoms: C_14  and  N_15 
REMARK    4  A    between atoms: N_18  and  C_19 
ROOT
ATOM      1  C   UNL d   1       7.053   5.601 -11.966  0.00  0.00     0.043 C 
ENDROOT
BRANCH   1   2
ATOM      2  C   UNL d   1       8.211   5.056 -11.093  0.00  0.00     0.068 A 
ATOM      3  C   UNL d   1       9.440   5.868 -11.432  0.00  0.00     0.173 A 
ATOM      4  O   UNL d   1       9.857   5.991 -12.592  0.00  0.00    -0.291 OA
ATOM      5  C   UNL d   1       9.969   6.449 -10.168  0.00  0.00     0.032 A 
ATOM      6  C   UNL d   1       9.206   6.038  -9.095  0.00  0.00    -0.018 A 
ATOM      7  C   UNL d   1      11.030   7.350  -9.917  0.00  0.00     0.015 A 
ATOM      8  C   UNL d   1       9.375   6.500  -7.755  0.00  0.00     0.008 A 
ATOM      9  C   UNL d   1       8.029   5.268  -9.568  0.00  0.00     0.034 A 
ATOM     10  C   UNL d   1      10.446   7.367  -7.503  0.00  0.00     0.068 A 
ATOM     11  C   UNL d   1      11.268   7.753  -8.579  0.00  0.00     0.068 A 
ATOM     12 CL   UNL d   1      10.742   7.934  -5.894  0.00  0.00    -0.082 Cl
ATOM     13 CL   UNL d   1      12.679   8.705  -8.270  0.00  0.00    -0.082 Cl
ENDBRANCH   1   2
BRANCH   1  14
ATOM     14  C   UNL d   1       5.861   4.644 -12.079  0.00  0.00     0.251 C 
BRANCH  14  15
ATOM     15  N   UNL d   1       6.229   3.314 -12.526  0.00  0.00     0.141 N 
ATOM     16  C   UNL d   1       5.079   2.421 -12.335  0.00  0.00     0.274 C 
ATOM     17  C   UNL d   1       5.481   0.992 -12.746  0.00  0.00     0.138 C 
ATOM     18  N   UNL d   1       5.952   0.984 -14.119  0.00  0.00    -0.330 N 
ATOM     19  C   UNL d   1       7.011   1.949 -14.402  0.00  0.00     0.138 C 
ATOM     20  C   UNL d   1       6.610   3.360 -13.937  0.00  0.00     0.274 C 
BRANCH  18  21
ATOM     21  C   UNL d   1       5.378   0.172 -15.134  0.00  0.00     0.140 A 
ATOM     22  N   UNL d   1       5.975   0.224 -16.336  0.00  0.00    -0.227 NA
ATOM     23  C   UNL d   1       5.477  -0.513 -17.366  0.00  0.00     0.101 A 
ATOM     24  C   UNL d   1       4.358  -1.359 -17.235  0.00  0.00     0.021 A 
ATOM     25  C   UNL d   1       3.735  -1.411 -15.972  0.00  0.00     0.005 A 
ATOM     26  C   UNL d   1       4.241  -0.623 -14.899  0.00  0.00     0.037 A 
ENDBRANCH  18  21
ENDBRANCH  14  15
ENDBRANCH   1  14
TORSDOF 4
