REMARK  6 active torsions:
REMARK  status: ('A' for Active; 'I' for Inactive)
REMARK    1  A    between atoms: C_4  and  N_5 
REMARK    2  A    between atoms: N_5  and  C_6 
REMARK    3  A    between atoms: C_9  and  C_10 
REMARK    4  A    between atoms: C_10  and  C_11 
REMARK    5  A    between atoms: C_11  and  N_12 
REMARK    6  A    between atoms: N_15  and  C_16 
ROOT
ATOM      1  C   UNL d   1       8.967   6.392 -10.263  0.00  0.00     0.035 C 
ENDROOT
BRANCH   1   2
ATOM      2  C   UNL d   1       9.954   7.067  -9.298  0.00  0.00     0.002 C 
ATOM      3  C   UNL d   1       9.365   8.373  -8.729  0.00  0.00     0.002 C 
ATOM      4  C   UNL d   1      10.330   9.076  -7.772  0.00  0.00     0.025 C 
ATOM      5  C   UNL d   1      10.724   8.137  -6.627  0.00  0.00     0.122 C 
ATOM      6  C   UNL d   1      11.304   6.820  -7.173  0.00  0.00     0.025 C 
ATOM      7  C   UNL d   1      10.327   6.138  -8.131  0.00  0.00     0.002 C 
BRANCH   5   8
ATOM      8  N   UNL d   1      11.658   8.830  -5.765  0.00  0.00    -0.088 NA
BRANCH   8   9
ATOM      9  C   UNL d   1      11.821   8.480  -4.441  0.00  0.00     0.746 A 
ATOM     10  N   UNL d   1      12.006   9.498  -3.603  0.00  0.00    -0.058 NA
ATOM     11  C   UNL d   1      12.263   9.197  -2.310  0.00  0.00     0.120 A 
ATOM     12  C   UNL d   1      12.447   7.876  -1.897  0.00  0.00     0.043 A 
ATOM     13  C   UNL d   1      12.196   6.882  -2.858  0.00  0.00     0.120 A 
ATOM     14  N   UNL d   1      11.832   7.191  -4.121  0.00  0.00    -0.058 NA
ENDBRANCH   8   9
ENDBRANCH   5   8
ENDBRANCH   1   2
BRANCH   1  15
ATOM     15  C   UNL d   1       9.596   5.339 -11.170  0.00  0.00     0.250 C 
BRANCH  15  16
ATOM     16  N   UNL d   1       8.763   4.986 -12.313  0.00  0.00     0.141 N 
ATOM     17  C   UNL d   1       9.470   3.970 -13.103  0.00  0.00     0.274 C 
ATOM     18  C   UNL d   1       8.668   3.631 -14.373  0.00  0.00     0.137 C 
ATOM     19  N   UNL d   1       7.303   3.240 -14.017  0.00  0.00    -0.344 N 
ATOM     20  C   UNL d   1       6.599   4.160 -13.124  0.00  0.00     0.137 C 
ATOM     21  C   UNL d   1       7.465   4.454 -11.894  0.00  0.00     0.274 C 
BRANCH  19  22
ATOM     22  C   UNL d   1       6.751   1.998 -14.419  0.00  0.00     0.059 A 
ATOM     23  C   UNL d   1       7.102   1.409 -15.659  0.00  0.00     0.038 A 
ATOM     24  C   UNL d   1       6.480   0.197 -16.040  0.00  0.00     0.100 A 
ATOM     25  N   UNL d   1       5.548  -0.419 -15.293  0.00  0.00    -0.242 NA
ATOM     26  C   UNL d   1       5.228   0.135 -14.106  0.00  0.00     0.100 A 
ATOM     27  C   UNL d   1       5.809   1.324 -13.621  0.00  0.00     0.038 A 
ENDBRANCH  19  22
ENDBRANCH  15  16
ENDBRANCH   1  15
TORSDOF 6
