REMARK  4 active torsions:
REMARK  status: ('A' for Active; 'I' for Inactive)
REMARK    1  A    between atoms: S_2  and  C_3 
REMARK    2  A    between atoms: S_2  and  C_9 
REMARK    3  A    between atoms: C_12  and  C_13 
REMARK    4  A    between atoms: C_14  and  C_15 
ROOT
ATOM      1  C   UNL d   1       9.376   5.834 -11.652  0.00  0.00     0.080 A 
ATOM      2  C   UNL d   1       9.443   4.725 -10.806  0.00  0.00     0.012 A 
ATOM      3  C   UNL d   1       9.684   4.929  -9.438  0.00  0.00     0.020 A 
ATOM      4  C   UNL d   1       9.969   6.242  -8.996  0.00  0.00     0.082 A 
ATOM      5  N   UNL d   1       9.992   7.299  -9.840  0.00  0.00    -0.243 NA
ATOM      6  C   UNL d   1       9.640   7.107 -11.129  0.00  0.00     0.108 A 
ENDROOT
BRANCH   4   7
ATOM      7  C   UNL d   1      10.365   6.453  -7.601  0.00  0.00     0.019 C 
ATOM      8  C   UNL d   1      10.845   7.606  -7.100  0.00  0.00     0.004 C 
BRANCH   8   9
ATOM      9  C   UNL d   1      11.232   7.850  -5.699  0.00  0.00     0.028 A 
ATOM     10  C   UNL d   1      11.311   9.178  -5.219  0.00  0.00     0.142 A 
ATOM     11  C   UNL d   1      11.639   9.420  -3.870  0.00  0.00     0.059 A 
ATOM     12  F   UNL d   1      11.063  10.220  -6.047  0.00  0.00    -0.204 F 
ATOM     13  C   UNL d   1      11.931   8.359  -2.996  0.00  0.00     0.142 A 
ATOM     14  C   UNL d   1      11.838   7.035  -3.458  0.00  0.00     0.030 A 
ATOM     15  F   UNL d   1      12.293   8.608  -1.715  0.00  0.00    -0.204 F 
ATOM     16  C   UNL d   1      11.463   6.793  -4.795  0.00  0.00     0.004 A 
ENDBRANCH   8   9
ENDBRANCH   4   7
BRANCH   1  17
ATOM     17  S   UNL d   1       8.997   5.590 -13.400  0.00  0.00     0.090 S 
ATOM     18  O   UNL d   1      10.116   4.705 -13.949  0.00  0.00    -0.247 OA
BRANCH  17  19
ATOM     19  C   UNL d   1       7.547   4.520 -13.205  0.00  0.00     0.060 A 
ATOM     20  C   UNL d   1       7.424   3.312 -13.917  0.00  0.00     0.009 A 
ATOM     21  C   UNL d   1       6.291   2.493 -13.711  0.00  0.00     0.001 A 
ATOM     22  C   UNL d   1       5.313   2.890 -12.773  0.00  0.00     0.000 A 
ATOM     23  C   UNL d   1       5.462   4.098 -12.062  0.00  0.00     0.001 A 
ATOM     24  C   UNL d   1       6.559   4.929 -12.296  0.00  0.00     0.009 A 
ENDBRANCH  17  19
ENDBRANCH   1  17
TORSDOF 4
