REMARK  4 active torsions:
REMARK  status: ('A' for Active; 'I' for Inactive)
REMARK    1  A    between atoms: C_12  and  C_13 
REMARK    2  A    between atoms: N_16  and  C_17 
REMARK    3  A    between atoms: C_17  and  C_18 
REMARK    4  A    between atoms: C_18  and  C_19 
ROOT
ATOM      1  C   UNL d   1       8.521   5.328 -12.271  0.00  0.00     0.011 C 
ATOM      2  C   UNL d   1       7.356   4.366 -12.526  0.00  0.00     0.036 C 
ATOM      3  C   UNL d   1       7.487   3.757 -13.920  0.00  0.00     0.250 C 
ATOM      4  N   UNL d   1       8.778   3.092 -14.128  0.00  0.00     0.137 N 
ATOM      5  C   UNL d   1       9.847   4.086 -14.040  0.00  0.00     0.250 C 
ATOM      6  C   UNL d   1       9.855   4.650 -12.638  0.00  0.00     0.036 C 
ENDROOT
BRANCH   1   7
ATOM      7  C   UNL d   1       8.529   5.927 -10.820  0.00  0.00     0.062 C 
ATOM      8  C   UNL d   1       9.466   7.143 -10.674  0.00  0.00     0.172 C 
ATOM      9  O   UNL d   1       9.726   7.885 -11.624  0.00  0.00    -0.291 OA
ATOM     10  C   UNL d   1       9.911   7.460  -9.265  0.00  0.00     0.031 A 
ATOM     11  C   UNL d   1       9.546   6.654  -8.160  0.00  0.00    -0.017 A 
ATOM     12  C   UNL d   1      10.701   8.599  -9.077  0.00  0.00     0.005 A 
ATOM     13  C   UNL d   1       9.992   7.011  -6.870  0.00  0.00     0.025 A 
ATOM     14  C   UNL d   1       8.681   5.422  -8.323  0.00  0.00     0.027 C 
ATOM     15  C   UNL d   1      10.769   8.159  -6.683  0.00  0.00     0.140 A 
ATOM     16  C   UNL d   1      11.120   8.952  -7.781  0.00  0.00     0.030 A 
ATOM     17  F   UNL d   1      11.196   8.508  -5.446  0.00  0.00    -0.204 F 
ATOM     18  C   UNL d   1       8.747   4.856  -9.715  0.00  0.00     0.012 C 
ENDBRANCH   1   7
BRANCH   4  19
ATOM     19  C   UNL d   1       8.804   2.471 -15.441  0.00  0.00     0.255 C 
BRANCH  19  20
ATOM     20  C   UNL d   1       9.917   1.409 -15.532  0.00  0.00     0.062 C 
BRANCH  20  21
ATOM     21  C   UNL d   1       9.923   0.714 -16.880  0.00  0.00    -0.020 A 
ATOM     22  C   UNL d   1      11.029   0.843 -17.748  0.00  0.00    -0.004 A 
ATOM     23  C   UNL d   1      11.017   0.205 -19.003  0.00  0.00    -0.000 A 
ATOM     24  C   UNL d   1       9.901  -0.560 -19.396  0.00  0.00    -0.000 A 
ATOM     25  C   UNL d   1       8.798  -0.691 -18.531  0.00  0.00    -0.000 A 
ATOM     26  C   UNL d   1       8.810  -0.056 -17.276  0.00  0.00    -0.004 A 
ENDBRANCH  20  21
ENDBRANCH  19  20
ENDBRANCH   4  19
TORSDOF 4
