REMARK  15 active torsions:
REMARK  status: ('A' for Active; 'I' for Inactive)
REMARK       I    between atoms: C_2  and  N_29 
REMARK       I    between atoms: N_3  and  C_4 
REMARK       I    between atoms: C_4  and  N_6 
REMARK    1  A    between atoms: N_6  and  C_7 
REMARK    2  A    between atoms: C_7  and  C_8 
REMARK    3  A    between atoms: C_8  and  C_9 
REMARK    4  A    between atoms: C_9  and  C_10 
REMARK    5  A    between atoms: C_10  and  C_11 
REMARK    6  A    between atoms: C_11  and  C_12 
REMARK    7  A    between atoms: C_12  and  N_13 
REMARK       I    between atoms: N_13  and  C_14 
REMARK       I    between atoms: C_14  and  N_16 
REMARK       I    between atoms: C_17  and  N_19 
REMARK    8  A    between atoms: N_19  and  C_20 
REMARK    9  A    between atoms: C_20  and  C_21 
REMARK   10  A    between atoms: C_21  and  C_22 
REMARK   11  A    between atoms: C_22  and  C_23 
REMARK   12  A    between atoms: N_29  and  C_30 
REMARK   13  A    between atoms: C_30  and  C_31 
REMARK   14  A    between atoms: C_31  and  C_32 
REMARK   15  A    between atoms: C_32  and  C_33 
ROOT
ATOM      1  C   UNL d   1      10.068   1.429 -16.944  0.00  0.00     0.002 C 
ENDROOT
BRANCH   1   2
ATOM      2  C   UNL d   1      10.082   2.578 -15.927  0.00  0.00     0.026 C 
BRANCH   2   3
ATOM      3  C   UNL d   1       9.809   2.100 -14.494  0.00  0.00     0.131 C 
BRANCH   3   4
ATOM      4  N   UNL d   1       9.865   3.208 -13.550  0.00  0.00    -0.217 NA
ATOM      5  C   UNL d   1       8.872   4.065 -13.288  0.00  0.00     0.367 C 
ATOM      6  N   UNL d   1       9.219   4.878 -12.219  0.00  0.00    -0.159 NA
ATOM      7  O   UNL d   1       7.818   4.047 -13.938  0.00  0.00    -0.243 OA
ATOM      8  C   UNL d   1       8.324   5.586 -11.585  0.00  0.00     0.237 C 
ATOM      9  N   UNL d   1       6.972   5.652 -11.859  0.00  0.00    -0.060 NA
ATOM     10  N   UNL d   1       8.661   6.384 -10.509  0.00  0.00    -0.241 NA
BRANCH  10  11
ATOM     11  C   UNL d   1       9.961   6.413  -9.869  0.00  0.00     0.129 C 
BRANCH  11  12
ATOM     12  C   UNL d   1       9.963   7.301  -8.615  0.00  0.00     0.033 C 
BRANCH  12  13
ATOM     13  C   UNL d   1      11.343   7.385  -7.948  0.00  0.00     0.057 C 
BRANCH  13  14
ATOM     14  C   UNL d   1      11.357   8.263  -6.743  0.00  0.00     0.112 A 
ATOM     15  S   UNL d   1      11.460   7.629  -5.103  0.00  0.00    -0.036 SA
ATOM     16  C   UNL d   1      11.426   9.308  -4.595  0.00  0.00     0.203 A 
ATOM     17  N   UNL d   1      11.324  10.203  -5.580  0.00  0.00    -0.127 NA
ATOM     18  N   UNL d   1      11.473   9.644  -3.256  0.00  0.00    -0.070 NA
ATOM     19  N   UNL d   1      11.299   9.596  -6.826  0.00  0.00    -0.144 NA
ENDBRANCH  13  14
ENDBRANCH  12  13
ENDBRANCH  11  12
ENDBRANCH  10  11
ENDBRANCH   3   4
ENDBRANCH   2   3
ENDBRANCH   1   2
BRANCH   1  20
ATOM     20  C   UNL d   1      10.333   1.914 -18.376  0.00  0.00     0.002 C 
BRANCH  20  21
ATOM     21  C   UNL d   1      10.389   0.759 -19.384  0.00  0.00     0.026 C 
BRANCH  21  22
ATOM     22  C   UNL d   1      10.650   1.244 -20.821  0.00  0.00     0.131 C 
BRANCH  22  23
ATOM     23  N   UNL d   1      10.902   0.104 -21.712  0.00  0.00    -0.217 NA
ATOM     24  C   UNL d   1      12.080  -0.432 -22.069  0.00  0.00     0.367 C 
ATOM     25  O   UNL d   1      12.119  -1.493 -22.699  0.00  0.00    -0.243 OA
ATOM     26  N   UNL d   1      13.164   0.298 -21.605  0.00  0.00    -0.159 NA
ATOM     27  C   UNL d   1      14.099  -0.267 -20.901  0.00  0.00     0.237 C 
ATOM     28  N   UNL d   1      14.212  -1.611 -20.575  0.00  0.00    -0.060 NA
ATOM     29  N   UNL d   1      15.136   0.485 -20.374  0.00  0.00    -0.241 NA
BRANCH  29  30
ATOM     30  C   UNL d   1      15.303   1.916 -20.605  0.00  0.00     0.129 C 
BRANCH  30  31
ATOM     31  C   UNL d   1      14.671   2.784 -19.502  0.00  0.00     0.033 C 
BRANCH  31  32
ATOM     32  C   UNL d   1      14.913   4.284 -19.737  0.00  0.00     0.057 C 
BRANCH  32  33
ATOM     33  C   UNL d   1      14.523   5.120 -18.563  0.00  0.00     0.112 A 
ATOM     34  S   UNL d   1      12.895   5.751 -18.348  0.00  0.00    -0.036 SA
ATOM     35  C   UNL d   1      13.498   6.437 -16.849  0.00  0.00     0.203 A 
ATOM     36  N   UNL d   1      14.778   6.176 -16.575  0.00  0.00    -0.127 NA
ATOM     37  N   UNL d   1      12.671   7.183 -16.029  0.00  0.00    -0.070 NA
ATOM     38  N   UNL d   1      15.373   5.409 -17.568  0.00  0.00    -0.144 NA
ENDBRANCH  32  33
ENDBRANCH  31  32
ENDBRANCH  30  31
ENDBRANCH  29  30
ENDBRANCH  22  23
ENDBRANCH  21  22
ENDBRANCH  20  21
ENDBRANCH   1  20
TORSDOF 15
