REMARK  8 active torsions:
REMARK  status: ('A' for Active; 'I' for Inactive)
REMARK    1  A    between atoms: O_2  and  C_3 
REMARK    2  A    between atoms: C_8  and  O_9 
REMARK    3  A    between atoms: N_12  and  C_13 
REMARK    4  A    between atoms: C_13  and  C_14 
REMARK    5  A    between atoms: C_14  and  C_15 
REMARK    6  A    between atoms: C_15  and  C_16 
REMARK    7  A    between atoms: C_16  and  N_17 
REMARK    8  A    between atoms: C_19  and  C_20 
ROOT
ATOM      1  C   UNL d   1      14.148   2.752 -18.738  0.00  0.00     0.027 C 
ENDROOT
BRANCH   1   2
ATOM      2  C   UNL d   1      12.652   2.576 -18.409  0.00  0.00     0.037 C 
BRANCH   2   3
ATOM      3  C   UNL d   1      12.363   1.561 -17.303  0.00  0.00     0.251 C 
BRANCH   3   4
ATOM      4  N   UNL d   1      10.991   1.726 -16.825  0.00  0.00     0.142 N 
ATOM      5  C   UNL d   1      10.989   2.724 -15.755  0.00  0.00     0.277 C 
ATOM      6  C   UNL d   1       9.646   2.902 -15.069  0.00  0.00     0.009 A 
ATOM      7  C   UNL d   1       8.691   1.868 -15.122  0.00  0.00    -0.020 A 
ATOM      8  C   UNL d   1       9.378   4.062 -14.321  0.00  0.00     0.024 A 
ATOM      9  C   UNL d   1       7.467   2.024 -14.448  0.00  0.00     0.022 A 
ATOM     10  C   UNL d   1       8.982   0.625 -15.946  0.00  0.00     0.061 C 
ATOM     11  C   UNL d   1       7.167   3.191 -13.725  0.00  0.00     0.116 A 
ATOM     12  C   UNL d   1       8.176   4.220 -13.608  0.00  0.00     0.116 A 
ATOM     13  C   UNL d   1      10.478   0.467 -16.288  0.00  0.00     0.255 C 
BRANCH  11  14
ATOM     14  O   UNL d   1       5.945   3.243 -13.121  0.00  0.00    -0.326 OA
ATOM     15  C   UNL d   1       5.166   4.386 -13.422  0.00  0.00     0.181 C 
ENDBRANCH  11  14
BRANCH  12  16
ATOM     16  O   UNL d   1       8.039   5.373 -12.883  0.00  0.00    -0.326 OA
ATOM     17  C   UNL d   1       7.754   5.205 -11.494  0.00  0.00     0.181 C 
ENDBRANCH  12  16
ENDBRANCH   3   4
ENDBRANCH   2   3
ENDBRANCH   1   2
BRANCH   1  18
ATOM     18  C   UNL d   1      14.418   3.581 -20.014  0.00  0.00     0.106 C 
BRANCH  18  19
ATOM     19  N   UNL d   1      13.701   4.851 -20.038  0.00  0.00    -0.326 N 
ATOM     20  C   UNL d   1      14.228   6.098 -19.743  0.00  0.00     0.060 A 
ATOM     21  C   UNL d   1      13.152   7.032 -19.861  0.00  0.00     0.017 A 
ATOM     22  C   UNL d   1      15.527   6.508 -19.382  0.00  0.00     0.017 A 
ATOM     23  C   UNL d   1      11.970   6.300 -20.243  0.00  0.00     0.019 A 
ATOM     24  C   UNL d   1      13.446   8.388 -19.582  0.00  0.00     0.002 A 
ATOM     25  C   UNL d   1      12.359   4.992 -20.366  0.00  0.00     0.076 A 
ATOM     26  C   UNL d   1      14.743   8.805 -19.223  0.00  0.00     0.000 A 
ATOM     27  C   UNL d   1      15.787   7.865 -19.128  0.00  0.00     0.002 A 
BRANCH  23  28
ATOM     28  C   UNL d   1      10.640   6.878 -20.446  0.00  0.00     0.002 A 
ATOM     29  C   UNL d   1      10.491   8.148 -21.043  0.00  0.00     0.002 A 
ATOM     30  C   UNL d   1       9.211   8.689 -21.254  0.00  0.00     0.030 A 
ATOM     31  C   UNL d   1       8.065   7.966 -20.881  0.00  0.00     0.140 A 
ATOM     32  C   UNL d   1       8.202   6.692 -20.300  0.00  0.00     0.030 A 
ATOM     33  F   UNL d   1       6.835   8.495 -21.083  0.00  0.00    -0.204 F 
ATOM     34  C   UNL d   1       9.485   6.150 -20.082  0.00  0.00     0.002 A 
ENDBRANCH  23  28
ENDBRANCH  18  19
ENDBRANCH   1  18
TORSDOF 8
