REMARK  7 active torsions:
REMARK  status: ('A' for Active; 'I' for Inactive)
REMARK    1  A    between atoms: S_2  and  O_4 
REMARK    2  A    between atoms: S_2  and  C_25 
REMARK    3  A    between atoms: O_4  and  C_5 
REMARK    4  A    between atoms: C_9  and  C_10 
REMARK    5  A    between atoms: N_14  and  C_15 
REMARK    6  A    between atoms: C_15  and  C_16 
REMARK    7  A    between atoms: C_16  and  C_17 
ROOT
ATOM      1  C   UNL d   1      11.827   4.395 -15.642  0.00  0.00     0.113 A 
ATOM      2  C   UNL d   1      12.035   3.079 -16.130  0.00  0.00     0.026 A 
ATOM      3  C   UNL d   1      11.222   2.025 -15.666  0.00  0.00     0.002 A 
ATOM      4  C   UNL d   1      10.213   2.270 -14.715  0.00  0.00    -0.004 A 
ATOM      5  C   UNL d   1      10.014   3.580 -14.233  0.00  0.00    -0.018 A 
ATOM      6  C   UNL d   1      10.807   4.630 -14.710  0.00  0.00     0.021 A 
ENDROOT
BRANCH   5   7
ATOM      7  C   UNL d   1       8.914   3.833 -13.200  0.00  0.00     0.056 C 
ATOM      8  C   UNL d   1       9.460   4.601 -12.002  0.00  0.00     0.255 C 
ATOM      9  N   UNL d   1       8.415   4.926 -11.029  0.00  0.00     0.138 N 
ATOM     10  C   UNL d   1       7.333   5.713 -11.611  0.00  0.00     0.250 C 
ATOM     11  C   UNL d   1       6.678   4.943 -12.761  0.00  0.00     0.036 C 
ATOM     12  C   UNL d   1       7.734   4.576 -13.814  0.00  0.00     0.008 C 
BRANCH   9  13
ATOM     13  C   UNL d   1       8.998   5.605  -9.859  0.00  0.00     0.255 C 
BRANCH  13  14
ATOM     14  C   UNL d   1       9.692   6.945 -10.193  0.00  0.00     0.062 C 
BRANCH  14  15
ATOM     15  C   UNL d   1      10.280   7.625  -8.989  0.00  0.00    -0.020 A 
ATOM     16  C   UNL d   1       9.478   7.904  -7.872  0.00  0.00    -0.004 A 
ATOM     17  C   UNL d   1      10.042   8.558  -6.762  0.00  0.00    -0.000 A 
ATOM     18  C   UNL d   1      11.402   8.942  -6.783  0.00  0.00    -0.000 A 
ATOM     19  C   UNL d   1      12.199   8.668  -7.915  0.00  0.00    -0.000 A 
ATOM     20  C   UNL d   1      11.631   8.015  -9.020  0.00  0.00    -0.004 A 
ENDBRANCH  14  15
ENDBRANCH  13  14
ENDBRANCH   9  13
ENDBRANCH   5   7
BRANCH   1  21
ATOM     21  O   UNL d   1      12.593   5.441 -16.062  0.00  0.00    -0.224 OA
BRANCH  21  22
ATOM     22  S   UNL d   1      12.216   6.065 -17.580  0.00  0.00     0.374 S 
ATOM     23  O   UNL d   1      12.839   5.176 -18.584  0.00  0.00    -0.189 OA
ATOM     24  O   UNL d   1      10.771   6.350 -17.607  0.00  0.00    -0.189 OA
BRANCH  22  25
ATOM     25  C   UNL d   1      13.151   7.649 -17.483  0.00  0.00     0.524 C 
ATOM     26  F   UNL d   1      12.994   8.308 -18.631  0.00  0.00    -0.155 F 
ATOM     27  F   UNL d   1      12.668   8.380 -16.477  0.00  0.00    -0.155 F 
ATOM     28  F   UNL d   1      14.443   7.384 -17.291  0.00  0.00    -0.155 F 
ENDBRANCH  22  25
ENDBRANCH  21  22
ENDBRANCH   1  21
TORSDOF 7
