REMARK  7 active torsions:
REMARK  status: ('A' for Active; 'I' for Inactive)
REMARK    1  A    between atoms: C_6  and  C_7 
REMARK    2  A    between atoms: C_10  and  S_11 
REMARK    3  A    between atoms: S_11  and  C_12 
REMARK    4  A    between atoms: C_12  and  C_13 
REMARK    5  A    between atoms: C_13  and  C_14 
REMARK    6  A    between atoms: C_14  and  N_15 
REMARK    7  A    between atoms: C_20  and  C_21 
ROOT
ATOM      1  C   UNL d   1       9.017   5.464  -9.573  0.00  0.00     0.047 C 
ENDROOT
BRANCH   1   2
ATOM      2  C   UNL d   1       9.059   6.277 -10.880  0.00  0.00     0.067 C 
BRANCH   2   3
ATOM      3  S   UNL d   1       7.843   5.815 -12.110  0.00  0.00    -0.075 SA
BRANCH   3   4
ATOM      4  C   UNL d   1       8.809   4.750 -13.094  0.00  0.00     0.193 A 
ATOM      5  N   UNL d   1      10.126   4.853 -13.280  0.00  0.00    -0.122 NA
ATOM      6  N   UNL d   1      10.457   3.796 -14.078  0.00  0.00    -0.126 NA
ATOM      7  C   UNL d   1       9.309   3.150 -14.314  0.00  0.00     0.191 A 
ATOM      8  N   UNL d   1       8.239   3.721 -13.722  0.00  0.00    -0.287 N 
ATOM      9  C   UNL d   1       6.821   3.374 -13.732  0.00  0.00     0.134 C 
BRANCH   7  10
ATOM     10  C   UNL d   1       9.250   1.982 -15.158  0.00  0.00     0.151 A 
ATOM     11  C   UNL d   1      10.161   1.429 -16.018  0.00  0.00     0.087 A 
ATOM     12  C   UNL d   1      11.545   1.874 -16.369  0.00  0.00     0.054 C 
ATOM     13  N   UNL d   1       9.579   0.307 -16.580  0.00  0.00    -0.221 NA
ATOM     14  C   UNL d   1       8.357   0.263 -16.054  0.00  0.00     0.225 A 
ATOM     15  O   UNL d   1       8.091   1.258 -15.178  0.00  0.00    -0.282 OA
ENDBRANCH   7  10
ENDBRANCH   3   4
ENDBRANCH   2   3
ENDBRANCH   1   2
BRANCH   1  16
ATOM     16  C   UNL d   1       9.028   6.352  -8.308  0.00  0.00     0.251 C 
BRANCH  16  17
ATOM     17  N   UNL d   1      10.196   7.191  -8.064  0.00  0.00     0.137 N 
ATOM     18  C   UNL d   1       9.898   8.179  -7.031  0.00  0.00     0.251 C 
ATOM     19  C   UNL d   1      11.061   9.183  -7.172  0.00  0.00     0.037 A 
ATOM     20  C   UNL d   1      11.474   9.083  -8.609  0.00  0.00     0.038 C 
ATOM     21  C   UNL d   1      12.077   9.416  -6.089  0.00  0.00     0.024 A 
ATOM     22  C   UNL d   1      11.103  10.494  -6.401  0.00  0.00     0.007 A 
ATOM     23  C   UNL d   1      10.534   8.087  -9.189  0.00  0.00     0.250 C 
BRANCH  21  24
ATOM     24  C   UNL d   1      11.974   8.690  -4.815  0.00  0.00    -0.022 A 
ATOM     25  C   UNL d   1      12.010   9.354  -3.583  0.00  0.00    -0.004 A 
ATOM     26  C   UNL d   1      11.914   8.645  -2.374  0.00  0.00    -0.000 A 
ATOM     27  C   UNL d   1      11.782   7.236  -2.408  0.00  0.00    -0.000 A 
ATOM     28  C   UNL d   1      11.770   6.606  -3.646  0.00  0.00    -0.000 A 
ATOM     29  C   UNL d   1      11.855   7.283  -4.847  0.00  0.00    -0.004 A 
ENDBRANCH  21  24
ENDBRANCH  16  17
ENDBRANCH   1  16
TORSDOF 7
