REMARK  5 active torsions:
REMARK  status: ('A' for Active; 'I' for Inactive)
REMARK    1  A    between atoms: O_2  and  C_3 
REMARK    2  A    between atoms: C_7  and  N_8 
REMARK    3  A    between atoms: N_11  and  C_12 
REMARK    4  A    between atoms: C_12  and  C_13 
REMARK    5  A    between atoms: C_15  and  C_16 
ROOT
ATOM      1  N   UNL d   1      11.403   7.654  -7.344  0.00  0.00    -0.344 N 
ATOM      2  C   UNL d   1      12.017   8.200  -8.546  0.00  0.00     0.137 C 
ATOM      3  C   UNL d   1      11.015   8.178  -9.722  0.00  0.00     0.274 C 
ATOM      4  N   UNL d   1      10.448   6.834  -9.898  0.00  0.00     0.141 N 
ATOM      5  C   UNL d   1       9.737   6.445  -8.672  0.00  0.00     0.274 C 
ATOM      6  C   UNL d   1      10.713   6.388  -7.480  0.00  0.00     0.137 C 
ENDROOT
BRANCH   4   7
ATOM      7  C   UNL d   1       9.521   6.843 -11.032  0.00  0.00     0.251 C 
BRANCH   7   8
ATOM      8  C   UNL d   1       9.071   5.433 -11.385  0.00  0.00     0.038 A 
ATOM      9  C   UNL d   1       8.304   5.173 -12.666  0.00  0.00     0.024 A 
ATOM     10  C   UNL d   1       7.605   5.051 -11.337  0.00  0.00     0.007 A 
BRANCH   9  11
ATOM     11  C   UNL d   1       8.597   3.972 -13.503  0.00  0.00    -0.022 A 
ATOM     12  C   UNL d   1       9.929   3.573 -13.737  0.00  0.00    -0.004 A 
ATOM     13  C   UNL d   1      10.206   2.406 -14.475  0.00  0.00    -0.000 A 
ATOM     14  C   UNL d   1       9.148   1.641 -14.998  0.00  0.00    -0.000 A 
ATOM     15  C   UNL d   1       7.815   2.046 -14.791  0.00  0.00    -0.000 A 
ATOM     16  C   UNL d   1       7.540   3.205 -14.038  0.00  0.00    -0.004 A 
ENDBRANCH   9  11
ENDBRANCH   7   8
ENDBRANCH   4   7
BRANCH   1  17
ATOM     17  C   UNL d   1      11.410   8.329  -6.117  0.00  0.00     0.058 A 
ATOM     18  C   UNL d   1      11.059   9.688  -6.067  0.00  0.00     0.017 A 
ATOM     19  C   UNL d   1      11.059  10.368  -4.843  0.00  0.00     0.004 A 
ATOM     20  C   UNL d   1      11.466   9.710  -3.660  0.00  0.00     0.024 A 
ATOM     21  C   UNL d   1      11.830   8.351  -3.691  0.00  0.00     0.096 A 
ATOM     22  C   UNL d   1      11.763   7.661  -4.921  0.00  0.00     0.041 A 
BRANCH  21  23
ATOM     23  O   UNL d   1      12.211   7.772  -2.501  0.00  0.00    -0.328 OA
ATOM     24  C   UNL d   1      12.128   6.359  -2.422  0.00  0.00     0.181 C 
ENDBRANCH  21  23
ENDBRANCH   1  17
TORSDOF 5
