REMARK  3 active torsions:
REMARK  status: ('A' for Active; 'I' for Inactive)
REMARK    1  A    between atoms: C_7  and  N_8 
REMARK    2  A    between atoms: N_8  and  C_9 
REMARK    3  A    between atoms: C_11  and  N_12 
ROOT
ATOM      1  C   UNL d   1       9.317   5.420 -12.835  0.00  0.00     0.182 A 
ATOM      2  N   UNL d   1      10.393   5.192 -13.630  0.00  0.00    -0.042 NA
ATOM      3  C   UNL d   1      10.337   4.156 -14.480  0.00  0.00     0.729 A 
ATOM      4  N   UNL d   1       9.274   3.367 -14.642  0.00  0.00    -0.061 NA
ATOM      5  C   UNL d   1       8.163   3.591 -13.906  0.00  0.00     0.103 A 
ATOM      6  C   UNL d   1       7.018   2.777 -14.063  0.00  0.00     0.020 A 
ATOM      7  C   UNL d   1       5.875   2.995 -13.274  0.00  0.00     0.002 A 
ATOM      8  C   UNL d   1       5.861   4.065 -12.350  0.00  0.00     0.000 A 
ATOM      9  C   UNL d   1       6.952   4.945 -12.245  0.00  0.00     0.005 A 
ATOM     10  C   UNL d   1       8.128   4.662 -12.970  0.00  0.00     0.055 A 
ENDROOT
BRANCH   1  11
ATOM     11  N   UNL d   1       9.457   6.481 -11.927  0.00  0.00    -0.224 NA
BRANCH  11  12
ATOM     12  C   UNL d   1       9.436   6.455 -10.521  0.00  0.00     0.110 A 
ATOM     13  C   UNL d   1      10.024   7.548  -9.817  0.00  0.00     0.158 A 
ATOM     14  F   UNL d   1      10.623   8.553 -10.507  0.00  0.00    -0.203 F 
ATOM     15  C   UNL d   1       9.985   7.629  -8.406  0.00  0.00     0.031 A 
ATOM     16  C   UNL d   1       9.316   6.624  -7.677  0.00  0.00     0.002 A 
ATOM     17  C   UNL d   1       8.728   5.540  -8.364  0.00  0.00     0.002 A 
ATOM     18  C   UNL d   1       8.832   5.415  -9.767  0.00  0.00     0.021 A 
ENDBRANCH  11  12
ENDBRANCH   1  11
BRANCH   3  19
ATOM     19  N   UNL d   1      11.447   3.918 -15.292  0.00  0.00    -0.178 N 
ATOM     20  C   UNL d   1      12.584   4.836 -15.408  0.00  0.00     0.152 C 
ATOM     21  C   UNL d   1      12.833   5.189 -16.884  0.00  0.00     0.167 C 
ATOM     22  O   UNL d   1      13.030   4.000 -17.642  0.00  0.00    -0.350 OA
ATOM     23  C   UNL d   1      11.887   3.156 -17.601  0.00  0.00     0.167 C 
ATOM     24  C   UNL d   1      11.599   2.740 -16.148  0.00  0.00     0.152 C 
ENDBRANCH   3  19
TORSDOF 3
