REMARK  8 active torsions:
REMARK  status: ('A' for Active; 'I' for Inactive)
REMARK    1  A    between atoms: C_2  and  C_4 
REMARK    2  A    between atoms: C_4  and  C_5 
REMARK    3  A    between atoms: C_5  and  O_6 
REMARK    4  A    between atoms: O_6  and  C_7 
REMARK    5  A    between atoms: C_10  and  C_11 
REMARK    6  A    between atoms: C_11  and  N_12 
REMARK    7  A    between atoms: N_15  and  C_16 
REMARK    8  A    between atoms: C_16  and  C_17 
ROOT
ATOM      1  N   UNL d   1       9.091   2.866 -14.974  0.00  0.00     0.146 N 
ATOM      2  C   UNL d   1       8.608   2.968 -13.605  0.00  0.00     0.286 C 
ATOM      3  C   UNL d   1       8.406   4.409 -13.144  0.00  0.00     0.286 C 
ATOM      4  N   UNL d   1       9.642   5.175 -13.228  0.00  0.00     0.148 N 
ATOM      5  C   UNL d   1      10.119   5.093 -14.614  0.00  0.00     0.286 C 
ATOM      6  C   UNL d   1      10.327   3.625 -15.065  0.00  0.00     0.286 C 
ENDROOT
BRANCH   1   7
ATOM      7  C   UNL d   1       9.278   1.466 -15.372  0.00  0.00     0.277 C 
BRANCH   7   8
ATOM      8  C   UNL d   1       7.974   0.697 -15.507  0.00  0.00     0.011 A 
ATOM      9  C   UNL d   1       7.329   0.145 -14.378  0.00  0.00    -0.000 A 
ATOM     10  C   UNL d   1       6.086  -0.509 -14.520  0.00  0.00     0.024 A 
ATOM     11  C   UNL d   1       5.513  -0.676 -15.794  0.00  0.00     0.094 A 
ATOM     12  C   UNL d   1       6.187  -0.163 -16.929  0.00  0.00     0.024 A 
ATOM     13  C   UNL d   1       7.407   0.524 -16.781  0.00  0.00    -0.000 A 
BRANCH  11  14
ATOM     14  O   UNL d   1       4.305  -1.332 -15.848  0.00  0.00    -0.331 OA
BRANCH  14  15
ATOM     15  C   UNL d   1       3.801  -1.733 -17.115  0.00  0.00     0.155 C 
BRANCH  15  16
ATOM     16  C   UNL d   1       4.559  -2.961 -17.662  0.00  0.00     0.105 C 
BRANCH  16  17
ATOM     17  C   UNL d   1       3.842  -3.618 -18.843  0.00  0.00     0.321 C 
ATOM     18  F   UNL d   1       3.707  -2.759 -19.852  0.00  0.00    -0.199 F 
ATOM     19  F   UNL d   1       4.535  -4.674 -19.263  0.00  0.00    -0.199 F 
ENDBRANCH  16  17
ENDBRANCH  15  16
ENDBRANCH  14  15
ENDBRANCH  11  14
ENDBRANCH   7   8
ENDBRANCH   1   7
BRANCH   4  20
ATOM     20  C   UNL d   1       9.423   6.558 -12.774  0.00  0.00     0.301 C 
BRANCH  20  21
ATOM     21  C   UNL d   1       9.457   6.732 -11.281  0.00  0.00     0.111 A 
ATOM     22  O   UNL d   1      10.056   7.884 -10.832  0.00  0.00    -0.309 OA
ATOM     23  C   UNL d   1      10.050   7.842  -9.450  0.00  0.00     0.100 A 
ATOM     24  C   UNL d   1       9.415   6.649  -9.037  0.00  0.00     0.025 A 
ATOM     25  C   UNL d   1      10.566   8.787  -8.550  0.00  0.00     0.025 A 
ATOM     26  C   UNL d   1       9.062   5.937 -10.223  0.00  0.00     0.024 A 
ATOM     27  C   UNL d   1       9.266   6.452  -7.652  0.00  0.00     0.002 A 
ATOM     28  C   UNL d   1       9.748   7.392  -6.723  0.00  0.00     0.000 A 
ATOM     29  C   UNL d   1      10.400   8.563  -7.168  0.00  0.00     0.002 A 
ENDBRANCH  20  21
ENDBRANCH   4  20
TORSDOF 8
