REMARK  5 active torsions:
REMARK  status: ('A' for Active; 'I' for Inactive)
REMARK    1  A    between atoms: C_2  and  C_3 
REMARK    2  A    between atoms: C_3  and  N_4 
REMARK    3  A    between atoms: C_12  and  O_13 
REMARK    4  A    between atoms: O_13  and  S_14 
REMARK    5  A    between atoms: S_14  and  C_17 
ROOT
ATOM      1  N   UNL d   1       8.168   5.465 -12.740  0.00  0.00     0.135 N 
ATOM      2  C   UNL d   1       6.750   5.691 -12.460  0.00  0.00     0.251 C 
ATOM      3  C   UNL d   1       6.058   4.560 -13.204  0.00  0.00     0.042 C 
ATOM      4  C   UNL d   1       6.959   3.384 -12.921  0.00  0.00     0.055 C 
ATOM      5  C   UNL d   1       6.978   2.344 -14.045  0.00  0.00    -0.023 A 
ATOM      6  C   UNL d   1       5.909   1.439 -14.163  0.00  0.00    -0.004 A 
ATOM      7  C   UNL d   1       5.869   0.505 -15.220  0.00  0.00     0.002 A 
ATOM      8  C   UNL d   1       6.920   0.468 -16.156  0.00  0.00     0.025 A 
ATOM      9  C   UNL d   1       8.020   1.339 -16.027  0.00  0.00     0.109 A 
ATOM     10  C   UNL d   1       8.055   2.285 -14.973  0.00  0.00    -0.002 A 
ATOM     11  C   UNL d   1       9.242   3.226 -14.813  0.00  0.00     0.030 C 
ATOM     12  C   UNL d   1       9.552   3.459 -13.333  0.00  0.00     0.038 C 
ATOM     13  C   UNL d   1       8.334   4.018 -12.559  0.00  0.00     0.224 C 
ENDROOT
BRANCH   9  14
ATOM     14  O   UNL d   1       9.037   1.278 -16.940  0.00  0.00    -0.225 OA
BRANCH  14  15
ATOM     15  S   UNL d   1      10.212   0.094 -16.665  0.00  0.00     0.374 S 
ATOM     16  O   UNL d   1      10.490   0.048 -15.220  0.00  0.00    -0.189 OA
ATOM     17  O   UNL d   1       9.825  -1.118 -17.402  0.00  0.00    -0.189 OA
BRANCH  15  18
ATOM     18  C   UNL d   1      11.633   0.889 -17.524  0.00  0.00     0.524 C 
ATOM     19  F   UNL d   1      12.326   1.608 -16.645  0.00  0.00    -0.155 F 
ATOM     20  F   UNL d   1      12.403  -0.069 -18.046  0.00  0.00    -0.155 F 
ATOM     21  F   UNL d   1      11.177   1.675 -18.499  0.00  0.00    -0.155 F 
ENDBRANCH  15  18
ENDBRANCH  14  15
ENDBRANCH   9  14
BRANCH   1  22
ATOM     22  C   UNL d   1       9.034   6.222 -11.834  0.00  0.00     0.250 C 
BRANCH  22  23
ATOM     23  C   UNL d   1       8.875   7.744 -12.009  0.00  0.00     0.035 C 
ATOM     24  C   UNL d   1       9.484   8.523 -10.846  0.00  0.00     0.002 C 
ENDBRANCH  22  23
ENDBRANCH   1  22
TORSDOF 5
