REMARK  9 active torsions:
REMARK  status: ('A' for Active; 'I' for Inactive)
REMARK    1  A    between atoms: C_2  and  C_3 
REMARK    2  A    between atoms: C_3  and  C_4 
REMARK    3  A    between atoms: C_4  and  C_5 
REMARK    4  A    between atoms: C_5  and  C_6 
REMARK    5  A    between atoms: C_6  and  C_7 
REMARK    6  A    between atoms: C_7  and  C_8 
REMARK    7  A    between atoms: C_8  and  C_9 
REMARK    8  A    between atoms: C_9  and  N_10 
REMARK    9  A    between atoms: C_13  and  C_14 
ROOT
ATOM      1  N   UNL d   1       9.517   5.555 -11.844  0.00  0.00     0.137 N 
ATOM      2  C   UNL d   1       8.957   6.125 -13.060  0.00  0.00     0.251 C 
ATOM      3  C   UNL d   1       9.464   5.206 -14.172  0.00  0.00     0.042 C 
ATOM      4  C   UNL d   1       9.676   3.869 -13.479  0.00  0.00     0.058 C 
ATOM      5  C   UNL d   1       9.309   4.124 -12.008  0.00  0.00     0.255 C 
ENDROOT
BRANCH   1   6
ATOM      6  C   UNL d   1       8.851   6.074 -10.658  0.00  0.00     0.250 C 
BRANCH   6   7
ATOM      7  C   UNL d   1       9.716   5.844  -9.408  0.00  0.00     0.035 C 
BRANCH   7   8
ATOM      8  C   UNL d   1       9.301   6.761  -8.245  0.00  0.00     0.002 C 
BRANCH   8   9
ATOM      9  C   UNL d   1      10.351   6.838  -7.123  0.00  0.00     0.000 C 
BRANCH   9  10
ATOM     10  C   UNL d   1      10.151   8.061  -6.221  0.00  0.00     0.000 C 
BRANCH  10  11
ATOM     11  C   UNL d   1      11.231   8.149  -5.141  0.00  0.00     0.000 C 
BRANCH  11  12
ATOM     12  C   UNL d   1      11.215   9.466  -4.354  0.00  0.00     0.000 C 
BRANCH  12  13
ATOM     13  C   UNL d   1      12.352   9.570  -3.331  0.00  0.00     0.000 C 
ATOM     14  C   UNL d   1      12.412   8.414  -2.320  0.00  0.00     0.000 C 
ENDBRANCH  12  13
ENDBRANCH  11  12
ENDBRANCH  10  11
ENDBRANCH   9  10
ENDBRANCH   8   9
ENDBRANCH   7   8
ENDBRANCH   6   7
ENDBRANCH   1   6
BRANCH   4  15
ATOM     15  C   UNL d   1       8.875   2.751 -14.108  0.00  0.00    -0.018 A 
ATOM     16  C   UNL d   1       9.535   1.682 -14.748  0.00  0.00     0.023 A 
ATOM     17  C   UNL d   1       8.778   0.637 -15.310  0.00  0.00     0.131 A 
ATOM     18  C   UNL d   1       7.372   0.650 -15.247  0.00  0.00     0.027 A 
ATOM     19  O   UNL d   1       9.414  -0.403 -15.908  0.00  0.00    -0.190 OA
ATOM     20  C   UNL d   1       6.717   1.720 -14.611  0.00  0.00     0.002 A 
ATOM     21  C   UNL d   1       7.464   2.779 -14.073  0.00  0.00    -0.004 A 
ENDBRANCH   4  15
TORSDOF 9
