REMARK  9 active torsions:
REMARK  status: ('A' for Active; 'I' for Inactive)
REMARK    1  A    between atoms: C_2  and  C_3 
REMARK       I    between atoms: C_2  and  N_13 
REMARK    2  A    between atoms: C_4  and  C_5 
REMARK    3  A    between atoms: N_13  and  C_14 
REMARK    4  A    between atoms: C_14  and  C_15 
REMARK    5  A    between atoms: C_15  and  C_16 
REMARK    6  A    between atoms: C_16  and  C_17 
REMARK    7  A    between atoms: C_17  and  C_18 
REMARK    8  A    between atoms: C_18  and  N_19 
REMARK    9  A    between atoms: C_22  and  C_23 
ROOT
ATOM      1  C   UNL d   1      10.052   3.932 -15.374  0.00  0.00     0.035 C 
ENDROOT
BRANCH   1   2
ATOM      2  C   UNL d   1       9.764   3.428 -16.787  0.00  0.00     0.004 C 
BRANCH   2   3
ATOM      3  C   UNL d   1      11.028   3.009 -17.562  0.00  0.00     0.026 C 
BRANCH   3   4
ATOM      4  C   UNL d   1      10.762   2.541 -19.007  0.00  0.00     0.129 C 
BRANCH   4   5
ATOM      5  N   UNL d   1       9.947   1.331 -19.077  0.00  0.00    -0.234 NA
ATOM      6  C   UNL d   1       8.606   1.285 -18.989  0.00  0.00     0.275 C 
ATOM      7  O   UNL d   1       7.892   2.290 -18.934  0.00  0.00    -0.266 OA
BRANCH   6   8
ATOM      8  C   UNL d   1       8.131  -0.082 -18.957  0.00  0.00     0.062 C 
ATOM      9  C   UNL d   1       6.822  -0.355 -18.755  0.00  0.00     0.005 C 
BRANCH   9  10
ATOM     10  C   UNL d   1       6.233  -1.705 -18.747  0.00  0.00     0.001 A 
ATOM     11  C   UNL d   1       7.012  -2.839 -19.067  0.00  0.00     0.012 A 
ATOM     12  C   UNL d   1       6.457  -4.128 -19.059  0.00  0.00     0.068 A 
ATOM     13  C   UNL d   1       5.098  -4.306 -18.733  0.00  0.00     0.068 A 
ATOM     14 CL   UNL d   1       7.463  -5.475 -19.461  0.00  0.00    -0.082 Cl
ATOM     15  C   UNL d   1       4.309  -3.181 -18.415  0.00  0.00     0.012 A 
ATOM     16 CL   UNL d   1       4.394  -5.883 -18.717  0.00  0.00    -0.082 Cl
ATOM     17  C   UNL d   1       4.871  -1.886 -18.416  0.00  0.00     0.001 A 
ENDBRANCH   9  10
ENDBRANCH   6   8
ENDBRANCH   4   5
ENDBRANCH   3   4
ENDBRANCH   2   3
ENDBRANCH   1   2
BRANCH   1  18
ATOM     18  C   UNL d   1       8.752   4.378 -14.670  0.00  0.00     0.250 C 
BRANCH  18  19
ATOM     19  N   UNL d   1       9.051   4.900 -13.350  0.00  0.00     0.137 N 
ATOM     20  C   UNL d   1       7.903   5.704 -12.937  0.00  0.00     0.251 C 
ATOM     21  C   UNL d   1       8.188   6.320 -11.581  0.00  0.00     0.040 C 
ATOM     22  C   UNL d   1       8.414   5.293 -10.461  0.00  0.00     0.028 C 
ATOM     23  C   UNL d   1       9.477   4.364 -10.990  0.00  0.00     0.040 C 
ATOM     24  C   UNL d   1       9.217   3.804 -12.401  0.00  0.00     0.251 C 
BRANCH  22  25
ATOM     25  C   UNL d   1       8.902   5.974  -9.175  0.00  0.00    -0.002 A 
ATOM     26  C   UNL d   1      10.100   6.797  -8.937  0.00  0.00     0.017 A 
ATOM     27  C   UNL d   1      10.084   7.210  -7.576  0.00  0.00     0.081 A 
ATOM     28  C   UNL d   1      11.163   7.247  -9.724  0.00  0.00     0.029 A 
ATOM     29  N   UNL d   1       8.944   6.668  -7.038  0.00  0.00    -0.244 NA
ATOM     30  C   UNL d   1      11.105   8.038  -7.027  0.00  0.00     0.021 A 
ATOM     31  C   UNL d   1       8.264   5.949  -7.980  0.00  0.00     0.095 A 
ATOM     32  C   UNL d   1      12.172   8.442  -7.845  0.00  0.00     0.029 A 
ATOM     33  C   UNL d   1      12.200   8.045  -9.198  0.00  0.00     0.131 A 
ATOM     34  O   UNL d   1      13.240   8.373 -10.011  0.00  0.00    -0.190 OA
ENDBRANCH  22  25
ENDBRANCH  18  19
ENDBRANCH   1  18
TORSDOF 9
