REMARK  10 active torsions:
REMARK  status: ('A' for Active; 'I' for Inactive)
REMARK    1  A    between atoms: C_2  and  C_3 
REMARK       I    between atoms: C_2  and  N_15 
REMARK    2  A    between atoms: C_4  and  C_5 
REMARK    3  A    between atoms: N_15  and  C_16 
REMARK    4  A    between atoms: C_16  and  C_17 
REMARK    5  A    between atoms: C_17  and  C_18 
REMARK    6  A    between atoms: C_18  and  C_19 
REMARK    7  A    between atoms: C_19  and  N_20 
REMARK    8  A    between atoms: C_26  and  O_27 
REMARK    9  A    between atoms: O_27  and  S_28 
REMARK   10  A    between atoms: S_28  and  C_31 
ROOT
ATOM      1  C   UNL d   1       6.254   5.759 -12.463  0.00  0.00     0.251 C 
ENDROOT
BRANCH   1   2
ATOM      2  C   UNL d   1       7.586   6.507 -12.439  0.00  0.00     0.037 C 
BRANCH   2   3
ATOM      3  C   UNL d   1       7.426   8.013 -12.618  0.00  0.00     0.029 C 
BRANCH   3   4
ATOM      4  C   UNL d   1       8.793   8.729 -12.460  0.00  0.00     0.129 C 
BRANCH   4   5
ATOM      5  N   UNL d   1       9.209   8.864 -11.092  0.00  0.00    -0.234 NA
ATOM      6  C   UNL d   1       9.885   7.984 -10.350  0.00  0.00     0.275 C 
ATOM      7  O   UNL d   1      10.244   6.875 -10.758  0.00  0.00    -0.266 OA
BRANCH   6   8
ATOM      8  C   UNL d   1      10.121   8.520  -9.028  0.00  0.00     0.062 C 
ATOM      9  C   UNL d   1      10.725   7.752  -8.093  0.00  0.00     0.005 C 
BRANCH   9  10
ATOM     10  C   UNL d   1      11.034   8.181  -6.729  0.00  0.00     0.000 A 
ATOM     11  C   UNL d   1      11.423   7.216  -5.768  0.00  0.00     0.002 A 
ATOM     12  C   UNL d   1      11.709   7.628  -4.453  0.00  0.00     0.018 A 
ATOM     13  C   UNL d   1      11.600   8.991  -4.072  0.00  0.00     0.081 A 
ATOM     14  C   UNL d   1      12.106   6.682  -3.488  0.00  0.00     0.003 A 
ATOM     15  C   UNL d   1      11.191   9.928  -5.031  0.00  0.00     0.019 A 
ATOM     16  N   UNL d   1      11.874   9.410  -2.825  0.00  0.00    -0.244 NA
ATOM     17  C   UNL d   1      10.929   9.532  -6.344  0.00  0.00     0.002 A 
ATOM     18  C   UNL d   1      12.267   8.501  -1.914  0.00  0.00     0.099 A 
ATOM     19  C   UNL d   1      12.379   7.129  -2.191  0.00  0.00     0.021 A 
ENDBRANCH   9  10
ENDBRANCH   6   8
ENDBRANCH   4   5
ENDBRANCH   3   4
ENDBRANCH   2   3
ENDBRANCH   1   2
BRANCH   1  20
ATOM     20  N   UNL d   1       6.460   4.326 -12.673  0.00  0.00     0.142 N 
ATOM     21  C   UNL d   1       6.910   4.066 -14.040  0.00  0.00     0.277 C 
ATOM     22  C   UNL d   1       6.999   2.621 -14.421  0.00  0.00     0.009 A 
ATOM     23  C   UNL d   1       6.207   1.684 -13.741  0.00  0.00    -0.022 A 
ATOM     24  C   UNL d   1       7.776   2.239 -15.526  0.00  0.00     0.023 A 
ATOM     25  C   UNL d   1       5.333   2.150 -12.600  0.00  0.00     0.061 C 
ATOM     26  C   UNL d   1       6.195   0.342 -14.148  0.00  0.00    -0.002 A 
ATOM     27  C   UNL d   1       5.160   3.679 -12.543  0.00  0.00     0.255 C 
ATOM     28  C   UNL d   1       6.965  -0.033 -15.259  0.00  0.00     0.025 A 
ATOM     29  C   UNL d   1       7.764   0.901 -15.947  0.00  0.00     0.113 A 
BRANCH  29  30
ATOM     30  O   UNL d   1       8.529   0.522 -17.009  0.00  0.00    -0.224 OA
BRANCH  30  31
ATOM     31  S   UNL d   1      10.180   0.385 -16.693  0.00  0.00     0.374 S 
ATOM     32  O   UNL d   1      10.775   1.718 -16.818  0.00  0.00    -0.189 OA
ATOM     33  O   UNL d   1      10.315  -0.398 -15.447  0.00  0.00    -0.189 OA
BRANCH  31  34
ATOM     34  C   UNL d   1      10.678  -0.668 -18.126  0.00  0.00     0.524 C 
ATOM     35  F   UNL d   1      11.897  -0.305 -18.533  0.00  0.00    -0.155 F 
ATOM     36  F   UNL d   1      10.678  -1.940 -17.746  0.00  0.00    -0.155 F 
ATOM     37  F   UNL d   1       9.810  -0.494 -19.123  0.00  0.00    -0.155 F 
ENDBRANCH  31  34
ENDBRANCH  30  31
ENDBRANCH  29  30
ENDBRANCH   1  20
TORSDOF 10
