REMARK  5 active torsions:
REMARK  status: ('A' for Active; 'I' for Inactive)
REMARK    1  A    between atoms: C_2  and  C_3 
REMARK    2  A    between atoms: C_3  and  O_4 
REMARK    3  A    between atoms: O_4  and  C_5 
REMARK    4  A    between atoms: N_19  and  C_20 
REMARK    5  A    between atoms: C_20  and  C_21 
ROOT
ATOM      1  C   UNL d   1       6.880   3.210 -13.462  0.00  0.00     0.094 A 
ATOM      2  C   UNL d   1       6.285   4.112 -12.539  0.00  0.00     0.024 A 
ATOM      3  C   UNL d   1       6.976   5.262 -12.113  0.00  0.00     0.002 A 
ATOM      4  C   UNL d   1       8.258   5.522 -12.608  0.00  0.00    -0.004 A 
ATOM      5  C   UNL d   1       8.868   4.624 -13.509  0.00  0.00    -0.018 A 
ATOM      6  C   UNL d   1       8.210   3.447 -13.925  0.00  0.00     0.018 A 
ATOM      7  C   UNL d   1       8.962   2.521 -14.812  0.00  0.00    -0.001 A 
ATOM      8  C   UNL d   1       8.757   1.118 -14.834  0.00  0.00    -0.000 A 
ATOM      9  C   UNL d   1       9.464   0.245 -15.682  0.00  0.00    -0.000 A 
ATOM     10  C   UNL d   1      10.462   0.746 -16.528  0.00  0.00    -0.004 A 
ATOM     11  C   UNL d   1      10.764   2.116 -16.502  0.00  0.00    -0.022 A 
ATOM     12  C   UNL d   1      10.027   2.968 -15.637  0.00  0.00     0.005 A 
ATOM     13  C   UNL d   1      10.361   4.475 -15.559  0.00  0.00     0.245 C 
ATOM     14  C   UNL d   1      10.232   4.940 -14.084  0.00  0.00     0.064 C 
ATOM     15  N   UNL d   1      11.670   4.860 -16.128  0.00  0.00     0.140 N 
ATOM     16  C   UNL d   1      11.737   4.271 -17.462  0.00  0.00     0.255 C 
ATOM     17  C   UNL d   1      11.873   2.764 -17.304  0.00  0.00     0.061 C 
ENDROOT
BRANCH   1  18
ATOM     18  O   UNL d   1       6.218   2.099 -13.926  0.00  0.00    -0.326 OA
BRANCH  18  19
ATOM     19  C   UNL d   1       5.194   1.517 -13.124  0.00  0.00     0.175 C 
BRANCH  19  20
ATOM     20  C   UNL d   1       4.660   0.255 -13.775  0.00  0.00     0.006 C 
ATOM     21  C   UNL d   1       5.272  -0.435 -14.755  0.00  0.00    -0.002 C 
ENDBRANCH  19  20
ENDBRANCH  18  19
ENDBRANCH   1  18
BRANCH  15  22
ATOM     22  C   UNL d   1      11.864   6.307 -16.270  0.00  0.00     0.251 C 
BRANCH  22  23
ATOM     23  C   UNL d   1      13.348   6.663 -16.501  0.00  0.00     0.035 C 
ATOM     24  C   UNL d   1      13.546   8.165 -16.689  0.00  0.00     0.002 C 
ENDBRANCH  22  23
ENDBRANCH  15  22
TORSDOF 5
