REMARK  3 active torsions:
REMARK  status: ('A' for Active; 'I' for Inactive)
REMARK    1  A    between atoms: N_14  and  C_15 
REMARK    2  A    between atoms: C_15  and  C_16 
REMARK    3  A    between atoms: C_19  and  C_20 
ROOT
ATOM      1  O   UNL d   1      10.139   4.048 -13.355  0.00  0.00    -0.291 OA
ATOM      2  C   UNL d   1       8.961   4.239 -13.036  0.00  0.00     0.172 C 
ATOM      3  C   UNL d   1       7.891   3.331 -13.508  0.00  0.00     0.031 A 
ATOM      4  C   UNL d   1       8.195   2.187 -14.301  0.00  0.00     0.003 A 
ATOM      5  C   UNL d   1       7.177   1.244 -14.597  0.00  0.00     0.000 A 
ATOM      6  C   UNL d   1       5.883   1.421 -14.073  0.00  0.00    -0.000 A 
ATOM      7  C   UNL d   1       5.588   2.546 -13.278  0.00  0.00    -0.004 A 
ATOM      8  C   UNL d   1       6.572   3.506 -13.027  0.00  0.00    -0.019 A 
ATOM      9  C   UNL d   1       6.186   4.611 -12.082  0.00  0.00     0.027 C 
ATOM     10  C   UNL d   1       7.136   5.787 -12.204  0.00  0.00     0.012 C 
ATOM     11  C   UNL d   1       8.588   5.330 -11.978  0.00  0.00     0.060 C 
ATOM     12  C   UNL d   1       9.500   6.504 -12.211  0.00  0.00     0.043 C 
ATOM     13  C   UNL d   1       9.421   7.640 -11.182  0.00  0.00     0.251 C 
ATOM     14  N   UNL d   1       9.697   7.126  -9.826  0.00  0.00     0.141 N 
ATOM     15  C   UNL d   1       8.827   5.982  -9.487  0.00  0.00     0.251 C 
ATOM     16  C   UNL d   1       8.922   4.851 -10.526  0.00  0.00     0.043 C 
ENDROOT
BRANCH  14  17
ATOM     17  C   UNL d   1       9.517   8.228  -8.862  0.00  0.00     0.277 C 
BRANCH  17  18
ATOM     18  C   UNL d   1      10.178   8.010  -7.529  0.00  0.00     0.011 C 
ATOM     19  C   UNL d   1       9.649   7.066  -6.621  0.00  0.00    -0.002 C 
ATOM     20  C   UNL d   1      10.329   6.827  -5.408  0.00  0.00     0.004 C 
ATOM     21  C   UNL d   1      11.434   7.624  -5.015  0.00  0.00     0.071 C 
ATOM     22  C   UNL d   1      11.857   8.684  -5.876  0.00  0.00     0.004 C 
ATOM     23  C   UNL d   1      11.281   8.814  -7.153  0.00  0.00    -0.002 C 
BRANCH  21  24
ATOM     24  C   UNL d   1      12.123   7.366  -3.665  0.00  0.00     0.419 C 
ATOM     25  F   UNL d   1      11.578   8.048  -2.667  0.00  0.00    -0.166 F 
ATOM     26  F   UNL d   1      12.077   6.054  -3.367  0.00  0.00    -0.166 F 
ATOM     27  F   UNL d   1      13.379   7.773  -3.671  0.00  0.00    -0.166 F 
ENDBRANCH  21  24
ENDBRANCH  17  18
ENDBRANCH  14  17
TORSDOF 3
