REMARK  7 active torsions:
REMARK  status: ('A' for Active; 'I' for Inactive)
REMARK    1  A    between atoms: C_5  and  C_6 
REMARK    2  A    between atoms: C_8  and  C_9 
REMARK    3  A    between atoms: C_9  and  C_10 
REMARK    4  A    between atoms: C_10  and  C_11 
REMARK    5  A    between atoms: C_11  and  C_12 
REMARK    6  A    between atoms: C_12  and  N_13 
REMARK    7  A    between atoms: N_16  and  C_17 
ROOT
ATOM      1  C   UNL d   1       9.562   6.165 -12.151  0.00  0.00     0.009 C 
ENDROOT
BRANCH   1   2
ATOM      2  C   UNL d   1       8.887   4.812 -12.420  0.00  0.00     0.054 C 
BRANCH   2   3
ATOM      3  C   UNL d   1       9.608   3.992 -13.434  0.00  0.00     0.104 A 
ATOM      4  C   UNL d   1       9.207   3.007 -14.290  0.00  0.00     0.044 A 
ATOM      5  C   UNL d   1      10.403   2.648 -14.978  0.00  0.00     0.110 A 
ATOM      6  N   UNL d   1      11.435   3.360 -14.551  0.00  0.00    -0.127 NA
ATOM      7  O   UNL d   1      10.941   4.211 -13.564  0.00  0.00    -0.215 OA
BRANCH   5   8
ATOM      8  C   UNL d   1      10.594   1.642 -16.026  0.00  0.00     0.020 A 
ATOM      9  C   UNL d   1      11.682   1.739 -16.925  0.00  0.00     0.004 A 
ATOM     10  C   UNL d   1      11.859   0.779 -17.938  0.00  0.00     0.030 A 
ATOM     11  C   UNL d   1      10.950  -0.280 -18.058  0.00  0.00     0.140 A 
ATOM     12  F   UNL d   1      11.126  -1.201 -19.031  0.00  0.00    -0.204 F 
ATOM     13  C   UNL d   1       9.859  -0.387 -17.180  0.00  0.00     0.030 A 
ATOM     14  C   UNL d   1       9.679   0.576 -16.166  0.00  0.00     0.004 A 
ENDBRANCH   5   8
ENDBRANCH   2   3
ENDBRANCH   1   2
BRANCH   1  15
ATOM     15  C   UNL d   1       8.722   7.071 -11.270  0.00  0.00     0.036 C 
BRANCH  15  16
ATOM     16  C   UNL d   1       9.572   8.181 -10.589  0.00  0.00     0.250 C 
BRANCH  16  17
ATOM     17  N   UNL d   1      10.422   7.684  -9.503  0.00  0.00     0.141 N 
ATOM     18  C   UNL d   1       9.619   7.152  -8.385  0.00  0.00     0.274 C 
ATOM     19  C   UNL d   1      10.533   6.598  -7.290  0.00  0.00     0.137 C 
ATOM     20  N   UNL d   1      11.426   7.644  -6.837  0.00  0.00    -0.344 N 
ATOM     21  C   UNL d   1      12.193   8.319  -7.883  0.00  0.00     0.137 C 
ATOM     22  C   UNL d   1      11.244   8.798  -8.999  0.00  0.00     0.274 C 
BRANCH  20  23
ATOM     23  C   UNL d   1      11.507   7.957  -5.477  0.00  0.00     0.056 A 
ATOM     24  C   UNL d   1      11.687   6.919  -4.526  0.00  0.00     0.017 A 
ATOM     25  C   UNL d   1      11.862   7.211  -3.164  0.00  0.00     0.002 A 
ATOM     26  C   UNL d   1      11.864   8.546  -2.733  0.00  0.00     0.000 A 
ATOM     27  C   UNL d   1      11.664   9.585  -3.663  0.00  0.00     0.002 A 
ATOM     28  C   UNL d   1      11.519   9.298  -5.034  0.00  0.00     0.017 A 
ENDBRANCH  20  23
ENDBRANCH  16  17
ENDBRANCH  15  16
ENDBRANCH   1  15
TORSDOF 7
