REMARK  9 active torsions:
REMARK  status: ('A' for Active; 'I' for Inactive)
REMARK    1  A    between atoms: O_2  and  C_3 
REMARK    2  A    between atoms: C_4  and  O_5 
REMARK    3  A    between atoms: O_5  and  C_6 
REMARK    4  A    between atoms: C_6  and  C_7 
REMARK    5  A    between atoms: C_12  and  C_13 
REMARK    6  A    between atoms: C_13  and  C_15 
REMARK    7  A    between atoms: N_18  and  C_19 
REMARK    8  A    between atoms: C_19  and  C_20 
REMARK    9  A    between atoms: C_20  and  C_21 
ROOT
ATOM      1  C   UNL d   1       8.624   4.887 -12.809  0.00  0.00     0.066 C 
ATOM      2  C   UNL d   1       8.795   6.412 -12.793  0.00  0.00     0.043 C 
ATOM      3  C   UNL d   1       8.704   6.929 -11.359  0.00  0.00     0.251 C 
ATOM      4  N   UNL d   1       9.724   6.338 -10.498  0.00  0.00     0.137 N 
ATOM      5  C   UNL d   1       9.497   4.895 -10.428  0.00  0.00     0.251 C 
ATOM      6  C   UNL d   1       9.626   4.265 -11.834  0.00  0.00     0.043 C 
ENDROOT
BRANCH   1   7
ATOM      7  C   UNL d   1       8.826   4.289 -14.212  0.00  0.00     0.175 C 
ATOM      8  O   UNL d   1       9.428   4.912 -15.084  0.00  0.00    -0.291 OA
BRANCH   7   9
ATOM      9  C   UNL d   1       8.404   2.890 -14.423  0.00  0.00     0.059 A 
ATOM     10  C   UNL d   1       7.088   2.452 -14.140  0.00  0.00     0.119 A 
ATOM     11  C   UNL d   1       6.748   1.100 -14.408  0.00  0.00     0.116 A 
ATOM     12  C   UNL d   1       7.736   0.221 -14.925  0.00  0.00     0.026 A 
ATOM     13  C   UNL d   1       9.033   0.674 -15.213  0.00  0.00     0.002 A 
ATOM     14  C   UNL d   1       9.358   2.016 -14.983  0.00  0.00     0.005 A 
BRANCH  10  15
ATOM     15  O   UNL d   1       6.177   3.364 -13.635  0.00  0.00    -0.326 OA
ATOM     16  C   UNL d   1       5.373   2.946 -12.539  0.00  0.00     0.181 C 
ENDBRANCH  10  15
BRANCH  11  17
ATOM     17  O   UNL d   1       5.453   0.710 -14.161  0.00  0.00    -0.326 OA
BRANCH  17  18
ATOM     18  C   UNL d   1       5.033  -0.585 -14.541  0.00  0.00     0.187 C 
BRANCH  18  19
ATOM     19  C   UNL d   1       3.505  -0.599 -14.494  0.00  0.00     0.226 C 
ATOM     20  F   UNL d   1       3.067  -1.575 -15.278  0.00  0.00    -0.232 F 
ENDBRANCH  18  19
ENDBRANCH  17  18
ENDBRANCH  11  17
ENDBRANCH   7   9
ENDBRANCH   1   7
BRANCH   4  21
ATOM     21  C   UNL d   1       9.610   6.947  -9.171  0.00  0.00     0.255 C 
BRANCH  21  22
ATOM     22  C   UNL d   1      10.925   6.788  -8.397  0.00  0.00     0.062 C 
BRANCH  22  23
ATOM     23  C   UNL d   1      11.008   7.621  -7.134  0.00  0.00    -0.020 A 
ATOM     24  C   UNL d   1      11.307   7.025  -5.887  0.00  0.00    -0.002 A 
ATOM     25  C   UNL d   1      11.404   7.822  -4.730  0.00  0.00     0.029 A 
ATOM     26  C   UNL d   1      11.170   9.207  -4.813  0.00  0.00     0.140 A 
ATOM     27  C   UNL d   1      10.895   9.802  -6.058  0.00  0.00     0.029 A 
ATOM     28  F   UNL d   1      11.185   9.969  -3.696  0.00  0.00    -0.204 F 
ATOM     29  C   UNL d   1      10.823   9.013  -7.218  0.00  0.00    -0.002 A 
ENDBRANCH  22  23
ENDBRANCH  21  22
ENDBRANCH   4  21
TORSDOF 9
