REMARK  5 active torsions:
REMARK  status: ('A' for Active; 'I' for Inactive)
REMARK    1  A    between atoms: C_2  and  C_3 
REMARK    2  A    between atoms: C_3  and  C_4 
REMARK    3  A    between atoms: C_8  and  C_9 
REMARK    4  A    between atoms: N_13  and  C_14 
REMARK    5  A    between atoms: C_14  and  C_15 
ROOT
ATOM      1  C   UNL d   1      10.913   7.262  -8.168  0.00  0.00    -0.022 A 
ATOM      2  C   UNL d   1      11.507   8.478  -8.543  0.00  0.00    -0.004 A 
ATOM      3  C   UNL d   1      11.137   9.042  -9.817  0.00  0.00    -0.001 A 
ATOM      4  C   UNL d   1      10.240   8.369 -10.664  0.00  0.00    -0.004 A 
ATOM      5  C   UNL d   1       9.705   7.114 -10.294  0.00  0.00    -0.021 A 
ATOM      6  C   UNL d   1      10.021   6.573  -9.046  0.00  0.00    -0.009 A 
ENDROOT
BRANCH   5   7
ATOM      7  C   UNL d   1       8.769   6.374 -11.288  0.00  0.00     0.056 C 
ATOM      8  C   UNL d   1       9.562   5.887 -12.510  0.00  0.00     0.255 C 
ATOM      9  N   UNL d   1       8.713   5.160 -13.444  0.00  0.00     0.137 N 
ATOM     10  C   UNL d   1       8.078   4.011 -12.812  0.00  0.00     0.250 C 
ATOM     11  C   UNL d   1       7.178   4.467 -11.645  0.00  0.00     0.036 C 
ATOM     12  C   UNL d   1       8.048   5.210 -10.623  0.00  0.00     0.008 C 
BRANCH   9  13
ATOM     13  C   UNL d   1       9.513   4.757 -14.636  0.00  0.00     0.250 C 
BRANCH  13  14
ATOM     14  C   UNL d   1      10.298   3.443 -14.452  0.00  0.00     0.035 C 
ATOM     15  C   UNL d   1      11.223   3.120 -15.628  0.00  0.00     0.002 C 
ENDBRANCH  13  14
ENDBRANCH   9  13
ENDBRANCH   5   7
BRANCH   1  16
ATOM     16  C   UNL d   1      11.199   6.658  -6.809  0.00  0.00     0.026 C 
BRANCH  16  17
ATOM     17  C   UNL d   1      10.566   7.436  -5.640  0.00  0.00     0.005 C 
ATOM     18  C   UNL d   1      11.072   8.883  -5.497  0.00  0.00     0.000 C 
ENDBRANCH  16  17
ENDBRANCH   1  16
TORSDOF 5
