REMARK  9 active torsions:
REMARK  status: ('A' for Active; 'I' for Inactive)
REMARK    1  A    between atoms: O_2  and  C_3 
REMARK    2  A    between atoms: C_8  and  N_9 
REMARK    3  A    between atoms: N_12  and  C_13 
REMARK    4  A    between atoms: C_13  and  C_14 
REMARK    5  A    between atoms: C_14  and  C_15 
REMARK    6  A    between atoms: C_15  and  C_16 
REMARK    7  A    between atoms: C_16  and  C_17 
REMARK    8  A    between atoms: C_17  and  O_18 
REMARK    9  A    between atoms: O_18  and  C_19 
ROOT
ATOM      1  C   UNL d   1       9.447   6.096 -11.577  0.00  0.00     0.035 C 
ENDROOT
BRANCH   1   2
ATOM      2  C   UNL d   1       9.748   7.324 -10.720  0.00  0.00     0.250 C 
BRANCH   2   3
ATOM      3  N   UNL d   1      10.620   6.989  -9.599  0.00  0.00     0.141 N 
ATOM      4  C   UNL d   1       9.805   6.451  -8.491  0.00  0.00     0.274 C 
ATOM      5  C   UNL d   1      10.697   6.110  -7.290  0.00  0.00     0.137 C 
ATOM      6  N   UNL d   1      11.441   7.276  -6.880  0.00  0.00    -0.343 N 
ATOM      7  C   UNL d   1      12.205   7.918  -7.948  0.00  0.00     0.137 C 
ATOM      8  C   UNL d   1      11.286   8.217  -9.144  0.00  0.00     0.274 C 
BRANCH   6   9
ATOM      9  C   UNL d   1      11.453   7.682  -5.539  0.00  0.00     0.079 A 
ATOM     10  C   UNL d   1      11.375   9.044  -5.209  0.00  0.00     0.110 A 
ATOM     11  C   UNL d   1      11.547   9.446  -3.846  0.00  0.00     0.026 A 
ATOM     12  C   UNL d   1      11.836   8.513  -2.852  0.00  0.00     0.002 A 
ATOM     13  C   UNL d   1      11.904   7.153  -3.188  0.00  0.00     0.002 A 
ATOM     14  C   UNL d   1      11.734   6.750  -4.531  0.00  0.00     0.019 A 
BRANCH  10  15
ATOM     15  O   UNL d   1      11.132   9.923  -6.225  0.00  0.00    -0.327 OA
ATOM     16  C   UNL d   1      11.823  11.147  -6.133  0.00  0.00     0.181 C 
ENDBRANCH  10  15
ENDBRANCH   6   9
ENDBRANCH   2   3
ENDBRANCH   1   2
BRANCH   1  17
ATOM     17  C   UNL d   1       8.136   6.251 -12.355  0.00  0.00     0.005 C 
BRANCH  17  18
ATOM     18  C   UNL d   1       7.901   5.118 -13.352  0.00  0.00     0.033 C 
BRANCH  18  19
ATOM     19  C   UNL d   1       7.982   3.707 -12.744  0.00  0.00     0.149 C 
BRANCH  19  20
ATOM     20  O   UNL d   1       7.667   2.780 -13.773  0.00  0.00    -0.331 OA
BRANCH  20  21
ATOM     21  C   UNL d   1       8.665   2.336 -14.607  0.00  0.00     0.096 A 
ATOM     22  C   UNL d   1       8.358   1.250 -15.455  0.00  0.00     0.043 A 
ATOM     23  C   UNL d   1       9.305   0.788 -16.394  0.00  0.00     0.082 A 
ATOM     24  C   UNL d   1      10.578   1.403 -16.467  0.00  0.00    -0.004 A 
ATOM     25  N   UNL d   1       8.994  -0.276 -17.276  0.00  0.00    -0.212 NA
ATOM     26  C   UNL d   1      10.899   2.452 -15.606  0.00  0.00    -0.001 A 
ATOM     27  C   UNL d   1      11.594   0.906 -17.458  0.00  0.00     0.038 C 
ATOM     28  C   UNL d   1       9.963   2.921 -14.671  0.00  0.00     0.024 A 
ATOM     29  C   UNL d   1      10.919   0.323 -18.710  0.00  0.00     0.095 C 
ATOM     30  C   UNL d   1       9.721  -0.585 -18.364  0.00  0.00     0.256 C 
ATOM     31  O   UNL d   1       9.440  -1.540 -19.073  0.00  0.00    -0.270 OA
ENDBRANCH  20  21
ENDBRANCH  19  20
ENDBRANCH  18  19
ENDBRANCH  17  18
ENDBRANCH   1  17
TORSDOF 9
