REMARK  8 active torsions:
REMARK  status: ('A' for Active; 'I' for Inactive)
REMARK    1  A    between atoms: O_2  and  C_3 
REMARK    2  A    between atoms: C_7  and  O_8 
REMARK    3  A    between atoms: O_8  and  C_9 
REMARK    4  A    between atoms: C_9  and  C_10 
REMARK    5  A    between atoms: C_10  and  N_11 
REMARK    6  A    between atoms: N_11  and  C_12 
REMARK    7  A    between atoms: C_12  and  C_13 
REMARK       I    between atoms: N_17  and  C_18 
REMARK    8  A    between atoms: C_18  and  C_20 
ROOT
ATOM      1  C   UNL d   1       9.028   4.260 -13.865  0.00  0.00     0.172 C 
ATOM      2  F   UNL d   1       7.825   3.683 -14.082  0.00  0.00    -0.238 F 
ATOM      3  C   UNL d   1       9.408   4.988 -15.154  0.00  0.00     0.059 C 
ATOM      4  C   UNL d   1       9.621   4.019 -16.320  0.00  0.00     0.107 C 
ATOM      5  N   UNL d   1      10.619   3.006 -15.954  0.00  0.00    -0.317 N 
ATOM      6  C   UNL d   1      11.697   2.715 -16.707  0.00  0.00     0.257 C 
ATOM      7  O   UNL d   1      12.193   1.587 -16.760  0.00  0.00    -0.267 OA
ATOM      8  C   UNL d   1      10.250   2.219 -14.768  0.00  0.00     0.107 C 
ATOM      9  C   UNL d   1      10.061   3.165 -13.571  0.00  0.00     0.059 C 
ENDROOT
BRANCH   1  10
ATOM     10  C   UNL d   1       8.915   5.243 -12.686  0.00  0.00     0.323 C 
BRANCH  10  11
ATOM     11  N   UNL d   1       7.923   4.806 -11.720  0.00  0.00     0.345 N 
BRANCH  11  12
ATOM     12  C   UNL d   1       8.017   5.624 -10.519  0.00  0.00     0.323 C 
BRANCH  12  13
ATOM     13  C   UNL d   1       8.658   4.781  -9.399  0.00  0.00     0.187 C 
BRANCH  13  14
ATOM     14  O   UNL d   1       8.728   5.496  -8.179  0.00  0.00    -0.329 OA
BRANCH  14  15
ATOM     15  C   UNL d   1       9.601   6.553  -8.083  0.00  0.00     0.096 A 
ATOM     16  C   UNL d   1      10.369   7.035  -9.172  0.00  0.00     0.024 A 
ATOM     17  C   UNL d   1      11.198   8.157  -8.998  0.00  0.00     0.004 A 
ATOM     18  C   UNL d   1      11.308   8.766  -7.732  0.00  0.00     0.024 A 
ATOM     19  C   UNL d   1      10.573   8.272  -6.630  0.00  0.00     0.096 A 
ATOM     20  C   UNL d   1       9.708   7.181  -6.827  0.00  0.00     0.048 A 
BRANCH  19  21
ATOM     21  O   UNL d   1      10.661   8.780  -5.351  0.00  0.00    -0.328 OA
ATOM     22  C   UNL d   1      11.599   9.818  -5.126  0.00  0.00     0.181 C 
ENDBRANCH  19  21
ENDBRANCH  14  15
ENDBRANCH  13  14
ENDBRANCH  12  13
ENDBRANCH  11  12
ENDBRANCH  10  11
ENDBRANCH   1  10
BRANCH   6  23
ATOM     23  C   UNL d   1      12.342   3.827 -17.493  0.00  0.00     0.057 A 
ATOM     24  C   UNL d   1      12.592   5.077 -16.886  0.00  0.00     0.017 A 
ATOM     25  C   UNL d   1      13.214   6.111 -17.604  0.00  0.00     0.069 A 
ATOM     26  C   UNL d   1      13.623   5.891 -18.939  0.00  0.00     0.068 A 
ATOM     27 CL   UNL d   1      13.463   7.634 -16.829  0.00  0.00    -0.082 Cl
ATOM     28  C   UNL d   1      13.402   4.632 -19.537  0.00  0.00     0.012 A 
ATOM     29 CL   UNL d   1      14.398   7.138 -19.847  0.00  0.00    -0.082 Cl
ATOM     30  C   UNL d   1      12.768   3.604 -18.818  0.00  0.00     0.006 A 
ENDBRANCH   6  23
TORSDOF 8
