REMARK  8 active torsions:
REMARK  status: ('A' for Active; 'I' for Inactive)
REMARK    1  A    between atoms: N_2  and  C_3 
REMARK    2  A    between atoms: N_2  and  C_22 
REMARK    3  A    between atoms: C_3  and  C_4 
REMARK    4  A    between atoms: C_4  and  C_5 
REMARK    5  A    between atoms: C_5  and  C_6 
REMARK    6  A    between atoms: C_6  and  N_7 
REMARK       I    between atoms: N_7  and  C_8 
REMARK    7  A    between atoms: C_8  and  C_10 
REMARK    8  A    between atoms: C_13  and  C_14 
ROOT
ATOM      1  C   UNL d   1       9.217   4.482 -13.077  0.00  0.00     0.029 C 
ENDROOT
BRANCH   1   2
ATOM      2  C   UNL d   1       8.666   4.143 -14.465  0.00  0.00     0.037 C 
BRANCH   2   3
ATOM      3  C   UNL d   1       9.421   2.968 -15.118  0.00  0.00     0.250 C 
BRANCH   3   4
ATOM      4  N   UNL d   1       9.016   1.664 -14.583  0.00  0.00     0.137 N 
ATOM      5  C   UNL d   1      10.068   0.682 -14.855  0.00  0.00     0.285 C 
BRANCH   4   6
ATOM      6  C   UNL d   1       7.666   1.240 -15.013  0.00  0.00     0.224 C 
ATOM      7  C   UNL d   1       7.580   1.006 -16.535  0.00  0.00     0.059 C 
ATOM      8  C   UNL d   1       6.308   0.333 -16.995  0.00  0.00    -0.022 A 
ATOM      9  C   UNL d   1       5.447  -0.338 -16.091  0.00  0.00    -0.001 A 
ATOM     10  C   UNL d   1       6.028   0.335 -18.373  0.00  0.00    -0.004 A 
ATOM     11  C   UNL d   1       5.725  -0.347 -14.590  0.00  0.00     0.030 C 
ATOM     12  C   UNL d   1       4.315  -1.009 -16.595  0.00  0.00     0.127 A 
ATOM     13  C   UNL d   1       7.166   0.028 -14.223  0.00  0.00     0.038 C 
ATOM     14  O   UNL d   1       3.454  -1.640 -15.738  0.00  0.00    -0.191 OA
ATOM     15  C   UNL d   1       4.038  -1.003 -17.978  0.00  0.00     0.027 A 
ATOM     16  C   UNL d   1       4.895  -0.325 -18.869  0.00  0.00     0.002 A 
ENDBRANCH   4   6
ENDBRANCH   3   4
ENDBRANCH   2   3
ENDBRANCH   1   2
BRANCH   1  17
ATOM     17  C   UNL d   1       8.396   5.577 -12.387  0.00  0.00     0.129 C 
BRANCH  17  18
ATOM     18  N   UNL d   1       9.009   5.962 -11.126  0.00  0.00    -0.234 NA
ATOM     19  C   UNL d   1       9.463   7.185 -10.828  0.00  0.00     0.275 C 
ATOM     20  O   UNL d   1       9.498   8.120 -11.633  0.00  0.00    -0.266 OA
BRANCH  19  21
ATOM     21  C   UNL d   1       9.967   7.349  -9.418  0.00  0.00     0.058 A 
ATOM     22  C   UNL d   1      11.062   8.194  -9.136  0.00  0.00     0.005 A 
ATOM     23  C   UNL d   1      11.499   8.371  -7.808  0.00  0.00     0.000 A 
ATOM     24  C   UNL d   1      10.849   7.723  -6.733  0.00  0.00     0.000 A 
ATOM     25  C   UNL d   1       9.748   6.889  -7.021  0.00  0.00     0.000 A 
ATOM     26  C   UNL d   1       9.309   6.704  -8.345  0.00  0.00     0.005 A 
BRANCH  24  27
ATOM     27  C   UNL d   1      11.304   7.905  -5.340  0.00  0.00     0.000 A 
ATOM     28  C   UNL d   1      11.459   6.794  -4.479  0.00  0.00     0.000 A 
ATOM     29  C   UNL d   1      11.903   6.957  -3.151  0.00  0.00     0.000 A 
ATOM     30  C   UNL d   1      12.195   8.243  -2.664  0.00  0.00     0.000 A 
ATOM     31  C   UNL d   1      12.035   9.358  -3.506  0.00  0.00     0.000 A 
ATOM     32  C   UNL d   1      11.600   9.189  -4.835  0.00  0.00     0.000 A 
ENDBRANCH  24  27
ENDBRANCH  19  21
ENDBRANCH  17  18
ENDBRANCH   1  17
TORSDOF 8
