REMARK  4 active torsions:
REMARK  status: ('A' for Active; 'I' for Inactive)
REMARK    1  A    between atoms: C_4  and  C_5 
REMARK    2  A    between atoms: C_7  and  C_8 
REMARK    3  A    between atoms: C_8  and  N_9 
REMARK    4  A    between atoms: N_12  and  C_13 
ROOT
ATOM      1  N   UNL d   1       9.461   6.073 -11.874  0.00  0.00     0.141 N 
ATOM      2  C   UNL d   1       9.530   4.712 -11.350  0.00  0.00     0.274 C 
ATOM      3  C   UNL d   1      10.065   3.785 -12.453  0.00  0.00     0.138 C 
ATOM      4  N   UNL d   1       9.230   3.860 -13.631  0.00  0.00    -0.330 N 
ATOM      5  C   UNL d   1       8.941   5.199 -14.106  0.00  0.00     0.138 C 
ATOM      6  C   UNL d   1       8.453   6.085 -12.941  0.00  0.00     0.274 C 
ENDROOT
BRANCH   1   7
ATOM      7  C   UNL d   1       9.053   6.998 -10.826  0.00  0.00     0.251 C 
BRANCH   7   8
ATOM      8  C   UNL d   1      10.145   7.320  -9.827  0.00  0.00     0.038 A 
ATOM      9  C   UNL d   1      10.003   8.471  -8.839  0.00  0.00     0.024 A 
ATOM     10  C   UNL d   1      10.977   8.564  -9.987  0.00  0.00     0.007 A 
BRANCH   9  11
ATOM     11  C   UNL d   1      10.501   8.326  -7.435  0.00  0.00    -0.022 A 
ATOM     12  C   UNL d   1      11.241   9.363  -6.827  0.00  0.00    -0.004 A 
ATOM     13  C   UNL d   1      11.753   9.207  -5.524  0.00  0.00    -0.000 A 
ATOM     14  C   UNL d   1      11.538   8.003  -4.828  0.00  0.00    -0.000 A 
ATOM     15  C   UNL d   1      10.809   6.960  -5.430  0.00  0.00    -0.000 A 
ATOM     16  C   UNL d   1      10.283   7.128  -6.726  0.00  0.00    -0.004 A 
ENDBRANCH   9  11
ENDBRANCH   7   8
ENDBRANCH   1   7
BRANCH   4  17
ATOM     17  C   UNL d   1       8.636   2.734 -14.197  0.00  0.00     0.140 A 
ATOM     18  N   UNL d   1       7.287   2.721 -14.280  0.00  0.00    -0.227 NA
ATOM     19  C   UNL d   1       6.691   1.635 -14.810  0.00  0.00     0.101 A 
ATOM     20  C   UNL d   1       7.399   0.537 -15.329  0.00  0.00     0.021 A 
ATOM     21  C   UNL d   1       8.802   0.556 -15.258  0.00  0.00     0.005 A 
ATOM     22  C   UNL d   1       9.434   1.668 -14.670  0.00  0.00     0.037 A 
ENDBRANCH   4  17
TORSDOF 4
