REMARK  1 active torsions:
REMARK  status: ('A' for Active; 'I' for Inactive)
REMARK    1  A    between atoms: C_4  and  C_5 
ROOT
ATOM      1  O   UNL d   1      10.210   1.899 -17.444  0.00  0.00    -0.286 OA
ATOM      2  C   UNL d   1       9.317   1.937 -16.598  0.00  0.00     0.200 A 
ATOM      3  C   UNL d   1       9.346   2.902 -15.494  0.00  0.00     0.067 A 
ATOM      4  C   UNL d   1       8.351   2.963 -14.581  0.00  0.00     0.103 A 
ATOM      5  O   UNL d   1       7.296   2.082 -14.608  0.00  0.00    -0.307 OA
ATOM      6  C   UNL d   1       7.182   1.139 -15.604  0.00  0.00     0.103 A 
ATOM      7  C   UNL d   1       8.152   1.026 -16.624  0.00  0.00     0.062 A 
ATOM      8  C   UNL d   1       8.007   0.060 -17.642  0.00  0.00     0.005 A 
ATOM      9  C   UNL d   1       6.888  -0.795 -17.646  0.00  0.00     0.000 A 
ATOM     10  C   UNL d   1       5.915  -0.690 -16.631  0.00  0.00     0.002 A 
ATOM     11  C   UNL d   1       4.801  -1.550 -16.634  0.00  0.00     0.000 A 
ATOM     12  C   UNL d   1       3.824  -1.420 -15.634  0.00  0.00     0.000 A 
ATOM     13  C   UNL d   1       3.965  -0.472 -14.608  0.00  0.00     0.000 A 
ATOM     14  C   UNL d   1       5.095   0.363 -14.577  0.00  0.00     0.002 A 
ATOM     15  C   UNL d   1       6.066   0.274 -15.602  0.00  0.00     0.023 A 
ENDROOT
BRANCH   4  16
ATOM     16  C   UNL d   1       8.338   3.928 -13.464  0.00  0.00     0.023 A 
ATOM     17  C   UNL d   1       9.514   4.580 -13.030  0.00  0.00     0.002 A 
ATOM     18  C   UNL d   1       9.456   5.484 -11.951  0.00  0.00     0.000 A 
ATOM     19  C   UNL d   1       8.238   5.729 -11.303  0.00  0.00     0.000 A 
ATOM     20  C   UNL d   1       7.059   5.109 -11.751  0.00  0.00     0.000 A 
ATOM     21  C   UNL d   1       7.106   4.211 -12.832  0.00  0.00     0.002 A 
ENDBRANCH   4  16
TORSDOF 1
