REMARK  7 active torsions:
REMARK  status: ('A' for Active; 'I' for Inactive)
REMARK    1  A    between atoms: O_2  and  C_3 
REMARK    2  A    between atoms: C_6  and  O_7 
REMARK    3  A    between atoms: O_7  and  C_8 
REMARK    4  A    between atoms: C_8  and  C_9 
REMARK    5  A    between atoms: C_9  and  N_10 
REMARK       I    between atoms: N_13  and  C_14 
REMARK    6  A    between atoms: C_14  and  C_16 
REMARK    7  A    between atoms: C_19  and  O_20 
ROOT
ATOM      1  N   UNL d   1       9.547   6.339 -11.431  0.00  0.00     0.142 N 
ATOM      2  C   UNL d   1       9.581   6.694 -12.860  0.00  0.00     0.274 C 
ATOM      3  C   UNL d   1      10.149   5.512 -13.704  0.00  0.00     0.140 C 
ATOM      4  N   UNL d   1       9.229   4.415 -13.512  0.00  0.00    -0.313 N 
ATOM      5  C   UNL d   1       8.709   3.725 -14.543  0.00  0.00     0.257 C 
ATOM      6  O   UNL d   1       9.157   3.785 -15.687  0.00  0.00    -0.267 OA
ATOM      7  C   UNL d   1       9.175   4.055 -12.095  0.00  0.00     0.138 C 
ATOM      8  C   UNL d   1       8.618   5.220 -11.234  0.00  0.00     0.241 C 
ATOM      9  C   UNL d   1       8.510   4.758  -9.757  0.00  0.00     0.037 C 
ENDROOT
BRANCH   1  10
ATOM     10  C   UNL d   1       9.124   7.523 -10.692  0.00  0.00     0.283 C 
BRANCH  10  11
ATOM     11  C   UNL d   1      10.295   8.427 -10.304  0.00  0.00     0.184 C 
BRANCH  11  12
ATOM     12  O   UNL d   1       9.962   9.066  -9.070  0.00  0.00    -0.329 OA
BRANCH  12  13
ATOM     13  C   UNL d   1      10.397   8.521  -7.871  0.00  0.00     0.094 A 
ATOM     14  C   UNL d   1      10.537   9.392  -6.778  0.00  0.00     0.026 A 
ATOM     15  C   UNL d   1      11.016   8.975  -5.541  0.00  0.00     0.026 A 
ATOM     16  C   UNL d   1      11.369   7.622  -5.327  0.00  0.00     0.094 A 
ATOM     17  C   UNL d   1      11.215   6.720  -6.416  0.00  0.00     0.026 A 
ATOM     18  C   UNL d   1      10.723   7.158  -7.674  0.00  0.00     0.026 A 
BRANCH  16  19
ATOM     19  O   UNL d   1      11.856   7.120  -4.129  0.00  0.00    -0.328 OA
ATOM     20  C   UNL d   1      12.047   8.066  -3.075  0.00  0.00     0.181 C 
ENDBRANCH  16  19
ENDBRANCH  12  13
ENDBRANCH  11  12
ENDBRANCH  10  11
ENDBRANCH   1  10
BRANCH   5  21
ATOM     21  C   UNL d   1       7.561   2.789 -14.281  0.00  0.00     0.056 A 
ATOM     22  C   UNL d   1       6.486   3.175 -13.449  0.00  0.00     0.007 A 
ATOM     23  C   UNL d   1       5.474   2.238 -13.139  0.00  0.00     0.024 A 
ATOM     24  C   UNL d   1       5.474   0.953 -13.745  0.00  0.00     0.094 A 
ATOM     25  C   UNL d   1       6.538   0.599 -14.604  0.00  0.00     0.024 A 
ATOM     26  C   UNL d   1       7.564   1.509 -14.873  0.00  0.00     0.007 A 
BRANCH  24  27
ATOM     27  O   UNL d   1       4.417   0.115 -13.447  0.00  0.00    -0.328 OA
ATOM     28  C   UNL d   1       4.189  -0.988 -14.323  0.00  0.00     0.181 C 
ENDBRANCH  24  27
ENDBRANCH   5  21
TORSDOF 7
