REMARK  6 active torsions:
REMARK  status: ('A' for Active; 'I' for Inactive)
REMARK    1  A    between atoms: C_5  and  C_6 
REMARK    2  A    between atoms: C_6  and  S_7 
REMARK    3  A    between atoms: S_7  and  C_8 
REMARK    4  A    between atoms: C_8  and  C_9 
REMARK    5  A    between atoms: C_8  and  C_15 
REMARK    6  A    between atoms: C_9  and  N_10 
ROOT
ATOM      1  C   UNL d   1       8.895   3.200 -13.780  0.00  0.00     0.093 C 
ENDROOT
BRANCH   1   2
ATOM      2  S   UNL d   1       9.745   4.551 -12.883  0.00  0.00    -0.130 SA
BRANCH   2   3
ATOM      3  C   UNL d   1       8.535   5.010 -11.616  0.00  0.00     0.084 C 
BRANCH   3   4
ATOM      4  C   UNL d   1       9.179   5.844 -10.509  0.00  0.00    -0.011 A 
ATOM      5  C   UNL d   1       9.308   5.287  -9.233  0.00  0.00    -0.003 A 
ATOM      6  C   UNL d   1       9.846   6.058  -8.190  0.00  0.00     0.011 A 
ATOM      7  C   UNL d   1      10.245   7.387  -8.429  0.00  0.00     0.058 A 
ATOM      8 CL   UNL d   1      10.914   8.322  -7.146  0.00  0.00    -0.082 Cl
ATOM      9  C   UNL d   1      10.101   7.944  -9.717  0.00  0.00     0.011 A 
ATOM     10  C   UNL d   1       9.559   7.175 -10.761  0.00  0.00    -0.003 A 
ENDBRANCH   3   4
ENDBRANCH   2   3
ENDBRANCH   1   2
BRANCH   1  11
ATOM     11  C   UNL d   1       7.341   3.338 -13.775  0.00  0.00     0.123 C 
BRANCH  11  12
ATOM     12  N   UNL d   1       6.640   2.110 -14.092  0.00  0.00    -0.307 N 
ATOM     13  C   UNL d   1       5.820   1.447 -13.255  0.00  0.00     0.179 A 
ATOM     14  N   UNL d   1       5.303   0.340 -13.787  0.00  0.00    -0.223 NA
ATOM     15  C   UNL d   1       5.836   0.296 -15.074  0.00  0.00     0.119 A 
ATOM     16  C   UNL d   1       6.652   1.397 -15.278  0.00  0.00     0.098 A 
ENDBRANCH  11  12
ENDBRANCH   1  11
BRANCH   1  17
ATOM     17  C   UNL d   1       9.481   3.101 -15.189  0.00  0.00     0.000 A 
ATOM     18  C   UNL d   1       9.961   1.886 -15.747  0.00  0.00     0.056 A 
ATOM     19  C   UNL d   1      10.412   1.844 -17.085  0.00  0.00     0.022 A 
ATOM     20 CL   UNL d   1       9.936   0.395 -14.869  0.00  0.00    -0.083 Cl
ATOM     21  C   UNL d   1      10.415   3.009 -17.874  0.00  0.00     0.059 A 
ATOM     22  C   UNL d   1       9.960   4.219 -17.328  0.00  0.00     0.011 A 
ATOM     23 CL   UNL d   1      10.973   2.948 -19.506  0.00  0.00    -0.082 Cl
ATOM     24  C   UNL d   1       9.508   4.263 -15.996  0.00  0.00    -0.002 A 
ENDBRANCH   1  17
TORSDOF 6
