REMARK  4 active torsions:
REMARK  status: ('A' for Active; 'I' for Inactive)
REMARK    1  A    between atoms: C_5  and  N_6 
REMARK    2  A    between atoms: N_9  and  C_10 
REMARK    3  A    between atoms: C_10  and  C_11 
REMARK    4  A    between atoms: C_15  and  N_16 
ROOT
ATOM      1  C   UNL d   1       8.416   5.654 -11.666  0.00  0.00     0.113 A 
ATOM      2  C   UNL d   1       8.490   5.374 -10.324  0.00  0.00     0.119 A 
ATOM      3  N   UNL d   1       9.268   6.371  -9.751  0.00  0.00    -0.208 N 
ATOM      4  N   UNL d   1       9.609   6.485  -8.432  0.00  0.00    -0.146 NA
ATOM      5  C   UNL d   1      10.374   7.558  -8.172  0.00  0.00     0.160 A 
ATOM      6  C   UNL d   1      10.833   8.476  -9.165  0.00  0.00     0.042 A 
ATOM      7  C   UNL d   1      10.445   8.319 -10.461  0.00  0.00     0.042 A 
ATOM      8  C   UNL d   1       9.635   7.224 -10.814  0.00  0.00     0.164 A 
ATOM      9  N   UNL d   1       9.137   6.796 -11.971  0.00  0.00    -0.228 NA
ENDROOT
BRANCH   1  10
ATOM     10  C   UNL d   1       7.683   4.923 -12.744  0.00  0.00     0.297 C 
BRANCH  10  11
ATOM     11  N   UNL d   1       8.233   3.665 -13.243  0.00  0.00     0.147 N 
ATOM     12  C   UNL d   1       9.417   3.915 -14.073  0.00  0.00     0.275 C 
ATOM     13  C   UNL d   1      10.036   2.588 -14.551  0.00  0.00     0.137 C 
ATOM     14  N   UNL d   1       9.023   1.785 -15.237  0.00  0.00    -0.344 N 
ATOM     15  C   UNL d   1       7.785   1.587 -14.491  0.00  0.00     0.137 C 
ATOM     16  C   UNL d   1       7.224   2.939 -14.013  0.00  0.00     0.275 C 
BRANCH  14  17
ATOM     17  C   UNL d   1       9.203   1.292 -16.541  0.00  0.00     0.057 A 
ATOM     18  C   UNL d   1       8.101   1.145 -17.422  0.00  0.00     0.018 A 
ATOM     19  C   UNL d   1       8.283   0.639 -18.723  0.00  0.00     0.014 A 
ATOM     20  C   UNL d   1       9.565   0.277 -19.167  0.00  0.00     0.068 A 
ATOM     21 CL   UNL d   1       9.757  -0.337 -20.771  0.00  0.00    -0.082 Cl
ATOM     22  C   UNL d   1      10.673   0.419 -18.310  0.00  0.00     0.070 A 
ATOM     23  C   UNL d   1      10.492   0.925 -17.004  0.00  0.00     0.029 A 
ATOM     24 CL   UNL d   1      12.259  -0.027 -18.829  0.00  0.00    -0.081 Cl
ENDBRANCH  14  17
ENDBRANCH  10  11
ENDBRANCH   1  10
BRANCH   5  25
ATOM     25  N   UNL d   1      10.733   7.743  -6.835  0.00  0.00    -0.333 N 
ATOM     26  C   UNL d   1      11.328   6.593  -6.154  0.00  0.00     0.103 C 
ATOM     27  C   UNL d   1      11.344   6.792  -4.623  0.00  0.00     0.024 C 
ATOM     28  C   UNL d   1      11.952   8.141  -4.177  0.00  0.00     0.004 C 
ATOM     29  C   UNL d   1      11.308   9.287  -4.955  0.00  0.00     0.024 C 
ATOM     30  C   UNL d   1      11.324   9.034  -6.463  0.00  0.00     0.103 C 
ENDBRANCH   5  25
TORSDOF 4
