REMARK  7 active torsions:
REMARK  status: ('A' for Active; 'I' for Inactive)
REMARK    1  A    between atoms: C_2  and  C_4 
REMARK    2  A    between atoms: C_6  and  N_7 
REMARK       I    between atoms: N_7  and  C_8 
REMARK       I    between atoms: C_8  and  N_10 
REMARK    3  A    between atoms: N_10  and  C_11 
REMARK       I    between atoms: N_13  and  C_14 
REMARK    4  A    between atoms: C_19  and  C_20 
REMARK    5  A    between atoms: C_20  and  N_21 
REMARK    6  A    between atoms: C_25  and  C_26 
REMARK    7  A    between atoms: C_26  and  C_27 
ROOT
ATOM      1  C   UNL d   1      12.808   1.350 -19.552  0.00  0.00     0.132 C 
ATOM      2  C   UNL d   1      13.409   1.227 -20.970  0.00  0.00     0.129 C 
ATOM      3  N   UNL d   1      13.398  -0.176 -21.421  0.00  0.00    -0.318 N 
ATOM      4  C   UNL d   1      14.486  -0.860 -21.832  0.00  0.00     0.234 C 
ATOM      5  C   UNL d   1      15.853  -0.167 -21.815  0.00  0.00     0.098 C 
ATOM      6  O   UNL d   1      14.439  -2.027 -22.232  0.00  0.00    -0.272 OA
ATOM      7  C   UNL d   1      12.045  -0.752 -21.456  0.00  0.00     0.104 C 
ATOM      8  C   UNL d   1      11.405  -0.680 -20.062  0.00  0.00     0.028 C 
ATOM      9  C   UNL d   1      11.380   0.759 -19.505  0.00  0.00     0.060 C 
ENDROOT
BRANCH   9  10
ATOM     10  C   UNL d   1      10.818   0.793 -18.071  0.00  0.00     0.252 C 
BRANCH  10  11
ATOM     11  N   UNL d   1       9.364   0.937 -17.991  0.00  0.00     0.137 N 
ATOM     12  C   UNL d   1       9.047   1.072 -16.569  0.00  0.00     0.251 C 
ATOM     13  C   UNL d   1       7.551   1.335 -16.332  0.00  0.00     0.038 C 
ATOM     14  C   UNL d   1       6.699   0.222 -16.968  0.00  0.00     0.004 C 
ATOM     15  C   UNL d   1       7.128   0.014 -18.430  0.00  0.00     0.035 C 
ATOM     16  C   UNL d   1       8.644  -0.198 -18.566  0.00  0.00     0.250 C 
BRANCH  13  17
ATOM     17  C   UNL d   1       7.229   1.456 -14.827  0.00  0.00     0.028 C 
BRANCH  17  18
ATOM     18  C   UNL d   1       7.827   2.675 -14.134  0.00  0.00    -0.022 A 
ATOM     19  C   UNL d   1       6.980   3.686 -13.633  0.00  0.00    -0.002 A 
ATOM     20  C   UNL d   1       7.525   4.805 -12.973  0.00  0.00     0.029 A 
ATOM     21  C   UNL d   1       8.920   4.936 -12.842  0.00  0.00     0.140 A 
ATOM     22  C   UNL d   1       9.770   3.927 -13.342  0.00  0.00     0.029 A 
ATOM     23  F   UNL d   1       9.448   6.018 -12.221  0.00  0.00    -0.204 F 
ATOM     24  C   UNL d   1       9.225   2.789 -13.957  0.00  0.00    -0.002 A 
ENDBRANCH  17  18
ENDBRANCH  13  17
ENDBRANCH  10  11
ENDBRANCH   9  10
BRANCH   1  25
ATOM     25  N   UNL d   1      12.807   2.752 -19.132  0.00  0.00    -0.217 NA
ATOM     26  C   UNL d   1      13.898   3.492 -18.887  0.00  0.00     0.366 C 
ATOM     27  N   UNL d   1      13.593   4.782 -18.674  0.00  0.00    -0.166 NA
ATOM     28  O   UNL d   1      15.046   3.031 -18.901  0.00  0.00    -0.243 OA
BRANCH  27  29
ATOM     29  C   UNL d   1      14.474   5.890 -18.652  0.00  0.00     0.198 A 
ATOM     30  S   UNL d   1      13.914   7.519 -18.958  0.00  0.00    -0.044 SA
ATOM     31  C   UNL d   1      15.556   8.086 -18.732  0.00  0.00     0.081 A 
ATOM     32  C   UNL d   1      16.415   7.048 -18.440  0.00  0.00     0.070 A 
ATOM     33  N   UNL d   1      15.784   5.800 -18.412  0.00  0.00    -0.225 NA
ATOM     34  C   UNL d   1      17.882   7.110 -18.145  0.00  0.00     0.053 C 
BRANCH  31  35
ATOM     35  C   UNL d   1      15.830   9.523 -18.839  0.00  0.00     0.181 C 
ATOM     36  C   UNL d   1      14.693  10.475 -19.200  0.00  0.00     0.078 C 
ATOM     37  O   UNL d   1      16.945   9.979 -18.637  0.00  0.00    -0.291 OA
ENDBRANCH  31  35
ENDBRANCH  27  29
ENDBRANCH   1  25
TORSDOF 7
