REMARK  7 active torsions:
REMARK  status: ('A' for Active; 'I' for Inactive)
REMARK    1  A    between atoms: C_3  and  S_4 
REMARK    2  A    between atoms: S_4  and  C_5 
REMARK    3  A    between atoms: C_5  and  C_6 
REMARK    4  A    between atoms: C_6  and  C_7 
REMARK    5  A    between atoms: C_7  and  N_8 
REMARK    6  A    between atoms: C_16  and  C_17 
REMARK    7  A    between atoms: C_28  and  C_29 
ROOT
ATOM      1  N   UNL d   1      11.055   4.152 -15.793  0.00  0.00     0.138 N 
ATOM      2  C   UNL d   1      11.273   3.338 -16.992  0.00  0.00     0.255 C 
ATOM      3  C   UNL d   1      12.759   3.070 -17.293  0.00  0.00     0.061 C 
ATOM      4  C   UNL d   1      13.441   4.206 -18.036  0.00  0.00    -0.022 A 
ATOM      5  C   UNL d   1      13.976   3.959 -19.323  0.00  0.00    -0.002 A 
ATOM      6  C   UNL d   1      14.600   4.992 -20.047  0.00  0.00     0.026 A 
ATOM      7  C   UNL d   1      14.673   6.264 -19.457  0.00  0.00     0.119 A 
ATOM      8  O   UNL d   1      15.229   7.420 -19.969  0.00  0.00    -0.285 OA
ATOM      9  C   UNL d   1      15.014   8.339 -18.974  0.00  0.00     0.256 A 
ATOM     10  N   UNL d   1      14.369   7.884 -17.889  0.00  0.00    -0.217 NA
ATOM     11  C   UNL d   1      14.149   6.548 -18.177  0.00  0.00     0.102 A 
ATOM     12  C   UNL d   1      13.532   5.497 -17.455  0.00  0.00    -0.004 A 
ATOM     13  C   UNL d   1      12.964   5.765 -16.071  0.00  0.00     0.063 C 
ATOM     14  C   UNL d   1      11.448   5.553 -15.977  0.00  0.00     0.255 C 
ENDROOT
BRANCH   1  15
ATOM     15  C   UNL d   1       9.632   4.114 -15.443  0.00  0.00     0.251 C 
BRANCH  15  16
ATOM     16  C   UNL d   1       9.433   4.265 -13.926  0.00  0.00     0.047 C 
BRANCH  16  17
ATOM     17  C   UNL d   1       7.952   4.492 -13.572  0.00  0.00     0.067 C 
BRANCH  17  18
ATOM     18  S   UNL d   1       7.610   4.478 -11.789  0.00  0.00    -0.075 SA
BRANCH  18  19
ATOM     19  C   UNL d   1       8.588   5.843 -11.245  0.00  0.00     0.193 A 
ATOM     20  N   UNL d   1       9.035   5.942  -9.977  0.00  0.00    -0.289 N 
ATOM     21  C   UNL d   1       8.819   5.041  -8.854  0.00  0.00     0.134 C 
ATOM     22  C   UNL d   1       9.693   7.120 -10.006  0.00  0.00     0.167 A 
ATOM     23  N   UNL d   1       9.691   7.696 -11.214  0.00  0.00    -0.128 NA
ATOM     24  N   UNL d   1       8.959   6.862 -12.025  0.00  0.00    -0.122 NA
BRANCH  22  25
ATOM     25  C   UNL d   1      10.324   7.748  -8.856  0.00  0.00     0.036 A 
ATOM     26  C   UNL d   1      11.669   8.163  -8.938  0.00  0.00     0.003 A 
ATOM     27  C   UNL d   1      12.283   8.771  -7.830  0.00  0.00     0.000 A 
ATOM     28  C   UNL d   1      11.552   8.996  -6.647  0.00  0.00     0.000 A 
ATOM     29  C   UNL d   1      10.209   8.586  -6.566  0.00  0.00     0.000 A 
ATOM     30  C   UNL d   1       9.594   7.967  -7.670  0.00  0.00     0.003 A 
ENDBRANCH  22  25
ENDBRANCH  18  19
ENDBRANCH  17  18
ENDBRANCH  16  17
ENDBRANCH  15  16
ENDBRANCH   1  15
BRANCH   9  31
ATOM     31  C   UNL d   1      15.485   9.745 -19.203  0.00  0.00     0.458 C 
ATOM     32  F   UNL d   1      16.651   9.747 -19.852  0.00  0.00    -0.163 F 
ATOM     33  F   UNL d   1      14.600  10.419 -19.930  0.00  0.00    -0.163 F 
ATOM     34  F   UNL d   1      15.658  10.383 -18.043  0.00  0.00    -0.163 F 
ENDBRANCH   9  31
TORSDOF 7
