REMARK  9 active torsions:
REMARK  status: ('A' for Active; 'I' for Inactive)
REMARK    1  A    between atoms: O_2  and  C_3 
REMARK    2  A    between atoms: C_8  and  C_9 
REMARK    3  A    between atoms: C_11  and  C_12 
REMARK    4  A    between atoms: C_12  and  N_13 
REMARK    5  A    between atoms: N_13  and  C_14 
REMARK    6  A    between atoms: C_14  and  C_15 
REMARK    7  A    between atoms: C_16  and  C_17 
REMARK    8  A    between atoms: C_17  and  O_18 
REMARK    9  A    between atoms: O_18  and  C_19 
ROOT
ATOM      1  C   UNL d   1       9.924   8.280 -11.041  0.00  0.00     0.009 C 
ATOM      2  C   UNL d   1      10.575   8.207  -9.884  0.00  0.00     0.004 C 
ENDROOT
BRANCH   1   3
ATOM      3  C   UNL d   1       9.048   7.130 -11.491  0.00  0.00     0.316 C 
BRANCH   3   4
ATOM      4  N   UNL d   1       9.593   6.586 -12.709  0.00  0.00     0.344 N 
BRANCH   4   5
ATOM      5  C   UNL d   1       8.958   5.362 -13.046  0.00  0.00     0.291 C 
BRANCH   5   6
ATOM      6  C   UNL d   1       9.481   4.760 -14.343  0.00  0.00     0.041 A 
ATOM      7  C   UNL d   1       8.759   3.588 -14.995  0.00  0.00     0.026 A 
ATOM      8  C   UNL d   1      10.093   3.374 -14.331  0.00  0.00     0.007 A 
BRANCH   7   9
ATOM      9  C   UNL d   1       7.503   2.981 -14.420  0.00  0.00    -0.000 C 
ATOM     10  C   UNL d   1       7.272   1.590 -14.498  0.00  0.00     0.090 C 
ATOM     11  C   UNL d   1       6.094   1.062 -13.909  0.00  0.00     0.024 C 
ATOM     12  C   UNL d   1       5.205   1.895 -13.214  0.00  0.00     0.002 C 
ATOM     13  C   UNL d   1       5.427   3.271 -13.126  0.00  0.00    -0.000 C 
ATOM     14  C   UNL d   1       6.520   3.800 -13.807  0.00  0.00    -0.002 C 
BRANCH  10  15
ATOM     15  O   UNL d   1       8.204   0.810 -15.121  0.00  0.00    -0.328 OA
ATOM     16  C   UNL d   1       7.705  -0.046 -16.137  0.00  0.00     0.181 C 
ENDBRANCH  10  15
ENDBRANCH   7   9
ENDBRANCH   5   6
ENDBRANCH   4   5
ENDBRANCH   3   4
ENDBRANCH   1   3
BRANCH   2  17
ATOM     17  C   UNL d   1      11.466   9.274  -9.254  0.00  0.00     0.175 C 
BRANCH  17  18
ATOM     18  O   UNL d   1      11.078   9.723  -7.951  0.00  0.00    -0.326 OA
BRANCH  18  19
ATOM     19  C   UNL d   1      11.229   8.920  -6.859  0.00  0.00     0.096 C 
ATOM     20  C   UNL d   1      11.849   9.437  -5.699  0.00  0.00     0.043 C 
ATOM     21  C   UNL d   1      11.972   8.602  -4.566  0.00  0.00     0.082 C 
ATOM     22  C   UNL d   1      11.517   7.276  -4.615  0.00  0.00    -0.004 C 
ATOM     23  N   UNL d   1      12.611   9.061  -3.400  0.00  0.00    -0.212 NA
ATOM     24  C   UNL d   1      10.873   6.791  -5.743  0.00  0.00    -0.001 C 
ATOM     25  C   UNL d   1      11.735   6.372  -3.447  0.00  0.00     0.038 C 
ATOM     26  C   UNL d   1      10.665   7.625  -6.832  0.00  0.00     0.024 C 
ATOM     27  C   UNL d   1      11.729   7.136  -2.135  0.00  0.00     0.095 C 
ATOM     28  C   UNL d   1      12.578   8.400  -2.232  0.00  0.00     0.256 C 
ATOM     29  O   UNL d   1      13.174   8.809  -1.254  0.00  0.00    -0.270 OA
ENDBRANCH  18  19
ENDBRANCH  17  18
ENDBRANCH   2  17
TORSDOF 9
