REMARK  7 active torsions:
REMARK  status: ('A' for Active; 'I' for Inactive)
REMARK    1  A    between atoms: N_12  and  C_13 
REMARK    2  A    between atoms: C_13  and  C_14 
REMARK    3  A    between atoms: C_14  and  C_15 
REMARK    4  A    between atoms: C_15  and  C_16 
REMARK    5  A    between atoms: C_16  and  N_17 
REMARK    6  A    between atoms: N_17  and  C_18 
REMARK    7  A    between atoms: C_18  and  C_19 
ROOT
ATOM      1  C   UNL d   1       8.472   5.541 -13.044  0.00  0.00     0.027 C 
ENDROOT
BRANCH   1   2
ATOM      2  C   UNL d   1       8.676   4.022 -12.890  0.00  0.00     0.112 C 
BRANCH   2   3
ATOM      3  N   UNL d   1       8.803   3.361 -14.186  0.00  0.00    -0.271 N 
ATOM      4  C   UNL d   1       9.969   3.517 -14.885  0.00  0.00     0.239 C 
ATOM      5  O   UNL d   1      10.920   4.167 -14.447  0.00  0.00    -0.272 OA
ATOM      6  C   UNL d   1      10.138   2.898 -16.279  0.00  0.00     0.089 C 
ATOM      7  C   UNL d   1       9.286   1.630 -16.462  0.00  0.00     0.018 C 
ATOM      8  C   UNL d   1       9.263   1.172 -17.944  0.00  0.00     0.001 C 
ATOM      9  C   UNL d   1       9.888   0.420 -15.677  0.00  0.00     0.001 C 
ATOM     10  C   UNL d   1       7.854   1.929 -16.018  0.00  0.00     0.089 C 
ATOM     11  C   UNL d   1       9.475  -0.334 -17.927  0.00  0.00     0.000 C 
ATOM     12  C   UNL d   1      10.333  -0.577 -16.691  0.00  0.00     0.000 C 
ATOM     13  C   UNL d   1       7.767   2.607 -14.628  0.00  0.00     0.239 C 
ATOM     14  O   UNL d   1       6.696   2.439 -14.031  0.00  0.00    -0.272 OA
ENDBRANCH   2   3
ENDBRANCH   1   2
BRANCH   1  15
ATOM     15  C   UNL d   1       8.362   6.271 -11.700  0.00  0.00     0.040 C 
BRANCH  15  16
ATOM     16  C   UNL d   1       9.546   5.972 -10.767  0.00  0.00     0.290 C 
BRANCH  16  17
ATOM     17  N   UNL d   1       9.463   6.793  -9.586  0.00  0.00     0.339 N 
BRANCH  17  18
ATOM     18  C   UNL d   1      10.457   6.391  -8.620  0.00  0.00     0.293 C 
BRANCH  18  19
ATOM     19  C   UNL d   1      10.360   7.273  -7.371  0.00  0.00     0.071 C 
ATOM     20  C   UNL d   1      11.247   6.718  -6.249  0.00  0.00     0.033 C 
ATOM     21  C   UNL d   1      11.460   7.707  -5.131  0.00  0.00     0.000 A 
ATOM     22  C   UNL d   1      11.141   9.064  -5.339  0.00  0.00     0.090 A 
ATOM     23  C   UNL d   1      11.970   7.270  -3.891  0.00  0.00    -0.002 A 
ATOM     24  O   UNL d   1      10.648   9.558  -6.521  0.00  0.00    -0.331 OA
ATOM     25  C   UNL d   1      11.310   9.968  -4.278  0.00  0.00     0.024 A 
ATOM     26  C   UNL d   1      10.792   8.723  -7.660  0.00  0.00     0.151 C 
ATOM     27  C   UNL d   1      11.857   9.545  -3.053  0.00  0.00     0.002 A 
ATOM     28  C   UNL d   1      12.181   8.193  -2.851  0.00  0.00    -0.000 A 
ENDBRANCH  18  19
ENDBRANCH  17  18
ENDBRANCH  16  17
ENDBRANCH  15  16
ENDBRANCH   1  15
TORSDOF 7
