REMARK  4 active torsions:
REMARK  status: ('A' for Active; 'I' for Inactive)
REMARK    1  A    between atoms: N_5  and  C_6 
REMARK    2  A    between atoms: C_11  and  C_12 
REMARK    3  A    between atoms: C_12  and  O_13 
REMARK    4  A    between atoms: O_13  and  C_14 
ROOT
ATOM      1  C   UNL d   1      10.431   7.788  -7.581  0.00  0.00     0.744 A 
ATOM      2  N   UNL d   1      11.195   8.609  -8.302  0.00  0.00     0.134 NA
ATOM      3  C   UNL d   1      11.052   8.411  -9.601  0.00  0.00     0.785 A 
ATOM      4  N   UNL d   1      11.830   9.174 -10.410  0.00  0.00     0.063 N 
ATOM      5  N   UNL d   1      10.262   7.543 -10.222  0.00  0.00    -0.039 NA
ATOM      6  C   UNL d   1       9.562   6.788  -9.372  0.00  0.00     0.206 A 
ATOM      7  N   UNL d   1       9.603   6.845  -8.040  0.00  0.00    -0.043 NA
ENDROOT
BRANCH   6   8
ATOM      8  C   UNL d   1       8.597   5.803 -10.010  0.00  0.00     0.215 C 
BRANCH   8   9
ATOM      9  O   UNL d   1       9.211   5.072 -11.072  0.00  0.00    -0.323 OA
BRANCH   9  10
ATOM     10  C   UNL d   1       8.402   4.485 -12.019  0.00  0.00     0.095 A 
ATOM     11  C   UNL d   1       6.979   4.526 -12.029  0.00  0.00     0.024 A 
ATOM     12  C   UNL d   1       6.251   3.882 -13.044  0.00  0.00     0.002 A 
ATOM     13  C   UNL d   1       6.928   3.172 -14.052  0.00  0.00     0.000 A 
ATOM     14  C   UNL d   1       8.335   3.120 -14.050  0.00  0.00     0.002 A 
ATOM     15  C   UNL d   1       9.065   3.775 -13.041  0.00  0.00     0.024 A 
ENDBRANCH   9  10
ENDBRANCH   8   9
ENDBRANCH   6   8
BRANCH   1  16
ATOM     16  N   UNL d   1      10.566   7.903  -6.212  0.00  0.00    -0.178 N 
ATOM     17  C   UNL d   1      10.820   9.160  -5.524  0.00  0.00     0.155 C 
ATOM     18  C   UNL d   1      12.008   9.007  -4.557  0.00  0.00     0.275 C 
ATOM     19  N   UNL d   1      11.784   7.893  -3.630  0.00  0.00     0.143 N 
ATOM     20  C   UNL d   1      12.907   7.765  -2.721  0.00  0.00     0.286 C 
ATOM     21  C   UNL d   1      11.622   6.648  -4.388  0.00  0.00     0.275 C 
ATOM     22  C   UNL d   1      10.426   6.752  -5.352  0.00  0.00     0.155 C 
ENDBRANCH   1  16
TORSDOF 4
