REMARK  3 active torsions:
REMARK  status: ('A' for Active; 'I' for Inactive)
REMARK    1  A    between atoms: C_5  and  C_6 
REMARK    2  A    between atoms: N_8  and  C_9 
REMARK    3  A    between atoms: C_19  and  C_20 
ROOT
ATOM      1  C   UNL d   1      10.238   2.906 -16.297  0.00  0.00    -0.003 A 
ATOM      2  C   UNL d   1       9.034   2.541 -15.754  0.00  0.00     0.076 A 
ATOM      3  N   UNL d   1       8.676   1.269 -16.181  0.00  0.00    -0.305 N 
ATOM      4  C   UNL d   1       9.675   0.767 -17.007  0.00  0.00     0.064 A 
ATOM      5  C   UNL d   1       9.824  -0.463 -17.676  0.00  0.00     0.018 A 
ATOM      6  C   UNL d   1      10.966  -0.686 -18.466  0.00  0.00     0.002 A 
ATOM      7  C   UNL d   1      11.960   0.308 -18.610  0.00  0.00     0.003 A 
ATOM      8  C   UNL d   1      11.770   1.536 -17.946  0.00  0.00     0.001 A 
ATOM      9  C   UNL d   1      10.656   1.796 -17.114  0.00  0.00     0.014 A 
ENDROOT
BRANCH   1  10
ATOM     10  C   UNL d   1      10.944   4.223 -16.082  0.00  0.00     0.028 C 
ATOM     11  C   UNL d   1      10.739   5.162 -17.279  0.00  0.00     0.040 C 
ATOM     12  C   UNL d   1      11.562   6.454 -17.128  0.00  0.00     0.251 C 
ATOM     13  N   UNL d   1      12.979   6.138 -16.962  0.00  0.00     0.139 N 
ATOM     14  C   UNL d   1      13.744   7.382 -16.897  0.00  0.00     0.285 C 
ATOM     15  C   UNL d   1      13.184   5.383 -15.730  0.00  0.00     0.251 C 
ATOM     16  C   UNL d   1      12.451   4.042 -15.813  0.00  0.00     0.040 C 
ENDBRANCH   1  10
BRANCH   3  17
ATOM     17  C   UNL d   1       7.483   0.600 -15.825  0.00  0.00     0.064 A 
ATOM     18  C   UNL d   1       7.117   0.481 -14.467  0.00  0.00     0.020 A 
ATOM     19  C   UNL d   1       5.932  -0.191 -14.112  0.00  0.00     0.031 A 
ATOM     20  C   UNL d   1       5.105  -0.741 -15.111  0.00  0.00     0.140 A 
ATOM     21  C   UNL d   1       5.466  -0.628 -16.466  0.00  0.00     0.031 A 
ATOM     22  F   UNL d   1       3.958  -1.367 -14.766  0.00  0.00    -0.204 F 
ATOM     23  C   UNL d   1       6.650   0.047 -16.824  0.00  0.00     0.020 A 
ENDBRANCH   3  17
BRANCH   7  24
ATOM     24  C   UNL d   1      13.170   0.087 -19.426  0.00  0.00     0.040 A 
ATOM     25  C   UNL d   1      13.541  -1.051 -20.076  0.00  0.00     0.097 A 
ATOM     26  N   UNL d   1      14.736  -0.767 -20.704  0.00  0.00    -0.248 N 
ATOM     27  N   UNL d   1      15.157   0.494 -20.462  0.00  0.00    -0.168 NA
ATOM     28  C   UNL d   1      15.530  -1.628 -21.546  0.00  0.00     0.154 C 
ATOM     29  C   UNL d   1      14.216   1.019 -19.695  0.00  0.00     0.122 A 
ENDBRANCH   7  24
TORSDOF 3
