REMARK  5 active torsions:
REMARK  status: ('A' for Active; 'I' for Inactive)
REMARK    1  A    between atoms: N_2  and  C_3 
REMARK    2  A    between atoms: N_10  and  S_11 
REMARK    3  A    between atoms: S_11  and  C_14 
REMARK    4  A    between atoms: C_22  and  C_23 
REMARK    5  A    between atoms: C_23  and  C_24 
ROOT
ATOM      1  C   UNL d   1      11.702   8.541  -8.826  0.00  0.00     0.283 A 
ATOM      2  C   UNL d   1      10.604   7.680  -9.248  0.00  0.00     0.009 A 
ATOM      3  C   UNL d   1       9.888   7.346 -10.381  0.00  0.00     0.016 A 
ATOM      4  C   UNL d   1       9.169   6.174 -10.239  0.00  0.00     0.075 A 
ATOM      5  C   UNL d   1       9.155   5.403  -9.012  0.00  0.00     0.018 A 
ATOM      6  C   UNL d   1       8.311   4.344  -9.205  0.00  0.00     0.021 A 
ATOM      7  C   UNL d   1       7.871   4.409 -10.481  0.00  0.00     0.092 A 
ATOM      8  N   UNL d   1       8.316   5.517 -11.100  0.00  0.00    -0.231 N 
ATOM      9  C   UNL d   1       9.864   5.842  -7.863  0.00  0.00    -0.003 A 
ATOM     10  C   UNL d   1      10.602   6.964  -8.038  0.00  0.00    -0.022 A 
ATOM     11  C   UNL d   1      11.680   7.776  -7.419  0.00  0.00     0.063 A 
ENDROOT
BRANCH   8  12
ATOM     12  S   UNL d   1       7.773   5.924 -12.649  0.00  0.00     0.271 S 
ATOM     13  O   UNL d   1       6.335   5.622 -12.716  0.00  0.00    -0.200 OA
ATOM     14  O   UNL d   1       8.286   7.285 -12.803  0.00  0.00    -0.200 OA
BRANCH  12  15
ATOM     15  C   UNL d   1       8.683   4.761 -13.655  0.00  0.00     0.104 A 
ATOM     16  C   UNL d   1      10.004   5.033 -14.052  0.00  0.00     0.013 A 
ATOM     17  C   UNL d   1      10.711   4.088 -14.823  0.00  0.00     0.001 A 
ATOM     18  C   UNL d   1      10.090   2.874 -15.183  0.00  0.00     0.000 A 
ATOM     19  C   UNL d   1       8.768   2.608 -14.778  0.00  0.00     0.001 A 
ATOM     20  C   UNL d   1       8.062   3.550 -14.010  0.00  0.00     0.013 A 
ENDBRANCH  12  15
ENDBRANCH   8  12
BRANCH   1  21
ATOM     21  N   UNL d   1      12.800   8.365  -9.733  0.00  0.00     0.344 N 
ATOM     22  C   UNL d   1      12.454   9.109 -10.911  0.00  0.00     0.329 C 
ENDBRANCH   1  21
BRANCH  11  23
ATOM     23  C   UNL d   1      11.240   8.418  -6.114  0.00  0.00     0.042 C 
BRANCH  23  24
ATOM     24  C   UNL d   1      10.866   9.888  -6.274  0.00  0.00     0.183 C 
ATOM     25  O   UNL d   1      10.666  10.418  -4.986  0.00  0.00    -0.221 OA
ENDBRANCH  23  24
ENDBRANCH  11  23
TORSDOF 5
