REMARK  8 active torsions:
REMARK  status: ('A' for Active; 'I' for Inactive)
REMARK    1  A    between atoms: C_2  and  C_3 
REMARK    2  A    between atoms: C_3  and  N_4 
REMARK    3  A    between atoms: N_4  and  C_5 
REMARK    4  A    between atoms: N_4  and  C_8 
REMARK    5  A    between atoms: C_5  and  C_6 
REMARK    6  A    between atoms: C_16  and  C_17 
REMARK    7  A    between atoms: C_17  and  C_19 
REMARK    8  A    between atoms: C_22  and  O_23 
ROOT
ATOM      1  C   UNL d   1       9.613   3.905 -13.390  0.00  0.00     0.253 C 
ATOM      2  C   UNL d   1       9.903   5.091 -14.317  0.00  0.00     0.182 C 
ATOM      3  O   UNL d   1      11.102   4.893 -14.987  0.00  0.00    -0.329 OA
ATOM      4  C   UNL d   1      11.227   3.721 -15.718  0.00  0.00     0.093 A 
ATOM      5  C   UNL d   1      10.447   2.578 -15.420  0.00  0.00     0.002 A 
ATOM      6  C   UNL d   1      10.595   1.423 -16.212  0.00  0.00    -0.002 A 
ATOM      7  C   UNL d   1      11.531   1.421 -17.250  0.00  0.00    -0.000 A 
ATOM      8  C   UNL d   1      12.326   2.544 -17.543  0.00  0.00     0.005 A 
ATOM      9  C   UNL d   1      12.184   3.703 -16.762  0.00  0.00     0.061 A 
ATOM     10  C   UNL d   1       9.429   2.614 -14.300  0.00  0.00     0.064 C 
ENDROOT
BRANCH   9  11
ATOM     11  C   UNL d   1      13.034   4.906 -17.032  0.00  0.00     0.197 C 
ATOM     12  O   UNL d   1      13.983   5.214 -16.321  0.00  0.00    -0.286 OA
BRANCH  11  13
ATOM     13  C   UNL d   1      12.639   5.722 -18.198  0.00  0.00     0.039 A 
ATOM     14  C   UNL d   1      13.505   5.898 -19.289  0.00  0.00     0.005 A 
ATOM     15  C   UNL d   1      13.136   6.698 -20.385  0.00  0.00     0.024 A 
ATOM     16  C   UNL d   1      11.862   7.357 -20.388  0.00  0.00     0.094 A 
ATOM     17  C   UNL d   1      11.016   7.168 -19.288  0.00  0.00     0.024 A 
ATOM     18  C   UNL d   1      11.383   6.369 -18.198  0.00  0.00     0.005 A 
BRANCH  16  19
ATOM     19  O   UNL d   1      11.510   8.148 -21.461  0.00  0.00    -0.328 OA
ATOM     20  C   UNL d   1      10.237   8.811 -21.401  0.00  0.00     0.181 C 
ENDBRANCH  16  19
ENDBRANCH  11  13
ENDBRANCH   9  11
BRANCH   1  21
ATOM     21  N   UNL d   1       8.460   4.073 -12.484  0.00  0.00     0.138 N 
BRANCH  21  22
ATOM     22  C   UNL d   1       8.782   4.848 -11.263  0.00  0.00     0.250 C 
BRANCH  22  23
ATOM     23  C   UNL d   1       9.147   6.336 -11.509  0.00  0.00     0.035 C 
ATOM     24  C   UNL d   1       9.665   6.988 -10.252  0.00  0.00     0.002 C 
ENDBRANCH  22  23
ENDBRANCH  21  22
BRANCH  21  25
ATOM     25  C   UNL d   1       7.236   4.539 -13.171  0.00  0.00     0.250 C 
BRANCH  25  26
ATOM     26  C   UNL d   1       6.004   4.588 -12.235  0.00  0.00     0.035 C 
ATOM     27  C   UNL d   1       5.798   6.008 -11.637  0.00  0.00     0.002 C 
ENDBRANCH  25  26
ENDBRANCH  21  25
ENDBRANCH   1  21
TORSDOF 8
