REMARK  10 active torsions:
REMARK  status: ('A' for Active; 'I' for Inactive)
REMARK    1  A    between atoms: C_2  and  C_3 
REMARK       I    between atoms: C_3  and  N_5 
REMARK    2  A    between atoms: N_5  and  C_6 
REMARK    3  A    between atoms: N_5  and  C_14 
REMARK    4  A    between atoms: C_11  and  O_12 
REMARK    5  A    between atoms: N_17  and  C_18 
REMARK    6  A    between atoms: C_18  and  C_19 
REMARK    7  A    between atoms: C_19  and  C_20 
REMARK    8  A    between atoms: C_20  and  C_21 
REMARK    9  A    between atoms: C_21  and  N_22 
REMARK       I    between atoms: N_22  and  C_23 
REMARK   10  A    between atoms: C_23  and  C_25 
ROOT
ATOM      1  C   UNL d   1      12.011   3.522 -17.653  0.00  0.00     0.092 C 
ATOM      2  C   UNL d   1      11.348   4.800 -17.101  0.00  0.00     0.058 C 
ATOM      3  C   UNL d   1      10.286   4.466 -16.049  0.00  0.00     0.252 C 
ATOM      4  N   UNL d   1      10.907   3.761 -14.938  0.00  0.00     0.137 N 
ATOM      5  C   UNL d   1      11.427   2.475 -15.399  0.00  0.00     0.252 C 
ATOM      6  C   UNL d   1      12.532   2.708 -16.454  0.00  0.00     0.058 C 
ENDROOT
BRANCH   4   7
ATOM      7  C   UNL d   1       9.905   3.534 -13.909  0.00  0.00     0.250 C 
BRANCH   7   8
ATOM      8  C   UNL d   1       9.592   4.834 -13.167  0.00  0.00     0.037 C 
BRANCH   8   9
ATOM      9  C   UNL d   1       8.503   4.646 -12.130  0.00  0.00     0.029 C 
BRANCH   9  10
ATOM     10  C   UNL d   1       8.100   5.994 -11.504  0.00  0.00     0.129 C 
BRANCH  10  11
ATOM     11  N   UNL d   1       9.112   6.567 -10.637  0.00  0.00    -0.234 NA
ATOM     12  C   UNL d   1       9.522   6.040  -9.469  0.00  0.00     0.275 C 
ATOM     13  O   UNL d   1       9.317   4.865  -9.149  0.00  0.00    -0.266 OA
BRANCH  12  14
ATOM     14  C   UNL d   1      10.184   7.003  -8.514  0.00  0.00     0.058 A 
ATOM     15  C   UNL d   1      10.409   6.593  -7.182  0.00  0.00     0.005 A 
ATOM     16  C   UNL d   1      11.013   7.453  -6.243  0.00  0.00     0.000 A 
ATOM     17  C   UNL d   1      11.394   8.753  -6.642  0.00  0.00     0.000 A 
ATOM     18  C   UNL d   1      11.244   7.022  -4.920  0.00  0.00     0.000 A 
ATOM     19  C   UNL d   1      11.163   9.161  -7.965  0.00  0.00     0.000 A 
ATOM     20  C   UNL d   1      12.012   9.615  -5.717  0.00  0.00     0.000 A 
ATOM     21  C   UNL d   1      10.575   8.305  -8.906  0.00  0.00     0.005 A 
ATOM     22  C   UNL d   1      12.244   9.193  -4.394  0.00  0.00     0.000 A 
ATOM     23  C   UNL d   1      11.860   7.888  -3.997  0.00  0.00     0.000 A 
ENDBRANCH  12  14
ENDBRANCH  10  11
ENDBRANCH   9  10
ENDBRANCH   8   9
ENDBRANCH   7   8
ENDBRANCH   4   7
BRANCH   1  24
ATOM     24  N   UNL d   1      13.100   3.794 -18.614  0.00  0.00    -0.299 N 
ATOM     25  C   UNL d   1      13.496   2.859 -19.543  0.00  0.00     0.237 C 
ATOM     26  O   UNL d   1      14.447   3.062 -20.310  0.00  0.00    -0.272 OA
BRANCH  25  27
ATOM     27  C   UNL d   1      12.743   1.520 -19.660  0.00  0.00     0.088 C 
ATOM     28  C   UNL d   1      13.652   0.352 -20.075  0.00  0.00     0.010 C 
ENDBRANCH  25  27
BRANCH  24  29
ATOM     29  C   UNL d   1      13.800   5.033 -18.535  0.00  0.00     0.085 A 
ATOM     30  C   UNL d   1      13.242   6.215 -19.084  0.00  0.00     0.110 A 
ATOM     31  C   UNL d   1      13.909   7.457 -18.876  0.00  0.00     0.026 A 
ATOM     32  C   UNL d   1      15.117   7.509 -18.159  0.00  0.00     0.002 A 
ATOM     33  C   UNL d   1      15.678   6.335 -17.629  0.00  0.00     0.002 A 
ATOM     34  C   UNL d   1      15.013   5.104 -17.797  0.00  0.00     0.019 A 
BRANCH  30  35
ATOM     35  O   UNL d   1      12.058   6.101 -19.781  0.00  0.00    -0.327 OA
ATOM     36  C   UNL d   1      11.376   7.294 -20.157  0.00  0.00     0.181 C 
ENDBRANCH  30  35
ENDBRANCH  24  29
ENDBRANCH   1  24
TORSDOF 10
