REMARK  4 active torsions:
REMARK  status: ('A' for Active; 'I' for Inactive)
REMARK    1  A    between atoms: C_2  and  C_3 
REMARK    2  A    between atoms: C_3  and  N_4 
REMARK    3  A    between atoms: N_4  and  C_5 
REMARK    4  A    between atoms: C_12  and  C_13 
ROOT
ATOM      1  C   UNL d   1      11.096   7.515  -5.791  0.00  0.00     0.291 C 
ATOM      2  C   UNL d   1       9.609   7.230  -5.653  0.00  0.00     0.185 C 
ATOM      3  O   UNL d   1       9.042   6.351  -6.577  0.00  0.00    -0.329 OA
ATOM      4  C   UNL d   1       9.512   6.399  -7.842  0.00  0.00     0.090 C 
ATOM      5  C   UNL d   1       8.887   5.534  -8.754  0.00  0.00     0.024 C 
ATOM      6  C   UNL d   1       9.181   5.649 -10.110  0.00  0.00     0.002 C 
ATOM      7  C   UNL d   1      10.121   6.612 -10.516  0.00  0.00     0.005 C 
ATOM      8  C   UNL d   1      10.857   7.350  -9.570  0.00  0.00     0.057 C 
ATOM      9  C   UNL d   1      10.574   7.257  -8.220  0.00  0.00     0.007 C 
ATOM     10  C   UNL d   1      11.321   8.086  -7.172  0.00  0.00     0.067 C 
ENDROOT
BRANCH   1  11
ATOM     11  N   UNL d   1      11.496   8.505  -4.782  0.00  0.00     0.340 N 
BRANCH  11  12
ATOM     12  C   UNL d   1      12.619   8.095  -3.945  0.00  0.00     0.290 C 
BRANCH  12  13
ATOM     13  C   UNL d   1      12.175   7.788  -2.509  0.00  0.00     0.038 C 
ATOM     14  C   UNL d   1      11.558   6.388  -2.389  0.00  0.00     0.002 C 
ENDBRANCH  12  13
ENDBRANCH  11  12
ENDBRANCH   1  11
BRANCH   8  15
ATOM     15  C   UNL d   1      11.916   8.315  -9.955  0.00  0.00     0.296 C 
ATOM     16  N   UNL d   1      11.478   9.545 -10.043  0.00  0.00    -0.102 N 
ATOM     17  O   UNL d   1      13.089   7.987 -10.008  0.00  0.00    -0.264 OA
ENDBRANCH   8  15
TORSDOF 4
