REMARK  6 active torsions:
REMARK  status: ('A' for Active; 'I' for Inactive)
REMARK    1  A    between atoms: C_2  and  C_3 
REMARK       I    between atoms: C_3  and  N_5 
REMARK    2  A    between atoms: N_5  and  C_6 
REMARK    3  A    between atoms: C_9  and  C_10 
REMARK    4  A    between atoms: C_10  and  C_11 
REMARK    5  A    between atoms: C_11  and  N_12 
REMARK    6  A    between atoms: C_15  and  C_16 
ROOT
ATOM      1  N   UNL d   1       9.014   5.990  -9.577  0.00  0.00     0.137 N 
ATOM      2  C   UNL d   1      10.395   6.433  -9.759  0.00  0.00     0.251 C 
ATOM      3  C   UNL d   1      10.754   7.508  -8.740  0.00  0.00     0.040 C 
ATOM      4  C   UNL d   1      10.536   6.990  -7.306  0.00  0.00     0.028 C 
ATOM      5  C   UNL d   1       9.102   6.460  -7.172  0.00  0.00     0.040 C 
ATOM      6  C   UNL d   1       8.829   5.407  -8.247  0.00  0.00     0.251 C 
ENDROOT
BRANCH   1   7
ATOM      7  C   UNL d   1       8.662   4.987 -10.578  0.00  0.00     0.250 C 
BRANCH   7   8
ATOM      8  C   UNL d   1       8.181   5.644 -11.883  0.00  0.00     0.035 C 
BRANCH   8   9
ATOM      9  C   UNL d   1       7.454   4.666 -12.835  0.00  0.00     0.002 C 
ATOM     10  C   UNL d   1       8.412   3.591 -13.392  0.00  0.00     0.002 C 
ATOM     11  C   UNL d   1       7.668   2.597 -14.314  0.00  0.00     0.024 C 
ATOM     12  C   UNL d   1       6.374   2.009 -13.706  0.00  0.00     0.106 C 
ATOM     13  C   UNL d   1       5.443   3.133 -13.209  0.00  0.00     0.024 C 
ATOM     14  C   UNL d   1       6.161   4.062 -12.220  0.00  0.00     0.002 C 
BRANCH  12  15
ATOM     15  N   UNL d   1       5.727   1.157 -14.683  0.00  0.00    -0.240 NA
ATOM     16  C   UNL d   1       5.635  -0.172 -14.669  0.00  0.00     0.251 C 
ATOM     17  O   UNL d   1       6.214  -0.873 -13.842  0.00  0.00    -0.271 OA
BRANCH  16  18
ATOM     18  C   UNL d   1       4.714  -0.779 -15.715  0.00  0.00     0.090 C 
ATOM     19  C   UNL d   1       5.189  -2.141 -16.227  0.00  0.00     0.010 C 
ENDBRANCH  16  18
ENDBRANCH  12  15
ENDBRANCH   8   9
ENDBRANCH   7   8
ENDBRANCH   1   7
BRANCH   4  20
ATOM     20  C   UNL d   1      10.829   8.065  -6.291  0.00  0.00     0.004 A 
ATOM     21  C   UNL d   1      11.386   7.933  -4.975  0.00  0.00     0.021 A 
ATOM     22  C   UNL d   1      11.420   9.243  -4.428  0.00  0.00     0.100 A 
ATOM     23  C   UNL d   1      11.859   6.886  -4.157  0.00  0.00     0.002 A 
ATOM     24  O   UNL d   1      10.909  10.136  -5.339  0.00  0.00    -0.305 OA
ATOM     25  C   UNL d   1      11.875   9.532  -3.139  0.00  0.00     0.025 A 
ATOM     26  C   UNL d   1      10.566   9.407  -6.438  0.00  0.00     0.118 A 
ATOM     27  C   UNL d   1      12.357   8.469  -2.350  0.00  0.00     0.002 A 
ATOM     28  C   UNL d   1      12.340   7.149  -2.850  0.00  0.00     0.000 A 
ENDBRANCH   4  20
TORSDOF 6
