REMARK  4 active torsions:
REMARK  status: ('A' for Active; 'I' for Inactive)
REMARK    1  A    between atoms: N_7  and  C_8 
REMARK    2  A    between atoms: C_8  and  C_9 
REMARK    3  A    between atoms: C_9  and  C_10 
REMARK    4  A    between atoms: C_20  and  C_21 
ROOT
ATOM      1  O   UNL d   1      12.950   8.833  -7.668  0.00  0.00    -0.291 OA
ATOM      2  C   UNL d   1      11.748   8.732  -7.817  0.00  0.00     0.177 C 
ATOM      3  C   UNL d   1      11.212   8.890  -9.240  0.00  0.00     0.097 C 
ATOM      4  C   UNL d   1      10.134   7.803  -9.457  0.00  0.00     0.110 C 
ATOM      5  C   UNL d   1       9.532   8.039 -10.857  0.00  0.00     0.064 C 
ATOM      6  C   UNL d   1       8.704   6.864 -11.407  0.00  0.00     0.253 C 
ATOM      7  N   UNL d   1       9.436   5.608 -11.402  0.00  0.00     0.138 N 
ATOM      8  C   UNL d   1       9.762   5.312 -10.006  0.00  0.00     0.253 C 
ATOM      9  C   UNL d   1      10.723   6.382  -9.464  0.00  0.00     0.064 C 
ATOM     10  O   UNL d   1       9.155   7.803  -8.421  0.00  0.00    -0.333 OA
ATOM     11  C   UNL d   1       9.569   7.996  -7.144  0.00  0.00     0.119 C 
ATOM     12  C   UNL d   1      10.793   8.403  -6.742  0.00  0.00     0.059 C 
ENDROOT
BRANCH  12  13
ATOM     13  C   UNL d   1      11.185   8.424  -5.330  0.00  0.00     0.005 A 
ATOM     14  C   UNL d   1      11.386   9.664  -4.677  0.00  0.00     0.000 A 
ATOM     15  C   UNL d   1      11.794   9.690  -3.336  0.00  0.00     0.000 A 
ATOM     16  C   UNL d   1      12.052   8.498  -2.635  0.00  0.00     0.000 A 
ATOM     17  C   UNL d   1      11.876   7.255  -3.288  0.00  0.00     0.000 A 
ATOM     18  C   UNL d   1      11.459   7.226  -4.634  0.00  0.00     0.000 A 
ENDBRANCH  12  13
BRANCH   7  19
ATOM     19  C   UNL d   1       8.609   4.517 -11.903  0.00  0.00     0.255 C 
BRANCH  19  20
ATOM     20  C   UNL d   1       8.403   4.604 -13.421  0.00  0.00     0.062 C 
BRANCH  20  21
ATOM     21  C   UNL d   1       8.048   3.256 -14.025  0.00  0.00    -0.020 A 
ATOM     22  C   UNL d   1       6.716   2.791 -14.036  0.00  0.00    -0.004 A 
ATOM     23  C   UNL d   1       6.422   1.510 -14.545  0.00  0.00    -0.000 A 
ATOM     24  C   UNL d   1       7.448   0.702 -15.070  0.00  0.00    -0.000 A 
ATOM     25  C   UNL d   1       8.777   1.164 -15.064  0.00  0.00    -0.000 A 
ATOM     26  C   UNL d   1       9.076   2.436 -14.539  0.00  0.00    -0.004 A 
ENDBRANCH  20  21
ENDBRANCH  19  20
ENDBRANCH   7  19
TORSDOF 4
