REMARK  2 active torsions:
REMARK  status: ('A' for Active; 'I' for Inactive)
REMARK    1  A    between atoms: C_6  and  C_7 
REMARK    2  A    between atoms: C_20  and  C_21 
ROOT
ATOM      1  C   UNL d   1       8.737   2.498 -14.550  0.00  0.00     0.023 A 
ATOM      2  C   UNL d   1       9.960   2.453 -15.271  0.00  0.00     0.156 A 
ATOM      3  O   UNL d   1      10.268   1.398 -16.086  0.00  0.00    -0.188 OA
ATOM      4  C   UNL d   1      10.900   3.486 -15.169  0.00  0.00     0.156 A 
ATOM      5  O   UNL d   1      12.056   3.422 -15.895  0.00  0.00    -0.188 OA
ATOM      6  C   UNL d   1      10.638   4.580 -14.329  0.00  0.00     0.025 A 
ATOM      7  C   UNL d   1       9.453   4.642 -13.556  0.00  0.00    -0.018 A 
ATOM      8  C   UNL d   1       8.485   3.595 -13.654  0.00  0.00    -0.022 A 
ATOM      9  C   UNL d   1       7.177   3.623 -12.820  0.00  0.00     0.061 C 
ATOM     10  C   UNL d   1       6.274   4.806 -13.113  0.00  0.00     0.255 C 
ATOM     11  N   UNL d   1       6.741   6.048 -12.463  0.00  0.00     0.140 N 
ATOM     12  C   UNL d   1       5.763   7.110 -12.544  0.00  0.00     0.285 C 
ATOM     13  C   UNL d   1       7.963   6.636 -12.969  0.00  0.00     0.259 C 
ATOM     14  C   UNL d   1       9.252   5.892 -12.675  0.00  0.00     0.078 C 
ENDROOT
BRANCH   1  15
ATOM     15  C   UNL d   1       7.767   1.396 -14.732  0.00  0.00     0.001 A 
ATOM     16  C   UNL d   1       7.700   0.349 -13.806  0.00  0.00     0.000 A 
ATOM     17  C   UNL d   1       6.721  -0.656 -13.847  0.00  0.00    -0.000 A 
ATOM     18  C   UNL d   1       5.857  -0.704 -14.951  0.00  0.00    -0.004 A 
ATOM     19  C   UNL d   1       5.955   0.277 -15.947  0.00  0.00    -0.022 A 
ATOM     20  C   UNL d   1       5.091   0.165 -17.165  0.00  0.00     0.031 C 
ATOM     21  C   UNL d   1       6.879   1.333 -15.827  0.00  0.00    -0.004 A 
ENDBRANCH   1  15
BRANCH  14  22
ATOM     22  C   UNL d   1       9.461   5.741 -11.182  0.00  0.00    -0.017 A 
ATOM     23  C   UNL d   1       9.625   6.877 -10.356  0.00  0.00    -0.008 A 
ATOM     24  C   UNL d   1       9.825   6.709  -8.970  0.00  0.00    -0.022 A 
ATOM     25  C   UNL d   1       9.790   5.418  -8.409  0.00  0.00    -0.004 A 
ATOM     26  C   UNL d   1      10.065   7.875  -8.058  0.00  0.00     0.031 C 
ATOM     27  C   UNL d   1       9.607   4.305  -9.232  0.00  0.00    -0.001 A 
ATOM     28  C   UNL d   1       9.475   4.462 -10.610  0.00  0.00    -0.004 A 
ENDBRANCH  14  22
TORSDOF 2
