REMARK  9 active torsions:
REMARK  status: ('A' for Active; 'I' for Inactive)
REMARK    1  A    between atoms: C_2  and  O_3 
REMARK    2  A    between atoms: O_3  and  C_4 
REMARK    3  A    between atoms: C_9  and  N_10 
REMARK    4  A    between atoms: N_14  and  C_15 
REMARK    5  A    between atoms: C_15  and  C_16 
REMARK    6  A    between atoms: C_16  and  C_17 
REMARK    7  A    between atoms: C_17  and  C_18 
REMARK    8  A    between atoms: C_18  and  O_19 
REMARK    9  A    between atoms: O_19  and  C_20 
ROOT
ATOM      1  N   UNL d   1      11.198   2.806 -16.839  0.00  0.00    -0.345 N 
ATOM      2  C   UNL d   1      10.802   1.593 -16.133  0.00  0.00     0.104 C 
ATOM      3  C   UNL d   1      10.608   1.770 -14.630  0.00  0.00     0.059 C 
ATOM      4  C   UNL d   1       9.675   2.921 -14.259  0.00  0.00     0.252 C 
ATOM      5  N   UNL d   1      10.417   4.175 -14.070  0.00  0.00     0.139 N 
ATOM      6  C   UNL d   1      10.786   4.763 -15.359  0.00  0.00     0.274 C 
ATOM      7  C   UNL d   1      11.820   3.916 -16.131  0.00  0.00     0.137 C 
ENDROOT
BRANCH   5   8
ATOM      8  C   UNL d   1       9.610   5.144 -13.330  0.00  0.00     0.250 C 
BRANCH   8   9
ATOM      9  C   UNL d   1       9.382   4.697 -11.876  0.00  0.00     0.038 C 
BRANCH   9  10
ATOM     10  C   UNL d   1       9.120   5.854 -10.903  0.00  0.00     0.035 C 
BRANCH  10  11
ATOM     11  C   UNL d   1       9.518   5.529  -9.454  0.00  0.00     0.151 C 
BRANCH  11  12
ATOM     12  O   UNL d   1       8.803   6.413  -8.613  0.00  0.00    -0.315 OA
BRANCH  12  13
ATOM     13  C   UNL d   1       9.582   7.222  -7.824  0.00  0.00     0.179 A 
ATOM     14  N   UNL d   1      10.016   6.648  -6.684  0.00  0.00    -0.204 NA
ATOM     15  C   UNL d   1      10.734   7.350  -5.786  0.00  0.00     0.163 A 
ATOM     16  C   UNL d   1      11.082   8.693  -6.042  0.00  0.00     0.014 A 
ATOM     17  N   UNL d   1      11.120   6.776  -4.542  0.00  0.00    -0.193 NA
ATOM     18  C   UNL d   1      10.670   9.285  -7.260  0.00  0.00     0.002 A 
ATOM     19  C   UNL d   1      11.848   9.510  -5.013  0.00  0.00     0.039 C 
ATOM     20  C   UNL d   1       9.876   8.554  -8.172  0.00  0.00     0.044 A 
ATOM     21  C   UNL d   1      12.611   8.658  -3.980  0.00  0.00     0.095 C 
ATOM     22  C   UNL d   1      11.933   7.333  -3.628  0.00  0.00     0.257 C 
ATOM     23  O   UNL d   1      12.175   6.797  -2.546  0.00  0.00    -0.270 OA
ENDBRANCH  12  13
ENDBRANCH  11  12
ENDBRANCH  10  11
ENDBRANCH   9  10
ENDBRANCH   8   9
ENDBRANCH   5   8
BRANCH   1  24
ATOM     24  C   UNL d   1      10.868   2.956 -18.212  0.00  0.00     0.079 A 
ATOM     25  C   UNL d   1      10.915   1.863 -19.128  0.00  0.00     0.109 A 
ATOM     26  C   UNL d   1      10.548   2.054 -20.472  0.00  0.00     0.026 A 
ATOM     27  C   UNL d   1      10.150   3.316 -20.945  0.00  0.00     0.002 A 
ATOM     28  C   UNL d   1      10.101   4.399 -20.054  0.00  0.00     0.002 A 
ATOM     29  C   UNL d   1      10.461   4.219 -18.710  0.00  0.00     0.019 A 
BRANCH  25  30
ATOM     30  O   UNL d   1      11.278   0.582 -18.786  0.00  0.00    -0.329 OA
BRANCH  30  31
ATOM     31  C   UNL d   1      12.656   0.403 -18.499  0.00  0.00     0.149 C 
ATOM     32  C   UNL d   1      13.375   0.023 -19.785  0.00  0.00     0.035 C 
ENDBRANCH  30  31
ENDBRANCH  25  30
ENDBRANCH   1  24
TORSDOF 9
