REMARK  4 active torsions:
REMARK  status: ('A' for Active; 'I' for Inactive)
REMARK       I    between atoms: N_10  and  C_11 
REMARK    1  A    between atoms: C_11  and  C_13 
REMARK    2  A    between atoms: C_13  and  C_14 
REMARK    3  A    between atoms: N_17  and  C_18 
REMARK    4  A    between atoms: C_18  and  C_19 
ROOT
ATOM      1  C   UNL d   1       9.487   5.604 -11.764  0.00  0.00     0.013 C 
ATOM      2  C   UNL d   1       9.712   5.315 -10.285  0.00  0.00     0.036 C 
ATOM      3  C   UNL d   1      10.583   6.418  -9.704  0.00  0.00     0.251 C 
ATOM      4  N   UNL d   1       9.810   7.659  -9.735  0.00  0.00     0.141 N 
ATOM      5  C   UNL d   1       9.610   8.072 -11.141  0.00  0.00     0.251 C 
ATOM      6  C   UNL d   1       8.842   6.991 -11.919  0.00  0.00     0.036 C 
ENDROOT
BRANCH   1   7
ATOM      7  C   UNL d   1       8.617   4.519 -12.396  0.00  0.00     0.088 C 
BRANCH   7   8
ATOM      8  C   UNL d   1       9.051   4.112 -13.813  0.00  0.00     0.237 C 
ATOM      9  N   UNL d   1       8.488   3.011 -14.373  0.00  0.00    -0.301 N 
ATOM     10  C   UNL d   1       9.207   2.211 -15.387  0.00  0.00     0.093 C 
ATOM     11  C   UNL d   1       7.276   2.379 -14.052  0.00  0.00     0.058 A 
ATOM     12  C   UNL d   1       9.263   2.940 -16.741  0.00  0.00     0.025 C 
ATOM     13  C   UNL d   1       8.426   0.881 -15.494  0.00  0.00     0.051 C 
ATOM     14  C   UNL d   1       7.206   1.119 -14.644  0.00  0.00    -0.004 A 
ATOM     15  C   UNL d   1       6.105   0.282 -14.457  0.00  0.00    -0.003 A 
ATOM     16  C   UNL d   1       5.058   0.717 -13.613  0.00  0.00    -0.000 A 
ATOM     17  C   UNL d   1       5.122   1.991 -12.995  0.00  0.00     0.002 A 
ATOM     18  C   UNL d   1       6.194   2.848 -13.233  0.00  0.00     0.017 A 
ATOM     19  O   UNL d   1       9.914   4.801 -14.396  0.00  0.00    -0.272 OA
ENDBRANCH   7   8
ENDBRANCH   1   7
BRANCH   4  20
ATOM     20  C   UNL d   1      10.423   8.759  -8.996  0.00  0.00     0.277 C 
BRANCH  20  21
ATOM     21  C   UNL d   1      10.698   8.485  -7.513  0.00  0.00     0.011 C 
ATOM     22  C   UNL d   1      11.520   9.364  -6.782  0.00  0.00    -0.002 C 
ATOM     23  C   UNL d   1      11.876   9.059  -5.446  0.00  0.00     0.011 C 
ATOM     24  C   UNL d   1      11.463   7.840  -4.861  0.00  0.00     0.058 C 
ATOM     25  C   UNL d   1      10.641   6.970  -5.599  0.00  0.00     0.011 C 
ATOM     26 CL   UNL d   1      11.921   7.428  -3.240  0.00  0.00    -0.082 Cl
ATOM     27  C   UNL d   1      10.190   7.335  -6.856  0.00  0.00    -0.002 C 
ENDBRANCH  20  21
ENDBRANCH   4  20
TORSDOF 4
