REMARK  6 active torsions:
REMARK  status: ('A' for Active; 'I' for Inactive)
REMARK    1  A    between atoms: O_2  and  C_3 
REMARK    2  A    between atoms: C_3  and  C_5 
REMARK    3  A    between atoms: C_8  and  C_9 
REMARK    4  A    between atoms: C_10  and  C_11 
REMARK    5  A    between atoms: N_19  and  C_20 
REMARK    6  A    between atoms: C_20  and  C_21 
ROOT
ATOM      1  C   UNL d   1       7.509   1.431 -17.640  0.00  0.00     0.144 A 
ATOM      2  N   UNL d   1       6.680   1.196 -18.664  0.00  0.00    -0.227 NA
ATOM      3  C   UNL d   1       5.795   0.264 -18.150  0.00  0.00     0.099 A 
ATOM      4  C   UNL d   1       4.702  -0.402 -18.748  0.00  0.00     0.021 A 
ATOM      5  C   UNL d   1       3.940  -1.333 -18.004  0.00  0.00     0.002 A 
ATOM      6  C   UNL d   1       4.264  -1.602 -16.659  0.00  0.00     0.002 A 
ATOM      7  C   UNL d   1       5.341  -0.946 -16.047  0.00  0.00     0.019 A 
ATOM      8  C   UNL d   1       6.113  -0.025 -16.792  0.00  0.00     0.079 A 
ATOM      9  N   UNL d   1       7.231   0.752 -16.494  0.00  0.00    -0.307 N 
ENDROOT
BRANCH   1  10
ATOM     10  C   UNL d   1       8.613   2.368 -17.793  0.00  0.00     0.037 C 
ATOM     11  C   UNL d   1       9.850   2.174 -17.278  0.00  0.00     0.003 C 
BRANCH  11  12
ATOM     12  C   UNL d   1      10.934   3.167 -17.311  0.00  0.00     0.000 A 
ATOM     13  C   UNL d   1      10.690   4.559 -17.399  0.00  0.00     0.000 A 
ATOM     14  C   UNL d   1      11.762   5.475 -17.447  0.00  0.00     0.005 A 
ATOM     15  C   UNL d   1      13.096   5.005 -17.405  0.00  0.00     0.063 A 
ATOM     16  C   UNL d   1      13.340   3.620 -17.289  0.00  0.00     0.005 A 
ATOM     17  C   UNL d   1      12.268   2.711 -17.227  0.00  0.00     0.000 A 
BRANCH  15  18
ATOM     18  C   UNL d   1      14.211   5.988 -17.478  0.00  0.00     0.296 C 
ATOM     19  O   UNL d   1      14.043   7.207 -17.401  0.00  0.00    -0.259 OA
BRANCH  18  20
ATOM     20  O   UNL d   1      15.420   5.412 -17.638  0.00  0.00    -0.296 OA
ATOM     21  C   UNL d   1      16.574   6.226 -17.717  0.00  0.00     0.185 C 
ENDBRANCH  18  20
ENDBRANCH  15  18
ENDBRANCH  11  12
ENDBRANCH   1  10
BRANCH   9  22
ATOM     22  C   UNL d   1       7.908   0.805 -15.191  0.00  0.00     0.134 C 
BRANCH  22  23
ATOM     23  C   UNL d   1       7.495   2.071 -14.439  0.00  0.00     0.001 A 
ATOM     24  C   UNL d   1       6.221   2.162 -13.844  0.00  0.00    -0.002 A 
ATOM     25  C   UNL d   1       5.855   3.303 -13.097  0.00  0.00     0.011 A 
ATOM     26  C   UNL d   1       6.772   4.363 -12.949  0.00  0.00     0.058 A 
ATOM     27  C   UNL d   1       8.045   4.286 -13.546  0.00  0.00     0.011 A 
ATOM     28 CL   UNL d   1       6.325   5.761 -12.041  0.00  0.00    -0.082 Cl
ATOM     29  C   UNL d   1       8.406   3.143 -14.287  0.00  0.00    -0.002 A 
ENDBRANCH  22  23
ENDBRANCH   9  22
TORSDOF 6
