REMARK  7 active torsions:
REMARK  status: ('A' for Active; 'I' for Inactive)
REMARK    1  A    between atoms: C_6  and  C_7 
REMARK    2  A    between atoms: C_10  and  S_11 
REMARK    3  A    between atoms: S_11  and  C_12 
REMARK    4  A    between atoms: C_12  and  C_13 
REMARK    5  A    between atoms: C_13  and  C_14 
REMARK    6  A    between atoms: C_14  and  N_15 
REMARK    7  A    between atoms: C_20  and  C_21 
ROOT
ATOM      1  C   UNL d   1       6.809   2.485 -13.791  0.00  0.00     0.047 C 
ENDROOT
BRANCH   1   2
ATOM      2  C   UNL d   1       5.969   3.214 -12.731  0.00  0.00     0.067 C 
BRANCH   2   3
ATOM      3  S   UNL d   1       6.215   5.018 -12.815  0.00  0.00    -0.075 SA
BRANCH   3   4
ATOM      4  C   UNL d   1       7.549   5.295 -11.684  0.00  0.00     0.193 A 
ATOM      5  N   UNL d   1       7.890   4.426 -10.737  0.00  0.00    -0.122 NA
ATOM      6  N   UNL d   1       8.880   5.022 -10.004  0.00  0.00    -0.126 NA
ATOM      7  C   UNL d   1       9.080   6.223 -10.559  0.00  0.00     0.191 A 
ATOM      8  N   UNL d   1       8.295   6.424 -11.637  0.00  0.00    -0.287 N 
ATOM      9  C   UNL d   1       8.184   7.603 -12.484  0.00  0.00     0.134 C 
BRANCH   7  10
ATOM     10  C   UNL d   1      10.066   7.157 -10.002  0.00  0.00     0.151 A 
ATOM     11  C   UNL d   1      10.781   7.178  -8.831  0.00  0.00     0.087 A 
ATOM     12  C   UNL d   1      10.770   6.222  -7.677  0.00  0.00     0.054 C 
ATOM     13  N   UNL d   1      11.653   8.260  -8.852  0.00  0.00    -0.221 NA
ATOM     14  C   UNL d   1      11.392   8.850 -10.011  0.00  0.00     0.225 A 
ATOM     15  O   UNL d   1      10.401   8.266 -10.727  0.00  0.00    -0.282 OA
ENDBRANCH   7  10
ENDBRANCH   3   4
ENDBRANCH   2   3
ENDBRANCH   1   2
BRANCH   1  16
ATOM     16  C   UNL d   1       6.663   0.947 -13.754  0.00  0.00     0.251 C 
BRANCH  16  17
ATOM     17  N   UNL d   1       5.705   0.460 -14.728  0.00  0.00     0.137 N 
ATOM     18  C   UNL d   1       6.253  -0.699 -15.412  0.00  0.00     0.251 C 
ATOM     19  C   UNL d   1       5.072  -1.304 -16.142  0.00  0.00     0.037 A 
ATOM     20  C   UNL d   1       3.917  -0.945 -15.240  0.00  0.00     0.038 C 
ATOM     21  C   UNL d   1       5.004  -1.347 -17.659  0.00  0.00     0.024 A 
ATOM     22  C   UNL d   1       5.165  -2.615 -16.891  0.00  0.00     0.007 A 
ATOM     23  C   UNL d   1       4.491  -0.095 -14.131  0.00  0.00     0.250 C 
BRANCH  21  24
ATOM     24  C   UNL d   1       6.109  -0.768 -18.483  0.00  0.00    -0.022 A 
ATOM     25  C   UNL d   1       6.979  -1.620 -19.204  0.00  0.00    -0.002 A 
ATOM     26  C   UNL d   1       8.069  -1.085 -19.911  0.00  0.00     0.029 A 
ATOM     27  C   UNL d   1       8.305   0.301 -19.898  0.00  0.00     0.140 A 
ATOM     28  C   UNL d   1       7.452   1.152 -19.172  0.00  0.00     0.029 A 
ATOM     29  F   UNL d   1       9.358   0.818 -20.572  0.00  0.00    -0.204 F 
ATOM     30  C   UNL d   1       6.355   0.622 -18.474  0.00  0.00    -0.002 A 
ENDBRANCH  21  24
ENDBRANCH  16  17
ENDBRANCH   1  16
TORSDOF 7
