REMARK  5 active torsions:
REMARK  status: ('A' for Active; 'I' for Inactive)
REMARK    1  A    between atoms: O_2  and  C_3 
REMARK    2  A    between atoms: C_3  and  C_5 
REMARK    3  A    between atoms: C_8  and  C_9 
REMARK    4  A    between atoms: N_17  and  C_18 
REMARK    5  A    between atoms: C_18  and  C_19 
ROOT
ATOM      1  C   UNL d   1       9.235   2.724 -15.242  0.00  0.00     0.144 C 
ATOM      2  N   UNL d   1       9.490   3.928 -14.719  0.00  0.00    -0.227 NA
ATOM      3  C   UNL d   1       8.405   4.159 -13.924  0.00  0.00     0.099 A 
ATOM      4  C   UNL d   1       8.159   5.239 -13.047  0.00  0.00     0.021 A 
ATOM      5  C   UNL d   1       6.966   5.292 -12.310  0.00  0.00     0.002 A 
ATOM      6  C   UNL d   1       6.000   4.273 -12.437  0.00  0.00     0.002 A 
ATOM      7  C   UNL d   1       6.229   3.186 -13.311  0.00  0.00     0.019 A 
ATOM      8  C   UNL d   1       7.422   3.138 -14.046  0.00  0.00     0.079 A 
ATOM      9  N   UNL d   1       7.982   2.244 -14.970  0.00  0.00    -0.307 N 
ENDROOT
BRANCH   1  10
ATOM     10  C   UNL d   1      10.272   2.115 -16.079  0.00  0.00     0.034 A 
ATOM     11  C   UNL d   1      10.396   0.690 -16.160  0.00  0.00     0.003 A 
ATOM     12  C   UNL d   1      11.090   0.084 -17.214  0.00  0.00     0.005 A 
ATOM     13  C   UNL d   1      11.801   0.858 -18.148  0.00  0.00     0.063 A 
ATOM     14  C   UNL d   1      11.699   2.276 -18.077  0.00  0.00     0.005 A 
ATOM     15  C   UNL d   1      10.920   2.889 -17.074  0.00  0.00     0.003 A 
BRANCH  13  16
ATOM     16  C   UNL d   1      12.691   0.181 -19.131  0.00  0.00     0.296 C 
ATOM     17  O   UNL d   1      12.778  -1.048 -19.237  0.00  0.00    -0.259 OA
BRANCH  16  18
ATOM     18  O   UNL d   1      13.439   1.038 -19.851  0.00  0.00    -0.296 OA
ATOM     19  C   UNL d   1      14.370   0.543 -20.798  0.00  0.00     0.185 C 
ENDBRANCH  16  18
ENDBRANCH  13  16
ENDBRANCH   1  10
BRANCH   9  20
ATOM     20  C   UNL d   1       7.296   1.027 -15.445  0.00  0.00     0.134 C 
BRANCH  20  21
ATOM     21  C   UNL d   1       7.063   1.019 -16.968  0.00  0.00     0.001 A 
ATOM     22  C   UNL d   1       8.080   1.269 -17.905  0.00  0.00    -0.002 A 
ATOM     23  C   UNL d   1       8.004   1.269 -19.279  0.00  0.00     0.011 A 
ATOM     24  C   UNL d   1       6.764   1.017 -19.807  0.00  0.00     0.058 A 
ATOM     25  C   UNL d   1       5.678   0.776 -18.939  0.00  0.00     0.011 A 
ATOM     26 CL   UNL d   1       6.620   1.033 -21.502  0.00  0.00    -0.082 Cl
ATOM     27  C   UNL d   1       5.820   0.767 -17.530  0.00  0.00    -0.002 A 
ENDBRANCH  20  21
ENDBRANCH   9  20
TORSDOF 5
