REMARK  8 active torsions:
REMARK  status: ('A' for Active; 'I' for Inactive)
REMARK    1  A    between atoms: O_2  and  C_3 
REMARK    2  A    between atoms: C_8  and  N_9 
REMARK    3  A    between atoms: N_12  and  C_13 
REMARK    4  A    between atoms: C_13  and  C_14 
REMARK    5  A    between atoms: C_14  and  C_15 
REMARK    6  A    between atoms: C_15  and  C_16 
REMARK    7  A    between atoms: C_16  and  N_17 
REMARK    8  A    between atoms: N_17  and  C_18 
ROOT
ATOM      1  C   UNL d   1       9.514   5.164 -12.511  0.00  0.00     0.251 C 
ENDROOT
BRANCH   1   2
ATOM      2  N   UNL d   1       9.088   4.608 -13.788  0.00  0.00     0.141 N 
ATOM      3  C   UNL d   1      10.215   4.570 -14.730  0.00  0.00     0.274 C 
ATOM      4  C   UNL d   1       9.784   3.991 -16.091  0.00  0.00     0.137 C 
ATOM      5  N   UNL d   1       9.163   2.680 -15.907  0.00  0.00    -0.343 N 
ATOM      6  C   UNL d   1       8.142   2.602 -14.864  0.00  0.00     0.137 C 
ATOM      7  C   UNL d   1       8.652   3.222 -13.576  0.00  0.00     0.274 C 
BRANCH   5   8
ATOM      8  C   UNL d   1       9.561   1.547 -16.632  0.00  0.00     0.079 A 
ATOM      9  C   UNL d   1       8.607   0.587 -17.103  0.00  0.00     0.110 A 
ATOM     10  C   UNL d   1       9.059  -0.556 -17.796  0.00  0.00     0.026 A 
ATOM     11  C   UNL d   1      10.426  -0.756 -18.053  0.00  0.00     0.002 A 
ATOM     12  C   UNL d   1      11.365   0.194 -17.624  0.00  0.00     0.002 A 
ATOM     13  C   UNL d   1      10.940   1.324 -16.907  0.00  0.00     0.019 A 
BRANCH   9  14
ATOM     14  O   UNL d   1       7.270   0.857 -16.884  0.00  0.00    -0.327 OA
ATOM     15  C   UNL d   1       6.304  -0.105 -17.254  0.00  0.00     0.181 C 
ENDBRANCH   9  14
ENDBRANCH   5   8
ENDBRANCH   1   2
BRANCH   1  16
ATOM     16  C   UNL d   1       8.348   5.449 -11.524  0.00  0.00     0.037 C 
BRANCH  16  17
ATOM     17  C   UNL d   1       8.769   5.233 -10.060  0.00  0.00     0.028 C 
BRANCH  17  18
ATOM     18  C   UNL d   1       9.637   6.363  -9.519  0.00  0.00     0.127 C 
BRANCH  18  19
ATOM     19  N   UNL d   1      10.243   6.026  -8.239  0.00  0.00    -0.253 NA
BRANCH  19  20
ATOM     20  C   UNL d   1      10.569   7.010  -7.302  0.00  0.00     0.158 A 
ATOM     21  N   UNL d   1      11.089   6.549  -6.147  0.00  0.00    -0.227 NA
ATOM     22  C   UNL d   1      11.370   7.408  -5.137  0.00  0.00     0.083 A 
ATOM     23  C   UNL d   1      11.171   8.803  -5.311  0.00  0.00     0.018 A 
ATOM     24  C   UNL d   1      11.865   6.968  -3.888  0.00  0.00     0.019 A 
ATOM     25  C   UNL d   1      10.681   9.289  -6.528  0.00  0.00     0.005 A 
ATOM     26  C   UNL d   1      11.459   9.712  -4.282  0.00  0.00     0.002 A 
ATOM     27  C   UNL d   1      10.381   8.386  -7.552  0.00  0.00     0.038 A 
ATOM     28  C   UNL d   1      11.964   9.259  -3.055  0.00  0.00     0.000 A 
ATOM     29  C   UNL d   1      12.167   7.883  -2.851  0.00  0.00     0.002 A 
ENDBRANCH  19  20
ENDBRANCH  18  19
ENDBRANCH  17  18
ENDBRANCH  16  17
ENDBRANCH   1  16
TORSDOF 8
