REMARK  10 active torsions:
REMARK  status: ('A' for Active; 'I' for Inactive)
REMARK    1  A    between atoms: C_2  and  C_5 
REMARK    2  A    between atoms: C_8  and  C_9 
REMARK    3  A    between atoms: C_9  and  C_11 
REMARK    4  A    between atoms: C_11  and  C_12 
REMARK    5  A    between atoms: C_12  and  C_13 
REMARK    6  A    between atoms: C_13  and  N_14 
REMARK    7  A    between atoms: C_17  and  O_18 
REMARK    8  A    between atoms: O_18  and  C_19 
REMARK    9  A    between atoms: C_19  and  C_20 
REMARK   10  A    between atoms: C_19  and  C_26 
ROOT
ATOM      1  N   UNL d   1       9.591   4.669 -13.041  0.00  0.00     0.137 N 
ATOM      2  C   UNL d   1       8.813   4.923 -14.257  0.00  0.00     0.253 C 
ATOM      3  C   UNL d   1       9.646   4.493 -15.470  0.00  0.00     0.065 C 
ATOM      4  C   UNL d   1       9.923   2.993 -15.387  0.00  0.00     0.120 C 
ATOM      5  C   UNL d   1      10.626   2.675 -14.059  0.00  0.00     0.065 C 
ATOM      6  C   UNL d   1       9.783   3.231 -12.906  0.00  0.00     0.253 C 
ENDROOT
BRANCH   1   7
ATOM      7  C   UNL d   1       8.816   5.099 -11.886  0.00  0.00     0.251 C 
BRANCH   7   8
ATOM      8  C   UNL d   1       8.953   6.612 -11.658  0.00  0.00     0.043 C 
BRANCH   8   9
ATOM      9  C   UNL d   1       9.917   6.978 -10.529  0.00  0.00     0.071 C 
BRANCH   9  10
ATOM     10  C   UNL d   1       9.558   6.471  -9.128  0.00  0.00     0.173 C 
ATOM     11  O   UNL d   1       8.781   5.526  -8.984  0.00  0.00    -0.291 OA
BRANCH  10  12
ATOM     12  C   UNL d   1      10.223   7.156  -7.990  0.00  0.00     0.035 A 
ATOM     13  C   UNL d   1      11.250   8.126  -8.173  0.00  0.00     0.003 A 
ATOM     14  C   UNL d   1      11.835   8.745  -7.057  0.00  0.00    -0.004 A 
ATOM     15  C   UNL d   1      11.470   8.376  -5.735  0.00  0.00    -0.023 A 
ATOM     16  C   UNL d   1      10.510   7.353  -5.578  0.00  0.00    -0.004 A 
ATOM     17  C   UNL d   1       9.859   6.792  -6.688  0.00  0.00     0.003 A 
BRANCH  15  18
ATOM     18  C   UNL d   1      12.118   9.008  -4.485  0.00  0.00     0.019 C 
ATOM     19  C   UNL d   1      12.549   7.926  -3.464  0.00  0.00     0.004 C 
ATOM     20  C   UNL d   1      11.157   9.988  -3.808  0.00  0.00     0.004 C 
ATOM     21  C   UNL d   1      13.352   9.812  -4.866  0.00  0.00     0.004 C 
ENDBRANCH  15  18
ENDBRANCH  10  12
ENDBRANCH   9  10
ENDBRANCH   8   9
ENDBRANCH   7   8
ENDBRANCH   1   7
BRANCH   4  22
ATOM     22  O   UNL d   1      10.734   2.628 -16.497  0.00  0.00    -0.350 OA
BRANCH  22  23
ATOM     23  C   UNL d   1      10.625   1.281 -16.936  0.00  0.00     0.160 C 
BRANCH  23  24
ATOM     24  C   UNL d   1      11.723   0.934 -17.936  0.00  0.00     0.009 A 
ATOM     25  C   UNL d   1      11.879  -0.400 -18.375  0.00  0.00    -0.002 A 
ATOM     26  C   UNL d   1      12.879  -0.728 -19.312  0.00  0.00    -0.000 A 
ATOM     27  C   UNL d   1      13.716   0.278 -19.829  0.00  0.00    -0.000 A 
ATOM     28  C   UNL d   1      13.561   1.611 -19.404  0.00  0.00    -0.000 A 
ATOM     29  C   UNL d   1      12.571   1.937 -18.459  0.00  0.00    -0.002 A 
ENDBRANCH  23  24
BRANCH  23  30
ATOM     30  C   UNL d   1       9.250   1.016 -17.533  0.00  0.00     0.009 A 
ATOM     31  C   UNL d   1       8.318   0.216 -16.840  0.00  0.00    -0.002 A 
ATOM     32  C   UNL d   1       7.045  -0.022 -17.390  0.00  0.00    -0.000 A 
ATOM     33  C   UNL d   1       6.699   0.530 -18.638  0.00  0.00    -0.000 A 
ATOM     34  C   UNL d   1       7.628   1.325 -19.335  0.00  0.00    -0.000 A 
ATOM     35  C   UNL d   1       8.896   1.577 -18.779  0.00  0.00    -0.002 A 
ENDBRANCH  23  30
ENDBRANCH  22  23
ENDBRANCH   4  22
TORSDOF 10
