REMARK  10 active torsions:
REMARK  status: ('A' for Active; 'I' for Inactive)
REMARK    1  A    between atoms: C_3  and  S_4 
REMARK    2  A    between atoms: S_4  and  C_5 
REMARK    3  A    between atoms: C_5  and  C_6 
REMARK    4  A    between atoms: C_6  and  C_7 
REMARK    5  A    between atoms: C_7  and  N_8 
REMARK    6  A    between atoms: N_16  and  C_17 
REMARK    7  A    between atoms: C_22  and  O_23 
REMARK    8  A    between atoms: O_23  and  C_24 
REMARK    9  A    between atoms: C_24  and  C_25 
REMARK   10  A    between atoms: C_31  and  C_32 
ROOT
ATOM      1  N   UNL d   1       9.888   3.411 -14.181  0.00  0.00     0.137 N 
ATOM      2  C   UNL d   1      10.242   4.065 -15.444  0.00  0.00     0.250 C 
ATOM      3  C   UNL d   1      11.267   3.216 -16.201  0.00  0.00     0.035 C 
ATOM      4  C   UNL d   1      10.721   1.800 -16.529  0.00  0.00     0.008 C 
ATOM      5  C   UNL d   1      10.267   1.179 -15.187  0.00  0.00     0.035 C 
ATOM      6  C   UNL d   1       9.286   2.099 -14.449  0.00  0.00     0.250 C 
ATOM      7  C   UNL d   1       9.553   1.831 -17.552  0.00  0.00     0.024 C 
ATOM      8  C   UNL d   1      10.019   2.343 -18.934  0.00  0.00     0.102 C 
ATOM      9  N   UNL d   1      11.175   1.577 -19.399  0.00  0.00    -0.347 N 
ATOM     10  C   UNL d   1      12.311   1.429 -18.494  0.00  0.00     0.102 C 
ATOM     11  C   UNL d   1      11.830   0.924 -17.135  0.00  0.00     0.024 C 
ENDROOT
BRANCH   1  12
ATOM     12  C   UNL d   1       8.919   4.227 -13.456  0.00  0.00     0.251 C 
BRANCH  12  13
ATOM     13  C   UNL d   1       9.622   5.370 -12.740  0.00  0.00     0.047 C 
BRANCH  13  14
ATOM     14  C   UNL d   1       8.682   6.236 -11.920  0.00  0.00     0.067 C 
BRANCH  14  15
ATOM     15  S   UNL d   1       9.624   7.633 -11.230  0.00  0.00    -0.075 SA
BRANCH  15  16
ATOM     16  C   UNL d   1       9.696   7.264  -9.516  0.00  0.00     0.193 A 
ATOM     17  N   UNL d   1      10.312   8.096  -8.653  0.00  0.00    -0.289 N 
ATOM     18  C   UNL d   1      10.990   9.351  -8.967  0.00  0.00     0.134 C 
ATOM     19  C   UNL d   1      10.190   7.428  -7.478  0.00  0.00     0.167 A 
ATOM     20  N   UNL d   1       9.537   6.277  -7.619  0.00  0.00    -0.128 NA
ATOM     21  N   UNL d   1       9.210   6.168  -8.947  0.00  0.00    -0.122 NA
BRANCH  19  22
ATOM     22  C   UNL d   1      10.753   7.811  -6.184  0.00  0.00     0.036 A 
ATOM     23  C   UNL d   1      11.315   6.820  -5.331  0.00  0.00     0.003 A 
ATOM     24  C   UNL d   1      11.877   7.174  -4.090  0.00  0.00     0.000 A 
ATOM     25  C   UNL d   1      11.947   8.526  -3.706  0.00  0.00     0.000 A 
ATOM     26  C   UNL d   1      11.391   9.513  -4.555  0.00  0.00     0.000 A 
ATOM     27  C   UNL d   1      10.755   9.158  -5.764  0.00  0.00     0.003 A 
ENDBRANCH  19  22
ENDBRANCH  15  16
ENDBRANCH  14  15
ENDBRANCH  13  14
ENDBRANCH  12  13
ENDBRANCH   1  12
BRANCH   9  28
ATOM     28  C   UNL d   1      11.124   0.900 -20.634  0.00  0.00     0.079 A 
ATOM     29  C   UNL d   1      12.256   0.823 -21.498  0.00  0.00     0.110 A 
ATOM     30  C   UNL d   1      12.127   0.143 -22.727  0.00  0.00     0.026 A 
ATOM     31  C   UNL d   1      10.896  -0.407 -23.132  0.00  0.00     0.002 A 
ATOM     32  C   UNL d   1       9.780  -0.323 -22.284  0.00  0.00     0.002 A 
ATOM     33  C   UNL d   1       9.901   0.307 -21.041  0.00  0.00     0.019 A 
BRANCH  29  34
ATOM     34  O   UNL d   1      13.420   1.481 -21.118  0.00  0.00    -0.326 OA
BRANCH  34  35
ATOM     35  C   UNL d   1      14.648   1.248 -21.815  0.00  0.00     0.187 C 
BRANCH  35  36
ATOM     36  C   UNL d   1      15.294  -0.087 -21.387  0.00  0.00     0.226 C 
ATOM     37  F   UNL d   1      15.786  -0.003 -20.150  0.00  0.00    -0.232 F 
ENDBRANCH  35  36
ENDBRANCH  34  35
ENDBRANCH  29  34
ENDBRANCH   9  28
TORSDOF 10
