REMARK  5 active torsions:
REMARK  status: ('A' for Active; 'I' for Inactive)
REMARK    1  A    between atoms: C_2  and  C_4 
REMARK    2  A    between atoms: C_7  and  S_8 
REMARK    3  A    between atoms: S_8  and  C_11 
REMARK    4  A    between atoms: C_17  and  N_18 
REMARK    5  A    between atoms: N_18  and  C_19 
ROOT
ATOM      1  C   UNL d   1       7.716   5.759 -12.166  0.00  0.00     0.192 A 
ATOM      2  N   UNL d   1       6.598   6.382 -11.684  0.00  0.00    -0.136 NA
ATOM      3  N   UNL d   1       5.485   5.627 -11.967  0.00  0.00    -0.147 NA
ATOM      4  C   UNL d   1       5.960   4.566 -12.653  0.00  0.00     0.105 A 
ATOM      5  C   UNL d   1       5.213   3.500 -13.178  0.00  0.00     0.022 A 
ATOM      6  C   UNL d   1       5.896   2.482 -13.893  0.00  0.00     0.020 A 
ATOM      7  C   UNL d   1       7.289   2.538 -14.085  0.00  0.00     0.076 A 
ATOM      8  C   UNL d   1       8.025   3.602 -13.514  0.00  0.00     0.022 A 
ATOM      9  C   UNL d   1       7.325   4.606 -12.812  0.00  0.00     0.051 A 
ENDROOT
BRANCH   1  10
ATOM     10  S   UNL d   1       9.358   6.369 -11.995  0.00  0.00     0.228 S 
ATOM     11  O   UNL d   1       9.376   7.693 -12.624  0.00  0.00    -0.216 OA
ATOM     12  O   UNL d   1      10.255   5.296 -12.444  0.00  0.00    -0.216 OA
BRANCH  10  13
ATOM     13  C   UNL d   1       9.621   6.647 -10.263  0.00  0.00     0.089 A 
ATOM     14  C   UNL d   1       9.018   5.813  -9.317  0.00  0.00     0.011 A 
ATOM     15  C   UNL d   1       9.173   6.110  -7.954  0.00  0.00    -0.004 A 
ATOM     16  C   UNL d   1       9.965   7.202  -7.529  0.00  0.00    -0.022 A 
ATOM     17  C   UNL d   1      10.582   8.019  -8.503  0.00  0.00    -0.004 A 
ATOM     18  C   UNL d   1      10.398   7.754  -9.869  0.00  0.00     0.011 A 
BRANCH  16  19
ATOM     19  C   UNL d   1      10.111   7.479  -6.034  0.00  0.00     0.022 C 
ATOM     20  C   UNL d   1      10.272   8.974  -5.712  0.00  0.00     0.005 C 
ATOM     21  C   UNL d   1      11.269   6.699  -5.414  0.00  0.00     0.005 C 
ENDBRANCH  16  19
ENDBRANCH  10  13
ENDBRANCH   1  10
BRANCH   7  22
ATOM     22  N   UNL d   1       7.881   1.525 -14.849  0.00  0.00    -0.273 NA
BRANCH  22  23
ATOM     23  C   UNL d   1       9.271   1.621 -15.272  0.00  0.00     0.108 C 
ATOM     24  C   UNL d   1       9.723   0.296 -15.887  0.00  0.00     0.062 C 
ATOM     25  C   UNL d   1      11.148   0.428 -16.439  0.00  0.00     0.292 C 
ATOM     26  N   UNL d   1      11.247   1.484 -17.436  0.00  0.00     0.339 N 
ATOM     27  C   UNL d   1      10.931   2.763 -16.819  0.00  0.00     0.292 C 
ATOM     28  C   UNL d   1       9.485   2.749 -16.304  0.00  0.00     0.062 C 
ENDBRANCH  22  23
ENDBRANCH   7  22
TORSDOF 5
