REMARK  7 active torsions:
REMARK  status: ('A' for Active; 'I' for Inactive)
REMARK    1  A    between atoms: C_2  and  C_3 
REMARK    2  A    between atoms: C_3  and  C_4 
REMARK    3  A    between atoms: C_4  and  N_5 
REMARK    4  A    between atoms: N_8  and  C_9 
REMARK    5  A    between atoms: C_14  and  O_15 
REMARK    6  A    between atoms: O_15  and  C_16 
REMARK    7  A    between atoms: C_16  and  C_17 
ROOT
ATOM      1  N   UNL d   1      10.928   2.159 -16.650  0.00  0.00     0.141 N 
ATOM      2  C   UNL d   1      11.060   3.590 -16.354  0.00  0.00     0.274 C 
ATOM      3  C   UNL d   1       9.688   4.209 -16.054  0.00  0.00     0.137 C 
ATOM      4  N   UNL d   1       9.037   3.470 -14.980  0.00  0.00    -0.343 N 
ATOM      5  C   UNL d   1       8.958   2.029 -15.179  0.00  0.00     0.137 C 
ATOM      6  C   UNL d   1      10.352   1.470 -15.491  0.00  0.00     0.274 C 
ENDROOT
BRANCH   4   7
ATOM      7  C   UNL d   1       8.480   4.115 -13.860  0.00  0.00     0.079 A 
ATOM      8  C   UNL d   1       7.229   3.717 -13.314  0.00  0.00     0.110 A 
ATOM      9  C   UNL d   1       6.727   4.395 -12.176  0.00  0.00     0.026 A 
ATOM     10  C   UNL d   1       7.450   5.452 -11.593  0.00  0.00     0.002 A 
ATOM     11  C   UNL d   1       8.680   5.848 -12.139  0.00  0.00     0.002 A 
ATOM     12  C   UNL d   1       9.191   5.178 -13.263  0.00  0.00     0.019 A 
BRANCH   8  13
ATOM     13  O   UNL d   1       6.541   2.693 -13.932  0.00  0.00    -0.326 OA
BRANCH  13  14
ATOM     14  C   UNL d   1       5.549   2.001 -13.192  0.00  0.00     0.187 C 
BRANCH  14  15
ATOM     15  C   UNL d   1       5.327   0.636 -13.856  0.00  0.00     0.226 C 
ATOM     16  F   UNL d   1       4.335  -0.014 -13.258  0.00  0.00    -0.232 F 
ENDBRANCH  14  15
ENDBRANCH  13  14
ENDBRANCH   8  13
ENDBRANCH   4   7
BRANCH   1  17
ATOM     17  C   UNL d   1      12.242   1.598 -16.936  0.00  0.00     0.250 C 
BRANCH  17  18
ATOM     18  C   UNL d   1      12.583   1.709 -18.432  0.00  0.00     0.035 C 
BRANCH  18  19
ATOM     19  C   UNL d   1      11.682   0.849 -19.339  0.00  0.00     0.002 C 
ATOM     20  C   UNL d   1      11.757  -0.659 -19.052  0.00  0.00     0.000 C 
ENDBRANCH  18  19
ENDBRANCH  17  18
ENDBRANCH   1  17
TORSDOF 7
