REMARK  1 active torsions:
REMARK  status: ('A' for Active; 'I' for Inactive)
REMARK    1  A    between atoms: C_10  and  C_11 
ROOT
ATOM      1  C   UNL d   1      11.862  10.395  -6.281  0.00  0.00     0.052 C 
ATOM      2  C   UNL d   1      11.223   9.085  -6.675  0.00  0.00     0.063 A 
ATOM      3  N   UNL d   1      10.809   9.075  -8.015  0.00  0.00    -0.212 NA
ATOM      4  C   UNL d   1      10.235   8.038  -8.660  0.00  0.00     0.288 A 
ATOM      5  O   UNL d   1       9.930   8.126  -9.848  0.00  0.00    -0.264 OA
ATOM      6  C   UNL d   1      10.047   6.852  -7.830  0.00  0.00     0.126 A 
ATOM      7  C   UNL d   1       9.425   5.724  -8.441  0.00  0.00     0.106 C 
ATOM      8  N   UNL d   1       8.978   4.761  -8.896  0.00  0.00    -0.191 NA
ATOM      9  C   UNL d   1      10.447   6.845  -6.540  0.00  0.00     0.016 A 
ATOM     10  C   UNL d   1      11.052   7.997  -5.890  0.00  0.00     0.015 A 
ENDROOT
BRANCH  10  11
ATOM     11  C   UNL d   1      11.465   7.927  -4.455  0.00  0.00     0.004 A 
ATOM     12  C   UNL d   1      11.857   6.703  -3.887  0.00  0.00     0.021 A 
ATOM     13  C   UNL d   1      12.267   6.682  -2.539  0.00  0.00     0.099 A 
ATOM     14  N   UNL d   1      12.358   7.788  -1.773  0.00  0.00    -0.242 NA
ATOM     15  C   UNL d   1      11.942   8.945  -2.308  0.00  0.00     0.099 A 
ATOM     16  C   UNL d   1      11.441   9.060  -3.611  0.00  0.00     0.021 A 
ENDBRANCH  10  11
TORSDOF 1
