REMARK  5 active torsions:
REMARK  status: ('A' for Active; 'I' for Inactive)
REMARK    1  A    between atoms: C_2  and  C_3 
REMARK    2  A    between atoms: C_3  and  C_4 
REMARK    3  A    between atoms: C_4  and  C_5 
REMARK    4  A    between atoms: C_7  and  C_8 
REMARK    5  A    between atoms: C_14  and  N_15 
ROOT
ATOM      1  C   UNL d   1       8.950   5.289 -13.176  0.00  0.00     0.079 A 
ATOM      2  C   UNL d   1       7.941   4.313 -13.289  0.00  0.00     0.035 A 
ATOM      3  C   UNL d   1       8.219   3.213 -14.123  0.00  0.00     0.103 A 
ATOM      4  N   UNL d   1       9.394   3.132 -14.780  0.00  0.00    -0.061 NA
ATOM      5  C   UNL d   1      10.288   4.107 -14.610  0.00  0.00     0.727 A 
ATOM      6  N   UNL d   1      10.127   5.177 -13.826  0.00  0.00    -0.066 NA
ENDROOT
BRANCH   5   7
ATOM      7  N   UNL d   1      11.481   4.009 -15.328  0.00  0.00    -0.179 N 
ATOM      8  C   UNL d   1      11.841   2.837 -16.126  0.00  0.00     0.155 C 
ATOM      9  C   UNL d   1      12.223   3.256 -17.556  0.00  0.00     0.275 C 
ATOM     10  N   UNL d   1      13.318   4.226 -17.529  0.00  0.00     0.143 N 
ATOM     11  C   UNL d   1      12.869   5.418 -16.809  0.00  0.00     0.275 C 
ATOM     12  C   UNL d   1      13.673   4.591 -18.892  0.00  0.00     0.286 C 
ATOM     13  C   UNL d   1      12.505   5.054 -15.356  0.00  0.00     0.155 C 
ENDBRANCH   5   7
BRANCH   3  14
ATOM     14  C   UNL d   1       7.275   2.095 -14.330  0.00  0.00     0.045 A 
ATOM     15  C   UNL d   1       6.069   1.938 -13.703  0.00  0.00     0.124 A 
ATOM     16  O   UNL d   1       5.476   0.779 -14.101  0.00  0.00    -0.303 OA
ATOM     17  C   UNL d   1       6.327   0.195 -14.995  0.00  0.00     0.123 A 
ATOM     18  C   UNL d   1       7.455   0.950 -15.158  0.00  0.00     0.030 A 
ENDBRANCH   3  14
BRANCH   1  19
ATOM     19  C   UNL d   1       8.771   6.503 -12.282  0.00  0.00     0.046 C 
BRANCH  19  20
ATOM     20  C   UNL d   1       9.361   6.302 -10.876  0.00  0.00     0.006 C 
BRANCH  20  21
ATOM     21  C   UNL d   1       8.944   4.970 -10.223  0.00  0.00     0.000 C 
ATOM     22  C   UNL d   1       9.365   4.856  -8.764  0.00  0.00     0.000 C 
ENDBRANCH  20  21
ENDBRANCH  19  20
ENDBRANCH   1  19
TORSDOF 5
