REMARK  5 active torsions:
REMARK  status: ('A' for Active; 'I' for Inactive)
REMARK    1  A    between atoms: C_2  and  C_3 
REMARK    2  A    between atoms: C_3  and  C_4 
REMARK    3  A    between atoms: C_4  and  C_5 
REMARK    4  A    between atoms: C_4  and  N_14 
REMARK    5  A    between atoms: C_5  and  C_7 
ROOT
ATOM      1  C   UNL d   1       8.061   5.568 -11.282  0.00  0.00     0.280 C 
ENDROOT
BRANCH   1   2
ATOM      2  C   UNL d   1       7.708   6.737 -12.200  0.00  0.00     0.041 C 
BRANCH   2   3
ATOM      3  C   UNL d   1       6.282   6.638 -12.744  0.00  0.00     0.003 C 
ATOM      4  C   UNL d   1       5.912   7.965 -13.438  0.00  0.00     0.000 C 
ENDBRANCH   2   3
ENDBRANCH   1   2
BRANCH   1   5
ATOM      5  C   UNL d   1       8.704   4.459 -12.143  0.00  0.00     0.204 C 
ATOM      6  O   UNL d   1       9.885   4.165 -12.085  0.00  0.00    -0.289 OA
BRANCH   5   7
ATOM      7  C   UNL d   1       7.897   3.779 -13.170  0.00  0.00     0.033 A 
ATOM      8  C   UNL d   1       6.622   3.267 -12.921  0.00  0.00    -0.019 A 
ATOM      9  C   UNL d   1       6.029   2.467 -13.918  0.00  0.00    -0.004 A 
ATOM     10  C   UNL d   1       5.875   3.342 -11.601  0.00  0.00     0.031 C 
ATOM     11  C   UNL d   1       6.719   2.198 -15.102  0.00  0.00    -0.000 A 
ATOM     12  C   UNL d   1       8.012   2.694 -15.320  0.00  0.00     0.000 A 
ATOM     13  C   UNL d   1       8.613   3.494 -14.345  0.00  0.00     0.003 A 
ENDBRANCH   5   7
ENDBRANCH   1   5
BRANCH   1  14
ATOM     14  N   UNL d   1       8.797   5.969 -10.078  0.00  0.00     0.142 N 
ATOM     15  C   UNL d   1       9.992   6.767 -10.285  0.00  0.00     0.251 C 
ATOM     16  C   UNL d   1      10.602   6.833  -8.902  0.00  0.00     0.037 C 
ATOM     17  C   UNL d   1      10.088   5.582  -8.193  0.00  0.00     0.037 C 
ATOM     18  C   UNL d   1       9.120   4.893  -9.137  0.00  0.00     0.251 C 
ENDBRANCH   1  14
TORSDOF 5
