REMARK  5 active torsions:
REMARK  status: ('A' for Active; 'I' for Inactive)
REMARK    1  A    between atoms: C_5  and  O_6 
REMARK    2  A    between atoms: O_6  and  C_7 
REMARK    3  A    between atoms: C_7  and  C_8 
REMARK    4  A    between atoms: N_11  and  C_12 
REMARK    5  A    between atoms: C_12  and  C_13 
ROOT
ATOM      1  C   UNL d   1       9.618   6.075 -10.498  0.00  0.00     0.034 C 
ATOM      2  C   UNL d   1       8.715   6.788 -11.503  0.00  0.00     0.038 C 
ATOM      3  C   UNL d   1       8.929   6.243 -12.916  0.00  0.00     0.250 C 
ATOM      4  N   UNL d   1       8.665   4.803 -12.959  0.00  0.00     0.137 N 
ATOM      5  C   UNL d   1       9.617   4.105 -12.100  0.00  0.00     0.250 C 
ATOM      6  C   UNL d   1       9.428   4.568 -10.649  0.00  0.00     0.038 C 
ENDROOT
BRANCH   1   7
ATOM      7  C   UNL d   1       9.329   6.485  -9.047  0.00  0.00     0.149 C 
BRANCH   7   8
ATOM      8  O   UNL d   1      10.008   7.709  -8.767  0.00  0.00    -0.331 OA
BRANCH   8   9
ATOM      9  C   UNL d   1      10.489   7.938  -7.494  0.00  0.00     0.094 A 
ATOM     10  C   UNL d   1      11.049   9.207  -7.248  0.00  0.00     0.025 A 
ATOM     11  C   UNL d   1      11.573   9.543  -5.983  0.00  0.00     0.008 A 
ATOM     12  C   UNL d   1      11.556   8.583  -4.949  0.00  0.00     0.030 A 
ATOM     13  I   UNL d   1      12.292   9.047  -3.047  0.00  0.00    -0.043 I 
ATOM     14  C   UNL d   1      11.031   7.304  -5.194  0.00  0.00     0.008 A 
ATOM     15  C   UNL d   1      10.477   6.989  -6.445  0.00  0.00     0.025 A 
ENDBRANCH   8   9
ENDBRANCH   7   8
ENDBRANCH   1   7
BRANCH   4  16
ATOM     16  C   UNL d   1       8.797   4.330 -14.334  0.00  0.00     0.250 C 
BRANCH  16  17
ATOM     17  C   UNL d   1       8.185   2.953 -14.497  0.00  0.00     0.033 A 
ATOM     18  C   UNL d   1       8.409   2.178 -15.772  0.00  0.00     0.002 A 
ATOM     19  C   UNL d   1       9.047   1.715 -14.490  0.00  0.00     0.002 A 
ENDBRANCH  16  17
ENDBRANCH   4  16
TORSDOF 5
