REMARK  9 active torsions:
REMARK  status: ('A' for Active; 'I' for Inactive)
REMARK    1  A    between atoms: O_2  and  C_3 
REMARK    2  A    between atoms: C_6  and  C_7 
REMARK       I    between atoms: C_7  and  N_9 
REMARK    3  A    between atoms: N_9  and  C_10 
REMARK    4  A    between atoms: C_10  and  C_11 
REMARK    5  A    between atoms: C_11  and  C_12 
REMARK    6  A    between atoms: C_12  and  C_13 
REMARK    7  A    between atoms: C_13  and  N_14 
REMARK    8  A    between atoms: N_17  and  C_18 
REMARK    9  A    between atoms: C_28  and  O_29 
ROOT
ATOM      1  C   UNL d   1       9.655   5.725 -12.091  0.00  0.00     0.029 C 
ENDROOT
BRANCH   1   2
ATOM      2  C   UNL d   1       9.318   4.227 -12.027  0.00  0.00     0.129 C 
BRANCH   2   3
ATOM      3  N   UNL d   1       9.449   3.563 -13.310  0.00  0.00    -0.234 NA
ATOM      4  C   UNL d   1      10.594   3.476 -14.021  0.00  0.00     0.275 C 
ATOM      5  O   UNL d   1      11.592   4.160 -13.814  0.00  0.00    -0.266 OA
BRANCH   4   6
ATOM      6  C   UNL d   1      10.587   2.442 -15.104  0.00  0.00     0.060 A 
ATOM      7  C   UNL d   1       9.883   1.229 -14.950  0.00  0.00     0.007 A 
ATOM      8  C   UNL d   1       9.995   0.231 -15.931  0.00  0.00     0.026 A 
ATOM      9  C   UNL d   1      10.802   0.441 -17.067  0.00  0.00     0.116 A 
ATOM     10  C   UNL d   1      11.542   1.639 -17.221  0.00  0.00     0.116 A 
ATOM     11  C   UNL d   1      11.417   2.636 -16.229  0.00  0.00     0.031 A 
BRANCH   9  12
ATOM     12  O   UNL d   1      10.881  -0.585 -17.974  0.00  0.00    -0.326 OA
ATOM     13  C   UNL d   1      10.307  -0.267 -19.234  0.00  0.00     0.181 C 
ENDBRANCH   9  12
BRANCH  10  14
ATOM     14  O   UNL d   1      12.384   1.764 -18.311  0.00  0.00    -0.326 OA
ATOM     15  C   UNL d   1      13.137   2.964 -18.441  0.00  0.00     0.181 C 
ENDBRANCH  10  14
ENDBRANCH   4   6
ENDBRANCH   2   3
ENDBRANCH   1   2
BRANCH   1  16
ATOM     16  C   UNL d   1       9.888   6.285 -10.700  0.00  0.00     0.037 C 
BRANCH  16  17
ATOM     17  C   UNL d   1       9.856   7.829 -10.669  0.00  0.00     0.251 C 
BRANCH  17  18
ATOM     18  N   UNL d   1       9.881   8.399  -9.325  0.00  0.00     0.141 N 
ATOM     19  C   UNL d   1       9.251   7.506  -8.334  0.00  0.00     0.274 C 
ATOM     20  C   UNL d   1       9.170   8.118  -6.966  0.00  0.00     0.137 C 
ATOM     21  N   UNL d   1      10.532   8.450  -6.624  0.00  0.00    -0.344 N 
ATOM     22  C   UNL d   1      11.264   9.324  -7.505  0.00  0.00     0.137 C 
ATOM     23  C   UNL d   1      11.251   8.719  -8.923  0.00  0.00     0.274 C 
BRANCH  21  24
ATOM     24  C   UNL d   1      11.081   8.098  -5.398  0.00  0.00     0.067 A 
ATOM     25  C   UNL d   1      11.284   9.085  -4.428  0.00  0.00     0.073 A 
ATOM     26  C   UNL d   1      11.864   8.759  -3.180  0.00  0.00     0.013 A 
ATOM     27 CL   UNL d   1      10.663  10.648  -4.801  0.00  0.00    -0.081 Cl
ATOM     28  C   UNL d   1      12.231   7.417  -2.918  0.00  0.00     0.001 A 
ATOM     29  C   UNL d   1      12.017   6.453  -3.920  0.00  0.00     0.002 A 
ATOM     30  C   UNL d   1      11.447   6.776  -5.157  0.00  0.00     0.018 A 
ENDBRANCH  21  24
ENDBRANCH  17  18
ENDBRANCH  16  17
ENDBRANCH   1  16
TORSDOF 9
