REMARK  5 active torsions:
REMARK  status: ('A' for Active; 'I' for Inactive)
REMARK    1  A    between atoms: S_2  and  N_4 
REMARK    2  A    between atoms: S_2  and  C_20 
REMARK    3  A    between atoms: N_4  and  C_5 
REMARK    4  A    between atoms: C_11  and  C_12 
REMARK    5  A    between atoms: C_12  and  C_13 
ROOT
ATOM      1  C   UNL d   1       9.886   6.485 -10.178  0.00  0.00     0.094 A 
ATOM      2  C   UNL d   1      10.218   7.696 -10.816  0.00  0.00     0.021 A 
ATOM      3  C   UNL d   1      10.747   8.769 -10.144  0.00  0.00     0.021 A 
ATOM      4  C   UNL d   1      10.888   8.671  -8.786  0.00  0.00     0.081 A 
ATOM      5  N   UNL d   1      11.336   9.592  -7.903  0.00  0.00    -0.244 NA
ATOM      6  C   UNL d   1      11.300   9.083  -6.672  0.00  0.00     0.095 A 
ATOM      7  C   UNL d   1      10.860   7.772  -6.684  0.00  0.00     0.001 A 
ATOM      8  C   UNL d   1      10.563   7.497  -8.050  0.00  0.00     0.017 A 
ATOM      9  C   UNL d   1      10.063   6.399  -8.785  0.00  0.00     0.021 A 
ENDROOT
BRANCH   1  10
ATOM     10  N   UNL d   1       9.437   5.351 -10.844  0.00  0.00    -0.158 NA
BRANCH  10  11
ATOM     11  S   UNL d   1       9.408   5.041 -12.544  0.00  0.00     0.286 S 
ATOM     12  O   UNL d   1       9.172   6.323 -13.178  0.00  0.00    -0.198 OA
ATOM     13  O   UNL d   1      10.583   4.221 -12.850  0.00  0.00    -0.198 OA
BRANCH  11  14
ATOM     14  C   UNL d   1       7.887   4.136 -12.814  0.00  0.00     0.116 A 
ATOM     15  C   UNL d   1       7.789   3.124 -13.800  0.00  0.00     0.070 A 
ATOM     16  C   UNL d   1       6.565   2.434 -13.928  0.00  0.00     0.012 A 
ATOM     17 CL   UNL d   1       9.108   2.599 -14.773  0.00  0.00    -0.082 Cl
ATOM     18  C   UNL d   1       5.470   2.771 -13.121  0.00  0.00     0.001 A 
ATOM     19  C   UNL d   1       5.570   3.835 -12.209  0.00  0.00     0.001 A 
ATOM     20  C   UNL d   1       6.778   4.526 -12.052  0.00  0.00     0.014 A 
ENDBRANCH  11  14
ENDBRANCH  10  11
ENDBRANCH   1  10
BRANCH   7  21
ATOM     21  C   UNL d   1      10.694   6.811  -5.537  0.00  0.00     0.064 C 
BRANCH  21  22
ATOM     22  C   UNL d   1      11.800   6.877  -4.458  0.00  0.00     0.261 C 
ATOM     23  N   UNL d   1      11.378   6.389  -3.180  0.00  0.00     0.337 N 
ATOM     24  C   UNL d   1      12.248   6.955  -2.193  0.00  0.00     0.290 C 
ATOM     25  C   UNL d   1      12.489   8.377  -2.630  0.00  0.00     0.040 C 
ATOM     26  C   UNL d   1      12.207   8.282  -4.064  0.00  0.00     0.038 C 
ENDBRANCH  21  22
ENDBRANCH   7  21
TORSDOF 5
