REMARK  6 active torsions:
REMARK  status: ('A' for Active; 'I' for Inactive)
REMARK    1  A    between atoms: C_2  and  C_3 
REMARK    2  A    between atoms: C_3  and  N_4 
REMARK    3  A    between atoms: N_4  and  C_5 
REMARK    4  A    between atoms: N_4  and  C_8 
REMARK    5  A    between atoms: C_5  and  C_6 
REMARK    6  A    between atoms: C_16  and  O_17 
ROOT
ATOM      1  C   UNL d   1       6.828   3.854 -12.262  0.00  0.00     0.224 C 
ATOM      2  C   UNL d   1       5.321   3.661 -12.445  0.00  0.00     0.038 C 
ATOM      3  C   UNL d   1       5.011   2.167 -12.597  0.00  0.00     0.030 C 
ATOM      4  C   UNL d   1       5.872   1.476 -13.657  0.00  0.00    -0.004 A 
ATOM      5  C   UNL d   1       7.113   2.037 -14.056  0.00  0.00    -0.022 A 
ATOM      6  C   UNL d   1       7.921   1.375 -14.995  0.00  0.00    -0.004 A 
ATOM      7  C   UNL d   1       7.505   0.156 -15.541  0.00  0.00     0.002 A 
ATOM      8  C   UNL d   1       6.284  -0.417 -15.164  0.00  0.00     0.024 A 
ATOM      9  C   UNL d   1       5.459   0.249 -14.232  0.00  0.00     0.090 A 
ATOM     10  C   UNL d   1       7.597   3.365 -13.525  0.00  0.00     0.059 C 
ENDROOT
BRANCH   1  11
ATOM     11  N   UNL d   1       7.194   5.205 -11.811  0.00  0.00     0.135 N 
BRANCH  11  12
ATOM     12  C   UNL d   1       8.561   5.314 -11.312  0.00  0.00     0.250 C 
BRANCH  12  13
ATOM     13  C   UNL d   1       8.499   5.198  -9.791  0.00  0.00     0.035 C 
ATOM     14  C   UNL d   1       9.872   4.918  -9.219  0.00  0.00     0.002 C 
ENDBRANCH  12  13
ENDBRANCH  11  12
BRANCH  11  15
ATOM     15  C   UNL d   1       6.953   6.182 -12.837  0.00  0.00     0.250 C 
BRANCH  15  16
ATOM     16  C   UNL d   1       6.874   7.634 -12.428  0.00  0.00     0.035 C 
ATOM     17  C   UNL d   1       5.454   8.041 -12.038  0.00  0.00     0.002 C 
ENDBRANCH  15  16
ENDBRANCH  11  15
ENDBRANCH   1  11
BRANCH   9  18
ATOM     18  O   UNL d   1       4.260  -0.284 -13.835  0.00  0.00    -0.328 OA
ATOM     19  C   UNL d   1       3.572  -1.122 -14.750  0.00  0.00     0.181 C 
ENDBRANCH   9  18
TORSDOF 6
