REMARK  6 active torsions:
REMARK  status: ('A' for Active; 'I' for Inactive)
REMARK       I    between atoms: C_2  and  N_3 
REMARK    1  A    between atoms: C_2  and  C_27 
REMARK    2  A    between atoms: N_3  and  C_4 
REMARK    3  A    between atoms: C_7  and  C_8 
REMARK    4  A    between atoms: C_8  and  C_9 
REMARK    5  A    between atoms: C_9  and  N_10 
REMARK    6  A    between atoms: C_13  and  C_14 
ROOT
ATOM      1  C   UNL d   1       8.522   5.195 -12.090  0.00  0.00     0.035 C 
ENDROOT
BRANCH   1   2
ATOM      2  C   UNL d   1       8.232   3.945 -12.925  0.00  0.00     0.002 C 
ATOM      3  C   UNL d   1       6.750   3.479 -12.863  0.00  0.00     0.002 C 
ATOM      4  C   UNL d   1       6.501   2.208 -13.694  0.00  0.00     0.024 C 
ATOM      5  C   UNL d   1       6.939   2.413 -15.146  0.00  0.00     0.106 C 
ATOM      6  C   UNL d   1       8.422   2.869 -15.214  0.00  0.00     0.024 C 
ATOM      7  C   UNL d   1       8.679   4.127 -14.379  0.00  0.00     0.002 C 
BRANCH   5   8
ATOM      8  N   UNL d   1       6.744   1.175 -15.896  0.00  0.00    -0.240 NA
ATOM      9  C   UNL d   1       6.966   1.011 -17.207  0.00  0.00     0.253 C 
ATOM     10  O   UNL d   1       7.258   1.927 -17.975  0.00  0.00    -0.271 OA
BRANCH   9  11
ATOM     11  C   UNL d   1       6.870  -0.420 -17.724  0.00  0.00     0.110 C 
ATOM     12  C   UNL d   1       8.175  -0.832 -18.437  0.00  0.00     0.152 C 
ATOM     13  O   UNL d   1       8.068  -2.186 -18.863  0.00  0.00    -0.354 OA
ATOM     14  C   UNL d   1       7.029  -2.377 -19.815  0.00  0.00     0.142 C 
ATOM     15  C   UNL d   1       5.662  -2.013 -19.208  0.00  0.00     0.033 C 
ATOM     16  C   UNL d   1       5.671  -0.581 -18.673  0.00  0.00     0.015 C 
ENDBRANCH   9  11
ENDBRANCH   5   8
ENDBRANCH   1   2
BRANCH   1  17
ATOM     17  C   UNL d   1       8.124   5.023 -10.615  0.00  0.00     0.250 C 
BRANCH  17  18
ATOM     18  N   UNL d   1       8.718   5.985  -9.693  0.00  0.00     0.137 N 
ATOM     19  C   UNL d   1       8.468   5.584  -8.300  0.00  0.00     0.251 C 
ATOM     20  C   UNL d   1       9.018   6.611  -7.316  0.00  0.00     0.040 C 
ATOM     21  C   UNL d   1      10.520   6.811  -7.539  0.00  0.00     0.028 C 
ATOM     22  C   UNL d   1      10.769   7.138  -9.011  0.00  0.00     0.040 C 
ATOM     23  C   UNL d   1      10.157   6.078  -9.909  0.00  0.00     0.251 C 
BRANCH  21  24
ATOM     24  C   UNL d   1      11.060   7.904  -6.657  0.00  0.00     0.004 A 
ATOM     25  C   UNL d   1      11.429   7.807  -5.269  0.00  0.00     0.021 A 
ATOM     26  C   UNL d   1      11.866   9.099  -4.880  0.00  0.00     0.100 A 
ATOM     27  C   UNL d   1      11.460   6.796  -4.283  0.00  0.00     0.002 A 
ATOM     28  O   UNL d   1      11.787   9.953  -5.957  0.00  0.00    -0.305 OA
ATOM     29  C   UNL d   1      12.305   9.394  -3.577  0.00  0.00     0.025 A 
ATOM     30  C   UNL d   1      11.301   9.215  -7.003  0.00  0.00     0.118 A 
ATOM     31  C   UNL d   1      12.336   8.356  -2.627  0.00  0.00     0.002 A 
ATOM     32  C   UNL d   1      11.910   7.058  -2.979  0.00  0.00     0.000 A 
ENDBRANCH  21  24
ENDBRANCH  17  18
ENDBRANCH   1  17
TORSDOF 6
