REMARK  8 active torsions:
REMARK  status: ('A' for Active; 'I' for Inactive)
REMARK    1  A    between atoms: C_2  and  C_3 
REMARK    2  A    between atoms: N_15  and  C_16 
REMARK    3  A    between atoms: C_16  and  C_17 
REMARK    4  A    between atoms: C_17  and  C_18 
REMARK    5  A    between atoms: C_18  and  C_19 
REMARK    6  A    between atoms: C_19  and  S_20 
REMARK    7  A    between atoms: S_20  and  C_21 
REMARK    8  A    between atoms: C_24  and  C_25 
ROOT
ATOM      1  C   UNL d   1      13.522   4.383 -19.200  0.00  0.00     0.014 C 
ENDROOT
BRANCH   1   2
ATOM      2  C   UNL d   1      12.883   4.880 -20.518  0.00  0.00     0.036 C 
BRANCH   2   3
ATOM      3  C   UNL d   1      12.321   6.293 -20.309  0.00  0.00     0.250 C 
BRANCH   3   4
ATOM      4  N   UNL d   1      11.762   6.874 -21.532  0.00  0.00     0.138 N 
ATOM      5  C   UNL d   1      10.752   6.068 -22.227  0.00  0.00     0.255 C 
ATOM      6  C   UNL d   1       9.425   5.877 -21.467  0.00  0.00     0.061 C 
ATOM      7  C   UNL d   1       8.473   7.060 -21.622  0.00  0.00    -0.026 A 
ATOM      8  C   UNL d   1       8.857   8.334 -21.123  0.00  0.00    -0.023 A 
ATOM      9  C   UNL d   1       7.210   6.915 -22.261  0.00  0.00    -0.002 A 
ATOM     10  C   UNL d   1       7.984   9.441 -21.247  0.00  0.00     0.017 A 
ATOM     11  C   UNL d   1      10.200   8.548 -20.446  0.00  0.00     0.061 C 
ATOM     12  C   UNL d   1       6.731   9.311 -21.860  0.00  0.00     0.105 A 
ATOM     13  N   UNL d   1       5.718  10.217 -22.106  0.00  0.00    -0.224 NA
ATOM     14  C   UNL d   1       6.374   8.044 -22.360  0.00  0.00     0.115 A 
ATOM     15  C   UNL d   1       4.795   9.470 -22.730  0.00  0.00     0.159 A 
ATOM     16  O   UNL d   1       5.117   8.155 -22.928  0.00  0.00    -0.292 OA
ATOM     17  C   UNL d   1      11.406   8.284 -21.363  0.00  0.00     0.255 C 
ATOM     18  C   UNL d   1       6.741   5.590 -22.840  0.00  0.00     0.033 C 
BRANCH  15  19
ATOM     19  C   UNL d   1       3.485   9.956 -23.256  0.00  0.00     0.072 C 
ATOM     20  C   UNL d   1       2.527  10.405 -22.148  0.00  0.00     0.009 C 
ENDBRANCH  15  19
ENDBRANCH   3   4
ENDBRANCH   2   3
ENDBRANCH   1   2
BRANCH   1  21
ATOM     21  C   UNL d   1      14.032   2.908 -19.379  0.00  0.00     0.065 C 
BRANCH  21  22
ATOM     22  S   UNL d   1      12.739   1.666 -19.751  0.00  0.00    -0.076 SA
BRANCH  22  23
ATOM     23  C   UNL d   1      11.634   1.870 -18.431  0.00  0.00     0.193 A 
ATOM     24  N   UNL d   1      10.644   0.991 -18.203  0.00  0.00    -0.289 N 
ATOM     25  C   UNL d   1       9.980   1.602 -17.184  0.00  0.00     0.167 A 
ATOM     26  C   UNL d   1      10.364  -0.293 -18.869  0.00  0.00     0.134 C 
ATOM     27  N   UNL d   1      10.526   2.747 -16.828  0.00  0.00    -0.128 NA
ATOM     28  N   UNL d   1      11.598   2.881 -17.575  0.00  0.00    -0.122 NA
BRANCH  25  29
ATOM     29  C   UNL d   1       8.800   1.050 -16.505  0.00  0.00     0.037 A 
ATOM     30  C   UNL d   1       7.608   0.747 -17.198  0.00  0.00     0.021 A 
ATOM     31  C   UNL d   1       6.501   0.207 -16.481  0.00  0.00     0.081 A 
ATOM     32  C   UNL d   1       7.466   0.964 -18.590  0.00  0.00     0.003 A 
ATOM     33  C   UNL d   1       6.624   0.032 -15.081  0.00  0.00     0.019 A 
ATOM     34  N   UNL d   1       5.343  -0.143 -17.106  0.00  0.00    -0.250 NA
ATOM     35  C   UNL d   1       7.805   0.390 -14.399  0.00  0.00     0.002 A 
ATOM     36  C   UNL d   1       8.896   0.893 -15.127  0.00  0.00     0.003 A 
ATOM     37  C   UNL d   1       5.256   0.035 -18.444  0.00  0.00     0.059 A 
ATOM     38  C   UNL d   1       3.951  -0.378 -19.066  0.00  0.00     0.052 C 
ATOM     39  C   UNL d   1       6.278   0.588 -19.231  0.00  0.00     0.015 A 
ENDBRANCH  25  29
ENDBRANCH  22  23
ENDBRANCH  21  22
ENDBRANCH   1  21
TORSDOF 8
