REMARK  7 active torsions:
REMARK  status: ('A' for Active; 'I' for Inactive)
REMARK    1  A    between atoms: C_2  and  C_3 
REMARK    2  A    between atoms: C_2  and  C_20 
REMARK    3  A    between atoms: C_3  and  C_4 
REMARK    4  A    between atoms: C_4  and  N_5 
REMARK    5  A    between atoms: C_7  and  C_8 
REMARK    6  A    between atoms: C_20  and  N_21 
REMARK    7  A    between atoms: N_24  and  C_25 
ROOT
ATOM      1  O   UNL d   1       6.186   0.268 -15.073  0.00  0.00    -0.221 OA
ATOM      2  C   UNL d   1       7.087   1.301 -15.408  0.00  0.00     0.188 C 
ENDROOT
BRANCH   2   3
ATOM      3  C   UNL d   1       6.973   2.384 -14.300  0.00  0.00     0.061 C 
BRANCH   3   4
ATOM      4  C   UNL d   1       8.202   3.319 -14.132  0.00  0.00     0.132 C 
BRANCH   4   5
ATOM      5  N   UNL d   1       8.130   4.212 -13.006  0.00  0.00    -0.230 N 
ATOM      6  N   UNL d   1       7.042   4.977 -12.782  0.00  0.00    -0.064 NA
ATOM      7  N   UNL d   1       7.273   5.622 -11.686  0.00  0.00    -0.129 NA
ATOM      8  C   UNL d   1       8.546   5.306 -11.207  0.00  0.00     0.123 A 
ATOM      9  C   UNL d   1       9.110   4.411 -12.059  0.00  0.00     0.118 A 
BRANCH   8  10
ATOM     10  C   UNL d   1       9.066   5.885  -9.980  0.00  0.00     0.021 A 
ATOM     11  C   UNL d   1      10.167   6.762 -10.005  0.00  0.00     0.002 A 
ATOM     12  C   UNL d   1      10.622   7.352  -8.810  0.00  0.00     0.000 A 
ATOM     13  C   UNL d   1       9.966   7.075  -7.585  0.00  0.00     0.000 A 
ATOM     14  C   UNL d   1      11.733   8.215  -8.824  0.00  0.00     0.000 A 
ATOM     15  C   UNL d   1       8.868   6.202  -7.569  0.00  0.00     0.000 A 
ATOM     16  C   UNL d   1      10.408   7.664  -6.386  0.00  0.00     0.000 A 
ATOM     17  C   UNL d   1       8.447   5.587  -8.754  0.00  0.00     0.002 A 
ATOM     18  C   UNL d   1      11.513   8.532  -6.409  0.00  0.00     0.000 A 
ATOM     19  C   UNL d   1      12.184   8.783  -7.622  0.00  0.00     0.000 A 
ENDBRANCH   8  10
ENDBRANCH   4   5
ENDBRANCH   3   4
ENDBRANCH   2   3
BRANCH   2  20
ATOM     20  C   UNL d   1       8.480   0.652 -15.565  0.00  0.00     0.283 C 
BRANCH  20  21
ATOM     21  N   UNL d   1       9.504   1.542 -16.128  0.00  0.00     0.144 N 
ATOM     22  C   UNL d   1       9.310   1.848 -17.555  0.00  0.00     0.274 C 
ATOM     23  C   UNL d   1      10.331   2.878 -18.075  0.00  0.00     0.137 C 
ATOM     24  N   UNL d   1      11.684   2.442 -17.755  0.00  0.00    -0.344 N 
ATOM     25  C   UNL d   1      11.933   2.041 -16.375  0.00  0.00     0.137 C 
ATOM     26  C   UNL d   1      10.858   1.045 -15.889  0.00  0.00     0.274 C 
BRANCH  24  27
ATOM     27  C   UNL d   1      12.628   2.249 -18.753  0.00  0.00     0.068 A 
ATOM     28  C   UNL d   1      13.004   0.961 -19.232  0.00  0.00     0.084 A 
ATOM     29  C   UNL d   1      13.974   0.836 -20.240  0.00  0.00     0.070 A 
ATOM     30 CL   UNL d   1      12.239  -0.472 -18.625  0.00  0.00    -0.080 Cl
ATOM     31  C   UNL d   1      14.574   1.984 -20.802  0.00  0.00     0.012 A 
ATOM     32 CL   UNL d   1      14.443  -0.719 -20.839  0.00  0.00    -0.081 Cl
ATOM     33  C   UNL d   1      14.194   3.260 -20.339  0.00  0.00     0.002 A 
ATOM     34  C   UNL d   1      13.235   3.389 -19.330  0.00  0.00     0.018 A 
ENDBRANCH  24  27
ENDBRANCH  20  21
ENDBRANCH   2  20
TORSDOF 7
