REMARK  4 active torsions:
REMARK  status: ('A' for Active; 'I' for Inactive)
REMARK    1  A    between atoms: O_2  and  C_3 
REMARK    2  A    between atoms: C_9  and  C_10 
REMARK    3  A    between atoms: N_18  and  S_19 
REMARK    4  A    between atoms: S_19  and  C_22 
ROOT
ATOM      1  C   UNL d   1       8.534   1.892 -19.730  0.00  0.00     0.094 A 
ATOM      2  C   UNL d   1       9.513   2.834 -19.350  0.00  0.00     0.026 A 
ATOM      3  C   UNL d   1       9.702   3.162 -18.007  0.00  0.00     0.020 A 
ATOM      4  C   UNL d   1       8.933   2.536 -17.011  0.00  0.00     0.075 A 
ATOM      5  C   UNL d   1       7.935   1.563 -17.332  0.00  0.00     0.022 A 
ATOM      6  C   UNL d   1       7.741   1.274 -18.727  0.00  0.00     0.026 A 
ATOM      7  C   UNL d   1       7.332   1.103 -16.103  0.00  0.00     0.039 C 
ATOM      8  C   UNL d   1       8.036   1.735 -15.113  0.00  0.00     0.093 C 
ATOM      9  N   UNL d   1       8.911   2.666 -15.639  0.00  0.00    -0.231 N 
ENDROOT
BRANCH   9  10
ATOM     10  S   UNL d   1       9.855   3.759 -14.686  0.00  0.00     0.271 S 
ATOM     11  O   UNL d   1      10.841   2.922 -13.986  0.00  0.00    -0.200 OA
ATOM     12  O   UNL d   1      10.293   4.828 -15.594  0.00  0.00    -0.200 OA
BRANCH  10  13
ATOM     13  C   UNL d   1       8.710   4.479 -13.520  0.00  0.00     0.104 A 
ATOM     14  C   UNL d   1       7.333   4.135 -13.533  0.00  0.00     0.013 A 
ATOM     15  C   UNL d   1       6.489   4.681 -12.554  0.00  0.00     0.001 A 
ATOM     16  C   UNL d   1       6.986   5.617 -11.623  0.00  0.00     0.000 A 
ATOM     17  C   UNL d   1       8.343   5.998 -11.636  0.00  0.00     0.001 A 
ATOM     18  C   UNL d   1       9.214   5.419 -12.582  0.00  0.00     0.013 A 
ENDBRANCH  10  13
ENDBRANCH   9  10
BRANCH   7  19
ATOM     19  C   UNL d   1       6.259   0.149 -15.890  0.00  0.00     0.116 A 
ATOM     20  C   UNL d   1       5.485  -0.181 -14.792  0.00  0.00     0.096 A 
ATOM     21  N   UNL d   1       4.598  -1.204 -15.128  0.00  0.00    -0.061 NA
ATOM     22  C   UNL d   1       5.505   0.377 -13.400  0.00  0.00     0.054 C 
ATOM     23  C   UNL d   1       4.858  -1.454 -16.405  0.00  0.00     0.768 A 
ATOM     24  N   UNL d   1       5.808  -0.669 -16.915  0.00  0.00    -0.057 NA
ATOM     25  N   UNL d   1       4.269  -2.411 -17.203  0.00  0.00     0.062 N 
ENDBRANCH   7  19
BRANCH   1  26
ATOM     26  O   UNL d   1       8.336   1.530 -21.046  0.00  0.00    -0.328 OA
ATOM     27  C   UNL d   1       9.181   2.156 -22.012  0.00  0.00     0.181 C 
ENDBRANCH   1  26
TORSDOF 4
