REMARK  4 active torsions:
REMARK  status: ('A' for Active; 'I' for Inactive)
REMARK    1  A    between atoms: N_11  and  C_12 
REMARK    2  A    between atoms: N_15  and  C_16 
REMARK    3  A    between atoms: N_19  and  C_20 
REMARK    4  A    between atoms: C_20  and  C_21 
ROOT
ATOM      1  C   UNL d   1       9.356   5.037 -12.546  0.00  0.00     0.094 C 
ATOM      2  C   UNL d   1       9.356   4.505 -11.116  0.00  0.00     0.058 C 
ATOM      3  C   UNL d   1       9.820   5.579 -10.126  0.00  0.00     0.252 C 
ATOM      4  N   UNL d   1       9.075   6.788 -10.217  0.00  0.00     0.135 N 
ATOM      5  C   UNL d   1       9.148   7.365 -11.578  0.00  0.00     0.252 C 
ATOM      6  C   UNL d   1       8.586   6.371 -12.590  0.00  0.00     0.058 C 
ENDROOT
BRANCH   4   7
ATOM      7  C   UNL d   1       9.561   7.772  -9.218  0.00  0.00     0.223 C 
ATOM      8  C   UNL d   1       9.148   7.361  -7.786  0.00  0.00     0.069 C 
ATOM      9  C   UNL d   1       9.601   8.426  -6.793  0.00  0.00     0.253 C 
ATOM     10  N   UNL d   1      11.038   8.660  -6.910  0.00  0.00     0.141 N 
ATOM     11  C   UNL d   1      11.455   9.104  -8.221  0.00  0.00     0.253 C 
ATOM     12  C   UNL d   1      11.077   8.094  -9.272  0.00  0.00     0.069 C 
BRANCH  10  13
ATOM     13  C   UNL d   1      11.557   9.482  -5.832  0.00  0.00     0.278 C 
BRANCH  13  14
ATOM     14  C   UNL d   1      11.746   8.766  -4.493  0.00  0.00     0.021 A 
ATOM     15  C   UNL d   1      11.889   7.365  -4.329  0.00  0.00     0.056 A 
ATOM     16  C   UNL d   1      12.219   6.806  -3.086  0.00  0.00     0.011 A 
ATOM     17 CL   UNL d   1      11.859   6.250  -5.625  0.00  0.00    -0.083 Cl
ATOM     18  C   UNL d   1      12.452   7.646  -1.994  0.00  0.00     0.001 A 
ATOM     19  C   UNL d   1      12.265   9.024  -2.122  0.00  0.00    -0.000 A 
ATOM     20  C   UNL d   1      11.896   9.583  -3.349  0.00  0.00    -0.002 A 
ENDBRANCH  13  14
ENDBRANCH  10  13
ENDBRANCH   4   7
BRANCH   1  21
ATOM     21  N   UNL d   1       8.788   4.040 -13.459  0.00  0.00    -0.281 N 
ATOM     22  C   UNL d   1       7.487   3.630 -13.524  0.00  0.00     0.350 A 
ATOM     23  O   UNL d   1       6.545   4.009 -12.843  0.00  0.00    -0.244 OA
ATOM     24  N   UNL d   1       7.399   2.667 -14.450  0.00  0.00    -0.191 NA
ATOM     25  C   UNL d   1       8.659   2.399 -14.967  0.00  0.00     0.103 A 
ATOM     26  C   UNL d   1       9.546   3.254 -14.347  0.00  0.00     0.082 A 
ATOM     27  C   UNL d   1       9.057   1.468 -15.935  0.00  0.00     0.032 A 
ATOM     28  C   UNL d   1      10.924   3.236 -14.646  0.00  0.00     0.020 A 
ATOM     29  C   UNL d   1      11.355   2.313 -15.631  0.00  0.00     0.013 A 
ATOM     30  C   UNL d   1      10.431   1.438 -16.264  0.00  0.00     0.059 A 
ATOM     31 CL   UNL d   1      10.986   0.321 -17.456  0.00  0.00    -0.082 Cl
ENDBRANCH   1  21
TORSDOF 4
