REMARK  5 active torsions:
REMARK  status: ('A' for Active; 'I' for Inactive)
REMARK    1  A    between atoms: C_2  and  C_3 
REMARK    2  A    between atoms: C_3  and  C_4 
REMARK    3  A    between atoms: C_4  and  C_5 
REMARK    4  A    between atoms: C_5  and  C_6 
REMARK    5  A    between atoms: C_6  and  N_7 
REMARK       I    between atoms: N_7  and  C_8 
REMARK       I    between atoms: C_8  and  N_10 
ROOT
ATOM      1  N   UNL d   1      10.800   7.637  -8.341  0.00  0.00    -0.218 NA
ATOM      2  C   UNL d   1      10.445   7.802  -9.627  0.00  0.00     0.353 C 
ATOM      3  O   UNL d   1      10.814   8.786 -10.272  0.00  0.00    -0.244 OA
ATOM      4  N   UNL d   1       9.618   6.779 -10.183  0.00  0.00    -0.206 N 
ATOM      5  C   UNL d   1       9.292   6.889 -11.539  0.00  0.00     0.124 A 
ATOM      6  C   UNL d   1       8.505   6.006 -12.210  0.00  0.00     0.215 A 
ATOM      7  F   UNL d   1       8.258   6.152 -13.520  0.00  0.00    -0.198 F 
ATOM      8  C   UNL d   1       7.921   4.872 -11.530  0.00  0.00     0.312 A 
ATOM      9  O   UNL d   1       7.190   4.030 -12.049  0.00  0.00    -0.263 OA
ATOM     10  N   UNL d   1       8.259   4.787 -10.189  0.00  0.00    -0.151 NA
ATOM     11  C   UNL d   1       9.058   5.670  -9.483  0.00  0.00     0.360 A 
ATOM     12  O   UNL d   1       9.238   5.437  -8.288  0.00  0.00    -0.244 OA
ENDROOT
BRANCH   1  13
ATOM     13  C   UNL d   1      11.565   8.564  -7.521  0.00  0.00     0.131 C 
BRANCH  13  14
ATOM     14  C   UNL d   1      11.202   8.400  -6.041  0.00  0.00     0.026 C 
BRANCH  14  15
ATOM     15  C   UNL d   1      11.907   9.424  -5.132  0.00  0.00     0.002 C 
BRANCH  15  16
ATOM     16  C   UNL d   1      11.408   9.410  -3.674  0.00  0.00     0.000 C 
BRANCH  16  17
ATOM     17  C   UNL d   1      11.548   8.036  -2.986  0.00  0.00     0.000 C 
ATOM     18  C   UNL d   1      12.992   7.651  -2.714  0.00  0.00     0.000 C 
ENDBRANCH  16  17
ENDBRANCH  15  16
ENDBRANCH  14  15
ENDBRANCH  13  14
ENDBRANCH   1  13
TORSDOF 5
