REMARK  7 active torsions:
REMARK  status: ('A' for Active; 'I' for Inactive)
REMARK    1  A    between atoms: C_9  and  C_10 
REMARK    2  A    between atoms: C_10  and  N_11 
REMARK    3  A    between atoms: N_11  and  C_12 
REMARK    4  A    between atoms: N_11  and  C_21 
REMARK    5  A    between atoms: C_12  and  C_13 
REMARK    6  A    between atoms: C_13  and  C_14 
REMARK    7  A    between atoms: C_14  and  C_15 
ROOT
ATOM      1  N   UNL d   1       9.522   4.198 -12.572  0.00  0.00     0.143 N 
ENDROOT
BRANCH   1   2
ATOM      2  C   UNL d   1       9.857   2.876 -13.099  0.00  0.00     0.287 C 
BRANCH   2   3
ATOM      3  C   UNL d   1      10.327   2.796 -14.547  0.00  0.00     0.296 C 
ATOM      4  N   UNL d   1      10.604   1.405 -14.943  0.00  0.00     0.344 N 
ATOM      5  C   UNL d   1      10.797   1.314 -16.395  0.00  0.00     0.318 C 
ATOM      6  C   UNL d   1      11.785   2.344 -16.924  0.00  0.00     0.027 A 
ATOM      7  C   UNL d   1      12.150   3.473 -16.154  0.00  0.00     0.059 A 
ATOM      8  C   UNL d   1      12.326   2.224 -18.216  0.00  0.00     0.001 A 
ATOM      9  N   UNL d   1      13.005   4.425 -16.578  0.00  0.00    -0.249 NA
ATOM     10  C   UNL d   1      11.594   3.650 -14.759  0.00  0.00     0.084 C 
ATOM     11  C   UNL d   1      13.527   4.287 -17.810  0.00  0.00     0.099 A 
ATOM     12  C   UNL d   1      13.221   3.212 -18.669  0.00  0.00     0.020 A 
ENDBRANCH   2   3
ENDBRANCH   1   2
BRANCH   1  13
ATOM     13  C   UNL d   1       9.458   4.239 -11.084  0.00  0.00     0.251 C 
BRANCH  13  14
ATOM     14  C   UNL d   1       9.807   5.545 -10.371  0.00  0.00     0.035 C 
BRANCH  14  15
ATOM     15  C   UNL d   1       9.982   5.418  -8.870  0.00  0.00     0.002 C 
BRANCH  15  16
ATOM     16  C   UNL d   1      10.513   6.746  -8.305  0.00  0.00     0.004 C 
ATOM     17  C   UNL d   1       9.481   7.890  -8.381  0.00  0.00     0.038 C 
ATOM     18  C   UNL d   1       9.981   9.135  -7.641  0.00  0.00     0.290 C 
ATOM     19  N   UNL d   1      10.257   8.810  -6.248  0.00  0.00     0.339 N 
ATOM     20  C   UNL d   1      11.350   7.850  -6.189  0.00  0.00     0.290 C 
ATOM     21  C   UNL d   1      10.930   6.535  -6.854  0.00  0.00     0.038 C 
ENDBRANCH  15  16
ENDBRANCH  14  15
ENDBRANCH  13  14
ENDBRANCH   1  13
BRANCH   1  22
ATOM     22  C   UNL d   1       8.308   4.700 -13.225  0.00  0.00     0.259 C 
ATOM     23  C   UNL d   1       8.098   6.152 -12.927  0.00  0.00     0.086 C 
ATOM     24  C   UNL d   1       6.804   6.659 -12.737  0.00  0.00    -0.007 C 
ATOM     25  N   UNL d   1       9.211   6.918 -12.835  0.00  0.00    -0.247 NA
ATOM     26  C   UNL d   1       5.579   5.807 -12.844  0.00  0.00     0.028 C 
ATOM     27  C   UNL d   1       6.643   8.028 -12.559  0.00  0.00    -0.002 C 
ATOM     28  C   UNL d   1       5.783   4.459 -13.521  0.00  0.00     0.007 C 
ATOM     29  C   UNL d   1       7.033   3.821 -12.991  0.00  0.00     0.040 C 
ATOM     30  C   UNL d   1       7.798   8.799 -12.435  0.00  0.00     0.020 C 
ATOM     31  C   UNL d   1       9.041   8.171 -12.442  0.00  0.00     0.099 C 
ENDBRANCH   1  22
TORSDOF 7
