REMARK  6 active torsions:
REMARK  status: ('A' for Active; 'I' for Inactive)
REMARK    1  A    between atoms: C_2  and  C_4 
REMARK    2  A    between atoms: C_4  and  C_5 
REMARK       I    between atoms: N_13  and  C_14 
REMARK    3  A    between atoms: C_14  and  C_16 
REMARK    4  A    between atoms: C_16  and  N_17 
REMARK    5  A    between atoms: N_20  and  C_21 
REMARK    6  A    between atoms: C_21  and  C_22 
ROOT
ATOM      1  C   UNL d   1      10.089   5.623 -19.584  0.00  0.00     0.093 A 
ATOM      2  C   UNL d   1      10.974   6.832 -19.982  0.00  0.00     0.051 A 
ATOM      3  C   UNL d   1      12.044   6.857 -18.948  0.00  0.00    -0.004 A 
ATOM      4  C   UNL d   1      13.106   7.796 -18.919  0.00  0.00    -0.003 A 
ATOM      5  C   UNL d   1      14.050   7.689 -17.872  0.00  0.00    -0.000 A 
ATOM      6  C   UNL d   1      13.871   6.676 -16.898  0.00  0.00     0.002 A 
ATOM      7  C   UNL d   1      12.795   5.805 -16.913  0.00  0.00     0.017 A 
ATOM      8  C   UNL d   1      11.851   5.866 -17.978  0.00  0.00     0.058 A 
ATOM      9  N   UNL d   1      10.661   5.093 -18.300  0.00  0.00    -0.299 N 
ATOM     10  C   UNL d   1      10.157   3.954 -17.733  0.00  0.00     0.271 C 
ATOM     11  O   UNL d   1       9.215   3.317 -18.272  0.00  0.00    -0.270 OA
ENDROOT
BRANCH  10  12
ATOM     12  C   UNL d   1      10.724   3.378 -16.411  0.00  0.00     0.337 C 
BRANCH  12  13
ATOM     13  N   UNL d   1       9.938   3.677 -15.210  0.00  0.00     0.151 N 
ATOM     14  C   UNL d   1      10.569   3.104 -14.024  0.00  0.00     0.286 C 
ATOM     15  C   UNL d   1       9.734   3.333 -12.759  0.00  0.00     0.286 C 
ATOM     16  N   UNL d   1       9.509   4.751 -12.496  0.00  0.00     0.146 N 
ATOM     17  C   UNL d   1       8.884   5.349 -13.673  0.00  0.00     0.286 C 
ATOM     18  C   UNL d   1       9.721   5.114 -14.949  0.00  0.00     0.286 C 
BRANCH  16  19
ATOM     19  C   UNL d   1       8.699   4.962 -11.294  0.00  0.00     0.277 C 
BRANCH  19  20
ATOM     20  C   UNL d   1       9.284   5.995 -10.346  0.00  0.00     0.011 A 
ATOM     21  C   UNL d   1       9.329   5.736  -8.960  0.00  0.00    -0.002 A 
ATOM     22  C   UNL d   1       9.844   6.705  -8.075  0.00  0.00     0.011 A 
ATOM     23  C   UNL d   1      10.315   7.937  -8.569  0.00  0.00     0.058 A 
ATOM     24  C   UNL d   1      10.266   8.202  -9.949  0.00  0.00     0.011 A 
ATOM     25 CL   UNL d   1      10.961   9.115  -7.484  0.00  0.00    -0.082 Cl
ATOM     26  C   UNL d   1       9.754   7.235 -10.831  0.00  0.00    -0.002 A 
ENDBRANCH  19  20
ENDBRANCH  16  19
ENDBRANCH  12  13
ENDBRANCH  10  12
BRANCH   1  27
ATOM     27  C   UNL d   1       8.583   6.021 -19.504  0.00  0.00     0.023 C 
BRANCH  27  28
ATOM     28  C   UNL d   1       7.885   6.316 -20.855  0.00  0.00     0.002 C 
ATOM     29  C   UNL d   1       7.886   5.096 -21.798  0.00  0.00     0.000 C 
ATOM     30  C   UNL d   1       8.425   7.564 -21.575  0.00  0.00     0.000 C 
ENDBRANCH  27  28
ENDBRANCH   1  27
TORSDOF 6
