REMARK  6 active torsions:
REMARK  status: ('A' for Active; 'I' for Inactive)
REMARK    1  A    between atoms: C_9  and  N_10 
REMARK    2  A    between atoms: N_13  and  C_14 
REMARK    3  A    between atoms: C_14  and  C_15 
REMARK    4  A    between atoms: C_15  and  C_16 
REMARK    5  A    between atoms: C_19  and  N_20 
REMARK       I    between atoms: N_20  and  C_21 
REMARK    6  A    between atoms: C_21  and  C_23 
ROOT
ATOM      1  C   UNL d   1       5.900   0.737 -16.336  0.00  0.00     0.250 C 
ENDROOT
BRANCH   1   2
ATOM      2  N   UNL d   1       5.202  -0.443 -16.869  0.00  0.00     0.141 N 
ATOM      3  C   UNL d   1       5.943  -1.585 -16.349  0.00  0.00     0.274 C 
ATOM      4  C   UNL d   1       5.375  -2.920 -16.828  0.00  0.00     0.138 C 
ATOM      5  N   UNL d   1       5.396  -2.932 -18.275  0.00  0.00    -0.330 N 
ATOM      6  C   UNL d   1       4.758  -1.778 -18.899  0.00  0.00     0.138 C 
ATOM      7  C   UNL d   1       5.343  -0.467 -18.323  0.00  0.00     0.274 C 
BRANCH   5   8
ATOM      8  C   UNL d   1       5.950  -4.019 -19.008  0.00  0.00     0.142 A 
ATOM      9  C   UNL d   1       6.073  -5.327 -18.467  0.00  0.00     0.059 A 
ATOM     10  C   UNL d   1       6.613  -6.327 -19.328  0.00  0.00     0.104 A 
ATOM     11  C   UNL d   1       5.793  -6.032 -17.227  0.00  0.00     0.032 A 
ATOM     12  C   UNL d   1       7.057  -6.040 -20.626  0.00  0.00     0.040 A 
ATOM     13  O   UNL d   1       6.664  -7.556 -18.695  0.00  0.00    -0.305 OA
ATOM     14  C   UNL d   1       6.883  -4.709 -21.062  0.00  0.00     0.063 A 
ATOM     15  C   UNL d   1       7.276  -4.300 -22.466  0.00  0.00     0.052 C 
ATOM     16  N   UNL d   1       6.338  -3.751 -20.276  0.00  0.00    -0.233 NA
ATOM     17  C   UNL d   1       6.203  -7.326 -17.419  0.00  0.00     0.123 A 
ENDBRANCH   5   8
ENDBRANCH   1   2
BRANCH   1  18
ATOM     18  C   UNL d   1       5.515   0.893 -14.830  0.00  0.00     0.035 C 
BRANCH  18  19
ATOM     19  C   UNL d   1       6.023   2.260 -14.268  0.00  0.00     0.002 C 
ATOM     20  C   UNL d   1       7.556   2.206 -14.105  0.00  0.00     0.002 C 
ATOM     21  C   UNL d   1       8.099   3.508 -13.445  0.00  0.00     0.024 C 
ATOM     22  C   UNL d   1       7.300   3.990 -12.193  0.00  0.00     0.106 C 
ATOM     23  C   UNL d   1       5.800   4.046 -12.448  0.00  0.00     0.024 C 
ATOM     24  C   UNL d   1       5.335   2.672 -12.944  0.00  0.00     0.002 C 
BRANCH  22  25
ATOM     25  N   UNL d   1       7.819   5.269 -11.709  0.00  0.00    -0.240 NA
ATOM     26  C   UNL d   1       8.932   5.345 -10.955  0.00  0.00     0.251 C 
ATOM     27  O   UNL d   1       9.669   4.385 -10.728  0.00  0.00    -0.271 OA
BRANCH  26  28
ATOM     28  C   UNL d   1       9.160   6.726 -10.314  0.00  0.00     0.086 C 
ATOM     29  C   UNL d   1       9.033   6.668  -8.772  0.00  0.00     0.042 C 
ATOM     30  C   UNL d   1       9.326   8.039  -8.114  0.00  0.00     0.143 C 
ATOM     31  O   UNL d   1      10.616   8.520  -8.478  0.00  0.00    -0.354 OA
ATOM     32  C   UNL d   1      10.699   8.713  -9.886  0.00  0.00     0.143 C 
ATOM     33  C   UNL d   1      10.502   7.382 -10.621  0.00  0.00     0.042 C 
ENDBRANCH  26  28
ENDBRANCH  22  25
ENDBRANCH  18  19
ENDBRANCH   1  18
TORSDOF 6
