REMARK  7 active torsions:
REMARK  status: ('A' for Active; 'I' for Inactive)
REMARK    1  A    between atoms: N_11  and  C_12 
REMARK    2  A    between atoms: C_12  and  C_13 
REMARK    3  A    between atoms: C_13  and  C_14 
REMARK    4  A    between atoms: C_14  and  C_15 
REMARK    5  A    between atoms: C_15  and  N_16 
REMARK    6  A    between atoms: N_19  and  C_20 
REMARK    7  A    between atoms: C_24  and  C_25 
ROOT
ATOM      1  N   UNL d   1       9.864   6.396  -9.749  0.00  0.00     0.141 N 
ATOM      2  C   UNL d   1      10.169   7.829  -9.648  0.00  0.00     0.274 C 
ATOM      3  C   UNL d   1      11.355   8.064  -8.694  0.00  0.00     0.137 C 
ATOM      4  N   UNL d   1      11.059   7.477  -7.393  0.00  0.00    -0.344 N 
ATOM      5  C   UNL d   1      10.617   6.093  -7.414  0.00  0.00     0.137 C 
ATOM      6  C   UNL d   1       9.466   5.918  -8.416  0.00  0.00     0.274 C 
ENDROOT
BRANCH   1   7
ATOM      7  C   UNL d   1       8.754   6.204 -10.677  0.00  0.00     0.251 C 
BRANCH   7   8
ATOM      8  C   UNL d   1       8.774   4.791 -11.284  0.00  0.00     0.037 C 
BRANCH   8   9
ATOM      9  C   UNL d   1       9.308   4.819 -12.719  0.00  0.00     0.027 C 
BRANCH   9  10
ATOM     10  C   UNL d   1       9.577   3.415 -13.288  0.00  0.00     0.111 C 
BRANCH  10  11
ATOM     11  N   UNL d   1      10.140   3.454 -14.649  0.00  0.00    -0.279 N 
ATOM     12  C   UNL d   1      11.393   3.931 -14.889  0.00  0.00     0.263 A 
ATOM     13  O   UNL d   1      12.150   4.367 -14.020  0.00  0.00    -0.267 OA
ATOM     14  C   UNL d   1      11.827   3.922 -16.324  0.00  0.00     0.074 A 
ATOM     15  C   UNL d   1      10.930   3.424 -17.296  0.00  0.00     0.088 A 
ATOM     16  C   UNL d   1      13.100   4.398 -16.706  0.00  0.00     0.006 A 
ATOM     17  C   UNL d   1      11.321   3.403 -18.650  0.00  0.00     0.019 A 
ATOM     18  N   UNL d   1       9.658   2.950 -16.943  0.00  0.00    -0.225 NA
ATOM     19  C   UNL d   1      12.594   3.871 -19.030  0.00  0.00     0.002 A 
ATOM     20  C   UNL d   1      13.483   4.369 -18.059  0.00  0.00     0.000 A 
ATOM     21  C   UNL d   1       9.318   2.974 -15.689  0.00  0.00     0.181 A 
ENDBRANCH  10  11
ENDBRANCH   9  10
ENDBRANCH   8   9
ENDBRANCH   7   8
ENDBRANCH   1   7
BRANCH   4  22
ATOM     22  C   UNL d   1      11.175   8.180  -6.182  0.00  0.00     0.056 A 
ATOM     23  C   UNL d   1      11.533   7.510  -4.990  0.00  0.00     0.021 A 
ATOM     24  C   UNL d   1      11.719   8.210  -3.785  0.00  0.00     0.073 A 
ATOM     25  C   UNL d   1      11.459   9.593  -3.741  0.00  0.00     0.004 A 
ATOM     26  C   UNL d   1      11.056  10.267  -4.909  0.00  0.00     0.001 A 
ATOM     27  C   UNL d   1      10.943   9.573  -6.126  0.00  0.00     0.017 A 
BRANCH  24  28
ATOM     28  C   UNL d   1      12.124   7.454  -2.535  0.00  0.00     0.419 C 
ATOM     29  F   UNL d   1      11.076   6.797  -2.040  0.00  0.00    -0.166 F 
ATOM     30  F   UNL d   1      13.058   6.571  -2.834  0.00  0.00    -0.166 F 
ATOM     31  F   UNL d   1      12.595   8.293  -1.615  0.00  0.00    -0.166 F 
ENDBRANCH  24  28
ENDBRANCH   4  22
TORSDOF 7
