REMARK  9 active torsions:
REMARK  status: ('A' for Active; 'I' for Inactive)
REMARK    1  A    between atoms: O_2  and  C_3 
REMARK    2  A    between atoms: C_8  and  N_9 
REMARK    3  A    between atoms: N_12  and  C_13 
REMARK    4  A    between atoms: C_13  and  C_14 
REMARK    5  A    between atoms: C_14  and  C_15 
REMARK    6  A    between atoms: C_15  and  C_16 
REMARK    7  A    between atoms: C_16  and  N_17 
REMARK       I    between atoms: N_17  and  C_18 
REMARK    8  A    between atoms: C_18  and  C_20 
REMARK    9  A    between atoms: C_26  and  O_27 
ROOT
ATOM      1  C   UNL d   1      10.672   3.329 -14.665  0.00  0.00     0.251 C 
ENDROOT
BRANCH   1   2
ATOM      2  N   UNL d   1      10.355   2.590 -15.895  0.00  0.00     0.141 N 
ATOM      3  C   UNL d   1       9.069   2.969 -16.498  0.00  0.00     0.274 C 
ATOM      4  C   UNL d   1       8.799   2.225 -17.787  0.00  0.00     0.140 C 
ATOM      5  N   UNL d   1       8.789   0.791 -17.564  0.00  0.00    -0.310 N 
ATOM      6  C   UNL d   1      10.076   0.403 -16.983  0.00  0.00     0.140 C 
ATOM      7  C   UNL d   1      10.356   1.145 -15.660  0.00  0.00     0.274 C 
BRANCH   5   8
ATOM      8  C   UNL d   1       7.734  -0.055 -17.874  0.00  0.00     0.252 A 
ATOM      9  O   UNL d   1       8.116  -1.344 -18.060  0.00  0.00    -0.275 OA
ATOM     10  C   UNL d   1       6.931  -1.953 -18.378  0.00  0.00     0.121 A 
ATOM     11  C   UNL d   1       6.730  -3.312 -18.633  0.00  0.00     0.028 A 
ATOM     12  C   UNL d   1       5.891  -0.997 -18.367  0.00  0.00     0.110 A 
ATOM     13  C   UNL d   1       5.428  -3.737 -18.899  0.00  0.00     0.026 A 
ATOM     14  C   UNL d   1       4.336  -2.827 -18.916  0.00  0.00     0.096 A 
ATOM     15  C   UNL d   1       4.577  -1.442 -18.648  0.00  0.00     0.045 A 
ATOM     16  N   UNL d   1       6.439   0.251 -18.068  0.00  0.00    -0.205 NA
BRANCH  14  17
ATOM     17  O   UNL d   1       3.033  -3.162 -19.181  0.00  0.00    -0.328 OA
ATOM     18  C   UNL d   1       2.755  -4.547 -19.402  0.00  0.00     0.181 C 
ENDBRANCH  14  17
ENDBRANCH   5   8
ENDBRANCH   1   2
BRANCH   1  19
ATOM     19  C   UNL d   1       9.434   3.735 -13.820  0.00  0.00     0.037 C 
BRANCH  19  20
ATOM     20  C   UNL d   1       9.770   4.408 -12.517  0.00  0.00     0.029 C 
BRANCH  20  21
ATOM     21  C   UNL d   1       8.506   4.860 -11.774  0.00  0.00     0.129 C 
BRANCH  21  22
ATOM     22  N   UNL d   1       8.862   5.404 -10.476  0.00  0.00    -0.233 NA
ATOM     23  C   UNL d   1       9.463   6.596 -10.288  0.00  0.00     0.298 C 
ATOM     24  O   UNL d   1       9.662   7.393 -11.201  0.00  0.00    -0.263 OA
BRANCH  23  25
ATOM     25  C   UNL d   1       9.909   6.864  -8.901  0.00  0.00     0.157 A 
ATOM     26  O   UNL d   1      10.378   8.118  -8.590  0.00  0.00    -0.300 OA
ATOM     27  C   UNL d   1      10.774   8.094  -7.268  0.00  0.00     0.122 A 
ATOM     28  C   UNL d   1      10.573   6.812  -6.737  0.00  0.00     0.027 A 
ATOM     29  C   UNL d   1      11.312   9.152  -6.509  0.00  0.00     0.117 A 
ATOM     30  C   UNL d   1      10.020   6.030  -7.812  0.00  0.00     0.032 A 
ATOM     31  C   UNL d   1      10.950   6.634  -5.382  0.00  0.00     0.002 A 
ATOM     32  C   UNL d   1      11.493   7.663  -4.600  0.00  0.00     0.002 A 
ATOM     33  C   UNL d   1      11.660   8.931  -5.157  0.00  0.00     0.026 A 
BRANCH  29  34
ATOM     34  O   UNL d   1      11.453  10.332  -7.155  0.00  0.00    -0.326 OA
ATOM     35  C   UNL d   1      12.027  11.370  -6.437  0.00  0.00     0.181 C 
ENDBRANCH  29  34
ENDBRANCH  23  25
ENDBRANCH  21  22
ENDBRANCH  20  21
ENDBRANCH  19  20
ENDBRANCH   1  19
TORSDOF 9
