REMARK  0 active torsions:
REMARK  status: ('A' for Active; 'I' for Inactive)
ROOT
ATOM      1  C   UNL d   1      12.525   9.155  -2.860  0.00  0.00     0.285 C 
ATOM      2  N   UNL d   1      12.396   8.724  -4.243  0.00  0.00     0.142 N 
ATOM      3  C   UNL d   1      12.465   9.863  -5.148  0.00  0.00     0.268 C 
ATOM      4  C   UNL d   1      12.279   9.415  -6.600  0.00  0.00     0.112 C 
ATOM      5  N   UNL d   1      11.040   8.684  -6.755  0.00  0.00    -0.249 NA
ATOM      6  C   UNL d   1      10.682   8.336  -8.059  0.00  0.00     0.038 A 
ATOM      7  C   UNL d   1      11.149   8.991  -9.194  0.00  0.00     0.011 A 
ATOM      8  C   UNL d   1      10.779   8.527 -10.437  0.00  0.00     0.003 A 
ATOM      9  C   UNL d   1       9.897   7.460 -10.640  0.00  0.00     0.019 A 
ATOM     10  C   UNL d   1       9.459   6.789  -9.533  0.00  0.00     0.082 A 
ATOM     11  N   UNL d   1       8.613   5.743  -9.390  0.00  0.00    -0.244 NA
ATOM     12  C   UNL d   1       8.403   5.514  -8.042  0.00  0.00     0.095 A 
ATOM     13  C   UNL d   1       9.207   6.402  -7.384  0.00  0.00     0.001 A 
ATOM     14  C   UNL d   1       9.847   7.244  -8.283  0.00  0.00     0.025 A 
ATOM     15  C   UNL d   1       9.515   6.880  -5.995  0.00  0.00     0.046 C 
ATOM     16  C   UNL d   1      10.895   7.575  -5.827  0.00  0.00     0.100 C 
ATOM     17  C   UNL d   1      11.092   8.119  -4.411  0.00  0.00     0.267 C 
ENDROOT
TORSDOF 0
