REMARK  11 active torsions:
REMARK  status: ('A' for Active; 'I' for Inactive)
REMARK    1  A    between atoms: C_2  and  C_3 
REMARK    2  A    between atoms: C_7  and  O_8 
REMARK    3  A    between atoms: C_10  and  C_11 
REMARK       I    between atoms: C_11  and  N_13 
REMARK    4  A    between atoms: N_13  and  C_14 
REMARK    5  A    between atoms: C_14  and  C_15 
REMARK    6  A    between atoms: N_19  and  C_20 
REMARK    7  A    between atoms: C_20  and  C_21 
REMARK    8  A    between atoms: C_21  and  C_22 
REMARK    9  A    between atoms: C_22  and  C_23 
REMARK   10  A    between atoms: C_23  and  N_24 
REMARK       I    between atoms: N_24  and  C_25 
REMARK   11  A    between atoms: C_25  and  C_27 
ROOT
ATOM      1  C   UNL d   1       7.096   1.602 -14.630  0.00  0.00     0.058 C 
ATOM      2  C   UNL d   1       5.959   0.635 -14.294  0.00  0.00     0.006 C 
ATOM      3  C   UNL d   1       5.488   0.860 -12.860  0.00  0.00     0.035 C 
ATOM      4  C   UNL d   1       5.128   2.345 -12.617  0.00  0.00     0.250 C 
ATOM      5  N   UNL d   1       6.276   3.209 -12.883  0.00  0.00     0.137 N 
ATOM      6  C   UNL d   1       6.689   3.056 -14.285  0.00  0.00     0.252 C 
ENDROOT
BRANCH   1   7
ATOM      7  C   UNL d   1       7.500   1.438 -16.108  0.00  0.00     0.131 C 
BRANCH   7   8
ATOM      8  N   UNL d   1       8.819   1.980 -16.383  0.00  0.00    -0.234 NA
ATOM      9  C   UNL d   1       9.967   1.290 -16.454  0.00  0.00     0.279 C 
ATOM     10  O   UNL d   1      10.052   0.088 -16.195  0.00  0.00    -0.265 OA
BRANCH   9  11
ATOM     11  C   UNL d   1      11.156   2.090 -16.942  0.00  0.00     0.106 A 
ATOM     12  C   UNL d   1      11.470   3.358 -16.376  0.00  0.00     0.111 A 
ATOM     13  C   UNL d   1      12.626   4.057 -16.807  0.00  0.00     0.080 A 
ATOM     14  C   UNL d   1      13.440   3.531 -17.823  0.00  0.00     0.011 A 
ATOM     15 CL   UNL d   1      13.079   5.550 -16.058  0.00  0.00    -0.080 Cl
ATOM     16  C   UNL d   1      13.128   2.292 -18.416  0.00  0.00     0.004 A 
ATOM     17  C   UNL d   1      11.996   1.571 -17.965  0.00  0.00     0.134 A 
ATOM     18  O   UNL d   1      11.706   0.374 -18.558  0.00  0.00    -0.190 OA
BRANCH  12  19
ATOM     19  O   UNL d   1      10.678   3.916 -15.402  0.00  0.00    -0.327 OA
ATOM     20  C   UNL d   1       9.783   4.915 -15.883  0.00  0.00     0.181 C 
ENDBRANCH  12  19
BRANCH  16  21
ATOM     21  C   UNL d   1      14.055   1.716 -19.480  0.00  0.00     0.029 C 
ATOM     22  C   UNL d   1      13.516   1.863 -20.913  0.00  0.00     0.005 C 
ENDBRANCH  16  21
ENDBRANCH   9  11
ENDBRANCH   7   8
ENDBRANCH   1   7
BRANCH   5  23
ATOM     23  C   UNL d   1       5.949   4.602 -12.575  0.00  0.00     0.250 C 
BRANCH  23  24
ATOM     24  C   UNL d   1       7.186   5.536 -12.522  0.00  0.00     0.037 C 
BRANCH  24  25
ATOM     25  C   UNL d   1       7.865   5.576 -11.147  0.00  0.00     0.029 C 
BRANCH  25  26
ATOM     26  C   UNL d   1       9.156   6.418 -11.155  0.00  0.00     0.129 C 
BRANCH  26  27
ATOM     27  N   UNL d   1       9.653   6.641  -9.800  0.00  0.00    -0.233 NA
ATOM     28  C   UNL d   1      10.157   7.799  -9.339  0.00  0.00     0.293 C 
ATOM     29  O   UNL d   1      10.271   8.816 -10.018  0.00  0.00    -0.264 OA
BRANCH  28  30
ATOM     30  C   UNL d   1      10.535   7.797  -7.910  0.00  0.00     0.139 A 
ATOM     31  N   UNL d   1      10.763   9.007  -7.273  0.00  0.00    -0.241 NA
ATOM     32  C   UNL d   1      11.139   8.812  -5.958  0.00  0.00     0.082 A 
ATOM     33  C   UNL d   1      11.151   7.399  -5.772  0.00  0.00     0.019 A 
ATOM     34  C   UNL d   1      11.470   9.700  -4.920  0.00  0.00     0.019 A 
ATOM     35  C   UNL d   1      10.786   6.785  -7.021  0.00  0.00     0.025 A 
ATOM     36  C   UNL d   1      11.520   6.917  -4.495  0.00  0.00     0.002 A 
ATOM     37  C   UNL d   1      11.866   7.799  -3.449  0.00  0.00     0.000 A 
ATOM     38  C   UNL d   1      11.838   9.191  -3.660  0.00  0.00     0.002 A 
ENDBRANCH  28  30
ENDBRANCH  26  27
ENDBRANCH  25  26
ENDBRANCH  24  25
ENDBRANCH  23  24
ENDBRANCH   5  23
TORSDOF 11
