REMARK  12 active torsions:
REMARK  status: ('A' for Active; 'I' for Inactive)
REMARK    1  A    between atoms: C_2  and  C_3 
REMARK    2  A    between atoms: C_3  and  N_4 
REMARK    3  A    between atoms: N_4  and  C_5 
REMARK    4  A    between atoms: N_4  and  C_21 
REMARK    5  A    between atoms: C_5  and  C_6 
REMARK    6  A    between atoms: C_6  and  C_7 
REMARK    7  A    between atoms: C_7  and  C_8 
REMARK    8  A    between atoms: C_8  and  N_9 
REMARK       I    between atoms: N_9  and  C_10 
REMARK    9  A    between atoms: C_10  and  C_12 
REMARK   10  A    between atoms: C_21  and  C_22 
REMARK   11  A    between atoms: C_24  and  C_25 
REMARK   12  A    between atoms: C_28  and  C_29 
ROOT
ATOM      1  N   UNL d   1       7.784   6.629 -12.764  0.00  0.00     0.137 N 
ENDROOT
BRANCH   1   2
ATOM      2  C   UNL d   1       6.505   6.523 -12.038  0.00  0.00     0.250 C 
BRANCH   2   3
ATOM      3  C   UNL d   1       5.596   7.797 -12.104  0.00  0.00     0.035 C 
ATOM      4  C   UNL d   1       5.350   8.195 -13.525  0.00  0.00     0.002 C 
ENDBRANCH   2   3
ENDBRANCH   1   2
BRANCH   1   5
ATOM      5  C   UNL d   1       8.625   7.712 -12.241  0.00  0.00     0.250 C 
BRANCH   5   6
ATOM      6  C   UNL d   1       9.439   7.328 -10.984  0.00  0.00     0.037 C 
BRANCH   6   7
ATOM      7  C   UNL d   1      10.193   8.540 -10.455  0.00  0.00     0.029 C 
BRANCH   7   8
ATOM      8  C   UNL d   1      11.457   8.078  -9.708  0.00  0.00     0.129 C 
BRANCH   8   9
ATOM      9  N   UNL d   1      11.210   7.571  -8.358  0.00  0.00    -0.233 NA
ATOM     10  C   UNL d   1      10.569   8.253  -7.390  0.00  0.00     0.293 C 
ATOM     11  O   UNL d   1       9.761   9.158  -7.580  0.00  0.00    -0.264 OA
BRANCH  10  12
ATOM     12  C   UNL d   1      11.088   8.018  -6.049  0.00  0.00     0.139 A 
ATOM     13  N   UNL d   1      11.269   9.147  -5.270  0.00  0.00    -0.241 NA
ATOM     14  C   UNL d   1      11.733   8.802  -4.027  0.00  0.00     0.082 A 
ATOM     15  C   UNL d   1      11.859   7.380  -4.054  0.00  0.00     0.019 A 
ATOM     16  C   UNL d   1      12.032   9.565  -2.892  0.00  0.00     0.019 A 
ATOM     17  C   UNL d   1      11.450   6.906  -5.343  0.00  0.00     0.025 A 
ATOM     18  C   UNL d   1      12.304   6.755  -2.873  0.00  0.00     0.002 A 
ATOM     19  C   UNL d   1      12.662   7.516  -1.757  0.00  0.00     0.000 A 
ATOM     20  C   UNL d   1      12.512   8.906  -1.757  0.00  0.00     0.002 A 
ENDBRANCH  10  12
ENDBRANCH   8   9
ENDBRANCH   7   8
ENDBRANCH   6   7
ENDBRANCH   5   6
ENDBRANCH   1   5
BRANCH   1  21
ATOM     21  C   UNL d   1       8.511   5.355 -12.732  0.00  0.00     0.251 C 
BRANCH  21  22
ATOM     22  C   UNL d   1       8.143   4.425 -13.845  0.00  0.00     0.038 A 
ATOM     23  C   UNL d   1       8.670   3.010 -13.751  0.00  0.00     0.024 A 
ATOM     24  C   UNL d   1       7.181   3.277 -13.653  0.00  0.00     0.007 A 
BRANCH  23  25
ATOM     25  C   UNL d   1       9.243   2.304 -14.928  0.00  0.00    -0.022 A 
ATOM     26  C   UNL d   1       8.722   1.059 -15.334  0.00  0.00    -0.004 A 
ATOM     27  C   UNL d   1       9.229   0.418 -16.485  0.00  0.00     0.004 A 
ATOM     28  C   UNL d   1      10.276   1.009 -17.225  0.00  0.00     0.071 A 
ATOM     29  C   UNL d   1      10.822   2.239 -16.791  0.00  0.00     0.004 A 
ATOM     30  C   UNL d   1      10.312   2.877 -15.644  0.00  0.00    -0.004 A 
BRANCH  28  31
ATOM     31  C   UNL d   1      10.811   0.313 -18.468  0.00  0.00     0.419 C 
ATOM     32  F   UNL d   1      11.684   1.077 -19.126  0.00  0.00    -0.166 F 
ATOM     33  F   UNL d   1      11.424  -0.815 -18.114  0.00  0.00    -0.166 F 
ATOM     34  F   UNL d   1       9.808   0.013 -19.294  0.00  0.00    -0.166 F 
ENDBRANCH  28  31
ENDBRANCH  23  25
ENDBRANCH  21  22
ENDBRANCH   1  21
TORSDOF 12
