REMARK  4 active torsions:
REMARK  status: ('A' for Active; 'I' for Inactive)
REMARK    1  A    between atoms: O_2  and  C_3 
REMARK    2  A    between atoms: C_7  and  C_8 
REMARK    3  A    between atoms: C_14  and  C_15 
REMARK    4  A    between atoms: C_15  and  N_16 
ROOT
ATOM      1  C   UNL d   1      10.460   8.456  -7.592  0.00  0.00     0.147 C 
ATOM      2  O   UNL d   1       9.209   9.092  -7.454  0.00  0.00    -0.222 OA
ATOM      3  C   UNL d   1      11.437   9.444  -8.233  0.00  0.00     0.035 C 
ATOM      4  C   UNL d   1      11.044   9.853  -9.640  0.00  0.00     0.003 C 
ATOM      5  C   UNL d   1      10.881   8.642 -10.552  0.00  0.00     0.000 C 
ATOM      6  C   UNL d   1       9.893   7.684  -9.968  0.00  0.00     0.005 C 
ATOM      7  C   UNL d   1      10.247   7.247  -8.537  0.00  0.00     0.065 C 
ENDROOT
BRANCH   1   8
ATOM      8  C   UNL d   1      11.022   8.055  -6.232  0.00  0.00     0.007 A 
ATOM      9  C   UNL d   1      11.448   6.741  -5.940  0.00  0.00    -0.002 A 
ATOM     10  C   UNL d   1      11.872   6.403  -4.660  0.00  0.00     0.002 A 
ATOM     11  C   UNL d   1      11.977   7.350  -3.641  0.00  0.00     0.024 A 
ATOM     12  C   UNL d   1      11.636   8.700  -3.925  0.00  0.00     0.094 A 
ATOM     13  C   UNL d   1      11.158   9.026  -5.202  0.00  0.00     0.022 A 
BRANCH  12  14
ATOM     14  O   UNL d   1      11.740   9.688  -2.988  0.00  0.00    -0.328 OA
ATOM     15  C   UNL d   1      12.270   9.293  -1.746  0.00  0.00     0.181 C 
ENDBRANCH  12  14
ENDBRANCH   1   8
BRANCH   7  16
ATOM     16  C   UNL d   1       9.169   6.257  -8.001  0.00  0.00     0.253 C 
BRANCH  16  17
ATOM     17  N   UNL d   1       9.378   4.852  -8.432  0.00  0.00     0.141 N 
ATOM     18  C   UNL d   1       9.920   4.639  -9.727  0.00  0.00     0.285 C 
ATOM     19  C   UNL d   1       8.083   4.214  -8.494  0.00  0.00     0.285 C 
ENDBRANCH  16  17
ENDBRANCH   7  16
TORSDOF 4
