REMARK  8 active torsions:
REMARK  status: ('A' for Active; 'I' for Inactive)
REMARK    1  A    between atoms: O_2  and  C_3 
REMARK    2  A    between atoms: C_8  and  N_9 
REMARK    3  A    between atoms: N_12  and  C_13 
REMARK    4  A    between atoms: C_13  and  C_14 
REMARK    5  A    between atoms: C_14  and  C_16 
REMARK    6  A    between atoms: C_16  and  C_17 
REMARK    7  A    between atoms: C_17  and  N_18 
REMARK    8  A    between atoms: C_20  and  C_21 
ROOT
ATOM      1  C   UNL d   1       9.207   5.902 -13.182  0.00  0.00     0.283 C 
ENDROOT
BRANCH   1   2
ATOM      2  N   UNL d   1      10.022   4.751 -13.581  0.00  0.00     0.144 N 
ATOM      3  C   UNL d   1      10.672   4.973 -14.886  0.00  0.00     0.274 C 
ATOM      4  C   UNL d   1      11.558   3.779 -15.310  0.00  0.00     0.137 C 
ATOM      5  N   UNL d   1      10.781   2.542 -15.273  0.00  0.00    -0.343 N 
ATOM      6  C   UNL d   1      10.051   2.307 -14.041  0.00  0.00     0.137 C 
ATOM      7  C   UNL d   1       9.204   3.530 -13.690  0.00  0.00     0.274 C 
BRANCH   5   8
ATOM      8  C   UNL d   1      10.671   1.690 -16.387  0.00  0.00     0.079 A 
ATOM      9  C   UNL d   1       9.426   1.127 -16.780  0.00  0.00     0.110 A 
ATOM     10  C   UNL d   1       9.395   0.238 -17.889  0.00  0.00     0.026 A 
ATOM     11  C   UNL d   1      10.565  -0.058 -18.611  0.00  0.00     0.002 A 
ATOM     12  C   UNL d   1      11.786   0.521 -18.231  0.00  0.00     0.002 A 
ATOM     13  C   UNL d   1      11.836   1.388 -17.123  0.00  0.00     0.019 A 
BRANCH   9  14
ATOM     14  O   UNL d   1       8.290   1.494 -16.087  0.00  0.00    -0.327 OA
ATOM     15  C   UNL d   1       7.068   0.830 -16.370  0.00  0.00     0.181 C 
ENDBRANCH   9  14
ENDBRANCH   5   8
ENDBRANCH   1   2
BRANCH   1  16
ATOM     16  C   UNL d   1       8.545   5.820 -11.783  0.00  0.00     0.188 C 
ATOM     17  O   UNL d   1       7.255   6.388 -11.891  0.00  0.00    -0.221 OA
BRANCH  16  18
ATOM     18  C   UNL d   1       9.351   6.583 -10.720  0.00  0.00     0.061 C 
BRANCH  18  19
ATOM     19  C   UNL d   1       8.917   6.197  -9.289  0.00  0.00     0.132 C 
BRANCH  19  20
ATOM     20  N   UNL d   1       9.518   7.025  -8.265  0.00  0.00    -0.230 N 
ATOM     21  N   UNL d   1       9.537   8.371  -8.398  0.00  0.00    -0.064 NA
ATOM     22  N   UNL d   1      10.120   8.842  -7.348  0.00  0.00    -0.129 NA
ATOM     23  C   UNL d   1      10.455   7.799  -6.482  0.00  0.00     0.123 A 
ATOM     24  C   UNL d   1      10.057   6.629  -7.066  0.00  0.00     0.118 A 
BRANCH  23  25
ATOM     25  C   UNL d   1      11.110   8.051  -5.199  0.00  0.00     0.021 A 
ATOM     26  C   UNL d   1      11.201   9.364  -4.687  0.00  0.00     0.002 A 
ATOM     27  C   UNL d   1      11.810   9.592  -3.440  0.00  0.00     0.000 A 
ATOM     28  C   UNL d   1      12.342   8.529  -2.695  0.00  0.00     0.000 A 
ATOM     29  C   UNL d   1      12.258   7.218  -3.195  0.00  0.00     0.000 A 
ATOM     30  C   UNL d   1      11.638   6.983  -4.440  0.00  0.00     0.002 A 
ENDBRANCH  23  25
ENDBRANCH  19  20
ENDBRANCH  18  19
ENDBRANCH  16  18
ENDBRANCH   1  16
TORSDOF 8
