REMARK  5 active torsions:
REMARK  status: ('A' for Active; 'I' for Inactive)
REMARK    1  A    between atoms: N_11  and  C_12 
REMARK    2  A    between atoms: C_12  and  C_13 
REMARK    3  A    between atoms: C_13  and  C_14 
REMARK    4  A    between atoms: C_14  and  N_15 
REMARK    5  A    between atoms: C_18  and  N_19 
ROOT
ATOM      1  N   UNL d   1      10.353   7.697  -9.197  0.00  0.00     0.137 N 
ATOM      2  C   UNL d   1       9.224   8.320  -8.502  0.00  0.00     0.252 C 
ATOM      3  C   UNL d   1       9.489   8.451  -7.017  0.00  0.00     0.058 C 
ATOM      4  C   UNL d   1      10.748   9.263  -6.771  0.00  0.00     0.094 C 
ATOM      5  C   UNL d   1      11.912   8.764  -7.626  0.00  0.00     0.058 C 
ATOM      6  C   UNL d   1      11.519   8.583  -9.091  0.00  0.00     0.252 C 
ENDROOT
BRANCH   1   7
ATOM      7  C   UNL d   1      10.000   7.545 -10.604  0.00  0.00     0.252 C 
BRANCH   7   8
ATOM      8  C   UNL d   1       8.934   6.464 -10.870  0.00  0.00     0.060 C 
BRANCH   8   9
ATOM      9  C   UNL d   1       8.098   6.768 -12.130  0.00  0.00     0.111 C 
BRANCH   9  10
ATOM     10  N   UNL d   1       7.431   5.547 -12.613  0.00  0.00    -0.299 N 
ATOM     11  C   UNL d   1       6.137   5.353 -12.392  0.00  0.00     0.238 C 
ATOM     12  O   UNL d   1       5.529   6.151 -11.675  0.00  0.00    -0.272 OA
ATOM     13  C   UNL d   1       5.375   4.193 -13.047  0.00  0.00     0.093 C 
ATOM     14  C   UNL d   1       6.261   2.962 -13.328  0.00  0.00     0.039 C 
ATOM     15  C   UNL d   1       7.691   3.332 -13.681  0.00  0.00     0.013 A 
ATOM     16  C   UNL d   1       8.214   4.589 -13.315  0.00  0.00     0.061 A 
ATOM     17  C   UNL d   1       8.556   2.412 -14.318  0.00  0.00     0.096 A 
ATOM     18  C   UNL d   1       9.562   4.859 -13.641  0.00  0.00     0.038 A 
ATOM     19  C   UNL d   1      10.329   3.888 -14.281  0.00  0.00     0.100 A 
ATOM     20  N   UNL d   1       9.847   2.678 -14.614  0.00  0.00    -0.243 NA
ENDBRANCH   9  10
ENDBRANCH   8   9
ENDBRANCH   7   8
ENDBRANCH   1   7
BRANCH   4  21
ATOM     21  N   UNL d   1      11.097   9.194  -5.354  0.00  0.00    -0.281 N 
ATOM     22  C   UNL d   1      11.519   8.161  -4.594  0.00  0.00     0.082 A 
ATOM     23  C   UNL d   1      11.747   8.616  -3.303  0.00  0.00     0.102 A 
ATOM     24  C   UNL d   1      11.726   6.851  -4.943  0.00  0.00     0.019 A 
ATOM     25  N   UNL d   1      11.438   9.928  -3.289  0.00  0.00    -0.191 NA
ATOM     26  C   UNL d   1      12.163   7.822  -2.258  0.00  0.00     0.021 A 
ATOM     27  C   UNL d   1      11.045  10.198  -4.521  0.00  0.00     0.350 A 
ATOM     28  O   UNL d   1      10.657  11.233  -4.833  0.00  0.00    -0.244 OA
ATOM     29  C   UNL d   1      12.419   6.494  -2.585  0.00  0.00     0.002 A 
ATOM     30  C   UNL d   1      12.237   6.098  -3.914  0.00  0.00     0.002 A 
ENDBRANCH   4  21
TORSDOF 5
