REMARK  4 active torsions:
REMARK  status: ('A' for Active; 'I' for Inactive)
REMARK    1  A    between atoms: C_2  and  C_3 
REMARK    2  A    between atoms: C_2  and  N_10 
REMARK    3  A    between atoms: N_13  and  C_14 
REMARK    4  A    between atoms: C_14  and  C_15 
REMARK       I    between atoms: C_15  and  N_17 
ROOT
ATOM      1  N   UNL d   1      12.186   0.286 -19.575  0.00  0.00     0.143 N 
ATOM      2  C   UNL d   1      12.376   1.536 -18.820  0.00  0.00     0.286 C 
ATOM      3  C   UNL d   1      12.011   1.382 -17.341  0.00  0.00     0.286 C 
ATOM      4  N   UNL d   1      10.605   0.965 -17.194  0.00  0.00     0.151 N 
ATOM      5  C   UNL d   1      10.426  -0.291 -17.914  0.00  0.00     0.286 C 
ATOM      6  C   UNL d   1      10.792  -0.140 -19.395  0.00  0.00     0.286 C 
ENDROOT
BRANCH   4   7
ATOM      7  C   UNL d   1      10.109   0.876 -15.824  0.00  0.00     0.337 C 
BRANCH   7   8
ATOM      8  C   UNL d   1       9.954   2.228 -15.090  0.00  0.00     0.271 C 
ATOM      9  O   UNL d   1      10.881   3.043 -15.143  0.00  0.00    -0.270 OA
ATOM     10  N   UNL d   1       8.813   2.500 -14.403  0.00  0.00    -0.299 N 
ATOM     11  C   UNL d   1       7.446   2.029 -14.768  0.00  0.00     0.093 A 
ATOM     12  C   UNL d   1       8.714   3.625 -13.537  0.00  0.00     0.058 A 
ATOM     13  C   UNL d   1       6.476   3.051 -14.093  0.00  0.00     0.051 A 
ATOM     14  C   UNL d   1       7.066   0.579 -14.358  0.00  0.00     0.025 C 
ATOM     15  C   UNL d   1       7.389   4.004 -13.368  0.00  0.00    -0.004 A 
ATOM     16  C   UNL d   1       7.043   5.146 -12.621  0.00  0.00    -0.003 A 
ATOM     17  C   UNL d   1       8.076   5.910 -12.034  0.00  0.00    -0.000 A 
ATOM     18  C   UNL d   1       9.423   5.499 -12.159  0.00  0.00     0.002 A 
ATOM     19  C   UNL d   1       9.750   4.341 -12.891  0.00  0.00     0.017 A 
ENDBRANCH   7   8
ENDBRANCH   4   7
BRANCH   1  20
ATOM     20  C   UNL d   1      12.558   0.461 -20.986  0.00  0.00     0.242 C 
ATOM     21  C   UNL d   1      12.223  -0.745 -21.880  0.00  0.00     0.040 C 
BRANCH  20  22
ATOM     22  C   UNL d   1      14.044   0.767 -21.132  0.00  0.00     0.009 A 
ATOM     23  C   UNL d   1      14.472   1.780 -22.015  0.00  0.00    -0.002 A 
ATOM     24  C   UNL d   1      15.845   2.050 -22.172  0.00  0.00     0.011 A 
ATOM     25  C   UNL d   1      16.798   1.306 -21.449  0.00  0.00     0.058 A 
ATOM     26  C   UNL d   1      16.376   0.300 -20.559  0.00  0.00     0.011 A 
ATOM     27 CL   UNL d   1      18.481   1.632 -21.646  0.00  0.00    -0.082 Cl
ATOM     28  C   UNL d   1      15.005   0.024 -20.408  0.00  0.00    -0.002 A 
ENDBRANCH  20  22
ENDBRANCH   1  20
TORSDOF 4
