REMARK  4 active torsions:
REMARK  status: ('A' for Active; 'I' for Inactive)
REMARK    1  A    between atoms: O_2  and  C_3 
REMARK    2  A    between atoms: C_10  and  C_11 
REMARK    3  A    between atoms: C_11  and  N_12 
REMARK    4  A    between atoms: C_15  and  C_17 
ROOT
ATOM      1  N   UNL d   1      10.134   6.627 -10.588  0.00  0.00    -0.252 NA
ATOM      2  C   UNL d   1       9.177   6.190  -9.582  0.00  0.00     0.080 C 
ATOM      3  C   UNL d   1       9.727   6.353  -8.192  0.00  0.00     0.052 C 
ATOM      4  C   UNL d   1      10.137   7.812  -7.890  0.00  0.00     0.148 C 
ATOM      5  O   UNL d   1       9.021   8.675  -7.977  0.00  0.00    -0.221 OA
ATOM      6  C   UNL d   1      11.098   8.287  -8.997  0.00  0.00     0.052 C 
ATOM      7  C   UNL d   1      10.501   8.036 -10.399  0.00  0.00     0.080 C 
ENDROOT
BRANCH   1   8
ATOM      8  C   UNL d   1       9.598   6.440 -11.947  0.00  0.00     0.049 C 
BRANCH   8   9
ATOM      9  C   UNL d   1       8.432   5.555 -12.260  0.00  0.00     0.034 A 
ATOM     10  C   UNL d   1       7.161   5.691 -11.751  0.00  0.00     0.100 A 
ATOM     11  N   UNL d   1       6.364   4.677 -12.171  0.00  0.00    -0.244 NA
ATOM     12  C   UNL d   1       7.032   3.900 -13.084  0.00  0.00     0.083 A 
ATOM     13  C   UNL d   1       6.620   2.769 -13.797  0.00  0.00     0.019 A 
ATOM     14  C   UNL d   1       8.355   4.433 -13.168  0.00  0.00     0.042 A 
ATOM     15  C   UNL d   1       7.521   2.141 -14.670  0.00  0.00     0.004 A 
ATOM     16  C   UNL d   1       8.835   2.645 -14.804  0.00  0.00     0.024 A 
ATOM     17  C   UNL d   1       9.266   3.780 -14.057  0.00  0.00     0.096 A 
BRANCH  17  18
ATOM     18  O   UNL d   1      10.544   4.297 -14.141  0.00  0.00    -0.328 OA
ATOM     19  C   UNL d   1      11.493   3.646 -14.981  0.00  0.00     0.181 C 
ENDBRANCH  17  18
ENDBRANCH   8   9
ENDBRANCH   1   8
BRANCH   4  20
ATOM     20  C   UNL d   1      10.765   7.954  -6.502  0.00  0.00     0.005 A 
ATOM     21  C   UNL d   1      10.987   9.240  -5.957  0.00  0.00    -0.001 A 
ATOM     22  C   UNL d   1      11.541   9.385  -4.662  0.00  0.00     0.006 A 
ATOM     23  C   UNL d   1      11.880   8.240  -3.904  0.00  0.00     0.035 A 
ATOM     24  C   UNL d   1      11.655   6.958  -4.439  0.00  0.00     0.006 A 
ATOM     25 BR   UNL d   1      12.638   8.390  -2.162  0.00  0.00    -0.049 Br
ATOM     26  C   UNL d   1      11.105   6.824  -5.721  0.00  0.00    -0.001 A 
ENDBRANCH   4  20
TORSDOF 4
