REMARK  1 active torsions:
REMARK  status: ('A' for Active; 'I' for Inactive)
REMARK    1  A    between atoms: C_4  and  C_5 
ROOT
ATOM      1  C   UNL d   1      11.454   8.208  -6.305  0.00  0.00     0.058 C 
ATOM      2  C   UNL d   1      10.683   7.038  -6.913  0.00  0.00     0.046 C 
ATOM      3  C   UNL d   1       9.626   7.702  -7.772  0.00  0.00     0.259 C 
ATOM      4  C   UNL d   1       9.364   6.957  -9.026  0.00  0.00     0.086 A 
ATOM      5  N   UNL d   1       8.680   5.765  -9.136  0.00  0.00    -0.248 NA
ATOM      6  C   UNL d   1       8.499   5.458 -10.474  0.00  0.00     0.081 A 
ATOM      7  C   UNL d   1       7.798   4.426 -11.118  0.00  0.00     0.019 A 
ATOM      8  C   UNL d   1       7.813   4.350 -12.519  0.00  0.00     0.002 A 
ATOM      9  C   UNL d   1       8.451   5.350 -13.270  0.00  0.00     0.000 A 
ATOM     10  C   UNL d   1       9.073   6.433 -12.620  0.00  0.00     0.001 A 
ATOM     11  C   UNL d   1       9.142   6.493 -11.213  0.00  0.00     0.015 A 
ATOM     12  C   UNL d   1       9.683   7.417 -10.262  0.00  0.00    -0.003 A 
ATOM     13  C   UNL d   1      10.319   8.743 -10.422  0.00  0.00     0.063 C 
ATOM     14  C   UNL d   1      11.029   9.169  -9.131  0.00  0.00     0.255 C 
ATOM     15  N   UNL d   1      10.081   9.083  -8.003  0.00  0.00     0.141 N 
ATOM     16  C   UNL d   1      10.686   9.451  -6.731  0.00  0.00     0.255 C 
ENDROOT
BRANCH   1  17
ATOM     17  C   UNL d   1      11.744   8.108  -4.810  0.00  0.00    -0.021 A 
ATOM     18  C   UNL d   1      11.859   6.849  -4.170  0.00  0.00    -0.004 A 
ATOM     19  C   UNL d   1      12.114   6.782  -2.791  0.00  0.00    -0.000 A 
ATOM     20  C   UNL d   1      12.266   7.954  -2.039  0.00  0.00    -0.000 A 
ATOM     21  C   UNL d   1      12.163   9.197  -2.673  0.00  0.00    -0.000 A 
ATOM     22  C   UNL d   1      11.916   9.279  -4.049  0.00  0.00    -0.004 A 
ENDBRANCH   1  17
TORSDOF 1
