REMARK  4 active torsions:
REMARK  status: ('A' for Active; 'I' for Inactive)
REMARK    1  A    between atoms: O_2  and  C_3 
REMARK    2  A    between atoms: C_9  and  C_10 
REMARK    3  A    between atoms: C_10  and  N_11 
REMARK    4  A    between atoms: C_14  and  C_16 
ROOT
ATOM      1  N   UNL d   1      10.060   6.669 -10.826  0.00  0.00     0.142 N 
ATOM      2  C   UNL d   1       9.364   5.848  -9.843  0.00  0.00     0.254 C 
ATOM      3  C   UNL d   1       9.986   6.042  -8.452  0.00  0.00     0.070 C 
ATOM      4  C   UNL d   1      10.019   7.515  -7.964  0.00  0.00     0.149 C 
ATOM      5  O   UNL d   1       8.659   7.924  -7.736  0.00  0.00    -0.221 OA
ATOM      6  C   UNL d   1      10.623   8.372  -9.102  0.00  0.00     0.070 C 
ATOM      7  C   UNL d   1       9.990   8.086 -10.474  0.00  0.00     0.254 C 
ENDROOT
BRANCH   1   8
ATOM      8  C   UNL d   1       9.501   6.448 -12.161  0.00  0.00     0.278 C 
BRANCH   8   9
ATOM      9  C   UNL d   1       9.793   5.163 -12.906  0.00  0.00     0.032 A 
ATOM     10  C   UNL d   1      11.000   4.684 -13.380  0.00  0.00     0.097 A 
ATOM     11  N   UNL d   1      10.829   3.484 -14.024  0.00  0.00    -0.244 NA
ATOM     12  C   UNL d   1       9.511   3.129 -14.002  0.00  0.00     0.081 A 
ATOM     13  C   UNL d   1       8.853   2.009 -14.508  0.00  0.00     0.021 A 
ATOM     14  C   UNL d   1       8.837   4.184 -13.310  0.00  0.00     0.019 A 
ATOM     15  C   UNL d   1       7.463   1.924 -14.360  0.00  0.00     0.026 A 
ATOM     16  C   UNL d   1       6.776   2.937 -13.661  0.00  0.00     0.094 A 
ATOM     17  C   UNL d   1       7.447   4.065 -13.155  0.00  0.00     0.025 A 
BRANCH  16  18
ATOM     18  O   UNL d   1       5.452   2.712 -13.432  0.00  0.00    -0.328 OA
ATOM     19  C   UNL d   1       4.660   3.820 -13.043  0.00  0.00     0.181 C 
ENDBRANCH  16  18
ENDBRANCH   8   9
ENDBRANCH   1   8
BRANCH   4  20
ATOM     20  C   UNL d   1      10.789   7.728  -6.656  0.00  0.00     0.005 A 
ATOM     21  C   UNL d   1      10.960   9.037  -6.153  0.00  0.00    -0.001 A 
ATOM     22  C   UNL d   1      11.589   9.242  -4.915  0.00  0.00     0.006 A 
ATOM     23  C   UNL d   1      11.979   8.139  -4.135  0.00  0.00     0.035 A 
ATOM     24  C   UNL d   1      11.858   6.831  -4.639  0.00  0.00     0.006 A 
ATOM     25 BR   UNL d   1      12.602   8.428  -2.369  0.00  0.00    -0.049 Br
ATOM     26  C   UNL d   1      11.261   6.639  -5.887  0.00  0.00    -0.001 A 
ENDBRANCH   4  20
TORSDOF 4
