REMARK  2 active torsions:
REMARK  status: ('A' for Active; 'I' for Inactive)
REMARK    1  A    between atoms: O_2  and  C_3 
REMARK    2  A    between atoms: C_8  and  O_9 
ROOT
ATOM      1  C   UNL d   1      11.181   2.232 -17.813  0.00  0.00     0.116 A 
ATOM      2  C   UNL d   1      11.243   0.828 -17.662  0.00  0.00     0.026 A 
ATOM      3  C   UNL d   1      10.441   0.184 -16.708  0.00  0.00    -0.002 A 
ATOM      4  C   UNL d   1       9.597   0.935 -15.870  0.00  0.00    -0.018 A 
ATOM      5  C   UNL d   1       9.556   2.340 -15.954  0.00  0.00     0.020 A 
ATOM      6  C   UNL d   1      10.315   2.979 -16.974  0.00  0.00     0.116 A 
ATOM      7  C   UNL d   1       8.683   3.052 -14.985  0.00  0.00    -0.001 A 
ATOM      8  C   UNL d   1       8.936   4.385 -14.553  0.00  0.00    -0.001 A 
ATOM      9  C   UNL d   1       8.098   5.061 -13.646  0.00  0.00    -0.005 A 
ATOM     10  C   UNL d   1       6.950   4.434 -13.145  0.00  0.00    -0.026 A 
ATOM     11  C   UNL d   1       6.056   5.173 -12.189  0.00  0.00     0.031 C 
ATOM     12  C   UNL d   1       6.654   3.110 -13.506  0.00  0.00    -0.026 A 
ATOM     13  C   UNL d   1       7.550   2.439 -14.382  0.00  0.00     0.005 A 
ATOM     14  C   UNL d   1       7.315   0.954 -14.732  0.00  0.00     0.246 C 
ATOM     15  C   UNL d   1       8.674   0.233 -14.900  0.00  0.00     0.064 C 
ATOM     16  N   UNL d   1       6.439   0.232 -13.788  0.00  0.00     0.142 N 
ATOM     17  C   UNL d   1       6.040  -1.062 -14.298  0.00  0.00     0.286 C 
ATOM     18  C   UNL d   1       5.218   0.969 -13.637  0.00  0.00     0.255 C 
ATOM     19  C   UNL d   1       5.523   2.267 -12.899  0.00  0.00     0.061 C 
ENDROOT
BRANCH   1  20
ATOM     20  O   UNL d   1      11.931   2.930 -18.738  0.00  0.00    -0.326 OA
ATOM     21  C   UNL d   1      12.748   2.200 -19.644  0.00  0.00     0.181 C 
ENDBRANCH   1  20
BRANCH   6  22
ATOM     22  O   UNL d   1      10.211   4.330 -17.181  0.00  0.00    -0.326 OA
ATOM     23  C   UNL d   1       9.417   4.679 -18.308  0.00  0.00     0.181 C 
ENDBRANCH   6  22
TORSDOF 2
