REMARK  2 active torsions:
REMARK  status: ('A' for Active; 'I' for Inactive)
REMARK    1  A    between atoms: O_2  and  C_3 
REMARK    2  A    between atoms: C_8  and  O_9 
ROOT
ATOM      1  C   UNL d   1       9.286   3.249 -19.572  0.00  0.00     0.116 A 
ATOM      2  C   UNL d   1      10.173   4.024 -18.798  0.00  0.00     0.022 A 
ATOM      3  C   UNL d   1      10.221   3.855 -17.407  0.00  0.00    -0.020 A 
ATOM      4  C   UNL d   1       9.392   2.869 -16.816  0.00  0.00     0.007 A 
ATOM      5  C   UNL d   1       8.443   2.087 -17.524  0.00  0.00     0.022 A 
ATOM      6  C   UNL d   1       8.444   2.298 -18.936  0.00  0.00     0.116 A 
ATOM      7  C   UNL d   1       7.473   1.215 -16.790  0.00  0.00    -0.000 A 
ATOM      8  C   UNL d   1       6.783   0.126 -17.393  0.00  0.00     0.026 A 
ATOM      9  C   UNL d   1       5.871  -0.613 -16.629  0.00  0.00     0.119 A 
ATOM     10  C   UNL d   1       5.618  -0.327 -15.308  0.00  0.00     0.119 A 
ATOM     11  C   UNL d   1       6.276   0.723 -14.652  0.00  0.00     0.022 A 
ATOM     12  C   UNL d   1       7.213   1.477 -15.407  0.00  0.00    -0.018 A 
ATOM     13  C   UNL d   1       8.023   2.556 -14.706  0.00  0.00     0.064 C 
ATOM     14  C   UNL d   1       9.437   2.612 -15.300  0.00  0.00     0.246 C 
ATOM     15  N   UNL d   1      10.320   3.451 -14.483  0.00  0.00     0.142 N 
ATOM     16  C   UNL d   1      11.617   2.817 -14.278  0.00  0.00     0.286 C 
ATOM     17  C   UNL d   1      10.437   4.788 -15.040  0.00  0.00     0.255 C 
ATOM     18  C   UNL d   1      11.027   4.722 -16.454  0.00  0.00     0.061 C 
ATOM     19  O   UNL d   1       4.699  -1.207 -14.828  0.00  0.00    -0.300 OA
ATOM     20  C   UNL d   1       4.402  -2.068 -15.904  0.00  0.00     0.304 A 
ATOM     21  O   UNL d   1       5.141  -1.679 -17.023  0.00  0.00    -0.300 OA
ENDROOT
BRANCH   1  22
ATOM     22  O   UNL d   1       9.148   3.408 -20.939  0.00  0.00    -0.326 OA
ATOM     23  C   UNL d   1      10.019   4.305 -21.616  0.00  0.00     0.181 C 
ENDBRANCH   1  22
BRANCH   6  24
ATOM     24  O   UNL d   1       7.527   1.643 -19.713  0.00  0.00    -0.326 OA
ATOM     25  C   UNL d   1       8.075   0.610 -20.521  0.00  0.00     0.181 C 
ENDBRANCH   6  24
TORSDOF 2
