REMARK  4 active torsions:
REMARK  status: ('A' for Active; 'I' for Inactive)
REMARK    1  A    between atoms: C_5  and  C_6 
REMARK    2  A    between atoms: N_9  and  C_10 
REMARK    3  A    between atoms: C_10  and  C_11 
REMARK    4  A    between atoms: C_11  and  C_12 
ROOT
ATOM      1  C   UNL d   1       9.534   7.219  -8.516  0.00  0.00     0.026 C 
ATOM      2  C   UNL d   1       9.069   5.757  -8.406  0.00  0.00     0.040 C 
ATOM      3  C   UNL d   1       8.379   5.258  -9.670  0.00  0.00     0.251 C 
ATOM      4  N   UNL d   1       9.282   5.368 -10.801  0.00  0.00     0.137 N 
ATOM      5  C   UNL d   1       9.580   6.782 -11.020  0.00  0.00     0.251 C 
ATOM      6  C   UNL d   1      10.337   7.377  -9.818  0.00  0.00     0.040 C 
ENDROOT
BRANCH   4   7
ATOM      7  C   UNL d   1       8.628   4.800 -11.976  0.00  0.00     0.253 C 
BRANCH   7   8
ATOM      8  C   UNL d   1       9.660   4.307 -12.995  0.00  0.00     0.064 C 
BRANCH   8   9
ATOM      9  C   UNL d   1       9.053   3.834 -14.336  0.00  0.00     0.131 A 
ATOM     10  C   UNL d   1       7.951   2.794 -14.220  0.00  0.00     0.005 A 
ATOM     11  C   UNL d   1       8.395   1.622 -14.807  0.00  0.00     0.055 A 
ATOM     12  C   UNL d   1       6.664   2.893 -13.662  0.00  0.00    -0.002 A 
ATOM     13  C   UNL d   1       9.751   1.818 -15.364  0.00  0.00     0.275 A 
ATOM     14  C   UNL d   1       7.597   0.467 -14.843  0.00  0.00     0.004 A 
ATOM     15  N   UNL d   1      10.068   3.101 -15.119  0.00  0.00    -0.232 NA
ATOM     16  O   UNL d   1      10.425   0.971 -15.947  0.00  0.00    -0.266 OA
ATOM     17  C   UNL d   1       6.317   0.528 -14.252  0.00  0.00     0.000 A 
ATOM     18  C   UNL d   1       5.854   1.727 -13.650  0.00  0.00    -0.000 A 
ENDBRANCH   8   9
ENDBRANCH   7   8
ENDBRANCH   4   7
BRANCH   1  19
ATOM     19  C   UNL d   1      10.305   7.729  -7.291  0.00  0.00    -0.023 A 
ATOM     20  C   UNL d   1      10.610   6.896  -6.203  0.00  0.00    -0.005 A 
ATOM     21  C   UNL d   1      11.312   7.369  -5.084  0.00  0.00    -0.005 A 
ATOM     22  C   UNL d   1      11.706   8.713  -5.038  0.00  0.00    -0.026 A 
ATOM     23  C   UNL d   1      12.483   9.194  -3.840  0.00  0.00     0.031 C 
ATOM     24  C   UNL d   1      11.406   9.567  -6.121  0.00  0.00    -0.026 A 
ATOM     25  C   UNL d   1      10.713   9.072  -7.243  0.00  0.00    -0.009 A 
ATOM     26  C   UNL d   1      11.848  11.001  -6.109  0.00  0.00     0.031 C 
ENDBRANCH   1  19
TORSDOF 4
