REMARK  6 active torsions:
REMARK  status: ('A' for Active; 'I' for Inactive)
REMARK    1  A    between atoms: C_5  and  C_6 
REMARK    2  A    between atoms: C_6  and  C_7 
REMARK    3  A    between atoms: C_7  and  C_8 
REMARK    4  A    between atoms: C_8  and  C_9 
REMARK    5  A    between atoms: C_9  and  N_10 
REMARK    6  A    between atoms: N_13  and  C_14 
ROOT
ATOM      1  N   UNL d   1       9.962   7.744  -9.719  0.00  0.00     0.141 N 
ATOM      2  C   UNL d   1       9.717   8.115 -11.106  0.00  0.00     0.275 C 
ATOM      3  C   UNL d   1       8.815   7.099 -11.820  0.00  0.00     0.155 C 
ATOM      4  N   UNL d   1       9.351   5.756 -11.721  0.00  0.00    -0.179 N 
ATOM      5  C   UNL d   1       9.648   5.349 -10.356  0.00  0.00     0.155 C 
ATOM      6  C   UNL d   1      10.569   6.397  -9.694  0.00  0.00     0.275 C 
ENDROOT
BRANCH   1   7
ATOM      7  C   UNL d   1      10.831   8.768  -9.136  0.00  0.00     0.250 C 
BRANCH   7   8
ATOM      8  C   UNL d   1      10.627   8.725  -7.626  0.00  0.00     0.036 C 
BRANCH   8   9
ATOM      9  C   UNL d   1      11.474   9.754  -6.849  0.00  0.00     0.007 C 
BRANCH   9  10
ATOM     10  C   UNL d   1      11.050  10.031  -5.393  0.00  0.00     0.026 C 
BRANCH  10  11
ATOM     11  C   UNL d   1      11.487   8.971  -4.399  0.00  0.00    -0.022 A 
ATOM     12  C   UNL d   1      11.419   7.596  -4.720  0.00  0.00    -0.002 A 
ATOM     13  C   UNL d   1      11.857   6.655  -3.807  0.00  0.00     0.029 A 
ATOM     14  C   UNL d   1      12.309   7.015  -2.531  0.00  0.00     0.140 A 
ATOM     15  F   UNL d   1      12.701   6.050  -1.659  0.00  0.00    -0.204 F 
ATOM     16  C   UNL d   1      12.339   8.386  -2.172  0.00  0.00     0.029 A 
ATOM     17  C   UNL d   1      11.935   9.382  -3.105  0.00  0.00    -0.002 A 
ENDBRANCH  10  11
ENDBRANCH   9  10
ENDBRANCH   8   9
ENDBRANCH   7   8
ENDBRANCH   1   7
BRANCH   4  18
ATOM     18  C   UNL d   1       9.486   4.929 -12.815  0.00  0.00     0.727 A 
ATOM     19  N   UNL d   1       8.557   3.989 -13.008  0.00  0.00    -0.060 NA
ATOM     20  C   UNL d   1       8.751   3.176 -14.055  0.00  0.00     0.120 A 
ATOM     21  C   UNL d   1       9.829   3.333 -14.954  0.00  0.00     0.043 A 
ATOM     22  C   UNL d   1      10.728   4.365 -14.660  0.00  0.00     0.120 A 
ATOM     23  N   UNL d   1      10.569   5.150 -13.569  0.00  0.00    -0.060 NA
ENDBRANCH   4  18
TORSDOF 6
