REMARK  8 active torsions:
REMARK  status: ('A' for Active; 'I' for Inactive)
REMARK    1  A    between atoms: O_2  and  C_3 
REMARK    2  A    between atoms: C_8  and  C_9 
REMARK       I    between atoms: C_9  and  N_11 
REMARK    3  A    between atoms: N_11  and  C_12 
REMARK    4  A    between atoms: C_12  and  C_13 
REMARK    5  A    between atoms: C_13  and  C_14 
REMARK    6  A    between atoms: C_14  and  C_15 
REMARK    7  A    between atoms: C_15  and  N_16 
REMARK    8  A    between atoms: N_19  and  C_20 
ROOT
ATOM      1  C   UNL d   1       7.613   5.854 -11.697  0.00  0.00     0.037 C 
ENDROOT
BRANCH   1   2
ATOM      2  C   UNL d   1       7.814   7.208 -12.413  0.00  0.00     0.029 C 
BRANCH   2   3
ATOM      3  C   UNL d   1       9.233   7.760 -12.231  0.00  0.00     0.129 C 
BRANCH   3   4
ATOM      4  N   UNL d   1       9.610   7.998 -10.842  0.00  0.00    -0.233 NA
ATOM      5  C   UNL d   1       9.972   7.057  -9.957  0.00  0.00     0.293 C 
ATOM      6  O   UNL d   1      10.015   5.866 -10.231  0.00  0.00    -0.264 OA
BRANCH   5   7
ATOM      7  C   UNL d   1      10.289   7.535  -8.600  0.00  0.00     0.139 A 
ATOM      8  N   UNL d   1      10.668   6.604  -7.662  0.00  0.00    -0.241 NA
ATOM      9  C   UNL d   1      10.992   7.206  -6.478  0.00  0.00     0.082 A 
ATOM     10  C   UNL d   1      11.473   6.683  -5.270  0.00  0.00     0.021 A 
ATOM     11  C   UNL d   1      10.759   8.601  -6.668  0.00  0.00     0.021 A 
ATOM     12  C   UNL d   1      11.721   7.548  -4.205  0.00  0.00     0.026 A 
ATOM     13  C   UNL d   1      11.495   8.943  -4.339  0.00  0.00     0.094 A 
ATOM     14  C   UNL d   1      11.022   9.452  -5.572  0.00  0.00     0.026 A 
ATOM     15  C   UNL d   1      10.286   8.774  -8.018  0.00  0.00     0.026 A 
BRANCH  13  16
ATOM     16  O   UNL d   1      11.700   9.805  -3.297  0.00  0.00    -0.328 OA
ATOM     17  C   UNL d   1      12.172   9.251  -2.084  0.00  0.00     0.181 C 
ENDBRANCH  13  16
ENDBRANCH   5   7
ENDBRANCH   3   4
ENDBRANCH   2   3
ENDBRANCH   1   2
BRANCH   1  18
ATOM     18  C   UNL d   1       6.431   5.066 -12.260  0.00  0.00     0.251 C 
BRANCH  18  19
ATOM     19  N   UNL d   1       6.881   3.806 -12.863  0.00  0.00     0.141 N 
ATOM     20  C   UNL d   1       8.036   3.967 -13.764  0.00  0.00     0.274 C 
ATOM     21  C   UNL d   1       8.429   2.600 -14.375  0.00  0.00     0.137 C 
ATOM     22  N   UNL d   1       7.289   1.985 -15.026  0.00  0.00    -0.344 N 
ATOM     23  C   UNL d   1       6.097   1.889 -14.200  0.00  0.00     0.137 C 
ATOM     24  C   UNL d   1       5.743   3.257 -13.597  0.00  0.00     0.274 C 
BRANCH  22  25
ATOM     25  C   UNL d   1       7.374   1.515 -16.352  0.00  0.00     0.056 A 
ATOM     26  C   UNL d   1       6.734   0.322 -16.781  0.00  0.00     0.015 A 
ATOM     27  C   UNL d   1       6.860  -0.095 -18.139  0.00  0.00     0.001 A 
ATOM     28  C   UNL d   1       5.972  -0.501 -15.896  0.00  0.00     0.001 A 
ATOM     29  C   UNL d   1       7.623   0.670 -19.048  0.00  0.00     0.000 A 
ATOM     30  C   UNL d   1       6.241  -1.286 -18.594  0.00  0.00     0.000 A 
ATOM     31  C   UNL d   1       8.255   1.850 -18.622  0.00  0.00     0.002 A 
ATOM     32  C   UNL d   1       8.130   2.262 -17.281  0.00  0.00     0.017 A 
ATOM     33  C   UNL d   1       5.469  -2.066 -17.712  0.00  0.00     0.000 A 
ATOM     34  C   UNL d   1       5.333  -1.666 -16.371  0.00  0.00     0.000 A 
ENDBRANCH  22  25
ENDBRANCH  18  19
ENDBRANCH   1  18
TORSDOF 8
