REMARK  0 active torsions:
REMARK  status: ('A' for Active; 'I' for Inactive)
ROOT
ATOM      1  C   UNL d   1      11.831   1.777 -16.939  0.00  0.00     0.286 C 
ATOM      2  N   UNL d   1      10.659   0.945 -16.701  0.00  0.00     0.143 N 
ATOM      3  C   UNL d   1      10.075   0.552 -17.981  0.00  0.00     0.274 C 
ATOM      4  C   UNL d   1       8.862  -0.356 -17.729  0.00  0.00     0.139 C 
ATOM      5  N   UNL d   1       7.849   0.332 -16.922  0.00  0.00    -0.328 N 
ATOM      6  C   UNL d   1       6.538  -0.188 -17.070  0.00  0.00     0.137 A 
ATOM      7  N   UNL d   1       6.087  -0.199 -18.348  0.00  0.00    -0.228 NA
ATOM      8  C   UNL d   1       4.864  -0.696 -18.618  0.00  0.00     0.101 A 
ATOM      9  C   UNL d   1       4.013  -1.216 -17.632  0.00  0.00     0.021 A 
ATOM     10  C   UNL d   1       4.458  -1.206 -16.302  0.00  0.00     0.001 A 
ATOM     11  C   UNL d   1       5.731  -0.676 -16.003  0.00  0.00     0.016 A 
ATOM     12  C   UNL d   1       6.171  -0.635 -14.555  0.00  0.00     0.055 C 
ATOM     13  C   UNL d   1       6.363   0.805 -14.142  0.00  0.00    -0.020 A 
ATOM     14  C   UNL d   1       5.464   1.408 -13.238  0.00  0.00    -0.004 A 
ATOM     15  C   UNL d   1       5.588   2.770 -12.911  0.00  0.00    -0.000 A 
ATOM     16  C   UNL d   1       6.613   3.533 -13.496  0.00  0.00    -0.000 A 
ATOM     17  C   UNL d   1       7.520   2.929 -14.391  0.00  0.00    -0.003 A 
ATOM     18  C   UNL d   1       7.405   1.557 -14.725  0.00  0.00    -0.004 A 
ATOM     19  C   UNL d   1       8.400   0.853 -15.658  0.00  0.00     0.138 C 
ATOM     20  C   UNL d   1       9.658   1.715 -15.959  0.00  0.00     0.277 C 
ENDROOT
TORSDOF 0
