REMARK  6 active torsions:
REMARK  status: ('A' for Active; 'I' for Inactive)
REMARK    1  A    between atoms: O_2  and  C_3 
REMARK    2  A    between atoms: C_4  and  C_5 
REMARK       I    between atoms: C_5  and  N_7 
REMARK    3  A    between atoms: N_7  and  C_8 
REMARK    4  A    between atoms: C_8  and  C_9 
REMARK    5  A    between atoms: C_9  and  N_10 
REMARK    6  A    between atoms: N_13  and  C_14 
ROOT
ATOM      1  C   UNL d   1       9.077   5.092 -12.891  0.00  0.00     0.277 C 
ATOM      2  O   UNL d   1       9.850   5.970 -13.242  0.00  0.00    -0.266 OA
ATOM      3  N   UNL d   1       8.508   5.084 -11.675  0.00  0.00    -0.232 NA
ENDROOT
BRANCH   3   4
ATOM      4  C   UNL d   1       8.566   6.205 -10.752  0.00  0.00     0.164 C 
BRANCH   4   5
ATOM      5  C   UNL d   1       9.948   6.365 -10.092  0.00  0.00     0.277 C 
BRANCH   5   6
ATOM      6  N   UNL d   1      10.018   7.503  -9.169  0.00  0.00     0.143 N 
ATOM      7  C   UNL d   1      11.407   7.705  -8.763  0.00  0.00     0.274 C 
ATOM      8  C   UNL d   1      11.534   8.929  -7.828  0.00  0.00     0.137 C 
ATOM      9  N   UNL d   1      10.606   8.853  -6.704  0.00  0.00    -0.344 N 
ATOM     10  C   UNL d   1       9.243   8.460  -7.030  0.00  0.00     0.137 C 
ATOM     11  C   UNL d   1       9.224   7.241  -7.967  0.00  0.00     0.274 C 
BRANCH   9  12
ATOM     12  C   UNL d   1      11.056   8.864  -5.380  0.00  0.00     0.068 A 
ATOM     13  C   UNL d   1      11.573   7.730  -4.733  0.00  0.00     0.084 A 
ATOM     14  C   UNL d   1      12.016   7.753  -3.372  0.00  0.00     0.070 A 
ATOM     15 CL   UNL d   1      11.752   6.353  -5.686  0.00  0.00    -0.080 Cl
ATOM     16  C   UNL d   1      11.989   8.960  -2.690  0.00  0.00     0.012 A 
ATOM     17 CL   UNL d   1      12.639   6.386  -2.533  0.00  0.00    -0.081 Cl
ATOM     18  C   UNL d   1      11.494  10.081  -3.342  0.00  0.00     0.002 A 
ATOM     19  C   UNL d   1      11.017  10.060  -4.680  0.00  0.00     0.018 A 
ENDBRANCH   9  12
ENDBRANCH   5   6
ENDBRANCH   4   5
ENDBRANCH   3   4
BRANCH   1  20
ATOM     20  C   UNL d   1       8.765   3.927 -13.790  0.00  0.00     0.080 A 
ATOM     21  C   UNL d   1       9.656   3.526 -14.823  0.00  0.00     0.099 A 
ATOM     22  C   UNL d   1       9.332   2.403 -15.623  0.00  0.00     0.023 A 
ATOM     23  C   UNL d   1       8.144   1.665 -15.381  0.00  0.00     0.008 A 
ATOM     24  C   UNL d   1      10.205   2.000 -16.650  0.00  0.00     0.002 A 
ATOM     25  C   UNL d   1       7.264   2.075 -14.362  0.00  0.00     0.035 A 
ATOM     26  C   UNL d   1       7.856   0.522 -16.152  0.00  0.00     0.001 A 
ATOM     27  C   UNL d   1       7.548   3.233 -13.630  0.00  0.00     0.013 A 
ATOM     28 BR   UNL d   1       5.773   1.015 -13.815  0.00  0.00    -0.049 Br
ATOM     29  C   UNL d   1       8.731   0.128 -17.177  0.00  0.00     0.000 A 
ATOM     30  C   UNL d   1       9.899   0.869 -17.429  0.00  0.00     0.000 A 
BRANCH  21  31
ATOM     31  O   UNL d   1      10.807   4.231 -15.087  0.00  0.00    -0.328 OA
ATOM     32  C   UNL d   1      11.924   3.854 -14.301  0.00  0.00     0.181 C 
ENDBRANCH  21  31
ENDBRANCH   1  20
TORSDOF 6
