REMARK  9 active torsions:
REMARK  status: ('A' for Active; 'I' for Inactive)
REMARK    1  A    between atoms: C_3  and  S_4 
REMARK    2  A    between atoms: S_4  and  C_5 
REMARK    3  A    between atoms: C_5  and  C_6 
REMARK    4  A    between atoms: C_6  and  C_7 
REMARK    5  A    between atoms: C_7  and  N_8 
REMARK    6  A    between atoms: C_12  and  C_13 
REMARK    7  A    between atoms: C_16  and  C_17 
REMARK    8  A    between atoms: C_26  and  C_27 
REMARK    9  A    between atoms: C_30  and  C_31 
ROOT
ATOM      1  C   UNL d   1       7.411   4.672 -13.325  0.00  0.00     0.067 C 
ENDROOT
BRANCH   1   2
ATOM      2  S   UNL d   1       8.193   6.252 -12.849  0.00  0.00    -0.075 SA
BRANCH   2   3
ATOM      3  C   UNL d   1       8.704   5.955 -11.191  0.00  0.00     0.193 A 
ATOM      4  N   UNL d   1       9.292   6.925 -10.454  0.00  0.00    -0.289 N 
ATOM      5  C   UNL d   1       9.538   8.304 -10.850  0.00  0.00     0.134 C 
ATOM      6  C   UNL d   1       9.432   6.295  -9.265  0.00  0.00     0.167 A 
ATOM      7  N   UNL d   1       9.078   5.012  -9.307  0.00  0.00    -0.128 NA
ATOM      8  N   UNL d   1       8.569   4.788 -10.562  0.00  0.00    -0.122 NA
BRANCH   6   9
ATOM      9  C   UNL d   1       9.941   6.881  -8.043  0.00  0.00     0.036 A 
ATOM     10  C   UNL d   1       9.437   8.094  -7.537  0.00  0.00     0.003 A 
ATOM     11  C   UNL d   1      10.031   8.634  -6.383  0.00  0.00     0.004 A 
ATOM     12  C   UNL d   1      11.013   7.926  -5.681  0.00  0.00     0.041 A 
ATOM     13  C   UNL d   1      11.465   6.683  -6.144  0.00  0.00     0.004 A 
ATOM     14  C   UNL d   1      10.934   6.168  -7.333  0.00  0.00     0.003 A 
BRANCH  12  15
ATOM     15  C   UNL d   1      11.558   8.440  -4.442  0.00  0.00     0.182 A 
ATOM     16  O   UNL d   1      11.218   9.700  -4.080  0.00  0.00    -0.286 OA
ATOM     17  C   UNL d   1      11.864   9.889  -2.892  0.00  0.00     0.145 A 
ATOM     18  C   UNL d   1      12.556   8.761  -2.558  0.00  0.00     0.128 A 
ATOM     19  N   UNL d   1      12.345   7.833  -3.552  0.00  0.00    -0.218 NA
ENDBRANCH  12  15
ENDBRANCH   6   9
ENDBRANCH   2   3
ENDBRANCH   1   2
BRANCH   1  20
ATOM     20  C   UNL d   1       8.395   3.538 -13.525  0.00  0.00     0.047 C 
BRANCH  20  21
ATOM     21  C   UNL d   1       7.757   2.429 -14.388  0.00  0.00     0.251 C 
BRANCH  21  22
ATOM     22  N   UNL d   1       8.708   1.781 -15.281  0.00  0.00     0.143 N 
ATOM     23  C   UNL d   1       8.026   1.133 -16.386  0.00  0.00     0.284 C 
ATOM     24  C   UNL d   1       9.012   0.425 -17.337  0.00  0.00     0.171 C 
ATOM     25  O   UNL d   1       9.803  -0.507 -16.602  0.00  0.00    -0.348 OA
ATOM     26  C   UNL d   1      10.504   0.109 -15.520  0.00  0.00     0.178 C 
ATOM     27  C   UNL d   1       9.522   0.809 -14.579  0.00  0.00     0.282 C 
BRANCH  24  28
ATOM     28  C   UNL d   1       8.270  -0.278 -18.479  0.00  0.00     0.007 A 
ATOM     29  C   UNL d   1       7.230  -1.179 -18.186  0.00  0.00    -0.002 A 
ATOM     30  C   UNL d   1       6.519  -1.818 -19.215  0.00  0.00     0.004 A 
ATOM     31  C   UNL d   1       6.847  -1.560 -20.560  0.00  0.00     0.071 A 
ATOM     32  C   UNL d   1       7.908  -0.676 -20.863  0.00  0.00     0.004 A 
ATOM     33  C   UNL d   1       8.615  -0.032 -19.826  0.00  0.00    -0.002 A 
BRANCH  31  34
ATOM     34  C   UNL d   1       6.084  -2.259 -21.668  0.00  0.00     0.419 C 
ATOM     35  F   UNL d   1       6.712  -3.398 -21.973  0.00  0.00    -0.166 F 
ATOM     36  F   UNL d   1       4.832  -2.550 -21.295  0.00  0.00    -0.166 F 
ATOM     37  F   UNL d   1       6.031  -1.490 -22.759  0.00  0.00    -0.166 F 
ENDBRANCH  31  34
ENDBRANCH  24  28
ENDBRANCH  21  22
ENDBRANCH  20  21
ENDBRANCH   1  20
TORSDOF 9
