REMARK  1 active torsions:
REMARK  status: ('A' for Active; 'I' for Inactive)
REMARK    1  A    between atoms: C_5  and  C_6 
ROOT
ATOM      1  N   UNL d   1      12.244  10.266  -6.033  0.00  0.00     0.064 N 
ATOM      2  C   UNL d   1      11.539   9.355  -6.753  0.00  0.00     0.787 A 
ATOM      3  N   UNL d   1      12.236   8.792  -7.734  0.00  0.00     0.048 NA
ATOM      4  N   UNL d   1      11.604   7.907  -8.505  0.00  0.00    -0.130 NA
ATOM      5  C   UNL d   1      10.316   7.610  -8.235  0.00  0.00     0.136 A 
ATOM      6  C   UNL d   1       9.648   8.219  -7.167  0.00  0.00     0.189 A 
ATOM      7  N   UNL d   1       8.319   7.893  -6.837  0.00  0.00    -0.077 NA
ATOM      8  N   UNL d   1      10.271   9.133  -6.401  0.00  0.00    -0.041 NA
ENDROOT
BRANCH   5   9
ATOM      9  C   UNL d   1       9.697   6.615  -9.089  0.00  0.00     0.033 A 
ATOM     10  C   UNL d   1       9.466   6.855 -10.461  0.00  0.00     0.070 A 
ATOM     11  C   UNL d   1       8.775   5.893 -11.218  0.00  0.00     0.068 A 
ATOM     12 CL   UNL d   1       9.853   8.385 -11.167  0.00  0.00    -0.081 Cl
ATOM     13  C   UNL d   1       8.319   4.729 -10.600  0.00  0.00     0.012 A 
ATOM     14 CL   UNL d   1       8.391   6.090 -12.873  0.00  0.00    -0.082 Cl
ATOM     15  C   UNL d   1       8.569   4.479  -9.235  0.00  0.00     0.001 A 
ATOM     16  C   UNL d   1       9.257   5.430  -8.484  0.00  0.00     0.003 A 
ENDBRANCH   5   9
TORSDOF 1
