REMARK  4 active torsions:
REMARK  status: ('A' for Active; 'I' for Inactive)
REMARK    1  A    between atoms: C_2  and  C_3 
REMARK    2  A    between atoms: C_3  and  N_4 
REMARK    3  A    between atoms: C_7  and  C_8 
REMARK    4  A    between atoms: C_12  and  C_13 
ROOT
ATOM      1  C   UNL d   1      11.060   8.131  -6.475  0.00  0.00    -0.022 A 
ATOM      2  C   UNL d   1      10.905   9.528  -6.462  0.00  0.00    -0.004 A 
ATOM      3  C   UNL d   1      11.086  10.268  -5.279  0.00  0.00    -0.000 A 
ATOM      4  C   UNL d   1      11.454   9.635  -4.098  0.00  0.00     0.004 A 
ATOM      5  C   UNL d   1      11.646   8.244  -4.084  0.00  0.00     0.071 A 
ATOM      6  C   UNL d   1      11.452   7.487  -5.267  0.00  0.00    -0.000 A 
ENDROOT
BRANCH   1   7
ATOM      7  C   UNL d   1      10.809   7.358  -7.791  0.00  0.00     0.026 C 
ATOM      8  C   UNL d   1      10.006   8.111  -8.877  0.00  0.00     0.040 C 
ATOM      9  C   UNL d   1       9.678   7.241 -10.087  0.00  0.00     0.251 C 
ATOM     10  N   UNL d   1       8.938   6.040  -9.698  0.00  0.00     0.137 N 
ATOM     11  C   UNL d   1       9.742   5.239  -8.798  0.00  0.00     0.251 C 
ATOM     12  C   UNL d   1      10.096   6.035  -7.543  0.00  0.00     0.040 C 
BRANCH  10  13
ATOM     13  C   UNL d   1       8.546   5.277 -10.866  0.00  0.00     0.250 C 
BRANCH  13  14
ATOM     14  C   UNL d   1       7.353   5.921 -11.587  0.00  0.00     0.035 C 
ATOM     15  C   UNL d   1       6.860   5.059 -12.746  0.00  0.00     0.002 C 
ENDBRANCH  13  14
ENDBRANCH  10  13
ENDBRANCH   1   7
BRANCH   5  16
ATOM     16  C   UNL d   1      12.023   7.573  -2.783  0.00  0.00     0.419 C 
ATOM     17  F   UNL d   1      11.059   6.793  -2.329  0.00  0.00    -0.166 F 
ATOM     18  F   UNL d   1      13.056   6.774  -2.989  0.00  0.00    -0.166 F 
ATOM     19  F   UNL d   1      12.353   8.444  -1.822  0.00  0.00    -0.166 F 
ENDBRANCH   5  16
TORSDOF 4
