REMARK  7 active torsions:
REMARK  status: ('A' for Active; 'I' for Inactive)
REMARK    1  A    between atoms: C_6  and  N_7 
REMARK    2  A    between atoms: N_10  and  C_11 
REMARK    3  A    between atoms: C_11  and  C_12 
REMARK    4  A    between atoms: C_12  and  C_13 
REMARK    5  A    between atoms: C_13  and  C_14 
REMARK    6  A    between atoms: C_14  and  O_15 
REMARK    7  A    between atoms: O_15  and  C_16 
ROOT
ATOM      1  N   UNL d   1       7.415   3.111 -13.980  0.00  0.00    -0.344 N 
ATOM      2  C   UNL d   1       8.845   3.367 -14.076  0.00  0.00     0.137 C 
ATOM      3  C   UNL d   1       9.446   3.763 -12.718  0.00  0.00     0.274 C 
ATOM      4  N   UNL d   1       8.709   4.906 -12.178  0.00  0.00     0.141 N 
ATOM      5  C   UNL d   1       7.294   4.551 -11.982  0.00  0.00     0.274 C 
ATOM      6  C   UNL d   1       6.638   4.147 -13.317  0.00  0.00     0.137 C 
ENDROOT
BRANCH   4   7
ATOM      7  C   UNL d   1       9.298   5.303 -10.914  0.00  0.00     0.251 C 
BRANCH   7   8
ATOM      8  C   UNL d   1       9.535   6.816 -10.892  0.00  0.00     0.038 C 
BRANCH   8   9
ATOM      9  C   UNL d   1      10.184   7.216  -9.565  0.00  0.00     0.035 C 
BRANCH   9  10
ATOM     10  C   UNL d   1       9.957   8.665  -9.078  0.00  0.00     0.149 C 
BRANCH  10  11
ATOM     11  O   UNL d   1      10.988   9.195  -8.253  0.00  0.00    -0.331 OA
BRANCH  11  12
ATOM     12  C   UNL d   1      11.220   8.630  -7.003  0.00  0.00     0.097 A 
ATOM     13  C   UNL d   1      11.451   9.487  -5.941  0.00  0.00     0.043 A 
ATOM     14  C   UNL d   1      11.667   8.947  -4.644  0.00  0.00     0.086 A 
ATOM     15  N   UNL d   1      11.628   7.540  -4.528  0.00  0.00    -0.228 N 
ATOM     16  C   UNL d   1      11.933   9.402  -3.376  0.00  0.00     0.042 A 
ATOM     17  C   UNL d   1      11.424   6.713  -5.572  0.00  0.00     0.102 A 
ATOM     18  N   UNL d   1      11.866   7.127  -3.239  0.00  0.00    -0.164 NA
ATOM     19  C   UNL d   1      11.265   7.227  -6.825  0.00  0.00     0.045 A 
ATOM     20  C   UNL d   1      12.049   8.246  -2.574  0.00  0.00     0.122 A 
ENDBRANCH  11  12
ENDBRANCH  10  11
ENDBRANCH   9  10
ENDBRANCH   8   9
ENDBRANCH   7   8
ENDBRANCH   4   7
BRANCH   1  21
ATOM     21  C   UNL d   1       6.811   1.926 -14.444  0.00  0.00     0.058 A 
ATOM     22  C   UNL d   1       7.114   1.381 -15.731  0.00  0.00     0.041 A 
ATOM     23  C   UNL d   1       8.045   1.984 -16.693  0.00  0.00     0.009 A 
ATOM     24  C   UNL d   1       6.480   0.185 -16.158  0.00  0.00     0.130 A 
ATOM     25  C   UNL d   1       8.307   1.421 -17.876  0.00  0.00     0.069 A 
ATOM     26  C   UNL d   1       7.636   0.177 -18.305  0.00  0.00     0.300 A 
ATOM     27  O   UNL d   1       7.855  -0.326 -19.404  0.00  0.00    -0.259 OA
ATOM     28  O   UNL d   1       6.742  -0.362 -17.407  0.00  0.00    -0.271 OA
ATOM     29  C   UNL d   1       5.546  -0.455 -15.319  0.00  0.00     0.154 A 
ATOM     30  C   UNL d   1       5.238   0.087 -14.067  0.00  0.00     0.031 A 
ATOM     31  O   UNL d   1       4.923  -1.600 -15.721  0.00  0.00    -0.188 OA
ATOM     32  C   UNL d   1       5.868   1.272 -13.636  0.00  0.00     0.019 A 
ENDBRANCH   1  21
TORSDOF 7
