REMARK  7 active torsions:
REMARK  status: ('A' for Active; 'I' for Inactive)
REMARK    1  A    between atoms: C_8  and  O_9 
REMARK    2  A    between atoms: O_9  and  C_10 
REMARK    3  A    between atoms: C_10  and  C_11 
REMARK    4  A    between atoms: C_11  and  C_12 
REMARK    5  A    between atoms: C_12  and  C_13 
REMARK    6  A    between atoms: C_13  and  N_14 
REMARK    7  A    between atoms: C_17  and  C_19 
ROOT
ATOM      1  C   UNL d   1       9.096   4.442 -11.577  0.00  0.00     0.038 C 
ENDROOT
BRANCH   1   2
ATOM      2  C   UNL d   1       9.187   4.051 -13.051  0.00  0.00     0.035 C 
BRANCH   2   3
ATOM      3  C   UNL d   1      10.578   4.374 -13.656  0.00  0.00     0.149 C 
BRANCH   3   4
ATOM      4  O   UNL d   1      10.424   4.933 -14.959  0.00  0.00    -0.331 OA
BRANCH   4   5
ATOM      5  C   UNL d   1      10.205   4.078 -16.018  0.00  0.00     0.096 A 
ATOM      6  C   UNL d   1       9.884   4.658 -17.275  0.00  0.00     0.024 A 
ATOM      7  C   UNL d   1       9.718   3.840 -18.413  0.00  0.00    -0.001 A 
ATOM      8  C   UNL d   1       9.871   2.444 -18.298  0.00  0.00    -0.004 A 
ATOM      9  C   UNL d   1       9.756   1.514 -19.485  0.00  0.00     0.038 C 
ATOM     10  C   UNL d   1      10.167   1.879 -17.043  0.00  0.00     0.082 A 
ATOM     11  C   UNL d   1       9.260   0.113 -19.056  0.00  0.00     0.095 C 
ATOM     12  C   UNL d   1       9.981  -0.404 -17.803  0.00  0.00     0.256 C 
ATOM     13  O   UNL d   1      10.187  -1.609 -17.651  0.00  0.00    -0.270 OA
ATOM     14  N   UNL d   1      10.339   0.484 -16.887  0.00  0.00    -0.212 NA
ATOM     15  C   UNL d   1      10.319   2.675 -15.916  0.00  0.00     0.043 A 
ENDBRANCH   4   5
ENDBRANCH   3   4
ENDBRANCH   2   3
ENDBRANCH   1   2
BRANCH   1  16
ATOM     16  C   UNL d   1       9.228   5.967 -11.355  0.00  0.00     0.250 C 
BRANCH  16  17
ATOM     17  N   UNL d   1       9.783   6.272 -10.047  0.00  0.00     0.137 N 
ATOM     18  C   UNL d   1      10.090   7.705 -10.009  0.00  0.00     0.253 C 
ATOM     19  C   UNL d   1      10.740   8.086  -8.667  0.00  0.00     0.070 C 
ATOM     20  C   UNL d   1       9.850   7.711  -7.468  0.00  0.00     0.149 C 
ATOM     21  C   UNL d   1       9.398   6.243  -7.641  0.00  0.00     0.070 C 
ATOM     22  O   UNL d   1       8.683   8.513  -7.542  0.00  0.00    -0.221 OA
ATOM     23  C   UNL d   1       8.809   5.919  -9.012  0.00  0.00     0.253 C 
BRANCH  20  24
ATOM     24  C   UNL d   1      10.596   7.964  -6.146  0.00  0.00     0.005 A 
ATOM     25  C   UNL d   1      10.745   9.291  -5.677  0.00  0.00    -0.001 A 
ATOM     26  C   UNL d   1      11.386   9.555  -4.452  0.00  0.00     0.011 A 
ATOM     27  C   UNL d   1      11.897   8.492  -3.677  0.00  0.00     0.058 A 
ATOM     28  C   UNL d   1      11.773   7.170  -4.138  0.00  0.00     0.011 A 
ATOM     29 CL   UNL d   1      12.651   8.788  -2.152  0.00  0.00    -0.082 Cl
ATOM     30  C   UNL d   1      11.129   6.916  -5.357  0.00  0.00    -0.001 A 
ENDBRANCH  20  24
ENDBRANCH  16  17
ENDBRANCH   1  16
TORSDOF 7
