REMARK  5 active torsions:
REMARK  status: ('A' for Active; 'I' for Inactive)
REMARK    1  A    between atoms: C_2  and  C_3 
REMARK    2  A    between atoms: C_6  and  C_7 
REMARK    3  A    between atoms: C_7  and  C_9 
REMARK    4  A    between atoms: C_9  and  C_11 
REMARK    5  A    between atoms: C_11  and  N_12 
ROOT
ATOM      1  C   UNL d   1       5.896   0.827 -14.056  0.00  0.00     0.174 C 
ATOM      2  O   UNL d   1       5.273   0.071 -13.301  0.00  0.00    -0.291 OA
ENDROOT
BRANCH   1   3
ATOM      3  C   UNL d   1       6.230   2.243 -13.662  0.00  0.00     0.035 A 
ATOM      4  C   UNL d   1       7.313   2.975 -14.200  0.00  0.00     0.003 A 
ATOM      5  C   UNL d   1       7.655   4.248 -13.725  0.00  0.00    -0.004 A 
ATOM      6  C   UNL d   1       6.857   4.872 -12.761  0.00  0.00    -0.022 A 
ATOM      7  C   UNL d   1       5.762   4.181 -12.216  0.00  0.00    -0.004 A 
ATOM      8  C   UNL d   1       5.454   2.867 -12.645  0.00  0.00     0.003 A 
BRANCH   6   9
ATOM      9  C   UNL d   1       7.208   6.302 -12.382  0.00  0.00     0.026 C 
ATOM     10  C   UNL d   1       5.976   7.220 -12.359  0.00  0.00     0.005 C 
ENDBRANCH   6   9
ENDBRANCH   1   3
BRANCH   1  11
ATOM     11  C   UNL d   1       6.268   0.331 -15.477  0.00  0.00     0.095 C 
ATOM     12  C   UNL d   1       7.788  -0.015 -15.682  0.00  0.00     0.010 C 
BRANCH  11  13
ATOM     13  C   UNL d   1       5.438  -0.948 -15.837  0.00  0.00     0.258 C 
BRANCH  13  14
ATOM     14  N   UNL d   1       5.492  -1.224 -17.278  0.00  0.00     0.137 N 
ATOM     15  C   UNL d   1       4.499  -0.421 -17.998  0.00  0.00     0.250 C 
ATOM     16  C   UNL d   1       4.593  -0.653 -19.515  0.00  0.00     0.035 C 
ATOM     17  C   UNL d   1       4.403  -2.135 -19.854  0.00  0.00     0.004 C 
ATOM     18  C   UNL d   1       5.379  -2.974 -19.024  0.00  0.00     0.035 C 
ATOM     19  C   UNL d   1       5.243  -2.648 -17.526  0.00  0.00     0.250 C 
ENDBRANCH  13  14
ENDBRANCH  11  13
ENDBRANCH   1  11
TORSDOF 5
