REMARK  5 active torsions:
REMARK  status: ('A' for Active; 'I' for Inactive)
REMARK    1  A    between atoms: CA_2  and  C_3 
REMARK    2  A    between atoms: CA_2  and  C_21 
REMARK    3  A    between atoms: C_3  and  C_4 
REMARK    4  A    between atoms: C_8  and  O_9 
REMARK    5  A    between atoms: O_9  and  C_10 
ROOT
ATOM      1  C   UNL d   1       7.370   0.972 -15.745  0.00  0.00    -0.018 A 
ATOM      2  C   UNL d   1       7.297   2.030 -14.816  0.00  0.00     0.004 A 
ATOM      3  C   UNL d   1       8.454   2.746 -14.448  0.00  0.00     0.053 A 
ATOM      4  I   UNL d   1       8.269   4.346 -13.109  0.00  0.00    -0.041 I 
ATOM      5  C   UNL d   1       9.703   2.420 -15.025  0.00  0.00     0.111 A 
ATOM      6  C   UNL d   1       9.776   1.364 -15.959  0.00  0.00     0.053 A 
ATOM      7  I   UNL d   1      11.566   0.867 -16.914  0.00  0.00    -0.041 I 
ATOM      8  C   UNL d   1       8.617   0.647 -16.313  0.00  0.00     0.004 A 
ENDROOT
BRANCH   5   9
ATOM      9  O   UNL d   1      10.820   3.160 -14.714  0.00  0.00    -0.306 OA
BRANCH   9  10
ATOM     10  C   UNL d   1      11.194   4.154 -15.595  0.00  0.00     0.101 A 
ATOM     11  C   UNL d   1      12.561   4.493 -15.700  0.00  0.00     0.033 A 
ATOM     12  C   UNL d   1      12.984   5.501 -16.599  0.00  0.00     0.058 A 
ATOM     13  C   UNL d   1      12.034   6.182 -17.391  0.00  0.00     0.136 A 
ATOM     14  I   UNL d   1      15.024   5.976 -16.743  0.00  0.00    -0.041 I 
ATOM     15  C   UNL d   1      10.674   5.850 -17.284  0.00  0.00     0.030 A 
ATOM     16  O   UNL d   1      12.419   7.158 -18.261  0.00  0.00    -0.190 OA
ATOM     17  C   UNL d   1      10.256   4.855 -16.390  0.00  0.00     0.027 A 
ENDBRANCH   9  10
ENDBRANCH   5   9
BRANCH   1  18
ATOM     18  C   UNL d   1       6.129   0.160 -16.102  0.00  0.00     0.077 C 
BRANCH  18  19
ATOM     19  CA  UNL d   1       5.370  -0.409 -14.884  0.00  0.00     0.391 C 
ATOM     20  N   UNL d   1       6.266  -1.205 -14.045  0.00  0.00     0.628 N 
BRANCH  19  21
ATOM     21  C   UNL d   1       4.157  -1.226 -15.296  0.00  0.00     0.224 C 
ATOM     22  O   UNL d   1       3.045  -0.824 -14.983  0.00  0.00    -0.646 OA
ATOM     23  OXT UNL d   1       4.382  -2.407 -15.956  0.00  0.00    -0.646 OA
ENDBRANCH  19  21
ENDBRANCH  18  19
ENDBRANCH   1  18
TORSDOF 5
