REMARK  2 active torsions:
REMARK  status: ('A' for Active; 'I' for Inactive)
REMARK    1  A    between atoms: C_2  and  C_3 
REMARK    2  A    between atoms: C_3  and  N_4 
ROOT
ATOM      1  N   UNL d   1      10.027   7.695  -9.794  0.00  0.00     0.168 N 
ATOM      2  C   UNL d   1      10.922   8.659 -10.368  0.00  0.00     0.397 C 
ATOM      3  O   UNL d   1      11.017   9.807  -9.592  0.00  0.00    -0.325 OA
ATOM      4  C   UNL d   1      11.457   9.548  -8.287  0.00  0.00     0.151 C 
ATOM      5  C   UNL d   1      10.503   8.627  -7.618  0.00  0.00     0.088 C 
ATOM      6  C   UNL d   1      10.912   8.355  -6.183  0.00  0.00     0.006 A 
ATOM      7  C   UNL d   1      11.424   9.354  -5.315  0.00  0.00     0.025 A 
ATOM      8  C   UNL d   1      11.802   9.018  -4.002  0.00  0.00     0.131 A 
ATOM      9  O   UNL d   1      12.195   9.995  -3.159  0.00  0.00    -0.190 OA
ATOM     10  C   UNL d   1      11.696   7.709  -3.537  0.00  0.00     0.029 A 
ATOM     11  C   UNL d   1      11.196   6.730  -4.411  0.00  0.00     0.026 A 
ATOM     12  C   UNL d   1      10.780   7.042  -5.713  0.00  0.00     0.090 A 
ATOM     13  O   UNL d   1      10.300   6.045  -6.510  0.00  0.00    -0.329 OA
ATOM     14  C   UNL d   1       9.600   6.358  -7.684  0.00  0.00     0.182 C 
ATOM     15  C   UNL d   1      10.471   7.337  -8.449  0.00  0.00     0.259 C 
ENDROOT
BRANCH   1  16
ATOM     16  C   UNL d   1       9.859   6.536 -10.674  0.00  0.00     0.254 C 
BRANCH  16  17
ATOM     17  C   UNL d   1       8.450   5.928 -10.582  0.00  0.00     0.035 C 
ATOM     18  C   UNL d   1       7.608   6.180 -11.829  0.00  0.00     0.002 C 
ENDBRANCH  16  17
ENDBRANCH   1  16
TORSDOF 2
