REMARK  8 active torsions:
REMARK  status: ('A' for Active; 'I' for Inactive)
REMARK    1  A    between atoms: C_3  and  S_4 
REMARK    2  A    between atoms: S_4  and  C_5 
REMARK    3  A    between atoms: C_5  and  C_6 
REMARK    4  A    between atoms: C_6  and  C_7 
REMARK    5  A    between atoms: C_7  and  N_8 
REMARK    6  A    between atoms: C_13  and  C_14 
REMARK    7  A    between atoms: C_17  and  C_18 
REMARK    8  A    between atoms: C_27  and  C_28 
ROOT
ATOM      1  N   UNL d   1       8.828   3.768 -13.280  0.00  0.00     0.137 N 
ATOM      2  C   UNL d   1       7.796   3.015 -13.967  0.00  0.00     0.250 C 
ATOM      3  C   UNL d   1       8.630   2.037 -14.829  0.00  0.00     0.038 C 
ATOM      4  C   UNL d   1       9.943   2.727 -15.050  0.00  0.00     0.037 A 
ATOM      5  C   UNL d   1      11.244   1.956 -15.051  0.00  0.00     0.007 A 
ATOM      6  C   UNL d   1      10.766   2.614 -16.320  0.00  0.00     0.024 A 
ATOM      7  C   UNL d   1       9.809   4.041 -14.316  0.00  0.00     0.251 C 
ENDROOT
BRANCH   1   8
ATOM      8  C   UNL d   1       8.323   4.990 -12.685  0.00  0.00     0.251 C 
BRANCH   8   9
ATOM      9  C   UNL d   1       9.403   5.662 -11.813  0.00  0.00     0.047 C 
BRANCH   9  10
ATOM     10  C   UNL d   1       8.842   6.890 -11.108  0.00  0.00     0.067 C 
BRANCH  10  11
ATOM     11  S   UNL d   1      10.100   8.011 -10.438  0.00  0.00    -0.075 SA
BRANCH  11  12
ATOM     12  C   UNL d   1      10.198   7.494  -8.755  0.00  0.00     0.193 A 
ATOM     13  N   UNL d   1      10.891   8.208  -7.840  0.00  0.00    -0.289 N 
ATOM     14  C   UNL d   1      11.667   9.407  -8.077  0.00  0.00     0.134 C 
ATOM     15  C   UNL d   1      10.706   7.456  -6.721  0.00  0.00     0.168 A 
ATOM     16  N   UNL d   1       9.963   6.398  -6.933  0.00  0.00    -0.128 NA
ATOM     17  N   UNL d   1       9.652   6.377  -8.270  0.00  0.00    -0.122 NA
BRANCH  15  18
ATOM     18  C   UNL d   1      11.252   7.689  -5.373  0.00  0.00     0.055 A 
ATOM     19  C   UNL d   1      11.370   6.666  -4.497  0.00  0.00     0.105 A 
ATOM     20  N   UNL d   1      11.874   6.842  -3.193  0.00  0.00    -0.206 NA
ATOM     21  C   UNL d   1      12.267   8.040  -2.718  0.00  0.00     0.279 A 
ATOM     22  C   UNL d   1      12.138   9.160  -3.637  0.00  0.00     0.063 A 
ATOM     23  O   UNL d   1      12.692   8.166  -1.568  0.00  0.00    -0.265 OA
ATOM     24  C   UNL d   1      11.653   9.001  -4.896  0.00  0.00     0.010 A 
ENDBRANCH  15  18
ENDBRANCH  11  12
ENDBRANCH  10  11
ENDBRANCH   9  10
ENDBRANCH   8   9
ENDBRANCH   1   8
BRANCH   6  25
ATOM     25  C   UNL d   1      11.443   3.829 -16.873  0.00  0.00    -0.022 A 
ATOM     26  C   UNL d   1      10.685   4.870 -17.453  0.00  0.00    -0.004 A 
ATOM     27  C   UNL d   1      11.319   6.042 -17.903  0.00  0.00     0.004 A 
ATOM     28  C   UNL d   1      12.718   6.186 -17.791  0.00  0.00     0.071 A 
ATOM     29  C   UNL d   1      13.476   5.146 -17.212  0.00  0.00     0.004 A 
ATOM     30  C   UNL d   1      12.842   3.976 -16.767  0.00  0.00    -0.004 A 
BRANCH  28  31
ATOM     31  C   UNL d   1      13.404   7.450 -18.283  0.00  0.00     0.419 C 
ATOM     32  F   UNL d   1      12.723   7.988 -19.296  0.00  0.00    -0.166 F 
ATOM     33  F   UNL d   1      13.480   8.330 -17.286  0.00  0.00    -0.166 F 
ATOM     34  F   UNL d   1      14.637   7.177 -18.711  0.00  0.00    -0.166 F 
ENDBRANCH  28  31
ENDBRANCH   6  25
TORSDOF 8
