REMARK  3 active torsions:
REMARK  status: ('A' for Active; 'I' for Inactive)
REMARK    1  A    between atoms: C_2  and  C_3 
REMARK    2  A    between atoms: N_16  and  C_17 
REMARK    3  A    between atoms: C_17  and  C_18 
ROOT
ATOM      1  O   UNL d   1      10.850   9.960  -6.893  0.00  0.00    -0.221 OA
ATOM      2  C   UNL d   1      11.082   8.592  -6.652  0.00  0.00     0.148 C 
ATOM      3  C   UNL d   1      12.216   8.147  -7.620  0.00  0.00     0.051 C 
ATOM      4  C   UNL d   1      11.727   7.912  -9.066  0.00  0.00     0.065 C 
ATOM      5  C   UNL d   1      11.039   9.150  -9.637  0.00  0.00     0.018 C 
ATOM      6  C   UNL d   1       9.563   8.977  -9.187  0.00  0.00     0.018 C 
ATOM      7  C   UNL d   1       9.527   7.615  -8.471  0.00  0.00     0.065 C 
ATOM      8  C   UNL d   1       9.778   7.792  -6.959  0.00  0.00     0.051 C 
ATOM      9  N   UNL d   1      10.665   6.896  -9.021  0.00  0.00    -0.254 NA
ENDROOT
BRANCH   9  10
ATOM     10  C   UNL d   1      10.390   6.263 -10.316  0.00  0.00     0.048 C 
BRANCH  10  11
ATOM     11  C   UNL d   1       9.313   6.684 -11.283  0.00  0.00     0.032 C 
ATOM     12  C   UNL d   1       8.131   5.938 -11.619  0.00  0.00     0.020 A 
ATOM     13  C   UNL d   1       7.279   6.794 -12.362  0.00  0.00     0.082 A 
ATOM     14  C   UNL d   1       7.632   4.655 -11.312  0.00  0.00     0.002 A 
ATOM     15  N   UNL d   1       7.959   7.960 -12.442  0.00  0.00    -0.244 NA
ATOM     16  C   UNL d   1       6.018   6.409 -12.811  0.00  0.00     0.019 A 
ATOM     17  C   UNL d   1       9.205   7.852 -11.990  0.00  0.00     0.100 C 
ATOM     18  C   UNL d   1       5.606   5.086 -12.598  0.00  0.00     0.002 A 
ATOM     19  C   UNL d   1       6.400   4.217 -11.832  0.00  0.00     0.000 A 
ENDBRANCH  10  11
ENDBRANCH   9  10
BRANCH   2  20
ATOM     20  C   UNL d   1      11.481   8.446  -5.201  0.00  0.00     0.005 A 
ATOM     21  C   UNL d   1      11.588   9.595  -4.393  0.00  0.00     0.000 A 
ATOM     22  C   UNL d   1      11.972   9.494  -3.056  0.00  0.00     0.029 A 
ATOM     23  C   UNL d   1      12.266   8.229  -2.527  0.00  0.00     0.140 A 
ATOM     24  C   UNL d   1      12.158   7.068  -3.318  0.00  0.00     0.029 A 
ATOM     25  F   UNL d   1      12.677   8.135  -1.250  0.00  0.00    -0.204 F 
ATOM     26  C   UNL d   1      11.762   7.177  -4.665  0.00  0.00     0.000 A 
ENDBRANCH   2  20
TORSDOF 3
