REMARK  8 active torsions:
REMARK  status: ('A' for Active; 'I' for Inactive)
REMARK    1  A    between atoms: C_2  and  C_3 
REMARK    2  A    between atoms: C_8  and  N_9 
REMARK    3  A    between atoms: N_12  and  C_13 
REMARK    4  A    between atoms: C_13  and  C_14 
REMARK    5  A    between atoms: C_14  and  C_16 
REMARK    6  A    between atoms: C_16  and  C_17 
REMARK    7  A    between atoms: C_17  and  N_18 
REMARK       I    between atoms: N_18  and  C_19 
REMARK    8  A    between atoms: C_19  and  C_21 
ROOT
ATOM      1  N   UNL d   1      11.797   4.131 -16.281  0.00  0.00    -0.344 N 
ATOM      2  C   UNL d   1      10.576   4.838 -16.581  0.00  0.00     0.137 C 
ATOM      3  C   UNL d   1      10.005   5.326 -15.277  0.00  0.00     0.274 C 
ATOM      4  N   UNL d   1       9.819   4.403 -14.206  0.00  0.00     0.144 N 
ATOM      5  C   UNL d   1      11.097   3.769 -13.955  0.00  0.00     0.274 C 
ATOM      6  C   UNL d   1      11.708   3.153 -15.209  0.00  0.00     0.137 C 
ENDROOT
BRANCH   4   7
ATOM      7  C   UNL d   1       9.243   5.085 -13.035  0.00  0.00     0.283 C 
BRANCH   7   8
ATOM      8  C   UNL d   1       8.468   4.119 -12.153  0.00  0.00     0.188 C 
ATOM      9  O   UNL d   1       7.229   3.956 -12.816  0.00  0.00    -0.221 OA
BRANCH   8  10
ATOM     10  C   UNL d   1       8.098   4.731 -10.787  0.00  0.00     0.061 C 
BRANCH  10  11
ATOM     11  C   UNL d   1       9.181   4.537  -9.695  0.00  0.00     0.132 C 
BRANCH  11  12
ATOM     12  N   UNL d   1       9.237   5.635  -8.733  0.00  0.00    -0.233 NA
ATOM     13  C   UNL d   1      10.016   6.708  -8.900  0.00  0.00     0.298 C 
ATOM     14  O   UNL d   1      10.492   7.045  -9.988  0.00  0.00    -0.263 OA
BRANCH  13  15
ATOM     15  C   UNL d   1      10.356   7.420  -7.667  0.00  0.00     0.157 A 
ATOM     16  O   UNL d   1      10.886   6.675  -6.644  0.00  0.00    -0.302 OA
ATOM     17  C   UNL d   1      11.194   7.548  -5.624  0.00  0.00     0.100 A 
ATOM     18  C   UNL d   1      10.836   8.855  -6.011  0.00  0.00     0.025 A 
ATOM     19  C   UNL d   1      11.784   7.229  -4.390  0.00  0.00     0.025 A 
ATOM     20  C   UNL d   1      10.319   8.758  -7.345  0.00  0.00     0.032 A 
ATOM     21  C   UNL d   1      11.071   9.884  -5.058  0.00  0.00     0.002 A 
ATOM     22  C   UNL d   1      11.632   9.591  -3.800  0.00  0.00     0.000 A 
ATOM     23  C   UNL d   1      11.998   8.269  -3.462  0.00  0.00     0.002 A 
ENDBRANCH  13  15
ENDBRANCH  11  12
ENDBRANCH  10  11
ENDBRANCH   8  10
ENDBRANCH   7   8
ENDBRANCH   4   7
BRANCH   1  24
ATOM     24  C   UNL d   1      12.951   4.383 -16.983  0.00  0.00     0.054 A 
ATOM     25  C   UNL d   1      13.239   3.689 -18.204  0.00  0.00    -0.005 A 
ATOM     26  C   UNL d   1      14.420   3.964 -18.909  0.00  0.00     0.024 A 
ATOM     27  C   UNL d   1      15.308   4.935 -18.395  0.00  0.00     0.119 A 
ATOM     28  O   UNL d   1      16.465   5.394 -18.917  0.00  0.00    -0.300 OA
ATOM     29  C   UNL d   1      15.042   5.579 -17.193  0.00  0.00     0.120 A 
ATOM     30  C   UNL d   1      17.007   6.262 -17.956  0.00  0.00     0.304 A 
ATOM     31  O   UNL d   1      16.087   6.384 -16.906  0.00  0.00    -0.299 OA
ATOM     32  C   UNL d   1      13.864   5.351 -16.496  0.00  0.00     0.043 A 
BRANCH  25  33
ATOM     33  C   UNL d   1      12.243   2.691 -18.765  0.00  0.00     0.028 C 
ATOM     34  C   UNL d   1      11.178   3.362 -19.657  0.00  0.00     0.005 C 
ENDBRANCH  25  33
ENDBRANCH   1  24
TORSDOF 8
