REMARK  0 active torsions:
REMARK  status: ('A' for Active; 'I' for Inactive)
ROOT
ATOM      1  N   UNL d   1       8.106   5.987  -7.237  0.00  0.00     0.062 N 
ATOM      2  C   UNL d   1       9.217   6.681  -7.569  0.00  0.00     0.771 A 
ATOM      3  N   UNL d   1       9.733   6.657  -8.762  0.00  0.00    -0.037 NA
ATOM      4  C   UNL d   1      10.855   7.428  -8.817  0.00  0.00     0.203 A 
ATOM      5  N   UNL d   1      11.599   7.622  -9.950  0.00  0.00    -0.203 NA
ATOM      6  C   UNL d   1      12.636   8.367  -9.569  0.00  0.00     0.201 A 
ATOM      7  N   UNL d   1      12.648   8.707  -8.282  0.00  0.00    -0.219 NA
ATOM      8  C   UNL d   1      11.472   8.130  -7.818  0.00  0.00     0.148 A 
ATOM      9  C   UNL d   1      10.847   8.143  -6.485  0.00  0.00     0.175 A 
ATOM     10  S   UNL d   1      11.456   8.982  -5.173  0.00  0.00    -0.055 SA
ATOM     11  N   UNL d   1       9.721   7.385  -6.447  0.00  0.00    -0.045 NA
ENDROOT
TORSDOF 0
