REMARK  4 active torsions:
REMARK  status: ('A' for Active; 'I' for Inactive)
REMARK    1  A    between atoms: N_11  and  C_12 
REMARK    2  A    between atoms: N_15  and  C_16 
REMARK    3  A    between atoms: N_19  and  S_20 
REMARK    4  A    between atoms: S_20  and  C_23 
ROOT
ATOM      1  C   UNL d   1      10.837   7.518  -6.619  0.00  0.00     0.094 C 
ATOM      2  C   UNL d   1      11.245   8.097  -7.993  0.00  0.00     0.058 C 
ATOM      3  C   UNL d   1      10.825   7.187  -9.098  0.00  0.00     0.252 C 
ATOM      4  N   UNL d   1       9.376   6.915  -9.059  0.00  0.00     0.135 N 
ATOM      5  C   UNL d   1       8.957   6.299  -7.789  0.00  0.00     0.252 C 
ATOM      6  C   UNL d   1       9.334   7.197  -6.613  0.00  0.00     0.058 C 
ENDROOT
BRANCH   4   7
ATOM      7  C   UNL d   1       8.821   6.183 -10.218  0.00  0.00     0.223 C 
ATOM      8  C   UNL d   1       9.063   6.983 -11.529  0.00  0.00     0.058 C 
ATOM      9  C   UNL d   1       8.599   6.185 -12.768  0.00  0.00     0.115 C 
ATOM     10  N   UNL d   1       9.384   4.944 -12.812  0.00  0.00    -0.274 N 
ATOM     11  C   UNL d   1       9.161   4.077 -11.649  0.00  0.00     0.115 C 
ATOM     12  C   UNL d   1       9.408   4.784 -10.328  0.00  0.00     0.058 C 
BRANCH  10  13
ATOM     13  S   UNL d   1      10.323   4.388 -14.173  0.00  0.00     0.264 S 
ATOM     14  O   UNL d   1      10.707   5.532 -15.013  0.00  0.00    -0.200 OA
ATOM     15  O   UNL d   1      11.397   3.531 -13.633  0.00  0.00    -0.200 OA
BRANCH  13  16
ATOM     16  C   UNL d   1       9.198   3.328 -15.109  0.00  0.00     0.103 A 
ATOM     17  C   UNL d   1       8.082   2.711 -14.498  0.00  0.00     0.013 A 
ATOM     18  C   UNL d   1       7.223   1.880 -15.238  0.00  0.00     0.001 A 
ATOM     19  C   UNL d   1       7.469   1.662 -16.606  0.00  0.00     0.000 A 
ATOM     20  C   UNL d   1       8.579   2.279 -17.225  0.00  0.00     0.001 A 
ATOM     21  C   UNL d   1       9.444   3.113 -16.482  0.00  0.00     0.013 A 
ENDBRANCH  13  16
ENDBRANCH  10  13
ENDBRANCH   4   7
BRANCH   1  22
ATOM     22  N   UNL d   1      11.174   8.435  -5.530  0.00  0.00    -0.281 N 
ATOM     23  C   UNL d   1      11.030   9.781  -5.509  0.00  0.00     0.350 A 
ATOM     24  O   UNL d   1      10.695  10.510  -6.403  0.00  0.00    -0.244 OA
ATOM     25  N   UNL d   1      11.349  10.215  -4.298  0.00  0.00    -0.191 NA
ATOM     26  C   UNL d   1      11.789   9.176  -3.531  0.00  0.00     0.102 A 
ATOM     27  C   UNL d   1      11.650   8.030  -4.276  0.00  0.00     0.084 A 
ATOM     28  C   UNL d   1      12.196   9.201  -2.214  0.00  0.00     0.023 A 
ATOM     29  C   UNL d   1      11.900   6.771  -3.725  0.00  0.00     0.049 A 
ATOM     30  C   UNL d   1      12.419   6.781  -2.409  0.00  0.00     0.142 A 
ATOM     31  C   UNL d   1      12.575   7.979  -1.673  0.00  0.00     0.031 A 
ATOM     32  F   UNL d   1      12.851   5.660  -1.812  0.00  0.00    -0.204 F 
ENDBRANCH   1  22
TORSDOF 4
