REMARK  1 active torsions:
REMARK  status: ('A' for Active; 'I' for Inactive)
REMARK    1  A    between atoms: C_14  and  C_15 
ROOT
ATOM      1  O   UNL d   1      10.377   3.747 -15.355  0.00  0.00    -0.291 OA
ATOM      2  C   UNL d   1       9.620   2.773 -15.308  0.00  0.00     0.177 C 
ATOM      3  C   UNL d   1       9.887   1.591 -16.206  0.00  0.00     0.099 C 
ATOM      4  C   UNL d   1       8.573   1.020 -16.771  0.00  0.00     0.137 C 
ATOM      5  C   UNL d   1       7.818   2.043 -17.682  0.00  0.00     0.278 C 
ATOM      6  N   UNL d   1       7.581   1.532 -19.045  0.00  0.00     0.139 N 
ATOM      7  C   UNL d   1       8.877   1.249 -19.677  0.00  0.00     0.250 C 
ATOM      8  C   UNL d   1       9.686   0.196 -18.869  0.00  0.00     0.038 C 
ATOM      9  C   UNL d   1       8.874  -0.243 -17.625  0.00  0.00     0.032 C 
ATOM     10  C   UNL d   1       7.548  -0.808 -18.166  0.00  0.00     0.038 C 
ATOM     11  C   UNL d   1       6.798   0.289 -18.964  0.00  0.00     0.250 C 
ATOM     12  O   UNL d   1       7.707   0.711 -15.673  0.00  0.00    -0.331 OA
ATOM     13  C   UNL d   1       7.586   1.639 -14.669  0.00  0.00     0.119 C 
ATOM     14  C   UNL d   1       8.446   2.669 -14.423  0.00  0.00     0.059 C 
ENDROOT
BRANCH  14  15
ATOM     15  C   UNL d   1       8.202   3.680 -13.380  0.00  0.00     0.005 A 
ATOM     16  C   UNL d   1       6.941   4.290 -13.194  0.00  0.00     0.000 A 
ATOM     17  C   UNL d   1       6.768   5.249 -12.174  0.00  0.00     0.000 A 
ATOM     18  C   UNL d   1       7.848   5.589 -11.337  0.00  0.00     0.000 A 
ATOM     19  C   UNL d   1       9.098   4.982 -11.508  0.00  0.00     0.000 A 
ATOM     20  C   UNL d   1       9.278   4.029 -12.526  0.00  0.00     0.000 A 
ENDBRANCH  14  15
TORSDOF 1
