REMARK  9 active torsions:
REMARK  status: ('A' for Active; 'I' for Inactive)
REMARK    1  A    between atoms: O_2  and  C_3 
REMARK    2  A    between atoms: C_8  and  C_9 
REMARK    3  A    between atoms: C_11  and  C_12 
REMARK    4  A    between atoms: C_12  and  N_13 
REMARK    5  A    between atoms: N_13  and  C_14 
REMARK    6  A    between atoms: C_14  and  C_15 
REMARK    7  A    between atoms: C_16  and  C_17 
REMARK    8  A    between atoms: C_17  and  O_18 
REMARK    9  A    between atoms: O_18  and  C_19 
ROOT
ATOM      1  C   UNL d   1       9.242   8.141 -10.758  0.00  0.00     0.009 C 
ATOM      2  C   UNL d   1       9.525   8.125  -9.455  0.00  0.00     0.004 C 
ENDROOT
BRANCH   1   3
ATOM      3  C   UNL d   1      10.027   7.272 -11.649  0.00  0.00     0.316 C 
BRANCH   3   4
ATOM      4  N   UNL d   1       9.244   6.370 -12.479  0.00  0.00     0.344 N 
BRANCH   4   5
ATOM      5  C   UNL d   1      10.082   5.626 -13.415  0.00  0.00     0.291 C 
BRANCH   5   6
ATOM      6  C   UNL d   1       9.202   4.810 -14.326  0.00  0.00     0.041 A 
ATOM      7  C   UNL d   1       9.405   3.317 -14.470  0.00  0.00     0.026 A 
ATOM      8  C   UNL d   1       9.731   4.230 -15.623  0.00  0.00     0.007 A 
BRANCH   7   9
ATOM      9  C   UNL d   1       8.225   2.398 -14.527  0.00  0.00    -0.000 A 
ATOM     10  C   UNL d   1       8.285   1.192 -15.264  0.00  0.00     0.090 A 
ATOM     11  C   UNL d   1       7.130   0.370 -15.326  0.00  0.00     0.024 A 
ATOM     12  C   UNL d   1       5.957   0.722 -14.635  0.00  0.00     0.002 A 
ATOM     13  C   UNL d   1       5.922   1.904 -13.880  0.00  0.00    -0.000 A 
ATOM     14  C   UNL d   1       7.041   2.748 -13.847  0.00  0.00    -0.002 A 
BRANCH  10  15
ATOM     15  O   UNL d   1       9.464   0.904 -15.922  0.00  0.00    -0.328 OA
ATOM     16  C   UNL d   1       9.637  -0.403 -16.443  0.00  0.00     0.181 C 
ENDBRANCH  10  15
ENDBRANCH   7   9
ENDBRANCH   5   6
ENDBRANCH   4   5
ENDBRANCH   3   4
ENDBRANCH   1   3
BRANCH   2  17
ATOM     17  C   UNL d   1       8.739   8.890  -8.371  0.00  0.00     0.175 C 
BRANCH  17  18
ATOM     18  O   UNL d   1       9.624   9.580  -7.503  0.00  0.00    -0.326 OA
BRANCH  18  19
ATOM     19  C   UNL d   1      10.221   8.872  -6.522  0.00  0.00     0.096 C 
ATOM     20  C   UNL d   1      10.663   9.589  -5.404  0.00  0.00     0.043 C 
ATOM     21  C   UNL d   1      11.348   8.884  -4.415  0.00  0.00     0.082 C 
ATOM     22  C   UNL d   1      11.645   7.513  -4.522  0.00  0.00    -0.004 C 
ATOM     23  N   UNL d   1      11.726   9.543  -3.242  0.00  0.00    -0.212 NA
ATOM     24  C   UNL d   1      11.227   6.818  -5.643  0.00  0.00    -0.001 C 
ATOM     25  C   UNL d   1      12.404   6.788  -3.432  0.00  0.00     0.038 C 
ATOM     26  C   UNL d   1      10.453   7.466  -6.593  0.00  0.00     0.024 C 
ATOM     27  C   UNL d   1      12.120   7.372  -2.074  0.00  0.00     0.095 C 
ATOM     28  C   UNL d   1      12.163   8.902  -2.167  0.00  0.00     0.256 C 
ATOM     29  O   UNL d   1      12.468   9.527  -1.204  0.00  0.00    -0.270 OA
ENDBRANCH  18  19
ENDBRANCH  17  18
ENDBRANCH   2  17
TORSDOF 9
