REMARK  2 active torsions:
REMARK  status: ('A' for Active; 'I' for Inactive)
REMARK    1  A    between atoms: N_2  and  C_4 
REMARK    2  A    between atoms: C_4  and  C_5 
ROOT
ATOM      1  C   UNL d   1       9.595   0.789 -16.328  0.00  0.00     0.149 C 
ATOM      2  C   UNL d   1       9.116   1.927 -15.405  0.00  0.00     0.039 C 
ATOM      3  C   UNL d   1       7.617   1.696 -15.336  0.00  0.00     0.058 C 
ATOM      4  C   UNL d   1       6.872   2.407 -14.208  0.00  0.00     0.003 A 
ATOM      5  C   UNL d   1       7.169   3.771 -13.998  0.00  0.00    -0.002 A 
ATOM      6  C   UNL d   1       6.488   4.510 -13.015  0.00  0.00    -0.000 A 
ATOM      7  C   UNL d   1       5.559   3.873 -12.185  0.00  0.00     0.002 A 
ATOM      8  C   UNL d   1       5.295   2.513 -12.362  0.00  0.00     0.024 A 
ATOM      9  C   UNL d   1       5.908   1.768 -13.373  0.00  0.00     0.096 A 
ATOM     10  O   UNL d   1       5.649   0.416 -13.373  0.00  0.00    -0.308 OA
ATOM     11  C   UNL d   1       5.256  -0.169 -14.542  0.00  0.00     0.098 A 
ATOM     12  C   UNL d   1       3.932  -0.613 -14.688  0.00  0.00     0.025 A 
ATOM     13  C   UNL d   1       3.531  -1.217 -15.893  0.00  0.00     0.013 A 
ATOM     14  C   UNL d   1       4.444  -1.366 -16.955  0.00  0.00     0.058 A 
ATOM     15 CL   UNL d   1       3.909  -2.034 -18.448  0.00  0.00    -0.082 Cl
ATOM     16  C   UNL d   1       5.777  -0.938 -16.806  0.00  0.00     0.011 A 
ATOM     17  C   UNL d   1       6.176  -0.340 -15.592  0.00  0.00     0.029 A 
ATOM     18  C   UNL d   1       7.574   0.179 -15.384  0.00  0.00     0.143 C 
ATOM     19  O   UNL d   1       8.466  -0.074 -16.459  0.00  0.00    -0.352 OA
ENDROOT
BRANCH   1  20
ATOM     20  C   UNL d   1       9.982   1.256 -17.748  0.00  0.00     0.280 C 
BRANCH  20  21
ATOM     21  N   UNL d   1      11.373   1.666 -17.933  0.00  0.00     0.144 N 
ATOM     22  C   UNL d   1      11.791   2.713 -17.011  0.00  0.00     0.286 C 
ATOM     23  C   UNL d   1      12.291   0.535 -17.938  0.00  0.00     0.286 C 
ENDBRANCH  20  21
ENDBRANCH   1  20
TORSDOF 2
