REMARK  4 active torsions:
REMARK  status: ('A' for Active; 'I' for Inactive)
REMARK    1  A    between atoms: C_6  and  N_7 
REMARK    2  A    between atoms: N_10  and  C_11 
REMARK    3  A    between atoms: C_11  and  C_12 
REMARK    4  A    between atoms: C_12  and  C_13 
ROOT
ATOM      1  N   UNL d   1       8.552   4.579 -12.673  0.00  0.00    -0.344 N 
ATOM      2  C   UNL d   1       9.713   4.266 -11.842  0.00  0.00     0.137 C 
ATOM      3  C   UNL d   1       9.641   5.067 -10.507  0.00  0.00     0.274 C 
ATOM      4  N   UNL d   1       9.576   6.499 -10.797  0.00  0.00     0.141 N 
ATOM      5  C   UNL d   1       8.326   6.718 -11.511  0.00  0.00     0.274 C 
ATOM      6  C   UNL d   1       8.321   6.001 -12.860  0.00  0.00     0.137 C 
ENDROOT
BRANCH   4   7
ATOM      7  C   UNL d   1       9.572   7.251  -9.534  0.00  0.00     0.255 C 
BRANCH   7   8
ATOM      8  C   UNL d   1      10.998   7.591  -9.089  0.00  0.00     0.062 C 
BRANCH   8   9
ATOM      9  C   UNL d   1      11.101   7.811  -7.591  0.00  0.00    -0.018 A 
ATOM     10  C   UNL d   1      11.004   9.110  -7.040  0.00  0.00     0.018 A 
ATOM     11  C   UNL d   1      11.169   9.258  -5.650  0.00  0.00     0.124 A 
ATOM     12  C   UNL d   1      11.460   8.184  -4.837  0.00  0.00     0.124 A 
ATOM     13  N   UNL d   1      11.071  10.383  -4.941  0.00  0.00    -0.127 NA
ATOM     14  C   UNL d   1      11.466   6.872  -5.337  0.00  0.00     0.022 A 
ATOM     15  N   UNL d   1      11.662   8.572  -3.583  0.00  0.00    -0.127 NA
ATOM     16  C   UNL d   1      11.315   6.701  -6.734  0.00  0.00    -0.003 A 
ATOM     17  N   UNL d   1      11.398   9.913  -3.689  0.00  0.00    -0.042 NA
ENDBRANCH   8   9
ENDBRANCH   7   8
ENDBRANCH   4   7
BRANCH   1  18
ATOM     18  C   UNL d   1       7.703   3.630 -13.226  0.00  0.00     0.052 A 
ATOM     19  C   UNL d   1       6.354   3.616 -12.805  0.00  0.00     0.017 A 
ATOM     20  C   UNL d   1       5.484   2.586 -13.213  0.00  0.00     0.001 A 
ATOM     21  C   UNL d   1       5.955   1.585 -14.083  0.00  0.00    -0.004 A 
ATOM     22  C   UNL d   1       7.289   1.603 -14.551  0.00  0.00    -0.024 A 
ATOM     23  C   UNL d   1       7.754   0.505 -15.488  0.00  0.00     0.031 C 
ATOM     24  C   UNL d   1       8.171   2.626 -14.114  0.00  0.00    -0.010 A 
ATOM     25  C   UNL d   1       9.622   2.614 -14.574  0.00  0.00     0.032 C 
ENDBRANCH   1  18
TORSDOF 4
