REMARK  8 active torsions:
REMARK  status: ('A' for Active; 'I' for Inactive)
REMARK    1  A    between atoms: C_2  and  N_3 
REMARK    2  A    between atoms: N_3  and  C_4 
REMARK    3  A    between atoms: N_3  and  C_6 
REMARK    4  A    between atoms: C_6  and  C_7 
REMARK    5  A    between atoms: C_7  and  N_8 
REMARK       I    between atoms: N_8  and  C_9 
REMARK    6  A    between atoms: C_9  and  C_11 
REMARK    7  A    between atoms: C_13  and  S_14 
REMARK    8  A    between atoms: C_20  and  O_21 
ROOT
ATOM      1  C   UNL d   1       8.737   4.729 -11.966  0.00  0.00     0.080 A 
ATOM      2  C   UNL d   1       9.873   4.454 -12.757  0.00  0.00     0.018 A 
ATOM      3  C   UNL d   1       9.722   3.754 -13.958  0.00  0.00     0.084 A 
ATOM      4  C   UNL d   1       8.449   3.354 -14.430  0.00  0.00     0.013 A 
ATOM      5  C   UNL d   1       7.298   3.665 -13.673  0.00  0.00     0.025 A 
ATOM      6  C   UNL d   1       7.453   4.345 -12.438  0.00  0.00     0.099 A 
ENDROOT
BRANCH   1   7
ATOM      7  C   UNL d   1       8.899   5.427 -10.644  0.00  0.00     0.277 C 
ATOM      8  N   UNL d   1       9.389   6.668 -10.735  0.00  0.00    -0.232 NA
ATOM      9  O   UNL d   1       8.592   4.891  -9.577  0.00  0.00    -0.266 OA
BRANCH   8  10
ATOM     10  C   UNL d   1       9.507   7.595  -9.623  0.00  0.00     0.164 C 
BRANCH  10  11
ATOM     11  C   UNL d   1      10.752   7.254  -8.804  0.00  0.00     0.276 C 
BRANCH  11  12
ATOM     12  N   UNL d   1      10.813   8.099  -7.616  0.00  0.00     0.139 N 
BRANCH  12  13
ATOM     13  C   UNL d   1      11.837   7.540  -6.759  0.00  0.00     0.250 C 
ATOM     14  C   UNL d   1      11.541   6.210  -6.099  0.00  0.00     0.037 C 
ENDBRANCH  12  13
BRANCH  12  15
ATOM     15  C   UNL d   1      11.254   9.441  -7.997  0.00  0.00     0.250 C 
ATOM     16  C   UNL d   1      11.284  10.418  -6.805  0.00  0.00     0.037 C 
ENDBRANCH  12  15
ENDBRANCH  11  12
ENDBRANCH  10  11
ENDBRANCH   8  10
ENDBRANCH   1   7
BRANCH   6  17
ATOM     17  O   UNL d   1       6.378   4.687 -11.658  0.00  0.00    -0.328 OA
ATOM     18  C   UNL d   1       5.084   4.402 -12.078  0.00  0.00     0.181 C 
ENDBRANCH   6  17
BRANCH   3  19
ATOM     19  S   UNL d   1      11.156   3.370 -14.917  0.00  0.00     0.191 S 
ATOM     20  C   UNL d   1      11.376   1.606 -14.660  0.00  0.00     0.145 C 
ATOM     21  O   UNL d   1      10.851   3.628 -16.316  0.00  0.00    -0.222 OA
ATOM     22  O   UNL d   1      12.279   4.076 -14.270  0.00  0.00    -0.222 OA
ENDBRANCH   3  19
TORSDOF 8
