REMARK  3 active torsions:
REMARK  status: ('A' for Active; 'I' for Inactive)
REMARK    1  A    between atoms: C_4  and  C_5 
REMARK    2  A    between atoms: C_8  and  N_9 
REMARK    3  A    between atoms: N_12  and  C_13 
ROOT
ATOM      1  C   UNL d   1       8.814   5.363 -12.557  0.00  0.00     0.153 C 
ATOM      2  N   UNL d   1       9.449   6.489 -12.468  0.00  0.00    -0.251 NA
ATOM      3  C   UNL d   1       9.296   7.364 -11.317  0.00  0.00     0.161 C 
ATOM      4  C   UNL d   1       9.798   6.749  -9.985  0.00  0.00     0.245 C 
ATOM      5  C   UNL d   1       8.774   5.772  -9.387  0.00  0.00     0.062 C 
ATOM      6  C   UNL d   1       8.566   4.588 -10.242  0.00  0.00     0.129 C 
ATOM      7  N   UNL d   1       8.009   4.866 -11.545  0.00  0.00    -0.253 NA
ENDROOT
BRANCH   4   8
ATOM      8  N   UNL d   1      10.162   7.822  -9.031  0.00  0.00     0.141 N 
ATOM      9  C   UNL d   1       9.276   7.946  -7.854  0.00  0.00     0.274 C 
ATOM     10  C   UNL d   1       9.720   9.044  -6.927  0.00  0.00     0.137 C 
ATOM     11  N   UNL d   1      11.081   8.818  -6.522  0.00  0.00    -0.344 N 
ATOM     12  C   UNL d   1      12.027   8.668  -7.602  0.00  0.00     0.137 C 
ATOM     13  C   UNL d   1      11.524   7.584  -8.551  0.00  0.00     0.274 C 
BRANCH  11  14
ATOM     14  C   UNL d   1      11.458   8.775  -5.184  0.00  0.00     0.056 A 
ATOM     15  C   UNL d   1      11.429   9.957  -4.425  0.00  0.00     0.017 A 
ATOM     16  C   UNL d   1      11.853   9.936  -3.085  0.00  0.00     0.002 A 
ATOM     17  C   UNL d   1      12.263   8.738  -2.477  0.00  0.00     0.000 A 
ATOM     18  C   UNL d   1      12.257   7.548  -3.216  0.00  0.00     0.002 A 
ATOM     19  C   UNL d   1      11.845   7.559  -4.565  0.00  0.00     0.017 A 
ENDBRANCH  11  14
ENDBRANCH   4   8
BRANCH   1  20
ATOM     20  C   UNL d   1       9.013   4.511 -13.773  0.00  0.00     0.035 A 
ATOM     21  C   UNL d   1      10.078   4.753 -14.670  0.00  0.00     0.003 A 
ATOM     22  C   UNL d   1      10.230   3.949 -15.812  0.00  0.00     0.000 A 
ATOM     23  C   UNL d   1       9.340   2.881 -16.051  0.00  0.00     0.000 A 
ATOM     24  C   UNL d   1       8.297   2.618 -15.144  0.00  0.00     0.000 A 
ATOM     25  C   UNL d   1       8.129   3.434 -14.016  0.00  0.00     0.003 A 
ENDBRANCH   1  20
TORSDOF 3
