REMARK  6 active torsions:
REMARK  status: ('A' for Active; 'I' for Inactive)
REMARK    1  A    between atoms: C_9  and  O_10 
REMARK    2  A    between atoms: O_10  and  C_11 
REMARK    3  A    between atoms: C_11  and  C_12 
REMARK    4  A    between atoms: C_12  and  C_13 
REMARK    5  A    between atoms: C_13  and  N_14 
REMARK    6  A    between atoms: N_17  and  C_18 
ROOT
ATOM      1  N   UNL d   1       9.474   3.926 -13.851  0.00  0.00     0.141 N 
ATOM      2  C   UNL d   1      10.182   5.039 -14.509  0.00  0.00     0.274 C 
ATOM      3  C   UNL d   1       9.736   5.185 -15.972  0.00  0.00     0.137 C 
ATOM      4  N   UNL d   1       9.908   3.911 -16.656  0.00  0.00    -0.344 N 
ATOM      5  C   UNL d   1       9.349   2.746 -15.974  0.00  0.00     0.137 C 
ATOM      6  C   UNL d   1       9.830   2.680 -14.534  0.00  0.00     0.274 C 
ENDROOT
BRANCH   1   7
ATOM      7  C   UNL d   1       9.900   3.814 -12.460  0.00  0.00     0.253 C 
BRANCH   7   8
ATOM      8  C   UNL d   1       9.126   4.774 -11.535  0.00  0.00     0.068 C 
BRANCH   8   9
ATOM      9  C   UNL d   1       9.555   4.676 -10.054  0.00  0.00     0.151 C 
BRANCH   9  10
ATOM     10  O   UNL d   1       8.753   5.503  -9.246  0.00  0.00    -0.329 OA
BRANCH  10  11
ATOM     11  C   UNL d   1       9.421   6.396  -8.438  0.00  0.00     0.121 A 
ATOM     12  C   UNL d   1       8.874   6.632  -7.165  0.00  0.00     0.162 A 
ATOM     13  C   UNL d   1       9.478   7.463  -6.213  0.00  0.00     0.029 A 
ATOM     14  F   UNL d   1       7.764   6.003  -6.808  0.00  0.00    -0.202 F 
ATOM     15  C   UNL d   1      10.624   8.142  -6.588  0.00  0.00     0.009 A 
ATOM     16  C   UNL d   1      11.464   9.098  -5.796  0.00  0.00     0.156 A 
ATOM     17  C   UNL d   1      11.175   7.916  -7.823  0.00  0.00     0.058 A 
ATOM     18  N   UNL d   1      12.514   9.385  -6.792  0.00  0.00    -0.229 NA
ATOM     19  C   UNL d   1      12.418   8.646  -7.921  0.00  0.00     0.275 A 
ATOM     20  O   UNL d   1      13.216   8.462  -8.838  0.00  0.00    -0.266 OA
ATOM     21  C   UNL d   1      10.620   7.071  -8.791  0.00  0.00     0.031 A 
ENDBRANCH  10  11
ENDBRANCH   9  10
ENDBRANCH   8   9
ENDBRANCH   7   8
ENDBRANCH   1   7
BRANCH   4  22
ATOM     22  C   UNL d   1      10.559   3.824 -17.900  0.00  0.00     0.056 A 
ATOM     23  C   UNL d   1      10.003   3.131 -19.031  0.00  0.00     0.018 A 
ATOM     24  C   UNL d   1      10.733   3.072 -20.247  0.00  0.00     0.002 A 
ATOM     25  C   UNL d   1       8.709   2.550 -18.992  0.00  0.00     0.031 A 
ATOM     26  C   UNL d   1      12.007   3.670 -20.346  0.00  0.00     0.000 A 
ATOM     27  C   UNL d   1      10.189   2.408 -21.372  0.00  0.00     0.002 A 
ATOM     28  C   UNL d   1      12.559   4.346 -19.245  0.00  0.00     0.002 A 
ATOM     29  C   UNL d   1      11.845   4.421 -18.039  0.00  0.00     0.017 A 
ATOM     30  C   UNL d   1       8.916   1.805 -21.297  0.00  0.00     0.030 A 
ATOM     31  C   UNL d   1       8.190   1.871 -20.099  0.00  0.00     0.140 A 
ATOM     32  F   UNL d   1       6.967   1.310 -20.005  0.00  0.00    -0.204 F 
ENDBRANCH   4  22
TORSDOF 6
