REMARK  5 active torsions:
REMARK  status: ('A' for Active; 'I' for Inactive)
REMARK    1  A    between atoms: C_9  and  N_10 
REMARK    2  A    between atoms: N_13  and  C_14 
REMARK    3  A    between atoms: C_14  and  C_15 
REMARK    4  A    between atoms: C_15  and  C_16 
REMARK    5  A    between atoms: C_16  and  C_17 
ROOT
ATOM      1  N   UNL d   1       9.539   3.649 -14.620  0.00  0.00    -0.343 N 
ATOM      2  C   UNL d   1       9.313   5.086 -14.662  0.00  0.00     0.137 C 
ATOM      3  C   UNL d   1       8.665   5.553 -13.345  0.00  0.00     0.274 C 
ATOM      4  N   UNL d   1       9.512   5.186 -12.207  0.00  0.00     0.141 N 
ATOM      5  C   UNL d   1       9.642   3.720 -12.184  0.00  0.00     0.274 C 
ATOM      6  C   UNL d   1      10.290   3.189 -13.468  0.00  0.00     0.137 C 
ENDROOT
BRANCH   4   7
ATOM      7  C   UNL d   1       8.883   5.683 -10.981  0.00  0.00     0.251 C 
BRANCH   7   8
ATOM      8  C   UNL d   1       9.818   5.551  -9.767  0.00  0.00     0.040 C 
BRANCH   8   9
ATOM      9  C   UNL d   1       9.261   6.193  -8.492  0.00  0.00     0.030 C 
BRANCH   9  10
ATOM     10  C   UNL d   1      10.041   7.405  -8.089  0.00  0.00    -0.002 A 
ATOM     11  C   UNL d   1      10.662   7.672  -6.820  0.00  0.00     0.017 A 
ATOM     12  C   UNL d   1      11.287   8.949  -6.894  0.00  0.00     0.081 A 
ATOM     13  C   UNL d   1      10.772   6.978  -5.595  0.00  0.00     0.031 A 
ATOM     14  N   UNL d   1      11.063   9.385  -8.182  0.00  0.00    -0.244 NA
ATOM     15  C   UNL d   1      11.967   9.519  -5.802  0.00  0.00     0.021 A 
ATOM     16  C   UNL d   1      10.303   8.479  -8.894  0.00  0.00     0.095 A 
ATOM     17  C   UNL d   1      12.049   8.805  -4.592  0.00  0.00     0.031 A 
ATOM     18  C   UNL d   1      11.461   7.528  -4.496  0.00  0.00     0.140 A 
ATOM     19  F   UNL d   1      11.560   6.821  -3.346  0.00  0.00    -0.204 F 
ENDBRANCH   9  10
ENDBRANCH   8   9
ENDBRANCH   7   8
ENDBRANCH   4   7
BRANCH   1  20
ATOM     20  C   UNL d   1       9.115   2.778 -15.636  0.00  0.00     0.080 A 
ATOM     21  C   UNL d   1       9.232   3.138 -17.003  0.00  0.00     0.128 A 
ATOM     22  O   UNL d   1       9.840   4.321 -17.366  0.00  0.00    -0.321 OA
ATOM     23  C   UNL d   1       8.773   2.257 -18.010  0.00  0.00     0.108 A 
ATOM     24  C   UNL d   1       9.425   4.909 -18.604  0.00  0.00     0.202 C 
ATOM     25  C   UNL d   1      10.411   6.043 -18.919  0.00  0.00     0.043 C 
ATOM     26  C   UNL d   1       9.325   3.857 -19.732  0.00  0.00     0.283 C 
ATOM     27  N   UNL d   1       8.944   2.626 -19.362  0.00  0.00    -0.208 NA
ATOM     28  O   UNL d   1       9.557   4.141 -20.904  0.00  0.00    -0.268 OA
ATOM     29  C   UNL d   1       8.198   1.019 -17.667  0.00  0.00     0.021 A 
ATOM     30  C   UNL d   1       8.079   0.656 -16.315  0.00  0.00     0.003 A 
ATOM     31  C   UNL d   1       8.536   1.528 -15.304  0.00  0.00     0.019 A 
ENDBRANCH   1  20
TORSDOF 5
