REMARK  3 active torsions:
REMARK  status: ('A' for Active; 'I' for Inactive)
REMARK    1  A    between atoms: C_12  and  C_13 
REMARK    2  A    between atoms: N_16  and  C_17 
REMARK    3  A    between atoms: C_17  and  C_18 
ROOT
ATOM      1  C   UNL d   1       9.717   7.232  -8.956  0.00  0.00     0.011 C 
ATOM      2  C   UNL d   1       9.348   5.781  -9.308  0.00  0.00     0.036 C 
ATOM      3  C   UNL d   1       8.489   5.676 -10.550  0.00  0.00     0.251 C 
ATOM      4  N   UNL d   1       9.187   6.288 -11.677  0.00  0.00     0.141 N 
ATOM      5  C   UNL d   1       9.400   7.718 -11.438  0.00  0.00     0.251 C 
ATOM      6  C   UNL d   1      10.274   7.941 -10.204  0.00  0.00     0.036 C 
ENDROOT
BRANCH   1   7
ATOM      7  C   UNL d   1      10.735   7.407  -7.781  0.00  0.00     0.062 C 
ATOM      8  C   UNL d   1      10.500   8.710  -7.029  0.00  0.00     0.172 C 
ATOM      9  O   UNL d   1       9.842   9.584  -7.545  0.00  0.00    -0.291 OA
ATOM     10  C   UNL d   1      11.040   8.796  -5.614  0.00  0.00     0.031 A 
ATOM     11  C   UNL d   1      11.589   7.684  -4.955  0.00  0.00    -0.017 A 
ATOM     12  C   UNL d   1      10.968  10.004  -4.925  0.00  0.00     0.005 A 
ATOM     13  C   UNL d   1      12.066   7.738  -3.627  0.00  0.00     0.025 A 
ATOM     14  C   UNL d   1      11.647   6.387  -5.653  0.00  0.00     0.027 C 
ATOM     15  C   UNL d   1      11.989   8.942  -2.947  0.00  0.00     0.140 A 
ATOM     16  C   UNL d   1      11.435  10.023  -3.601  0.00  0.00     0.030 A 
ATOM     17  F   UNL d   1      12.476   9.084  -1.683  0.00  0.00    -0.204 F 
ATOM     18  C   UNL d   1      10.657   6.298  -6.788  0.00  0.00     0.012 C 
ENDBRANCH   1   7
BRANCH   4  19
ATOM     19  C   UNL d   1       8.337   6.117 -12.829  0.00  0.00     0.277 C 
BRANCH  19  20
ATOM     20  C   UNL d   1       8.348   4.698 -13.364  0.00  0.00     0.011 A 
ATOM     21  C   UNL d   1       9.571   4.047 -13.640  0.00  0.00    -0.002 A 
ATOM     22  C   UNL d   1       9.575   2.740 -14.161  0.00  0.00    -0.000 A 
ATOM     23  C   UNL d   1       8.356   2.085 -14.429  0.00  0.00    -0.000 A 
ATOM     24  C   UNL d   1       7.136   2.731 -14.146  0.00  0.00    -0.000 A 
ATOM     25  C   UNL d   1       7.133   4.036 -13.618  0.00  0.00    -0.002 A 
ENDBRANCH  19  20
ENDBRANCH   4  19
TORSDOF 3
