REMARK  4 active torsions:
REMARK  status: ('A' for Active; 'I' for Inactive)
REMARK    1  A    between atoms: C_2  and  C_3 
REMARK    2  A    between atoms: C_3  and  N_4 
REMARK    3  A    between atoms: C_19  and  O_20 
REMARK    4  A    between atoms: O_20  and  C_21 
ROOT
ATOM      1  N   UNL d   1       6.259   1.807 -13.644  0.00  0.00     0.140 N 
ATOM      2  C   UNL d   1       5.362   2.870 -13.206  0.00  0.00     0.255 C 
ATOM      3  C   UNL d   1       6.082   3.724 -12.167  0.00  0.00     0.061 C 
ATOM      4  C   UNL d   1       7.396   4.306 -12.652  0.00  0.00    -0.022 A 
ATOM      5  C   UNL d   1       8.060   5.383 -12.042  0.00  0.00    -0.004 A 
ATOM      6  C   UNL d   1       9.314   5.777 -12.524  0.00  0.00    -0.000 A 
ATOM      7  C   UNL d   1       9.882   5.115 -13.630  0.00  0.00    -0.000 A 
ATOM      8  C   UNL d   1       9.253   4.054 -14.324  0.00  0.00    -0.001 A 
ATOM      9  C   UNL d   1       8.014   3.653 -13.761  0.00  0.00     0.005 A 
ATOM     10  C   UNL d   1       7.332   2.438 -14.431  0.00  0.00     0.245 C 
ATOM     11  C   UNL d   1       8.385   1.401 -14.884  0.00  0.00     0.064 C 
ATOM     12  C   UNL d   1       9.484   2.017 -15.720  0.00  0.00    -0.018 A 
ATOM     13  C   UNL d   1      10.055   1.245 -16.752  0.00  0.00    -0.004 A 
ATOM     14  C   UNL d   1      11.010   1.807 -17.609  0.00  0.00     0.002 A 
ATOM     15  C   UNL d   1      11.377   3.153 -17.435  0.00  0.00     0.025 A 
ATOM     16  C   UNL d   1      10.829   3.928 -16.384  0.00  0.00     0.103 A 
ATOM     17  C   UNL d   1       9.880   3.352 -15.483  0.00  0.00     0.019 A 
ENDROOT
BRANCH  16  18
ATOM     18  O   UNL d   1      11.202   5.251 -16.315  0.00  0.00    -0.276 OA
BRANCH  18  19
ATOM     19  C   UNL d   1      12.478   5.572 -16.003  0.00  0.00     0.277 C 
ATOM     20  C   UNL d   1      12.750   7.064 -16.078  0.00  0.00     0.107 C 
ATOM     21  O   UNL d   1      13.366   4.792 -15.662  0.00  0.00    -0.264 OA
ENDBRANCH  18  19
ENDBRANCH  16  18
BRANCH   1  22
ATOM     22  C   UNL d   1       5.521   0.786 -14.388  0.00  0.00     0.251 C 
BRANCH  22  23
ATOM     23  C   UNL d   1       6.058  -0.627 -14.102  0.00  0.00     0.035 C 
ATOM     24  C   UNL d   1       5.311  -1.682 -14.919  0.00  0.00     0.002 C 
ENDBRANCH  22  23
ENDBRANCH   1  22
TORSDOF 4
