REMARK  8 active torsions:
REMARK  status: ('A' for Active; 'I' for Inactive)
REMARK    1  A    between atoms: O_2  and  C_3 
REMARK    2  A    between atoms: C_6  and  C_7 
REMARK    3  A    between atoms: C_7  and  C_8 
REMARK       I    between atoms: C_8  and  N_10 
REMARK    4  A    between atoms: N_10  and  C_11 
REMARK    5  A    between atoms: C_14  and  C_15 
REMARK    6  A    between atoms: C_15  and  C_16 
REMARK    7  A    between atoms: C_16  and  N_17 
REMARK    8  A    between atoms: N_20  and  C_21 
ROOT
ATOM      1  C   UNL d   1       9.613   6.165 -10.674  0.00  0.00     0.106 C 
ATOM      2  C   UNL d   1       9.581   4.656 -10.413  0.00  0.00     0.024 C 
ATOM      3  C   UNL d   1       9.852   3.861 -11.734  0.00  0.00     0.002 C 
ATOM      4  C   UNL d   1       8.729   4.156 -12.729  0.00  0.00     0.002 C 
ATOM      5  C   UNL d   1       8.765   5.669 -13.029  0.00  0.00     0.002 C 
ATOM      6  C   UNL d   1       8.576   6.519 -11.761  0.00  0.00     0.024 C 
ENDROOT
BRANCH   4   7
ATOM      7  C   UNL d   1       9.052   3.363 -14.005  0.00  0.00     0.035 C 
BRANCH   7   8
ATOM      8  C   UNL d   1       7.784   2.882 -14.735  0.00  0.00     0.250 C 
BRANCH   8   9
ATOM      9  N   UNL d   1       8.050   2.344 -16.080  0.00  0.00     0.141 N 
ATOM     10  C   UNL d   1       9.023   3.151 -16.833  0.00  0.00     0.274 C 
ATOM     11  C   UNL d   1       9.193   2.632 -18.253  0.00  0.00     0.138 C 
ATOM     12  N   UNL d   1       9.582   1.233 -18.204  0.00  0.00    -0.330 N 
ATOM     13  C   UNL d   1       8.703   0.375 -17.409  0.00  0.00     0.138 C 
ATOM     14  C   UNL d   1       8.503   0.955 -15.996  0.00  0.00     0.274 C 
BRANCH  12  15
ATOM     15  C   UNL d   1      10.743   0.751 -18.827  0.00  0.00     0.141 A 
ATOM     16  C   UNL d   1      11.216   1.265 -20.076  0.00  0.00     0.040 A 
ATOM     17  C   UNL d   1      12.393   0.657 -20.631  0.00  0.00     0.034 A 
ATOM     18  C   UNL d   1      10.700   2.298 -20.966  0.00  0.00     0.011 A 
ATOM     19  C   UNL d   1      13.040  -0.388 -19.954  0.00  0.00     0.027 A 
ATOM     20  S   UNL d   1      12.829   1.374 -22.168  0.00  0.00    -0.086 SA
ATOM     21  C   UNL d   1      12.510  -0.805 -18.737  0.00  0.00     0.101 A 
ATOM     22  N   UNL d   1      11.403  -0.267 -18.196  0.00  0.00    -0.227 NA
ATOM     23  C   UNL d   1      11.481   2.466 -22.075  0.00  0.00     0.035 A 
ENDBRANCH  12  15
ENDBRANCH   8   9
ENDBRANCH   7   8
ENDBRANCH   4   7
BRANCH   1  24
ATOM     24  N   UNL d   1       9.293   6.879  -9.441  0.00  0.00    -0.240 NA
ATOM     25  C   UNL d   1      10.185   7.285  -8.520  0.00  0.00     0.251 C 
ATOM     26  O   UNL d   1      11.398   7.151  -8.660  0.00  0.00    -0.271 OA
BRANCH  25  27
ATOM     27  C   UNL d   1       9.673   8.033  -7.300  0.00  0.00     0.090 C 
BRANCH  27  28
ATOM     28  C   UNL d   1      10.805   8.301  -6.243  0.00  0.00     0.012 C 
ATOM     29  C   UNL d   1      10.704   9.660  -5.575  0.00  0.00     0.003 C 
ATOM     30  C   UNL d   1      11.572   9.552  -4.325  0.00  0.00     0.030 C 
ATOM     31  C   UNL d   1      11.581   8.067  -3.905  0.00  0.00     0.116 C 
ATOM     32  C   UNL d   1      10.890   7.292  -5.082  0.00  0.00     0.030 C 
BRANCH  31  33
ATOM     33  O   UNL d   1      12.886   7.573  -3.646  0.00  0.00    -0.354 OA
ATOM     34  C   UNL d   1      12.800   6.409  -2.832  0.00  0.00     0.174 C 
ENDBRANCH  31  33
ENDBRANCH  27  28
ENDBRANCH  25  27
ENDBRANCH   1  24
TORSDOF 8
