REMARK  6 active torsions:
REMARK  status: ('A' for Active; 'I' for Inactive)
REMARK    1  A    between atoms: O_2  and  C_3 
REMARK    2  A    between atoms: C_6  and  S_7 
REMARK    3  A    between atoms: S_7  and  C_8 
REMARK    4  A    between atoms: C_8  and  C_9 
REMARK    5  A    between atoms: C_9  and  N_10 
REMARK       I    between atoms: N_13  and  C_14 
REMARK    6  A    between atoms: C_14  and  C_16 
ROOT
ATOM      1  N   UNL d   1       7.694   5.487 -11.642  0.00  0.00     0.142 N 
ATOM      2  C   UNL d   1       8.079   6.794 -12.188  0.00  0.00     0.274 C 
ATOM      3  C   UNL d   1       9.499   7.143 -11.708  0.00  0.00     0.140 C 
ATOM      4  N   UNL d   1       9.660   7.067 -10.228  0.00  0.00    -0.311 N 
ATOM      5  C   UNL d   1      10.215   8.069  -9.522  0.00  0.00     0.275 C 
ATOM      6  O   UNL d   1      10.464   9.156 -10.041  0.00  0.00    -0.266 OA
ATOM      7  C   UNL d   1       9.211   5.803  -9.657  0.00  0.00     0.140 C 
ATOM      8  C   UNL d   1       7.842   5.473 -10.185  0.00  0.00     0.274 C 
ENDROOT
BRANCH   1   9
ATOM      9  C   UNL d   1       6.320   5.151 -12.045  0.00  0.00     0.262 C 
BRANCH   9  10
ATOM     10  C   UNL d   1       5.936   3.691 -11.700  0.00  0.00     0.098 C 
BRANCH  10  11
ATOM     11  S   UNL d   1       5.535   2.663 -13.124  0.00  0.00    -0.112 SA
BRANCH  11  12
ATOM     12  C   UNL d   1       6.979   2.375 -14.100  0.00  0.00     0.025 A 
ATOM     13  C   UNL d   1       8.103   3.227 -14.053  0.00  0.00     0.008 A 
ATOM     14  C   UNL d   1       9.216   3.009 -14.861  0.00  0.00     0.025 A 
ATOM     15  C   UNL d   1       9.252   1.918 -15.734  0.00  0.00     0.094 A 
ATOM     16  C   UNL d   1       8.135   1.033 -15.782  0.00  0.00     0.025 A 
ATOM     17  C   UNL d   1       7.001   1.263 -14.962  0.00  0.00     0.008 A 
BRANCH  15  18
ATOM     18  O   UNL d   1      10.399   1.798 -16.481  0.00  0.00    -0.328 OA
ATOM     19  C   UNL d   1      10.501   0.675 -17.322  0.00  0.00     0.181 C 
ENDBRANCH  15  18
ENDBRANCH  11  12
ENDBRANCH  10  11
ENDBRANCH   9  10
ENDBRANCH   1   9
BRANCH   5  20
ATOM     20  C   UNL d   1      10.557   7.925  -8.081  0.00  0.00     0.137 A 
ATOM     21  N   UNL d   1      10.743   9.074  -7.331  0.00  0.00    -0.241 NA
ATOM     22  C   UNL d   1      11.140   8.768  -6.040  0.00  0.00     0.082 A 
ATOM     23  C   UNL d   1      11.177   7.347  -6.016  0.00  0.00     0.019 A 
ATOM     24  C   UNL d   1      11.472   9.532  -4.892  0.00  0.00     0.019 A 
ATOM     25  C   UNL d   1      10.870   6.842  -7.315  0.00  0.00     0.025 A 
ATOM     26  C   UNL d   1      11.520   6.729  -4.795  0.00  0.00     0.002 A 
ATOM     27  C   UNL d   1      11.873   7.461  -3.660  0.00  0.00     0.000 A 
ATOM     28  C   UNL d   1      11.856   8.877  -3.692  0.00  0.00     0.002 A 
ENDBRANCH   5  20
TORSDOF 6
