REMARK  5 active torsions:
REMARK  status: ('A' for Active; 'I' for Inactive)
REMARK    1  A    between atoms: C_5  and  N_6 
REMARK    2  A    between atoms: N_9  and  C_10 
REMARK    3  A    between atoms: C_10  and  C_11 
REMARK    4  A    between atoms: C_11  and  C_12 
REMARK    5  A    between atoms: C_12  and  C_13 
ROOT
ATOM      1  N   UNL d   1       8.166   4.720 -12.253  0.00  0.00    -0.343 N 
ATOM      2  C   UNL d   1       8.961   4.401 -11.082  0.00  0.00     0.137 C 
ATOM      3  C   UNL d   1       9.852   5.583 -10.671  0.00  0.00     0.274 C 
ATOM      4  N   UNL d   1       9.078   6.794 -10.502  0.00  0.00     0.141 N 
ATOM      5  C   UNL d   1       8.456   7.116 -11.794  0.00  0.00     0.274 C 
ATOM      6  C   UNL d   1       7.471   5.995 -12.213  0.00  0.00     0.137 C 
ENDROOT
BRANCH   4   7
ATOM      7  C   UNL d   1       9.973   7.876 -10.082  0.00  0.00     0.251 C 
BRANCH   7   8
ATOM      8  C   UNL d   1      10.061   7.975  -8.549  0.00  0.00     0.040 C 
BRANCH   8   9
ATOM      9  C   UNL d   1      11.401   8.551  -8.079  0.00  0.00     0.030 C 
BRANCH   9  10
ATOM     10  C   UNL d   1      11.335   9.024  -6.654  0.00  0.00    -0.002 A 
ATOM     11  C   UNL d   1      11.490   8.262  -5.450  0.00  0.00     0.015 A 
ATOM     12  C   UNL d   1      11.415   9.147  -4.333  0.00  0.00     0.081 A 
ATOM     13  C   UNL d   1      11.743   6.909  -5.178  0.00  0.00     0.001 A 
ATOM     14  N   UNL d   1      11.097  10.369  -4.862  0.00  0.00    -0.244 NA
ATOM     15  C   UNL d   1      11.608   8.722  -3.010  0.00  0.00     0.019 A 
ATOM     16  C   UNL d   1      11.116  10.312  -6.246  0.00  0.00     0.095 A 
ATOM     17  C   UNL d   1      11.873   7.366  -2.769  0.00  0.00     0.002 A 
ATOM     18  C   UNL d   1      11.975   6.494  -3.859  0.00  0.00     0.000 A 
ENDBRANCH   9  10
ENDBRANCH   8   9
ENDBRANCH   7   8
ENDBRANCH   4   7
BRANCH   1  19
ATOM     19  C   UNL d   1       8.244   3.955 -13.425  0.00  0.00     0.080 A 
ATOM     20  C   UNL d   1       9.453   3.833 -14.152  0.00  0.00     0.127 A 
ATOM     21  C   UNL d   1       9.500   3.001 -15.307  0.00  0.00     0.100 A 
ATOM     22  O   UNL d   1      10.565   4.540 -13.737  0.00  0.00    -0.326 OA
ATOM     23  C   UNL d   1       8.349   2.292 -15.695  0.00  0.00     0.021 A 
ATOM     24  N   UNL d   1      10.670   2.886 -16.076  0.00  0.00    -0.266 NA
ATOM     25  C   UNL d   1       7.157   2.386 -14.955  0.00  0.00     0.003 A 
ATOM     26  C   UNL d   1       7.101   3.239 -13.829  0.00  0.00     0.019 A 
ATOM     27  C   UNL d   1      11.739   3.813 -15.741  0.00  0.00     0.158 C 
ATOM     28  C   UNL d   1      11.805   4.052 -14.226  0.00  0.00     0.175 C 
ENDBRANCH   1  19
TORSDOF 5
