REMARK  1 active torsions:
REMARK  status: ('A' for Active; 'I' for Inactive)
REMARK    1  A    between atoms: C_4  and  C_5 
ROOT
ATOM      1  C   UNL d   1       9.244   5.185 -12.769  0.00  0.00     0.079 C 
ATOM      2  N   UNL d   1      10.231   5.583 -13.447  0.00  0.00    -0.244 NA
ATOM      3  C   UNL d   1      10.731   5.162 -14.671  0.00  0.00     0.100 A 
ATOM      4  C   UNL d   1      11.505   6.091 -15.383  0.00  0.00     0.032 A 
ATOM      5  C   UNL d   1      12.094   5.784 -16.614  0.00  0.00     0.059 A 
ATOM      6 CL   UNL d   1      12.946   6.998 -17.498  0.00  0.00    -0.082 Cl
ATOM      7  C   UNL d   1      11.970   4.480 -17.116  0.00  0.00     0.013 A 
ATOM      8  C   UNL d   1      11.267   3.508 -16.378  0.00  0.00     0.021 A 
ATOM      9  C   UNL d   1      10.646   3.838 -15.158  0.00  0.00     0.099 A 
ATOM     10  N   UNL d   1       9.922   2.857 -14.495  0.00  0.00    -0.244 NA
ATOM     11  C   UNL d   1       8.617   3.095 -14.086  0.00  0.00     0.083 A 
ATOM     12  C   UNL d   1       7.626   2.190 -14.499  0.00  0.00     0.020 A 
ATOM     13  C   UNL d   1       6.293   2.432 -14.193  0.00  0.00     0.013 A 
ATOM     14  C   UNL d   1       5.970   3.606 -13.534  0.00  0.00     0.058 A 
ATOM     15 CL   UNL d   1       4.360   3.981 -13.247  0.00  0.00    -0.082 Cl
ATOM     16  C   UNL d   1       6.912   4.522 -13.109  0.00  0.00     0.014 A 
ATOM     17  C   UNL d   1       8.260   4.235 -13.326  0.00  0.00     0.036 A 
ENDROOT
BRANCH   1  18
ATOM     18  C   UNL d   1       9.106   5.686 -11.348  0.00  0.00    -0.005 C 
ATOM     19  C   UNL d   1       9.856   6.692 -10.833  0.00  0.00    -0.007 C 
ATOM     20  C   UNL d   1       9.810   7.216  -9.417  0.00  0.00     0.099 C 
ATOM     21  C   UNL d   1      11.081   6.817  -8.680  0.00  0.00     0.029 C 
ATOM     22  N   UNL d   1       8.710   6.667  -8.646  0.00  0.00    -0.365 N 
ATOM     23  C   UNL d   1       8.437   5.276  -8.886  0.00  0.00     0.102 C 
ATOM     24  C   UNL d   1       8.652   7.069  -7.266  0.00  0.00     0.121 C 
ATOM     25  C   UNL d   1       8.123   5.049 -10.388  0.00  0.00     0.051 C 
ENDBRANCH   1  18
TORSDOF 1
