REMARK  11 active torsions:
REMARK  status: ('A' for Active; 'I' for Inactive)
REMARK    1  A    between atoms: C_2  and  C_3 
REMARK    2  A    between atoms: C_3  and  N_4 
REMARK    3  A    between atoms: N_4  and  C_5 
REMARK    4  A    between atoms: N_4  and  C_21 
REMARK    5  A    between atoms: C_5  and  C_6 
REMARK    6  A    between atoms: C_6  and  C_7 
REMARK    7  A    between atoms: C_7  and  C_8 
REMARK    8  A    between atoms: C_8  and  N_9 
REMARK       I    between atoms: N_9  and  C_10 
REMARK    9  A    between atoms: C_10  and  C_12 
REMARK   10  A    between atoms: C_21  and  C_22 
REMARK   11  A    between atoms: C_24  and  C_25 
ROOT
ATOM      1  C   UNL d   1       9.406   4.830 -12.702  0.00  0.00     0.250 C 
ENDROOT
BRANCH   1   2
ATOM      2  N   UNL d   1       9.148   4.562 -14.110  0.00  0.00     0.137 N 
BRANCH   2   3
ATOM      3  C   UNL d   1      10.297   4.912 -14.946  0.00  0.00     0.250 C 
BRANCH   3   4
ATOM      4  C   UNL d   1       9.955   4.958 -16.449  0.00  0.00     0.035 C 
ATOM      5  C   UNL d   1      11.176   5.374 -17.273  0.00  0.00     0.002 C 
ENDBRANCH   3   4
ENDBRANCH   2   3
BRANCH   2   6
ATOM      6  C   UNL d   1       8.684   3.185 -14.319  0.00  0.00     0.251 C 
BRANCH   6   7
ATOM      7  C   UNL d   1       9.804   2.152 -14.249  0.00  0.00     0.038 A 
ATOM      8  C   UNL d   1       9.531   0.714 -14.632  0.00  0.00     0.024 A 
ATOM      9  C   UNL d   1      10.411   1.574 -15.513  0.00  0.00     0.007 A 
BRANCH   8  10
ATOM     10  C   UNL d   1       8.136   0.338 -15.042  0.00  0.00    -0.022 A 
ATOM     11  C   UNL d   1       7.752   0.351 -16.385  0.00  0.00    -0.002 A 
ATOM     12  C   UNL d   1       6.436   0.016 -16.761  0.00  0.00     0.029 A 
ATOM     13  C   UNL d   1       5.503  -0.357 -15.769  0.00  0.00     0.140 A 
ATOM     14  C   UNL d   1       5.875  -0.357 -14.415  0.00  0.00     0.029 A 
ATOM     15  F   UNL d   1       4.246  -0.715 -16.121  0.00  0.00    -0.204 F 
ATOM     16  C   UNL d   1       7.194  -0.002 -14.046  0.00  0.00    -0.002 A 
ENDBRANCH   8  10
ENDBRANCH   6   7
ENDBRANCH   2   6
ENDBRANCH   1   2
BRANCH   1  17
ATOM     17  C   UNL d   1       8.113   4.890 -11.864  0.00  0.00     0.037 C 
BRANCH  17  18
ATOM     18  C   UNL d   1       8.353   5.660 -10.571  0.00  0.00     0.029 C 
BRANCH  18  19
ATOM     19  C   UNL d   1       9.289   4.939  -9.581  0.00  0.00     0.129 C 
BRANCH  19  20
ATOM     20  N   UNL d   1       9.682   5.764  -8.450  0.00  0.00    -0.233 NA
ATOM     21  C   UNL d   1      10.300   6.950  -8.511  0.00  0.00     0.293 C 
ATOM     22  O   UNL d   1      10.590   7.538  -9.557  0.00  0.00    -0.264 OA
BRANCH  21  23
ATOM     23  C   UNL d   1      10.629   7.567  -7.222  0.00  0.00     0.139 A 
ATOM     24  N   UNL d   1      11.050   6.767  -6.176  0.00  0.00    -0.241 NA
ATOM     25  C   UNL d   1      11.375   7.529  -5.080  0.00  0.00     0.082 A 
ATOM     26  C   UNL d   1      11.122   8.875  -5.462  0.00  0.00     0.019 A 
ATOM     27  C   UNL d   1      11.863   7.186  -3.807  0.00  0.00     0.019 A 
ATOM     28  C   UNL d   1      10.660   8.873  -6.821  0.00  0.00     0.025 A 
ATOM     29  C   UNL d   1      11.367   9.880  -4.507  0.00  0.00     0.002 A 
ATOM     30  C   UNL d   1      11.861   9.553  -3.229  0.00  0.00     0.000 A 
ATOM     31  C   UNL d   1      12.112   8.211  -2.875  0.00  0.00     0.002 A 
ENDBRANCH  21  23
ENDBRANCH  19  20
ENDBRANCH  18  19
ENDBRANCH  17  18
ENDBRANCH   1  17
TORSDOF 11
