REMARK  7 active torsions:
REMARK  status: ('A' for Active; 'I' for Inactive)
REMARK    1  A    between atoms: O_2  and  C_3 
REMARK    2  A    between atoms: C_9  and  C_10 
REMARK    3  A    between atoms: N_13  and  C_14 
REMARK    4  A    between atoms: C_14  and  C_15 
REMARK    5  A    between atoms: C_15  and  C_16 
REMARK    6  A    between atoms: C_16  and  N_17 
REMARK    7  A    between atoms: C_21  and  C_22 
ROOT
ATOM      1  C   UNL d   1       8.079   6.158 -11.130  0.00  0.00     0.252 C 
ENDROOT
BRANCH   1   2
ATOM      2  N   UNL d   1       8.269   5.283 -12.258  0.00  0.00     0.137 N 
ATOM      3  C   UNL d   1       6.979   5.190 -12.925  0.00  0.00     0.251 C 
ATOM      4  C   UNL d   1       7.190   4.377 -14.196  0.00  0.00     0.040 C 
ATOM      5  C   UNL d   1       7.749   2.981 -13.996  0.00  0.00     0.028 C 
ATOM      6  C   UNL d   1       9.000   3.150 -13.102  0.00  0.00     0.040 C 
ATOM      7  C   UNL d   1       8.673   3.964 -11.859  0.00  0.00     0.251 C 
BRANCH   5   8
ATOM      8  C   UNL d   1       8.063   2.284 -15.304  0.00  0.00    -0.002 A 
ATOM      9  C   UNL d   1       7.247   1.374 -15.936  0.00  0.00     0.095 A 
ATOM     10  N   UNL d   1       7.859   0.923 -17.099  0.00  0.00    -0.244 NA
ATOM     11  C   UNL d   1       9.095   1.524 -17.254  0.00  0.00     0.081 A 
ATOM     12  C   UNL d   1      10.088   1.403 -18.249  0.00  0.00     0.021 A 
ATOM     13  C   UNL d   1       9.244   2.408 -16.143  0.00  0.00     0.017 A 
ATOM     14  C   UNL d   1      11.279   2.157 -18.150  0.00  0.00     0.026 A 
ATOM     15  C   UNL d   1      11.468   3.042 -17.065  0.00  0.00     0.094 A 
ATOM     16  C   UNL d   1      10.442   3.175 -16.092  0.00  0.00     0.025 A 
BRANCH  15  17
ATOM     17  O   UNL d   1      12.655   3.750 -17.014  0.00  0.00    -0.328 OA
ATOM     18  C   UNL d   1      12.918   4.535 -15.852  0.00  0.00     0.181 C 
ENDBRANCH  15  17
ENDBRANCH   5   8
ENDBRANCH   1   2
BRANCH   1  19
ATOM     19  C   UNL d   1       9.333   6.281 -10.258  0.00  0.00     0.060 C 
BRANCH  19  20
ATOM     20  C   UNL d   1       9.220   7.470  -9.309  0.00  0.00     0.114 C 
BRANCH  20  21
ATOM     21  N   UNL d   1      10.401   7.632  -8.502  0.00  0.00    -0.270 N 
ATOM     22  C   UNL d   1      10.455   7.225  -7.233  0.00  0.00     0.243 A 
ATOM     23  C   UNL d   1      11.816   7.529  -6.694  0.00  0.00     0.113 A 
ATOM     24  O   UNL d   1       9.576   6.672  -6.587  0.00  0.00    -0.272 OA
ATOM     25  C   UNL d   1      12.582   8.183  -7.857  0.00  0.00     0.102 A 
ATOM     26  C   UNL d   1      11.523   8.218  -8.931  0.00  0.00     0.240 A 
ATOM     27  O   UNL d   1      11.738   8.711 -10.027  0.00  0.00    -0.272 OA
BRANCH  23  28
ATOM     28  C   UNL d   1      11.697   8.415  -5.524  0.00  0.00     0.007 C 
ATOM     29  C   UNL d   1      11.918   8.013  -4.170  0.00  0.00     0.016 C 
ATOM     30  C   UNL d   1      11.837   9.186  -3.356  0.00  0.00     0.081 C 
ATOM     31  C   UNL d   1      12.242   6.787  -3.526  0.00  0.00     0.001 C 
ATOM     32  N   UNL d   1      11.366  10.175  -4.186  0.00  0.00    -0.244 NA
ATOM     33  C   UNL d   1      12.148   9.168  -2.005  0.00  0.00     0.019 C 
ATOM     34  C   UNL d   1      11.368   9.743  -5.495  0.00  0.00     0.095 C 
ATOM     35  C   UNL d   1      12.628   7.994  -1.475  0.00  0.00     0.002 C 
ATOM     36  C   UNL d   1      12.659   6.797  -2.184  0.00  0.00     0.000 C 
ENDBRANCH  23  28
ENDBRANCH  20  21
ENDBRANCH  19  20
ENDBRANCH   1  19
TORSDOF 7
