REMARK  5 active torsions:
REMARK  status: ('A' for Active; 'I' for Inactive)
REMARK    1  A    between atoms: C_2  and  C_3 
REMARK       I    between atoms: C_2  and  N_19 
REMARK    2  A    between atoms: C_3  and  C_4 
REMARK    3  A    between atoms: C_4  and  N_5 
REMARK    4  A    between atoms: N_8  and  C_9 
REMARK    5  A    between atoms: C_9  and  C_10 
ROOT
ATOM      1  N   UNL d   1       9.745   3.311 -14.543  0.00  0.00     0.142 N 
ATOM      2  C   UNL d   1       9.367   4.661 -14.956  0.00  0.00     0.285 C 
ATOM      3  C   UNL d   1       8.489   5.354 -13.889  0.00  0.00     0.286 C 
ATOM      4  N   UNL d   1       9.185   5.459 -12.612  0.00  0.00     0.146 N 
ATOM      5  C   UNL d   1       9.546   4.111 -12.199  0.00  0.00     0.286 C 
ATOM      6  C   UNL d   1      10.418   3.409 -13.256  0.00  0.00     0.285 C 
ENDROOT
BRANCH   1   7
ATOM      7  C   UNL d   1      10.593   2.649 -15.539  0.00  0.00     0.260 C 
BRANCH   7   8
ATOM      8  C   UNL d   1       9.822   1.803 -16.561  0.00  0.00     0.123 C 
BRANCH   8   9
ATOM      9  C   UNL d   1       9.107   0.605 -15.925  0.00  0.00     0.239 C 
ATOM     10  O   UNL d   1       9.747  -0.117 -15.157  0.00  0.00    -0.272 OA
ATOM     11  N   UNL d   1       7.816   0.384 -16.228  0.00  0.00    -0.299 N 
ATOM     12  C   UNL d   1       7.246   0.486 -17.521  0.00  0.00     0.058 A 
ATOM     13  C   UNL d   1       6.799  -0.027 -15.248  0.00  0.00     0.114 A 
ATOM     14  C   UNL d   1       5.873   0.261 -17.451  0.00  0.00    -0.004 A 
ATOM     15  C   UNL d   1       7.877   0.678 -18.771  0.00  0.00     0.017 A 
ATOM     16  C   UNL d   1       5.457  -0.020 -16.027  0.00  0.00     0.052 A 
ATOM     17  C   UNL d   1       5.071   0.281 -18.610  0.00  0.00    -0.003 A 
ATOM     18  C   UNL d   1       5.684   0.520 -19.858  0.00  0.00    -0.000 A 
ATOM     19  C   UNL d   1       7.082   0.712 -19.937  0.00  0.00     0.002 A 
ENDBRANCH   8   9
ENDBRANCH   7   8
ENDBRANCH   1   7
BRANCH   4  20
ATOM     20  C   UNL d   1       8.361   6.130 -11.608  0.00  0.00     0.277 C 
BRANCH  20  21
ATOM     21  C   UNL d   1       9.154   6.539 -10.383  0.00  0.00     0.011 A 
ATOM     22  C   UNL d   1       9.116   5.764  -9.206  0.00  0.00    -0.002 A 
ATOM     23  C   UNL d   1       9.827   6.191  -8.067  0.00  0.00     0.011 A 
ATOM     24  C   UNL d   1      10.561   7.392  -8.096  0.00  0.00     0.058 A 
ATOM     25  C   UNL d   1      10.595   8.169  -9.269  0.00  0.00     0.011 A 
ATOM     26 CL   UNL d   1      11.423   7.915  -6.699  0.00  0.00    -0.082 Cl
ATOM     27  C   UNL d   1       9.889   7.743 -10.409  0.00  0.00    -0.002 A 
ENDBRANCH  20  21
ENDBRANCH   4  20
TORSDOF 5
