REMARK  11 active torsions:
REMARK  status: ('A' for Active; 'I' for Inactive)
REMARK    1  A    between atoms: O_2  and  C_3 
REMARK    2  A    between atoms: C_8  and  N_9 
REMARK    3  A    between atoms: N_12  and  C_13 
REMARK    4  A    between atoms: C_13  and  C_14 
REMARK    5  A    between atoms: C_14  and  C_15 
REMARK    6  A    between atoms: C_15  and  C_16 
REMARK    7  A    between atoms: C_16  and  C_17 
REMARK    8  A    between atoms: C_17  and  N_18 
REMARK       I    between atoms: N_18  and  C_19 
REMARK    9  A    between atoms: C_19  and  C_21 
REMARK   10  A    between atoms: C_25  and  C_26 
REMARK   11  A    between atoms: C_27  and  C_28 
ROOT
ATOM      1  C   UNL d   1       7.061   4.007 -13.031  0.00  0.00     0.026 C 
ENDROOT
BRANCH   1   2
ATOM      2  C   UNL d   1       5.975   2.945 -13.290  0.00  0.00     0.004 C 
BRANCH   2   3
ATOM      3  C   UNL d   1       6.294   2.125 -14.542  0.00  0.00     0.035 C 
BRANCH   3   4
ATOM      4  C   UNL d   1       7.660   1.385 -14.507  0.00  0.00     0.250 C 
BRANCH   4   5
ATOM      5  N   UNL d   1       8.117   0.963 -15.835  0.00  0.00     0.141 N 
ATOM      6  C   UNL d   1       8.380   2.103 -16.737  0.00  0.00     0.274 C 
ATOM      7  C   UNL d   1       8.938   1.611 -18.080  0.00  0.00     0.137 C 
ATOM      8  N   UNL d   1       8.013   0.633 -18.651  0.00  0.00    -0.343 N 
ATOM      9  C   UNL d   1       7.707  -0.498 -17.780  0.00  0.00     0.137 C 
ATOM     10  C   UNL d   1       7.168   0.016 -16.438  0.00  0.00     0.274 C 
BRANCH   8  11
ATOM     11  C   UNL d   1       7.502   0.763 -19.948  0.00  0.00     0.079 A 
ATOM     12  C   UNL d   1       6.135   0.514 -20.259  0.00  0.00     0.110 A 
ATOM     13  C   UNL d   1       5.709   0.661 -21.607  0.00  0.00     0.026 A 
ATOM     14  C   UNL d   1       6.604   1.066 -22.611  0.00  0.00     0.002 A 
ATOM     15  C   UNL d   1       7.944   1.318 -22.292  0.00  0.00     0.002 A 
ATOM     16  C   UNL d   1       8.392   1.163 -20.970  0.00  0.00     0.019 A 
BRANCH  12  17
ATOM     17  O   UNL d   1       5.275   0.169 -19.234  0.00  0.00    -0.327 OA
ATOM     18  C   UNL d   1       3.929  -0.152 -19.553  0.00  0.00     0.181 C 
ENDBRANCH  12  17
ENDBRANCH   8  11
ENDBRANCH   4   5
ENDBRANCH   3   4
ENDBRANCH   2   3
ENDBRANCH   1   2
BRANCH   1  19
ATOM     19  C   UNL d   1       6.612   5.112 -12.084  0.00  0.00     0.129 C 
BRANCH  19  20
ATOM     20  N   UNL d   1       7.736   5.918 -11.633  0.00  0.00    -0.234 NA
ATOM     21  C   UNL d   1       8.567   5.591 -10.630  0.00  0.00     0.275 C 
ATOM     22  O   UNL d   1       8.564   4.495 -10.061  0.00  0.00    -0.266 OA
BRANCH  21  23
ATOM     23  C   UNL d   1       9.455   6.685 -10.120  0.00  0.00     0.058 A 
ATOM     24  C   UNL d   1       9.856   6.696  -8.766  0.00  0.00     0.013 A 
ATOM     25  C   UNL d   1      10.662   7.742  -8.268  0.00  0.00     0.042 A 
ATOM     26  C   UNL d   1      11.081   8.781  -9.115  0.00  0.00     0.008 A 
ATOM     27  C   UNL d   1      10.689   8.758 -10.449  0.00  0.00     0.001 A 
ATOM     28  C   UNL d   1       9.861   7.741 -10.962  0.00  0.00     0.005 A 
BRANCH  25  29
ATOM     29  C   UNL d   1      11.065   7.758  -6.888  0.00  0.00    -0.059 C 
ATOM     30  C   UNL d   1      11.428   7.822  -5.727  0.00  0.00    -0.059 C 
BRANCH  30  31
ATOM     31  C   UNL d   1      11.835   7.886  -4.347  0.00  0.00     0.042 A 
ATOM     32  C   UNL d   1      11.858   9.121  -3.672  0.00  0.00     0.008 A 
ATOM     33  C   UNL d   1      12.256   9.157  -2.326  0.00  0.00     0.001 A 
ATOM     34  C   UNL d   1      12.642   7.974  -1.663  0.00  0.00     0.000 A 
ATOM     35  C   UNL d   1      12.596   6.745  -2.342  0.00  0.00     0.001 A 
ATOM     36  C   UNL d   1      12.196   6.700  -3.684  0.00  0.00     0.008 A 
ENDBRANCH  30  31
ENDBRANCH  25  29
ENDBRANCH  21  23
ENDBRANCH  19  20
ENDBRANCH   1  19
TORSDOF 11
