REMARK  6 active torsions:
REMARK  status: ('A' for Active; 'I' for Inactive)
REMARK    1  A    between atoms: C_7  and  C_8 
REMARK    2  A    between atoms: C_8  and  C_9 
REMARK    3  A    between atoms: C_9  and  C_10 
REMARK    4  A    between atoms: C_10  and  N_11 
REMARK       I    between atoms: N_11  and  C_12 
REMARK       I    between atoms: N_14  and  C_15 
REMARK       I    between atoms: C_15  and  N_17 
REMARK    5  A    between atoms: N_17  and  C_18 
REMARK    6  A    between atoms: C_18  and  C_20 
ROOT
ATOM      1  N   UNL d   1       9.326   5.468  -9.573  0.00  0.00    -0.241 NA
ATOM      2  C   UNL d   1       9.319   6.254  -8.449  0.00  0.00     0.237 C 
ATOM      3  N   UNL d   1       8.259   5.901  -7.602  0.00  0.00    -0.060 NA
ATOM      4  N   UNL d   1      10.207   7.174  -8.265  0.00  0.00    -0.159 NA
ATOM      5  C   UNL d   1      10.264   7.917  -7.068  0.00  0.00     0.367 C 
ATOM      6  O   UNL d   1       9.434   7.926  -6.157  0.00  0.00    -0.243 OA
ATOM      7  N   UNL d   1      11.398   8.595  -6.985  0.00  0.00    -0.215 NA
ENDROOT
BRANCH   1   8
ATOM      8  C   UNL d   1       9.619   6.021 -10.878  0.00  0.00     0.129 C 
BRANCH   8   9
ATOM      9  C   UNL d   1       9.433   4.967 -11.974  0.00  0.00     0.032 C 
BRANCH   9  10
ATOM     10  C   UNL d   1       8.108   5.113 -12.739  0.00  0.00     0.036 C 
BRANCH  10  11
ATOM     11  C   UNL d   1       7.724   3.876 -13.487  0.00  0.00     0.023 A 
ATOM     12  C   UNL d   1       6.527   3.188 -13.434  0.00  0.00     0.063 A 
ATOM     13  C   UNL d   1       5.327   3.543 -12.611  0.00  0.00     0.052 C 
ATOM     14  N   UNL d   1       6.499   2.049 -14.232  0.00  0.00    -0.230 NA
ATOM     15  C   UNL d   1       7.639   1.867 -14.895  0.00  0.00     0.180 A 
ATOM     16  N   UNL d   1       7.871   0.830 -15.777  0.00  0.00    -0.072 NA
ATOM     17  S   UNL d   1       8.853   3.090 -14.566  0.00  0.00    -0.057 SA
ENDBRANCH  10  11
ENDBRANCH   9  10
ENDBRANCH   8   9
ENDBRANCH   1   8
BRANCH   7  18
ATOM     18  C   UNL d   1      11.832   9.413  -5.839  0.00  0.00     0.130 C 
ATOM     19  C   UNL d   1      10.855  10.580  -5.621  0.00  0.00     0.031 C 
BRANCH  18  20
ATOM     20  C   UNL d   1      12.040   8.653  -4.526  0.00  0.00    -0.000 A 
ATOM     21  C   UNL d   1      12.437   9.331  -3.341  0.00  0.00    -0.002 A 
ATOM     22  C   UNL d   1      12.650   8.651  -2.124  0.00  0.00    -0.000 A 
ATOM     23  C   UNL d   1      12.426   7.270  -2.092  0.00  0.00    -0.000 A 
ATOM     24  C   UNL d   1      12.026   6.614  -3.252  0.00  0.00    -0.000 A 
ATOM     25  C   UNL d   1      11.860   7.262  -4.490  0.00  0.00    -0.002 A 
ENDBRANCH  18  20
ENDBRANCH   7  18
TORSDOF 6
