REMARK  4 active torsions:
REMARK  status: ('A' for Active; 'I' for Inactive)
REMARK    1  A    between atoms: C_8  and  C_9 
REMARK    2  A    between atoms: C_9  and  C_10 
REMARK    3  A    between atoms: C_10  and  N_11 
REMARK    4  A    between atoms: N_14  and  C_15 
ROOT
ATOM      1  N   UNL d   1       8.148   5.549 -11.678  0.00  0.00     0.141 N 
ATOM      2  C   UNL d   1       9.042   4.516 -12.203  0.00  0.00     0.274 C 
ATOM      3  C   UNL d   1       8.614   4.110 -13.591  0.00  0.00     0.137 C 
ATOM      4  N   UNL d   1       7.231   3.645 -13.599  0.00  0.00    -0.343 N 
ATOM      5  C   UNL d   1       6.264   4.542 -12.963  0.00  0.00     0.137 C 
ATOM      6  C   UNL d   1       6.793   4.996 -11.601  0.00  0.00     0.274 C 
ENDROOT
BRANCH   1   7
ATOM      7  C   UNL d   1       8.551   5.883 -10.324  0.00  0.00     0.255 C 
BRANCH   7   8
ATOM      8  C   UNL d   1       9.963   6.504 -10.277  0.00  0.00     0.068 C 
BRANCH   8   9
ATOM      9  C   UNL d   1      10.327   7.346  -9.054  0.00  0.00     0.050 A 
ATOM     10  C   UNL d   1      10.979   8.533  -9.118  0.00  0.00     0.061 A 
ATOM     11  C   UNL d   1      11.333   9.186 -10.420  0.00  0.00     0.052 C 
ATOM     12  N   UNL d   1      11.390   9.206  -7.986  0.00  0.00    -0.234 NA
ATOM     13  C   UNL d   1      11.194   8.700  -6.825  0.00  0.00     0.153 A 
ATOM     14  C   UNL d   1      11.608   9.448  -5.548  0.00  0.00     0.208 C 
ATOM     15  N   UNL d   1      10.594   7.431  -6.681  0.00  0.00    -0.283 N 
ATOM     16  C   UNL d   1      12.171   8.553  -4.427  0.00  0.00     0.043 C 
ATOM     17  O   UNL d   1      10.527  10.171  -4.999  0.00  0.00    -0.215 OA
ATOM     18  C   UNL d   1      11.581   7.118  -4.416  0.00  0.00     0.028 C 
ATOM     19  C   UNL d   1      10.362   6.953  -5.336  0.00  0.00     0.111 C 
ATOM     20  C   UNL d   1      10.111   6.738  -7.750  0.00  0.00     0.259 A 
ATOM     21  O   UNL d   1       9.549   5.654  -7.641  0.00  0.00    -0.267 OA
ENDBRANCH   8   9
ENDBRANCH   7   8
ENDBRANCH   1   7
BRANCH   4  22
ATOM     22  C   UNL d   1       6.884   2.401 -14.139  0.00  0.00     0.076 A 
ATOM     23  C   UNL d   1       7.518   1.849 -15.299  0.00  0.00     0.025 A 
ATOM     24  C   UNL d   1       7.033   0.575 -15.730  0.00  0.00     0.050 A 
ATOM     25  C   UNL d   1       8.550   2.357 -16.184  0.00  0.00     0.009 A 
ATOM     26  C   UNL d   1       6.018  -0.082 -15.018  0.00  0.00     0.105 A 
ATOM     27  S   UNL d   1       7.857   0.054 -17.195  0.00  0.00    -0.085 SA
ATOM     28  N   UNL d   1       5.448   0.425 -13.928  0.00  0.00    -0.240 NA
ATOM     29  C   UNL d   1       5.857   1.629 -13.501  0.00  0.00     0.116 A 
ATOM     30  C   UNL d   1       8.846   1.482 -17.185  0.00  0.00     0.035 A 
ENDBRANCH   4  22
TORSDOF 4
