REMARK  7 active torsions:
REMARK  status: ('A' for Active; 'I' for Inactive)
REMARK    1  A    between atoms: O_2  and  C_3 
REMARK    2  A    between atoms: C_8  and  N_9 
REMARK    3  A    between atoms: N_12  and  C_13 
REMARK    4  A    between atoms: C_13  and  C_14 
REMARK    5  A    between atoms: C_14  and  C_15 
REMARK    6  A    between atoms: C_15  and  N_16 
REMARK       I    between atoms: N_16  and  C_17 
REMARK    7  A    between atoms: C_17  and  C_19 
ROOT
ATOM      1  N   UNL d   1       7.780   4.449 -13.223  0.00  0.00    -0.343 N 
ATOM      2  C   UNL d   1       8.554   5.568 -13.715  0.00  0.00     0.137 C 
ATOM      3  C   UNL d   1       9.527   6.065 -12.640  0.00  0.00     0.274 C 
ATOM      4  N   UNL d   1       8.802   6.383 -11.416  0.00  0.00     0.141 N 
ATOM      5  C   UNL d   1       8.173   5.176 -10.891  0.00  0.00     0.274 C 
ATOM      6  C   UNL d   1       7.149   4.635 -11.919  0.00  0.00     0.137 C 
ENDROOT
BRANCH   4   7
ATOM      7  C   UNL d   1       9.729   6.933 -10.424  0.00  0.00     0.253 C 
BRANCH   7   8
ATOM      8  C   UNL d   1       9.981   8.432 -10.656  0.00  0.00     0.062 C 
BRANCH   8   9
ATOM      9  C   UNL d   1      11.308   8.896 -10.031  0.00  0.00     0.131 C 
BRANCH   9  10
ATOM     10  N   UNL d   1      11.464   8.591  -8.612  0.00  0.00    -0.234 NA
ATOM     11  C   UNL d   1      10.548   8.775  -7.644  0.00  0.00     0.275 C 
ATOM     12  O   UNL d   1       9.396   9.144  -7.821  0.00  0.00    -0.266 OA
BRANCH  11  13
ATOM     13  C   UNL d   1      11.060   8.593  -6.250  0.00  0.00     0.058 A 
ATOM     14  C   UNL d   1      11.451   7.322  -5.782  0.00  0.00     0.005 A 
ATOM     15  C   UNL d   1      11.864   7.176  -4.444  0.00  0.00     0.006 A 
ATOM     16  C   UNL d   1      11.888   8.303  -3.593  0.00  0.00     0.030 A 
ATOM     17  C   UNL d   1      11.477   9.569  -4.062  0.00  0.00     0.006 A 
ATOM     18  I   UNL d   1      12.564   8.138  -1.633  0.00  0.00    -0.043 I 
ATOM     19  C   UNL d   1      11.063   9.710  -5.395  0.00  0.00     0.005 A 
ENDBRANCH  11  13
ENDBRANCH   9  10
ENDBRANCH   8   9
ENDBRANCH   7   8
ENDBRANCH   4   7
BRANCH   1  20
ATOM     20  C   UNL d   1       7.776   3.192 -13.878  0.00  0.00     0.079 A 
ATOM     21  C   UNL d   1       8.968   2.597 -14.328  0.00  0.00     0.110 A 
ATOM     22  C   UNL d   1       8.899   1.314 -14.971  0.00  0.00     0.026 A 
ATOM     23  C   UNL d   1       7.659   0.675 -15.140  0.00  0.00     0.002 A 
ATOM     24  C   UNL d   1       6.484   1.277 -14.677  0.00  0.00     0.002 A 
ATOM     25  C   UNL d   1       6.551   2.542 -14.034  0.00  0.00     0.019 A 
BRANCH  21  26
ATOM     26  O   UNL d   1      10.171   3.238 -14.100  0.00  0.00    -0.327 OA
ATOM     27  C   UNL d   1      11.378   2.594 -14.451  0.00  0.00     0.181 C 
ENDBRANCH  21  26
ENDBRANCH   1  20
TORSDOF 7
