REMARK  8 active torsions:
REMARK  status: ('A' for Active; 'I' for Inactive)
REMARK    1  A    between atoms: O_2  and  C_3 
REMARK    2  A    between atoms: C_8  and  N_9 
REMARK    3  A    between atoms: N_12  and  C_13 
REMARK    4  A    between atoms: C_13  and  C_14 
REMARK    5  A    between atoms: C_14  and  C_16 
REMARK    6  A    between atoms: C_16  and  C_17 
REMARK    7  A    between atoms: C_17  and  N_18 
REMARK    8  A    between atoms: C_20  and  C_21 
ROOT
ATOM      1  C   UNL d   1       8.867   4.482 -12.661  0.00  0.00     0.132 C 
ENDROOT
BRANCH   1   2
ATOM      2  C   UNL d   1      10.083   4.169 -13.553  0.00  0.00     0.061 C 
BRANCH   2   3
ATOM      3  C   UNL d   1       9.941   2.871 -14.364  0.00  0.00     0.188 C 
ATOM      4  O   UNL d   1      11.124   2.776 -15.131  0.00  0.00    -0.221 OA
BRANCH   3   5
ATOM      5  C   UNL d   1       8.685   2.881 -15.258  0.00  0.00     0.283 C 
BRANCH   5   6
ATOM      6  N   UNL d   1       8.289   1.587 -15.792  0.00  0.00     0.144 N 
ATOM      7  C   UNL d   1       9.076   1.218 -16.975  0.00  0.00     0.274 C 
ATOM      8  C   UNL d   1       8.678  -0.158 -17.521  0.00  0.00     0.137 C 
ATOM      9  N   UNL d   1       7.241  -0.178 -17.805  0.00  0.00    -0.343 N 
ATOM     10  C   UNL d   1       6.388   0.246 -16.692  0.00  0.00     0.137 C 
ATOM     11  C   UNL d   1       6.870   1.598 -16.157  0.00  0.00     0.274 C 
BRANCH   9  12
ATOM     12  C   UNL d   1       6.739  -0.531 -19.073  0.00  0.00     0.079 A 
ATOM     13  C   UNL d   1       5.499  -1.224 -19.231  0.00  0.00     0.110 A 
ATOM     14  C   UNL d   1       5.066  -1.554 -20.542  0.00  0.00     0.026 A 
ATOM     15  C   UNL d   1       5.847  -1.238 -21.669  0.00  0.00     0.002 A 
ATOM     16  C   UNL d   1       7.066  -0.567 -21.511  0.00  0.00     0.002 A 
ATOM     17  C   UNL d   1       7.498  -0.201 -20.228  0.00  0.00     0.019 A 
BRANCH  13  18
ATOM     18  O   UNL d   1       4.781  -1.572 -18.102  0.00  0.00    -0.327 OA
ATOM     19  C   UNL d   1       3.543  -2.249 -18.254  0.00  0.00     0.181 C 
ENDBRANCH  13  18
ENDBRANCH   9  12
ENDBRANCH   5   6
ENDBRANCH   3   5
ENDBRANCH   2   3
ENDBRANCH   1   2
BRANCH   1  20
ATOM     20  N   UNL d   1       9.143   5.557 -11.744  0.00  0.00    -0.230 N 
ATOM     21  N   UNL d   1       9.100   6.835 -12.173  0.00  0.00    -0.064 NA
ATOM     22  N   UNL d   1       9.469   7.575 -11.182  0.00  0.00    -0.129 NA
ATOM     23  C   UNL d   1       9.666   6.779 -10.047  0.00  0.00     0.123 A 
ATOM     24  C   UNL d   1       9.455   5.479 -10.408  0.00  0.00     0.118 A 
BRANCH  23  25
ATOM     25  C   UNL d   1      10.050   7.336  -8.746  0.00  0.00     0.021 A 
ATOM     26  C   UNL d   1      10.529   6.476  -7.730  0.00  0.00    -0.002 A 
ATOM     27  C   UNL d   1      10.908   7.029  -6.495  0.00  0.00    -0.018 A 
ATOM     28  C   UNL d   1      10.815   8.393  -6.261  0.00  0.00    -0.004 A 
ATOM     29  C   UNL d   1      11.470   6.311  -5.284  0.00  0.00     0.053 A 
ATOM     30  C   UNL d   1      10.345   9.259  -7.243  0.00  0.00    -0.000 A 
ATOM     31  C   UNL d   1      11.291   8.664  -4.918  0.00  0.00    -0.004 A 
ATOM     32  C   UNL d   1       9.945   8.727  -8.491  0.00  0.00     0.002 A 
ATOM     33  C   UNL d   1      11.687   7.462  -4.337  0.00  0.00    -0.018 A 
ATOM     34  C   UNL d   1      11.364   9.865  -4.208  0.00  0.00    -0.000 A 
ATOM     35  C   UNL d   1      12.171   7.392  -3.015  0.00  0.00    -0.004 A 
ATOM     36  C   UNL d   1      12.264   8.600  -2.294  0.00  0.00    -0.000 A 
ATOM     37  C   UNL d   1      11.859   9.816  -2.891  0.00  0.00    -0.000 A 
ENDBRANCH  23  25
ENDBRANCH   1  20
TORSDOF 8
