REMARK  7 active torsions:
REMARK  status: ('A' for Active; 'I' for Inactive)
REMARK       I    between atoms: N_2  and  C_4 
REMARK       I    between atoms: C_4  and  N_6 
REMARK    1  A    between atoms: N_6  and  C_7 
REMARK    2  A    between atoms: C_10  and  C_11 
REMARK    3  A    between atoms: C_11  and  C_12 
REMARK    4  A    between atoms: C_12  and  N_13 
REMARK    5  A    between atoms: N_13  and  C_14 
REMARK    6  A    between atoms: C_14  and  C_15 
REMARK    7  A    between atoms: C_17  and  C_18 
ROOT
ATOM      1  C   UNL d   1       8.915   6.846 -11.180  0.00  0.00     0.290 C 
ENDROOT
BRANCH   1   2
ATOM      2  C   UNL d   1       9.738   7.953 -10.535  0.00  0.00     0.038 C 
BRANCH   2   3
ATOM      3  C   UNL d   1      10.353   7.541  -9.187  0.00  0.00     0.002 C 
ATOM      4  C   UNL d   1      11.334   8.627  -8.713  0.00  0.00     0.002 C 
ATOM      5  C   UNL d   1      11.939   8.273  -7.356  0.00  0.00     0.025 C 
ATOM      6  C   UNL d   1      10.850   8.035  -6.294  0.00  0.00     0.108 C 
ATOM      7  C   UNL d   1       9.882   6.939  -6.755  0.00  0.00     0.025 C 
ATOM      8  C   UNL d   1       9.270   7.288  -8.109  0.00  0.00     0.002 C 
BRANCH   6   9
ATOM      9  N   UNL d   1      11.451   7.635  -5.027  0.00  0.00    -0.221 NA
ATOM     10  C   UNL d   1      11.856   8.444  -4.043  0.00  0.00     0.342 C 
ATOM     11  N   UNL d   1      12.248   7.801  -2.919  0.00  0.00    -0.297 N 
ATOM     12  O   UNL d   1      11.856   9.671  -4.154  0.00  0.00    -0.245 OA
ATOM     13  C   UNL d   1      12.759   8.549  -1.773  0.00  0.00     0.130 C 
ATOM     14  C   UNL d   1      12.057   6.365  -2.724  0.00  0.00     0.130 C 
ENDBRANCH   6   9
ENDBRANCH   2   3
ENDBRANCH   1   2
BRANCH   1  15
ATOM     15  N   UNL d   1       9.816   5.947 -11.874  0.00  0.00     0.339 N 
BRANCH  15  16
ATOM     16  C   UNL d   1       9.028   4.926 -12.518  0.00  0.00     0.290 C 
BRANCH  16  17
ATOM     17  C   UNL d   1       9.590   4.546 -13.867  0.00  0.00     0.041 A 
ATOM     18  C   UNL d   1       8.916   3.490 -14.733  0.00  0.00     0.025 A 
ATOM     19  C   UNL d   1      10.256   3.211 -14.075  0.00  0.00     0.007 A 
BRANCH  18  20
ATOM     20  C   UNL d   1       7.667   2.752 -14.313  0.00  0.00    -0.011 C 
ATOM     21  C   UNL d   1       7.574   1.345 -14.432  0.00  0.00     0.064 C 
ATOM     22  C   UNL d   1       6.428   0.680 -13.929  0.00  0.00     0.068 C 
ATOM     23 CL   UNL d   1       8.853   0.424 -15.162  0.00  0.00    -0.082 Cl
ATOM     24  C   UNL d   1       5.429   1.397 -13.261  0.00  0.00     0.012 C 
ATOM     25 CL   UNL d   1       6.247  -1.025 -14.044  0.00  0.00    -0.082 Cl
ATOM     26  C   UNL d   1       5.493   2.793 -13.173  0.00  0.00     0.001 C 
ATOM     27  C   UNL d   1       6.568   3.463 -13.765  0.00  0.00    -0.003 C 
ENDBRANCH  18  20
ENDBRANCH  16  17
ENDBRANCH  15  16
ENDBRANCH   1  15
TORSDOF 7
