REMARK  3 active torsions:
REMARK  status: ('A' for Active; 'I' for Inactive)
REMARK    1  A    between atoms: C_7  and  C_8 
REMARK    2  A    between atoms: C_8  and  N_9 
REMARK    3  A    between atoms: N_12  and  C_13 
ROOT
ATOM      1  N   UNL d   1       8.507   6.248 -11.850  0.00  0.00    -0.298 N 
ATOM      2  C   UNL d   1       7.131   6.000 -11.459  0.00  0.00     0.131 A 
ATOM      3  C   UNL d   1       6.795   4.731 -12.216  0.00  0.00     0.135 A 
ATOM      4  N   UNL d   1       8.018   4.437 -12.963  0.00  0.00    -0.280 N 
ATOM      5  C   UNL d   1       8.971   5.362 -12.734  0.00  0.00     0.328 A 
ATOM      6  O   UNL d   1      10.089   5.407 -13.257  0.00  0.00    -0.247 OA
ENDROOT
BRANCH   1   7
ATOM      7  C   UNL d   1       9.264   7.384 -11.317  0.00  0.00     0.139 C 
BRANCH   7   8
ATOM      8  C   UNL d   1      10.052   7.043 -10.027  0.00  0.00     0.241 C 
ATOM      9  N   UNL d   1      10.615   8.258  -9.412  0.00  0.00     0.139 N 
ATOM     10  C   UNL d   1      11.461   8.967 -10.361  0.00  0.00     0.285 C 
ATOM     11  C   UNL d   1      11.418   7.941  -8.237  0.00  0.00     0.250 C 
ATOM     12  C   UNL d   1      10.554   7.272  -7.153  0.00  0.00     0.035 C 
ATOM     13  C   UNL d   1       9.910   5.999  -7.699  0.00  0.00     0.004 C 
ATOM     14  C   UNL d   1       9.174   6.298  -8.989  0.00  0.00     0.035 C 
ENDBRANCH   7   8
ENDBRANCH   1   7
BRANCH   4  15
ATOM     15  C   UNL d   1       8.136   3.325 -13.859  0.00  0.00     0.065 A 
ATOM     16  C   UNL d   1       9.400   2.776 -14.206  0.00  0.00     0.029 A 
ATOM     17  C   UNL d   1       9.488   1.706 -15.110  0.00  0.00     0.059 A 
ATOM     18  C   UNL d   1       8.323   1.121 -15.649  0.00  0.00     0.011 A 
ATOM     19 CL   UNL d   1      11.037   1.127 -15.585  0.00  0.00    -0.082 Cl
ATOM     20  C   UNL d   1       7.062   1.634 -15.284  0.00  0.00     0.002 A 
ATOM     21  C   UNL d   1       6.974   2.731 -14.399  0.00  0.00     0.017 A 
ENDBRANCH   4  15
TORSDOF 3
