REMARK  7 active torsions:
REMARK  status: ('A' for Active; 'I' for Inactive)
REMARK       I    between atoms: C_2  and  N_3 
REMARK    1  A    between atoms: C_2  and  C_20 
REMARK    2  A    between atoms: N_3  and  C_4 
REMARK    3  A    between atoms: C_4  and  C_5 
REMARK    4  A    between atoms: C_5  and  C_6 
REMARK    5  A    between atoms: C_6  and  C_7 
REMARK    6  A    between atoms: C_7  and  N_8 
REMARK    7  A    between atoms: N_11  and  C_12 
ROOT
ATOM      1  C   UNL d   1       6.246   4.421 -12.599  0.00  0.00     0.029 C 
ENDROOT
BRANCH   1   2
ATOM      2  C   UNL d   1       5.818   2.982 -12.925  0.00  0.00     0.129 C 
BRANCH   2   3
ATOM      3  N   UNL d   1       6.661   2.397 -13.964  0.00  0.00    -0.233 NA
ATOM      4  C   UNL d   1       6.497   1.170 -14.473  0.00  0.00     0.294 C 
ATOM      5  O   UNL d   1       5.559   0.432 -14.171  0.00  0.00    -0.264 OA
BRANCH   4   6
ATOM      6  C   UNL d   1       7.544   0.796 -15.465  0.00  0.00     0.158 A 
ATOM      7  N   UNL d   1       7.269   0.177 -16.679  0.00  0.00    -0.222 NA
ATOM      8  C   UNL d   1       8.446  -0.025 -17.270  0.00  0.00     0.148 A 
ATOM      9  N   UNL d   1       9.495   0.470 -16.455  0.00  0.00    -0.288 N 
ATOM     10  C   UNL d   1       8.805  -0.624 -18.507  0.00  0.00     0.037 A 
ATOM     11  C   UNL d   1       8.896   0.984 -15.317  0.00  0.00     0.106 A 
ATOM     12  C   UNL d   1      10.806   0.393 -16.829  0.00  0.00     0.082 A 
ATOM     13  C   UNL d   1      11.137  -0.181 -18.035  0.00  0.00     0.019 A 
ATOM     14  C   UNL d   1      10.128  -0.696 -18.881  0.00  0.00     0.005 A 
ENDBRANCH   4   6
ENDBRANCH   2   3
ENDBRANCH   1   2
BRANCH   1  15
ATOM     15  C   UNL d   1       7.612   4.513 -11.910  0.00  0.00     0.037 C 
BRANCH  15  16
ATOM     16  C   UNL d   1       7.974   5.938 -11.468  0.00  0.00     0.251 C 
BRANCH  16  17
ATOM     17  N   UNL d   1       9.159   5.947 -10.607  0.00  0.00     0.141 N 
ATOM     18  C   UNL d   1       8.755   5.651  -9.221  0.00  0.00     0.274 C 
ATOM     19  C   UNL d   1       9.969   5.664  -8.284  0.00  0.00     0.137 C 
ATOM     20  N   UNL d   1      10.662   6.949  -8.368  0.00  0.00    -0.344 N 
ATOM     21  C   UNL d   1      11.008   7.359  -9.725  0.00  0.00     0.137 C 
ATOM     22  C   UNL d   1       9.764   7.289 -10.626  0.00  0.00     0.274 C 
BRANCH  20  23
ATOM     23  C   UNL d   1      10.987   7.702  -7.219  0.00  0.00     0.056 A 
ATOM     24  C   UNL d   1      11.158   7.072  -5.962  0.00  0.00     0.017 A 
ATOM     25  C   UNL d   1      11.460   7.823  -4.810  0.00  0.00     0.002 A 
ATOM     26  C   UNL d   1      11.610   9.216  -4.892  0.00  0.00     0.000 A 
ATOM     27  C   UNL d   1      11.462   9.858  -6.135  0.00  0.00     0.002 A 
ATOM     28  C   UNL d   1      11.154   9.107  -7.287  0.00  0.00     0.017 A 
ENDBRANCH  20  23
ENDBRANCH  16  17
ENDBRANCH  15  16
ENDBRANCH   1  15
TORSDOF 7
