REMARK  3 active torsions:
REMARK  status: ('A' for Active; 'I' for Inactive)
REMARK    1  A    between atoms: C_2  and  C_3 
REMARK    2  A    between atoms: C_3  and  N_5 
REMARK    3  A    between atoms: C_9  and  C_10 
ROOT
ATOM      1  C   UNL d   1       6.552   2.239 -13.774  0.00  0.00    -0.020 A 
ATOM      2  C   UNL d   1       5.790   1.091 -13.467  0.00  0.00    -0.004 A 
ATOM      3  C   UNL d   1       5.835  -0.040 -14.314  0.00  0.00     0.000 A 
ATOM      4  C   UNL d   1       6.638  -0.015 -15.470  0.00  0.00     0.010 A 
ATOM      5  C   UNL d   1       7.396   1.118 -15.786  0.00  0.00     0.068 A 
ATOM      6  C   UNL d   1       8.235   1.164 -16.971  0.00  0.00     0.101 C 
ATOM      7  N   UNL d   1       8.902   1.196 -17.914  0.00  0.00    -0.191 NA
ATOM      8  C   UNL d   1       7.352   2.248 -14.936  0.00  0.00     0.006 A 
ENDROOT
BRANCH   1   9
ATOM      9  C   UNL d   1       6.528   3.454 -12.839  0.00  0.00     0.056 C 
ATOM     10  C   UNL d   1       5.591   4.503 -13.423  0.00  0.00     0.008 C 
ATOM     11  C   UNL d   1       5.660   5.761 -12.574  0.00  0.00     0.036 C 
ATOM     12  C   UNL d   1       7.090   6.240 -12.380  0.00  0.00     0.250 C 
ATOM     13  N   UNL d   1       7.920   5.226 -11.738  0.00  0.00     0.135 N 
ATOM     14  C   UNL d   1       7.957   4.036 -12.584  0.00  0.00     0.254 C 
BRANCH  13  15
ATOM     15  C   UNL d   1       9.296   5.663 -11.410  0.00  0.00     0.219 C 
ATOM     16  C   UNL d   1       9.519   7.185 -11.338  0.00  0.00     0.035 C 
BRANCH  15  17
ATOM     17  C   UNL d   1       9.744   5.009 -10.089  0.00  0.00     0.033 C 
ATOM     18  C   UNL d   1       8.729   5.054  -8.947  0.00  0.00     0.002 C 
ENDBRANCH  15  17
ENDBRANCH  13  15
ENDBRANCH   1   9
TORSDOF 3
