REMARK  8 active torsions:
REMARK  status: ('A' for Active; 'I' for Inactive)
REMARK    1  A    between atoms: C_6  and  C_7 
REMARK    2  A    between atoms: C_10  and  S_11 
REMARK    3  A    between atoms: S_11  and  C_12 
REMARK    4  A    between atoms: C_12  and  C_13 
REMARK    5  A    between atoms: C_13  and  C_14 
REMARK    6  A    between atoms: C_14  and  N_15 
REMARK    7  A    between atoms: C_19  and  C_20 
REMARK    8  A    between atoms: C_23  and  C_24 
ROOT
ATOM      1  N   UNL d   1       9.343   3.772 -13.169  0.00  0.00     0.137 N 
ATOM      2  C   UNL d   1       7.913   4.031 -13.324  0.00  0.00     0.251 C 
ATOM      3  C   UNL d   1       7.678   5.270 -12.493  0.00  0.00     0.039 A 
ATOM      4  C   UNL d   1       7.846   6.646 -13.047  0.00  0.00     0.008 A 
ATOM      5  C   UNL d   1       8.999   5.969 -12.398  0.00  0.00     0.052 A 
ATOM      6  C   UNL d   1       9.978   5.093 -13.179  0.00  0.00     0.254 C 
ENDROOT
BRANCH   1   7
ATOM      7  C   UNL d   1       9.904   2.880 -14.189  0.00  0.00     0.251 C 
BRANCH   7   8
ATOM      8  C   UNL d   1       9.129   1.556 -14.293  0.00  0.00     0.047 C 
BRANCH   8   9
ATOM      9  C   UNL d   1       9.895   0.449 -15.021  0.00  0.00     0.067 C 
BRANCH   9  10
ATOM     10  S   UNL d   1      10.246   0.840 -16.760  0.00  0.00    -0.075 SA
BRANCH  10  11
ATOM     11  C   UNL d   1       8.633   0.552 -17.410  0.00  0.00     0.193 A 
ATOM     12  N   UNL d   1       7.626   1.423 -17.323  0.00  0.00    -0.122 NA
ATOM     13  N   UNL d   1       6.574   0.827 -17.980  0.00  0.00    -0.126 NA
ATOM     14  C   UNL d   1       7.027  -0.356 -18.420  0.00  0.00     0.191 A 
ATOM     15  N   UNL d   1       8.320  -0.567 -18.089  0.00  0.00    -0.287 N 
ATOM     16  C   UNL d   1       9.185  -1.694 -18.405  0.00  0.00     0.134 C 
BRANCH  14  17
ATOM     17  C   UNL d   1       6.184  -1.268 -19.210  0.00  0.00     0.151 A 
ATOM     18  C   UNL d   1       4.866  -1.232 -19.576  0.00  0.00     0.087 A 
ATOM     19  C   UNL d   1       3.813  -0.211 -19.285  0.00  0.00     0.054 C 
ATOM     20  N   UNL d   1       4.578  -2.372 -20.319  0.00  0.00    -0.221 NA
ATOM     21  C   UNL d   1       5.728  -3.029 -20.375  0.00  0.00     0.225 A 
ATOM     22  O   UNL d   1       6.748  -2.409 -19.726  0.00  0.00    -0.282 OA
ENDBRANCH  14  17
ENDBRANCH  10  11
ENDBRANCH   9  10
ENDBRANCH   8   9
ENDBRANCH   7   8
ENDBRANCH   1   7
BRANCH   5  23
ATOM     23  C   UNL d   1       9.474   6.442 -11.072  0.00  0.00    -0.021 A 
ATOM     24  C   UNL d   1       9.460   5.550  -9.993  0.00  0.00    -0.005 A 
ATOM     25  C   UNL d   1       9.857   5.976  -8.722  0.00  0.00    -0.005 A 
ATOM     26  C   UNL d   1      10.287   7.321  -8.504  0.00  0.00    -0.023 A 
ATOM     27  C   UNL d   1      10.247   8.219  -9.594  0.00  0.00    -0.005 A 
ATOM     28  C   UNL d   1       9.871   7.777 -10.876  0.00  0.00    -0.005 A 
BRANCH  26  29
ATOM     29  C   UNL d   1      10.727   7.815  -7.116  0.00  0.00     0.019 C 
ATOM     30  C   UNL d   1      11.998   8.685  -7.211  0.00  0.00     0.004 C 
ATOM     31  C   UNL d   1      11.039   6.667  -6.143  0.00  0.00     0.004 C 
ATOM     32  C   UNL d   1       9.604   8.670  -6.524  0.00  0.00     0.004 C 
ENDBRANCH  26  29
ENDBRANCH   5  23
TORSDOF 8
