REMARK  8 active torsions:
REMARK  status: ('A' for Active; 'I' for Inactive)
REMARK    1  A    between atoms: C_6  and  C_7 
REMARK    2  A    between atoms: C_10  and  S_11 
REMARK    3  A    between atoms: S_11  and  C_12 
REMARK    4  A    between atoms: C_12  and  C_13 
REMARK    5  A    between atoms: C_13  and  C_14 
REMARK    6  A    between atoms: C_14  and  N_15 
REMARK    7  A    between atoms: C_20  and  C_21 
REMARK    8  A    between atoms: C_24  and  C_25 
ROOT
ATOM      1  N   UNL d   1       9.229   5.697 -10.123  0.00  0.00     0.137 N 
ATOM      2  C   UNL d   1       8.214   5.671  -9.082  0.00  0.00     0.250 C 
ATOM      3  C   UNL d   1       8.657   6.739  -8.122  0.00  0.00     0.038 C 
ATOM      4  C   UNL d   1       9.514   7.688  -8.917  0.00  0.00     0.037 A 
ATOM      5  C   UNL d   1       9.516   9.190  -8.717  0.00  0.00     0.007 A 
ATOM      6  C   UNL d   1      10.738   8.392  -8.358  0.00  0.00     0.024 A 
ATOM      7  C   UNL d   1       9.484   7.120 -10.303  0.00  0.00     0.251 C 
ENDROOT
BRANCH   1   8
ATOM      8  C   UNL d   1       8.736   5.057 -11.340  0.00  0.00     0.251 C 
BRANCH   8   9
ATOM      9  C   UNL d   1       9.674   5.321 -12.534  0.00  0.00     0.047 C 
BRANCH   9  10
ATOM     10  C   UNL d   1       9.879   4.124 -13.448  0.00  0.00     0.067 C 
BRANCH  10  11
ATOM     11  S   UNL d   1      11.376   4.303 -14.461  0.00  0.00    -0.075 SA
BRANCH  11  12
ATOM     12  C   UNL d   1      11.242   2.801 -15.382  0.00  0.00     0.193 A 
ATOM     13  N   UNL d   1      10.454   1.783 -15.028  0.00  0.00    -0.122 NA
ATOM     14  N   UNL d   1      10.592   0.847 -16.014  0.00  0.00    -0.126 NA
ATOM     15  C   UNL d   1      11.470   1.357 -16.881  0.00  0.00     0.191 A 
ATOM     16  N   UNL d   1      11.914   2.583 -16.529  0.00  0.00    -0.287 N 
ATOM     17  C   UNL d   1      12.854   3.453 -17.225  0.00  0.00     0.134 C 
BRANCH  15  18
ATOM     18  C   UNL d   1      11.857   0.611 -18.072  0.00  0.00     0.151 A 
ATOM     19  C   UNL d   1      11.283  -0.461 -18.705  0.00  0.00     0.087 A 
ATOM     20  C   UNL d   1      10.027  -1.218 -18.386  0.00  0.00     0.054 C 
ATOM     21  N   UNL d   1      12.081  -0.801 -19.786  0.00  0.00    -0.221 NA
ATOM     22  C   UNL d   1      13.072   0.082 -19.766  0.00  0.00     0.225 A 
ATOM     23  O   UNL d   1      12.987   0.981 -18.753  0.00  0.00    -0.282 OA
ENDBRANCH  15  18
ENDBRANCH  11  12
ENDBRANCH  10  11
ENDBRANCH   9  10
ENDBRANCH   8   9
ENDBRANCH   1   8
BRANCH   6  24
ATOM     24  C   UNL d   1      11.151   8.205  -6.946  0.00  0.00    -0.022 A 
ATOM     25  C   UNL d   1      11.194   9.307  -6.066  0.00  0.00    -0.004 A 
ATOM     26  C   UNL d   1      11.527   9.129  -4.718  0.00  0.00     0.004 A 
ATOM     27  C   UNL d   1      11.836   7.842  -4.218  0.00  0.00     0.071 A 
ATOM     28  C   UNL d   1      11.769   6.739  -5.100  0.00  0.00     0.004 A 
ATOM     29  C   UNL d   1      11.459   6.918  -6.447  0.00  0.00    -0.004 A 
BRANCH  27  30
ATOM     30  C   UNL d   1      12.226   7.626  -2.772  0.00  0.00     0.419 C 
ATOM     31  F   UNL d   1      11.162   7.324  -2.046  0.00  0.00    -0.166 F 
ATOM     32  F   UNL d   1      13.053   6.591  -2.658  0.00  0.00    -0.166 F 
ATOM     33  F   UNL d   1      12.817   8.713  -2.276  0.00  0.00    -0.166 F 
ENDBRANCH  27  30
ENDBRANCH   6  24
TORSDOF 8
