REMARK  3 active torsions:
REMARK  status: ('A' for Active; 'I' for Inactive)
REMARK    1  A    between atoms: C_2  and  C_3 
REMARK    2  A    between atoms: C_3  and  N_4 
REMARK    3  A    between atoms: C_8  and  C_9 
ROOT
ATOM      1  N   UNL d   1       8.171   5.263 -11.853  0.00  0.00     0.137 N 
ATOM      2  C   UNL d   1       7.322   6.315 -12.407  0.00  0.00     0.250 C 
ATOM      3  C   UNL d   1       5.861   5.857 -12.421  0.00  0.00     0.036 C 
ATOM      4  C   UNL d   1       5.674   4.575 -13.245  0.00  0.00     0.008 C 
ATOM      5  C   UNL d   1       6.674   3.504 -12.798  0.00  0.00     0.056 C 
ATOM      6  C   UNL d   1       8.103   4.100 -12.730  0.00  0.00     0.255 C 
ENDROOT
BRANCH   5   7
ATOM      7  C   UNL d   1       6.601   2.273 -13.711  0.00  0.00    -0.020 A 
ATOM      8  C   UNL d   1       5.480   1.416 -13.634  0.00  0.00     0.003 A 
ATOM      9  C   UNL d   1       5.387   0.279 -14.472  0.00  0.00     0.034 A 
ATOM     10  C   UNL d   1       6.442  -0.031 -15.349  0.00  0.00     0.007 A 
ATOM     11 BR   UNL d   1       3.827  -0.811 -14.442  0.00  0.00    -0.049 Br
ATOM     12  C   UNL d   1       7.585   0.792 -15.399  0.00  0.00     0.000 A 
ATOM     13  C   UNL d   1       7.667   1.939 -14.587  0.00  0.00    -0.004 A 
ENDBRANCH   5   7
BRANCH   1  14
ATOM     14  C   UNL d   1       9.560   5.716 -11.800  0.00  0.00     0.250 C 
BRANCH  14  15
ATOM     15  C   UNL d   1       9.809   6.686 -10.637  0.00  0.00     0.035 C 
ATOM     16  C   UNL d   1       9.586   6.020  -9.275  0.00  0.00     0.002 C 
ENDBRANCH  14  15
ENDBRANCH   1  14
TORSDOF 3
