REMARK  10 active torsions:
REMARK  status: ('A' for Active; 'I' for Inactive)
REMARK    1  A    between atoms: C_2  and  O_3 
REMARK    2  A    between atoms: O_3  and  C_4 
REMARK    3  A    between atoms: C_4  and  C_6 
REMARK    4  A    between atoms: C_6  and  C_7 
REMARK    5  A    between atoms: C_6  and  N_15 
REMARK    6  A    between atoms: C_7  and  C_8 
REMARK    7  A    between atoms: C_8  and  C_9 
REMARK    8  A    between atoms: N_15  and  C_16 
REMARK    9  A    between atoms: N_25  and  C_26 
REMARK   10  A    between atoms: C_26  and  C_27 
ROOT
ATOM      1  C   UNL d   1      10.358   4.021 -14.710  0.00  0.00     0.177 C 
ATOM      2  C   UNL d   1       9.117   4.236 -15.610  0.00  0.00     0.038 C 
ATOM      3  C   UNL d   1       9.298   4.000 -17.119  0.00  0.00     0.030 C 
ATOM      4  C   UNL d   1      10.191   2.812 -17.413  0.00  0.00    -0.006 A 
ATOM      5  C   UNL d   1       9.637   1.679 -18.042  0.00  0.00    -0.003 A 
ATOM      6  C   UNL d   1      10.456   0.596 -18.423  0.00  0.00    -0.000 A 
ATOM      7  C   UNL d   1      11.837   0.650 -18.155  0.00  0.00     0.002 A 
ATOM      8  C   UNL d   1      12.381   1.755 -17.490  0.00  0.00     0.017 A 
ATOM      9  C   UNL d   1      11.577   2.850 -17.104  0.00  0.00     0.059 A 
ATOM     10  N   UNL d   1      12.187   3.957 -16.435  0.00  0.00    -0.288 N 
ATOM     11  C   UNL d   1      11.626   4.573 -15.374  0.00  0.00     0.260 C 
ATOM     12  O   UNL d   1      12.121   5.591 -14.903  0.00  0.00    -0.270 OA
ENDROOT
BRANCH   1  13
ATOM     13  N   UNL d   1      10.174   4.662 -13.379  0.00  0.00    -0.280 NA
BRANCH  13  14
ATOM     14  C   UNL d   1       9.152   4.133 -12.457  0.00  0.00     0.184 C 
BRANCH  14  15
ATOM     15  C   UNL d   1       7.712   4.344 -12.932  0.00  0.00     0.294 C 
ATOM     16  O   UNL d   1       7.072   5.388 -12.820  0.00  0.00    -0.262 OA
BRANCH  15  17
ATOM     17  O   UNL d   1       7.246   3.233 -13.502  0.00  0.00    -0.300 OA
BRANCH  17  18
ATOM     18  C   UNL d   1       5.894   3.123 -13.863  0.00  0.00     0.152 C 
ATOM     19  C   UNL d   1       5.042   2.845 -12.617  0.00  0.00     0.035 C 
ENDBRANCH  17  18
ENDBRANCH  15  17
ENDBRANCH  14  15
BRANCH  14  20
ATOM     20  C   UNL d   1       9.330   4.733 -11.041  0.00  0.00     0.039 C 
BRANCH  20  21
ATOM     21  C   UNL d   1       9.388   6.278 -10.989  0.00  0.00     0.029 C 
BRANCH  21  22
ATOM     22  C   UNL d   1       9.834   6.784  -9.640  0.00  0.00    -0.022 A 
ATOM     23  C   UNL d   1       9.102   6.432  -8.487  0.00  0.00    -0.004 A 
ATOM     24  C   UNL d   1       9.496   6.922  -7.233  0.00  0.00    -0.000 A 
ATOM     25  C   UNL d   1      10.623   7.762  -7.130  0.00  0.00    -0.000 A 
ATOM     26  C   UNL d   1      11.353   8.117  -8.283  0.00  0.00    -0.000 A 
ATOM     27  C   UNL d   1      10.957   7.629  -9.540  0.00  0.00    -0.004 A 
ENDBRANCH  21  22
ENDBRANCH  20  21
ENDBRANCH  14  20
ENDBRANCH  13  14
ENDBRANCH   1  13
BRANCH  10  28
ATOM     28  C   UNL d   1      13.508   4.431 -16.910  0.00  0.00     0.207 C 
BRANCH  28  29
ATOM     29  C   UNL d   1      13.462   5.835 -17.538  0.00  0.00     0.210 C 
ATOM     30  O   UNL d   1      14.134   6.791 -17.154  0.00  0.00    -0.646 OA
ATOM     31  O   UNL d   1      12.595   5.897 -18.584  0.00  0.00    -0.646 OA
ENDBRANCH  28  29
ENDBRANCH  10  28
TORSDOF 10
