REMARK  7 active torsions:
REMARK  status: ('A' for Active; 'I' for Inactive)
REMARK    1  A    between atoms: C_8  and  O_9 
REMARK    2  A    between atoms: O_9  and  C_10 
REMARK    3  A    between atoms: C_10  and  C_11 
REMARK    4  A    between atoms: C_11  and  C_12 
REMARK    5  A    between atoms: C_12  and  C_13 
REMARK    6  A    between atoms: C_13  and  N_14 
REMARK    7  A    between atoms: N_17  and  C_18 
ROOT
ATOM      1  N   UNL d   1       9.012   5.130 -12.970  0.00  0.00     0.141 N 
ATOM      2  C   UNL d   1       7.798   5.086 -13.770  0.00  0.00     0.274 C 
ATOM      3  C   UNL d   1       7.224   3.660 -13.869  0.00  0.00     0.137 C 
ATOM      4  N   UNL d   1       8.273   2.745 -14.292  0.00  0.00    -0.344 N 
ATOM      5  C   UNL d   1       9.569   2.825 -13.635  0.00  0.00     0.137 C 
ATOM      6  C   UNL d   1      10.043   4.290 -13.585  0.00  0.00     0.274 C 
ENDROOT
BRANCH   1   7
ATOM      7  C   UNL d   1       8.752   4.780 -11.572  0.00  0.00     0.251 C 
BRANCH   7   8
ATOM      8  C   UNL d   1       8.217   5.997 -10.794  0.00  0.00     0.038 C 
BRANCH   8   9
ATOM      9  C   UNL d   1       8.679   5.965  -9.335  0.00  0.00     0.035 C 
BRANCH   9  10
ATOM     10  C   UNL d   1      10.210   6.093  -9.267  0.00  0.00     0.149 C 
BRANCH  10  11
ATOM     11  O   UNL d   1      10.644   5.872  -7.936  0.00  0.00    -0.331 OA
BRANCH  11  12
ATOM     12  C   UNL d   1      10.754   6.922  -7.074  0.00  0.00     0.096 A 
ATOM     13  C   UNL d   1      10.386   8.238  -7.421  0.00  0.00     0.024 A 
ATOM     14  C   UNL d   1      10.569   9.264  -6.506  0.00  0.00    -0.001 A 
ATOM     15  C   UNL d   1      11.058   8.983  -5.230  0.00  0.00    -0.004 A 
ATOM     16  C   UNL d   1      11.154  10.086  -4.227  0.00  0.00     0.038 C 
ATOM     17  C   UNL d   1      11.419   7.672  -4.856  0.00  0.00     0.082 A 
ATOM     18  C   UNL d   1      12.280   9.808  -3.226  0.00  0.00     0.095 C 
ATOM     19  C   UNL d   1      12.271   8.367  -2.705  0.00  0.00     0.256 C 
ATOM     20  O   UNL d   1      12.658   8.122  -1.570  0.00  0.00    -0.270 OA
ATOM     21  N   UNL d   1      11.885   7.400  -3.549  0.00  0.00    -0.212 NA
ATOM     22  C   UNL d   1      11.268   6.638  -5.789  0.00  0.00     0.043 A 
ENDBRANCH  11  12
ENDBRANCH  10  11
ENDBRANCH   9  10
ENDBRANCH   8   9
ENDBRANCH   7   8
ENDBRANCH   1   7
BRANCH   4  23
ATOM     23  C   UNL d   1       8.037   1.779 -15.283  0.00  0.00     0.058 A 
ATOM     24  C   UNL d   1       6.918   0.912 -15.237  0.00  0.00     0.041 A 
ATOM     25  C   UNL d   1       6.680   0.012 -16.300  0.00  0.00     0.130 A 
ATOM     26  C   UNL d   1       5.946   0.859 -14.132  0.00  0.00     0.009 A 
ATOM     27  C   UNL d   1       7.592  -0.046 -17.377  0.00  0.00     0.154 A 
ATOM     28  O   UNL d   1       5.578  -0.827 -16.302  0.00  0.00    -0.271 OA
ATOM     29  C   UNL d   1       8.722   0.788 -17.403  0.00  0.00     0.031 A 
ATOM     30  O   UNL d   1       7.393  -0.936 -18.391  0.00  0.00    -0.188 OA
ATOM     31  C   UNL d   1       8.945   1.699 -16.358  0.00  0.00     0.019 A 
ATOM     32  C   UNL d   1       4.642  -0.865 -15.290  0.00  0.00     0.300 A 
ATOM     33  O   UNL d   1       3.661  -1.597 -15.317  0.00  0.00    -0.259 OA
ATOM     34  C   UNL d   1       4.886   0.047 -14.158  0.00  0.00     0.069 A 
ENDBRANCH   4  23
TORSDOF 7
