REMARK  2 active torsions:
REMARK  status: ('A' for Active; 'I' for Inactive)
REMARK    1  A    between atoms: C_2  and  C_3 
REMARK    2  A    between atoms: C_3  and  N_4 
ROOT
ATOM      1  N   UNL d   1       9.544   7.470  -9.421  0.00  0.00     0.135 N 
ATOM      2  C   UNL d   1       9.824   8.668 -10.224  0.00  0.00     0.250 C 
ATOM      3  C   UNL d   1      11.165   9.248  -9.734  0.00  0.00     0.038 C 
ATOM      4  C   UNL d   1      11.469   8.459  -8.466  0.00  0.00     0.038 C 
ATOM      5  C   UNL d   1      12.008   9.235  -7.255  0.00  0.00     0.030 C 
ATOM      6  C   UNL d   1      11.819   8.514  -5.918  0.00  0.00    -0.001 A 
ATOM      7  C   UNL d   1      12.508   8.926  -4.755  0.00  0.00     0.127 A 
ATOM      8  O   UNL d   1      13.470   9.877  -4.837  0.00  0.00    -0.191 OA
ATOM      9  C   UNL d   1      12.380   8.249  -3.530  0.00  0.00     0.027 A 
ATOM     10  C   UNL d   1      11.619   7.077  -3.462  0.00  0.00     0.002 A 
ATOM     11  C   UNL d   1      10.962   6.640  -4.622  0.00  0.00    -0.004 A 
ATOM     12  C   UNL d   1      11.039   7.346  -5.833  0.00  0.00    -0.022 A 
ATOM     13  C   UNL d   1      10.285   6.784  -7.024  0.00  0.00     0.059 C 
ATOM     14  C   UNL d   1      10.125   7.840  -8.128  0.00  0.00     0.224 C 
ENDROOT
BRANCH   1  15
ATOM     15  C   UNL d   1      10.090   6.262 -10.040  0.00  0.00     0.250 C 
BRANCH  15  16
ATOM     16  C   UNL d   1       9.030   5.135 -10.060  0.00  0.00     0.035 C 
ATOM     17  C   UNL d   1       8.552   4.675  -8.675  0.00  0.00     0.002 C 
ENDBRANCH  15  16
ENDBRANCH   1  15
TORSDOF 2
