REMARK  4 active torsions:
REMARK  status: ('A' for Active; 'I' for Inactive)
REMARK    1  A    between atoms: O_2  and  C_3 
REMARK    2  A    between atoms: C_8  and  O_9 
REMARK    3  A    between atoms: N_12  and  C_13 
REMARK    4  A    between atoms: N_14  and  C_15 
ROOT
ATOM      1  C   UNL d   1       8.671   6.682 -11.348  0.00  0.00     0.175 C 
ATOM      2  N   UNL d   1       9.139   6.188 -10.239  0.00  0.00    -0.226 NA
ENDROOT
BRANCH   1   3
ATOM      3  N   UNL d   1       7.880   6.040 -12.267  0.00  0.00    -0.327 N 
ATOM      4  C   UNL d   1       8.484   5.373 -13.398  0.00  0.00     0.130 C 
ATOM      5  C   UNL d   1       7.907   4.006 -13.678  0.00  0.00    -0.002 A 
ATOM      6  C   UNL d   1       6.705   3.597 -13.075  0.00  0.00    -0.020 A 
ATOM      7  C   UNL d   1       8.559   3.178 -14.599  0.00  0.00     0.024 A 
ATOM      8  C   UNL d   1       6.186   2.323 -13.368  0.00  0.00     0.022 A 
ATOM      9  C   UNL d   1       6.050   4.446 -12.004  0.00  0.00     0.050 C 
ATOM     10  C   UNL d   1       6.846   1.469 -14.273  0.00  0.00     0.116 A 
ATOM     11  C   UNL d   1       8.043   1.908 -14.909  0.00  0.00     0.116 A 
ATOM     12  C   UNL d   1       6.439   5.920 -12.105  0.00  0.00     0.108 C 
BRANCH  10  13
ATOM     13  O   UNL d   1       6.325   0.204 -14.430  0.00  0.00    -0.326 OA
ATOM     14  C   UNL d   1       5.950  -0.120 -15.757  0.00  0.00     0.181 C 
ENDBRANCH  10  13
BRANCH  11  15
ATOM     15  O   UNL d   1       8.710   1.182 -15.861  0.00  0.00    -0.326 OA
ATOM     16  C   UNL d   1       9.708   0.323 -15.342  0.00  0.00     0.181 C 
ENDBRANCH  11  15
ENDBRANCH   1   3
BRANCH   2  17
ATOM     17  C   UNL d   1       9.921   7.056  -9.447  0.00  0.00     0.083 A 
ATOM     18  C   UNL d   1       9.831   6.961  -8.032  0.00  0.00     0.015 A 
ATOM     19  C   UNL d   1      10.616   7.821  -7.226  0.00  0.00    -0.014 A 
ATOM     20  C   UNL d   1      11.478   8.750  -7.795  0.00  0.00    -0.024 A 
ATOM     21  C   UNL d   1      10.674   7.906  -5.711  0.00  0.00     0.080 C 
ATOM     22  C   UNL d   1      11.600   8.852  -9.184  0.00  0.00    -0.003 A 
ATOM     23  C   UNL d   1      12.216   9.533  -6.743  0.00  0.00     0.038 C 
ATOM     24  C   UNL d   1      10.825   8.016  -9.993  0.00  0.00     0.019 A 
ATOM     25  C   UNL d   1      11.506   9.185  -5.440  0.00  0.00     0.066 C 
ATOM     26  S   UNL d   1      12.665   9.182  -4.030  0.00  0.00    -0.139 SA
ATOM     27  C   UNL d   1      11.663   8.221  -2.871  0.00  0.00     0.069 C 
ATOM     28  C   UNL d   1      11.586   6.735  -3.296  0.00  0.00     0.070 C 
ATOM     29  S   UNL d   1      11.485   6.434  -5.085  0.00  0.00    -0.135 SA
ENDBRANCH   2  17
TORSDOF 4
