REMARK  5 active torsions:
REMARK  status: ('A' for Active; 'I' for Inactive)
REMARK    1  A    between atoms: O_2  and  C_3 
REMARK    2  A    between atoms: C_9  and  N_10 
REMARK    3  A    between atoms: N_13  and  C_14 
REMARK    4  A    between atoms: C_14  and  C_15 
REMARK    5  A    between atoms: C_17  and  C_18 
ROOT
ATOM      1  N   UNL d   1       8.041   5.523 -11.849  0.00  0.00    -0.343 N 
ATOM      2  C   UNL d   1       7.798   5.334 -10.442  0.00  0.00     0.137 C 
ATOM      3  C   UNL d   1       9.014   5.690  -9.604  0.00  0.00     0.274 C 
ATOM      4  N   UNL d   1       9.499   7.040  -9.907  0.00  0.00     0.141 N 
ATOM      5  C   UNL d   1       9.848   7.110 -11.328  0.00  0.00     0.274 C 
ATOM      6  C   UNL d   1       8.614   6.807 -12.207  0.00  0.00     0.137 C 
ENDROOT
BRANCH   4   7
ATOM      7  C   UNL d   1      10.657   7.384  -9.093  0.00  0.00     0.251 C 
BRANCH   7   8
ATOM      8  C   UNL d   1      10.288   7.537  -7.631  0.00  0.00     0.038 A 
ATOM      9  C   UNL d   1      11.195   6.980  -6.541  0.00  0.00     0.024 A 
ATOM     10  C   UNL d   1       9.858   6.380  -6.762  0.00  0.00     0.007 A 
BRANCH   9  11
ATOM     11  C   UNL d   1      11.450   7.674  -5.253  0.00  0.00    -0.022 A 
ATOM     12  C   UNL d   1      11.275   9.070  -5.166  0.00  0.00    -0.004 A 
ATOM     13  C   UNL d   1      11.473   9.720  -3.943  0.00  0.00    -0.000 A 
ATOM     14  C   UNL d   1      11.903   9.000  -2.818  0.00  0.00    -0.000 A 
ATOM     15  C   UNL d   1      12.100   7.606  -2.897  0.00  0.00    -0.000 A 
ATOM     16  C   UNL d   1      11.856   6.946  -4.119  0.00  0.00    -0.004 A 
ENDBRANCH   9  11
ENDBRANCH   7   8
ENDBRANCH   4   7
BRANCH   1  17
ATOM     17  C   UNL d   1       7.824   4.477 -12.753  0.00  0.00     0.079 A 
ATOM     18  C   UNL d   1       8.866   4.034 -13.597  0.00  0.00     0.110 A 
ATOM     19  C   UNL d   1       8.603   2.978 -14.505  0.00  0.00     0.037 A 
ATOM     20  C   UNL d   1       7.334   2.371 -14.549  0.00  0.00     0.060 A 
ATOM     21 CL   UNL d   1       7.044   1.105 -15.677  0.00  0.00    -0.082 Cl
ATOM     22  C   UNL d   1       6.314   2.791 -13.679  0.00  0.00     0.013 A 
ATOM     23  C   UNL d   1       6.559   3.845 -12.776  0.00  0.00     0.020 A 
BRANCH  18  24
ATOM     24  O   UNL d   1      10.100   4.644 -13.476  0.00  0.00    -0.327 OA
ATOM     25  C   UNL d   1      11.169   4.181 -14.277  0.00  0.00     0.181 C 
ENDBRANCH  18  24
ENDBRANCH   1  17
TORSDOF 5
