REMARK  4 active torsions:
REMARK  status: ('A' for Active; 'I' for Inactive)
REMARK    1  A    between atoms: C_2  and  N_3 
REMARK    2  A    between atoms: N_6  and  C_7 
REMARK    3  A    between atoms: N_14  and  S_15 
REMARK    4  A    between atoms: S_15  and  C_18 
ROOT
ATOM      1  C   UNL d   1       6.510   1.616 -14.287  0.00  0.00     0.054 A 
ATOM      2  C   UNL d   1       5.511   1.827 -13.284  0.00  0.00     0.017 A 
ATOM      3  C   UNL d   1       5.470   2.996 -12.511  0.00  0.00     0.001 A 
ATOM      4  C   UNL d   1       6.435   4.011 -12.673  0.00  0.00    -0.003 A 
ATOM      5  C   UNL d   1       7.434   3.806 -13.643  0.00  0.00    -0.000 A 
ATOM      6  C   UNL d   1       7.467   2.666 -14.433  0.00  0.00     0.014 A 
ATOM      7  C   UNL d   1       8.665   2.727 -15.351  0.00  0.00     0.141 C 
ATOM      8  N   UNL d   1       9.438   3.849 -14.823  0.00  0.00    -0.266 N 
ATOM      9  C   UNL d   1       8.601   4.703 -13.964  0.00  0.00     0.140 C 
ENDROOT
BRANCH   8  10
ATOM     10  S   UNL d   1      11.124   3.658 -14.536  0.00  0.00     0.265 S 
ATOM     11  O   UNL d   1      11.568   4.790 -13.708  0.00  0.00    -0.200 OA
ATOM     12  O   UNL d   1      11.339   2.275 -14.090  0.00  0.00    -0.200 OA
BRANCH  10  13
ATOM     13  C   UNL d   1      11.862   3.862 -16.165  0.00  0.00     0.103 A 
ATOM     14  C   UNL d   1      12.095   5.158 -16.670  0.00  0.00     0.013 A 
ATOM     15  C   UNL d   1      12.709   5.315 -17.930  0.00  0.00     0.001 A 
ATOM     16  C   UNL d   1      13.086   4.182 -18.679  0.00  0.00     0.000 A 
ATOM     17  C   UNL d   1      12.855   2.889 -18.169  0.00  0.00     0.001 A 
ATOM     18  C   UNL d   1      12.245   2.727 -16.909  0.00  0.00     0.013 A 
ENDBRANCH  10  13
ENDBRANCH   8  10
BRANCH   1  19
ATOM     19  N   UNL d   1       6.534   0.453 -15.057  0.00  0.00    -0.344 N 
ATOM     20  C   UNL d   1       6.057  -0.834 -14.545  0.00  0.00     0.137 C 
ATOM     21  C   UNL d   1       5.032  -1.431 -15.522  0.00  0.00     0.274 C 
ATOM     22  N   UNL d   1       5.569  -1.510 -16.889  0.00  0.00     0.141 N 
ATOM     23  C   UNL d   1       6.001  -0.190 -17.356  0.00  0.00     0.274 C 
ATOM     24  C   UNL d   1       7.039   0.410 -16.428  0.00  0.00     0.137 C 
BRANCH  22  25
ATOM     25  C   UNL d   1       4.615  -2.126 -17.814  0.00  0.00     0.251 C 
ATOM     26  C   UNL d   1       3.381  -1.246 -18.100  0.00  0.00     0.037 C 
ENDBRANCH  22  25
ENDBRANCH   1  19
TORSDOF 4
