REMARK  0 active torsions:
REMARK  status: ('A' for Active; 'I' for Inactive)
REMARK       I    between atoms: N_2  and  C_4 
REMARK       I    between atoms: C_4  and  N_6 
REMARK       I    between atoms: N_6  and  C_7 
ROOT
ATOM      1  C   UNL d   1       8.672   6.384  -6.975  0.00  0.00     0.144 C 
ATOM      2  N   UNL d   1       9.782   7.257  -6.597  0.00  0.00    -0.177 N 
ATOM      3  C   UNL d   1      10.514   6.790  -5.416  0.00  0.00     0.144 C 
ATOM      4  C   UNL d   1      10.354   8.193  -7.454  0.00  0.00     0.748 C 
ATOM      5  N   UNL d   1      11.399   8.875  -7.128  0.00  0.00     0.060 N 
ATOM      6  N   UNL d   1       9.738   8.331  -8.689  0.00  0.00    -0.025 NA
ATOM      7  C   UNL d   1      10.225   8.565  -9.966  0.00  0.00     0.274 C 
ATOM      8  N   UNL d   1       9.461   8.550 -10.996  0.00  0.00    -0.110 N 
ATOM      9  N   UNL d   1      11.580   8.795 -10.094  0.00  0.00    -0.058 NA
ENDROOT
TORSDOF 0
