REMARK  3 active torsions:
REMARK  status: ('A' for Active; 'I' for Inactive)
REMARK    1  A    between atoms: C_2  and  C_3 
REMARK    2  A    between atoms: C_3  and  N_4 
REMARK    3  A    between atoms: N_4  and  C_6 
ROOT
ATOM      1  C   UNL d   1      10.685   8.473  -5.069  0.00  0.00     0.224 C 
ATOM      2  C   UNL d   1      11.124   9.765  -5.737  0.00  0.00     0.038 C 
ATOM      3  C   UNL d   1      11.694   9.453  -7.098  0.00  0.00     0.028 C 
ATOM      4  C   UNL d   1      10.878   8.467  -7.914  0.00  0.00    -0.026 A 
ATOM      5  C   UNL d   1      11.129   8.348  -9.292  0.00  0.00    -0.003 A 
ATOM      6  C   UNL d   1      10.386   7.419 -10.040  0.00  0.00     0.027 A 
ATOM      7  C   UNL d   1       9.410   6.608  -9.439  0.00  0.00     0.131 A 
ATOM      8  O   UNL d   1       8.662   5.744 -10.183  0.00  0.00    -0.190 OA
ATOM      9  C   UNL d   1       9.144   6.739  -8.062  0.00  0.00     0.023 A 
ATOM     10  C   UNL d   1       9.892   7.658  -7.309  0.00  0.00    -0.022 A 
ATOM     11  C   UNL d   1       9.593   7.772  -5.856  0.00  0.00     0.059 C 
ENDROOT
BRANCH   1  12
ATOM     12  N   UNL d   1      11.822   7.594  -4.725  0.00  0.00     0.137 N 
ATOM     13  C   UNL d   1      11.492   6.317  -4.112  0.00  0.00     0.285 C 
BRANCH  12  14
ATOM     14  C   UNL d   1      12.920   8.241  -3.995  0.00  0.00     0.250 C 
BRANCH  14  15
ATOM     15  C   UNL d   1      12.579   8.617  -2.541  0.00  0.00     0.035 C 
ATOM     16  C   UNL d   1      11.816   9.937  -2.378  0.00  0.00     0.002 C 
ENDBRANCH  14  15
ENDBRANCH  12  14
ENDBRANCH   1  12
TORSDOF 3
