REMARK  7 active torsions:
REMARK  status: ('A' for Active; 'I' for Inactive)
REMARK    1  A    between atoms: O_2  and  C_3 
REMARK    2  A    between atoms: C_8  and  N_9 
REMARK    3  A    between atoms: N_12  and  C_13 
REMARK    4  A    between atoms: C_13  and  C_14 
REMARK    5  A    between atoms: C_14  and  C_16 
REMARK    6  A    between atoms: C_16  and  N_17 
REMARK    7  A    between atoms: C_21  and  C_23 
ROOT
ATOM      1  C   UNL d   1      12.420   2.170 -18.275  0.00  0.00     0.208 C 
ATOM      2  O   UNL d   1      12.670   0.944 -18.926  0.00  0.00    -0.219 OA
ENDROOT
BRANCH   1   3
ATOM      3  C   UNL d   1      12.011   1.814 -16.834  0.00  0.00     0.285 C 
BRANCH   3   4
ATOM      4  N   UNL d   1      11.482   2.906 -16.015  0.00  0.00     0.144 N 
ATOM      5  C   UNL d   1      10.249   3.471 -16.569  0.00  0.00     0.274 C 
ATOM      6  C   UNL d   1       9.737   4.652 -15.732  0.00  0.00     0.137 C 
ATOM      7  N   UNL d   1       9.588   4.241 -14.347  0.00  0.00    -0.343 N 
ATOM      8  C   UNL d   1      10.730   3.596 -13.727  0.00  0.00     0.137 C 
ATOM      9  C   UNL d   1      11.230   2.458 -14.636  0.00  0.00     0.274 C 
BRANCH   7  10
ATOM     10  C   UNL d   1       8.401   4.433 -13.640  0.00  0.00     0.079 A 
ATOM     11  C   UNL d   1       8.312   5.469 -12.685  0.00  0.00     0.110 A 
ATOM     12  C   UNL d   1       7.094   5.634 -11.987  0.00  0.00     0.026 A 
ATOM     13  C   UNL d   1       5.997   4.794 -12.235  0.00  0.00     0.002 A 
ATOM     14  C   UNL d   1       6.094   3.767 -13.187  0.00  0.00     0.002 A 
ATOM     15  C   UNL d   1       7.303   3.587 -13.887  0.00  0.00     0.019 A 
BRANCH  11  16
ATOM     16  O   UNL d   1       9.427   6.261 -12.481  0.00  0.00    -0.327 OA
ATOM     17  C   UNL d   1       9.293   7.413 -11.661  0.00  0.00     0.181 C 
ENDBRANCH  11  16
ENDBRANCH   7  10
ENDBRANCH   3   4
ENDBRANCH   1   3
BRANCH   1  18
ATOM     18  C   UNL d   1      13.702   3.035 -18.321  0.00  0.00     0.148 C 
BRANCH  18  19
ATOM     19  N   UNL d   1      13.607   4.090 -19.337  0.00  0.00    -0.247 N 
ATOM     20  C   UNL d   1      13.328   5.377 -19.081  0.00  0.00     0.265 A 
ATOM     21  C   UNL d   1      13.274   6.144 -20.400  0.00  0.00     0.179 A 
ATOM     22  O   UNL d   1      13.139   5.893 -17.978  0.00  0.00    -0.269 OA
ATOM     23  N   UNL d   1      13.595   5.043 -21.293  0.00  0.00    -0.209 NA
ATOM     24  C   UNL d   1      14.396   7.206 -20.473  0.00  0.00     0.039 C 
ATOM     25  C   UNL d   1      13.772   3.881 -20.654  0.00  0.00     0.348 A 
ATOM     26  O   UNL d   1      14.040   2.813 -21.200  0.00  0.00    -0.245 OA
BRANCH  21  27
ATOM     27  C   UNL d   1      11.855   6.707 -20.625  0.00  0.00     0.006 A 
ATOM     28  C   UNL d   1      11.567   8.065 -20.349  0.00  0.00    -0.002 A 
ATOM     29  C   UNL d   1      10.280   8.585 -20.569  0.00  0.00     0.006 A 
ATOM     30  C   UNL d   1       9.245   7.761 -21.039  0.00  0.00     0.035 A 
ATOM     31  C   UNL d   1       9.506   6.404 -21.309  0.00  0.00     0.006 A 
ATOM     32 BR   UNL d   1       7.504   8.488 -21.293  0.00  0.00    -0.049 Br
ATOM     33  C   UNL d   1      10.803   5.882 -21.104  0.00  0.00    -0.002 A 
ENDBRANCH  21  27
ENDBRANCH  18  19
ENDBRANCH   1  18
TORSDOF 7
