REMARK  3 active torsions:
REMARK  status: ('A' for Active; 'I' for Inactive)
REMARK    1  A    between atoms: C_2  and  C_3 
REMARK    2  A    between atoms: C_7  and  O_8 
REMARK    3  A    between atoms: C_10  and  N_11 
ROOT
ATOM      1  C   UNL d   1      11.812   7.338  -4.830  0.00  0.00    -0.020 A 
ATOM      2  C   UNL d   1      11.854   8.731  -4.828  0.00  0.00     0.009 A 
ATOM      3  C   UNL d   1      11.524   9.382  -6.012  0.00  0.00     0.081 A 
ATOM      4 CL   UNL d   1      11.645  11.028  -6.055  0.00  0.00    -0.080 Cl
ATOM      5  C   UNL d   1      11.111   8.722  -7.172  0.00  0.00     0.120 A 
ATOM      6  C   UNL d   1      11.053   7.310  -7.181  0.00  0.00     0.079 A 
ATOM      7  C   UNL d   1      11.420   6.667  -5.992  0.00  0.00     0.015 A 
ENDROOT
BRANCH   6   8
ATOM      8  N   UNL d   1      10.659   6.608  -8.342  0.00  0.00    -0.343 N 
ATOM      9  C   UNL d   1      10.992   7.067  -9.714  0.00  0.00     0.140 C 
ATOM     10  C   UNL d   1       9.758   7.081 -10.672  0.00  0.00     0.314 C 
ATOM     11  N   UNL d   1       9.016   5.832 -10.579  0.00  0.00     0.343 N 
ATOM     12  C   UNL d   1       8.613   5.574  -9.189  0.00  0.00     0.314 C 
ATOM     13  C   UNL d   1       9.844   5.412  -8.277  0.00  0.00     0.140 C 
ENDBRANCH   6   8
BRANCH   5  14
ATOM     14  O   UNL d   1      10.730   9.537  -8.218  0.00  0.00    -0.326 OA
ATOM     15  C   UNL d   1       9.363   9.415  -8.565  0.00  0.00     0.181 C 
ENDBRANCH   5  14
BRANCH   1  16
ATOM     16  C   UNL d   1      12.255   6.635  -3.579  0.00  0.00     0.026 C 
ATOM     17  C   UNL d   1      11.220   6.735  -2.470  0.00  0.00     0.005 C 
ENDBRANCH   1  16
TORSDOF 3
