REMARK  1 active torsions:
REMARK  status: ('A' for Active; 'I' for Inactive)
REMARK    1  A    between atoms: N_5  and  C_6 
ROOT
ATOM      1  C   UNL d   1       9.546   3.115 -14.668  0.00  0.00     0.142 C 
ATOM      2  N   UNL d   1      10.357   2.921 -15.669  0.00  0.00    -0.227 NA
ATOM      3  C   UNL d   1      10.150   2.004 -16.703  0.00  0.00     0.101 A 
ATOM      4  C   UNL d   1      10.688   2.381 -17.954  0.00  0.00     0.021 A 
ATOM      5  C   UNL d   1      10.642   1.513 -19.058  0.00  0.00     0.002 A 
ATOM      6  C   UNL d   1      10.063   0.240 -18.920  0.00  0.00     0.002 A 
ATOM      7  C   UNL d   1       9.525  -0.156 -17.683  0.00  0.00     0.021 A 
ATOM      8  C   UNL d   1       9.557   0.713 -16.577  0.00  0.00     0.099 A 
ATOM      9  N   UNL d   1       8.960   0.264 -15.402  0.00  0.00    -0.244 NA
ATOM     10  C   UNL d   1       8.008   1.042 -14.750  0.00  0.00     0.084 A 
ATOM     11  C   UNL d   1       6.772   0.438 -14.409  0.00  0.00     0.020 A 
ATOM     12  C   UNL d   1       5.754   1.207 -13.805  0.00  0.00     0.013 A 
ATOM     13  C   UNL d   1       5.963   2.583 -13.602  0.00  0.00     0.058 A 
ATOM     14 CL   UNL d   1       4.824   3.609 -12.856  0.00  0.00    -0.082 Cl
ATOM     15  C   UNL d   1       7.157   3.183 -13.985  0.00  0.00     0.016 A 
ATOM     16  C   UNL d   1       8.220   2.418 -14.500  0.00  0.00     0.052 A 
ENDROOT
BRANCH   1  17
ATOM     17  N   UNL d   1       9.836   4.018 -13.653  0.00  0.00    -0.330 N 
ATOM     18  C   UNL d   1      10.509   5.274 -13.888  0.00  0.00     0.138 C 
ATOM     19  C   UNL d   1       9.702   6.362 -13.136  0.00  0.00     0.274 C 
ATOM     20  N   UNL d   1       9.674   6.088 -11.702  0.00  0.00     0.143 N 
ATOM     21  C   UNL d   1       8.957   7.173 -11.103  0.00  0.00     0.286 C 
ATOM     22  C   UNL d   1       8.919   4.866 -11.492  0.00  0.00     0.274 C 
ATOM     23  C   UNL d   1       9.682   3.752 -12.218  0.00  0.00     0.138 C 
ENDBRANCH   1  17
TORSDOF 1
