REMARK  9 active torsions:
REMARK  status: ('A' for Active; 'I' for Inactive)
REMARK    1  A    between atoms: O_2  and  C_3 
REMARK    2  A    between atoms: C_8  and  N_9 
REMARK    3  A    between atoms: N_12  and  C_13 
REMARK    4  A    between atoms: C_13  and  C_14 
REMARK    5  A    between atoms: C_14  and  C_15 
REMARK    6  A    between atoms: C_15  and  C_16 
REMARK    7  A    between atoms: C_16  and  N_17 
REMARK       I    between atoms: N_17  and  C_18 
REMARK    8  A    between atoms: C_18  and  C_20 
REMARK    9  A    between atoms: C_22  and  C_23 
ROOT
ATOM      1  C   UNL d   1       9.536   7.776 -10.963  0.00  0.00     0.251 C 
ENDROOT
BRANCH   1   2
ATOM      2  N   UNL d   1      10.369   7.298  -9.857  0.00  0.00     0.141 N 
ATOM      3  C   UNL d   1       9.567   6.783  -8.736  0.00  0.00     0.274 C 
ATOM      4  C   UNL d   1      10.475   6.235  -7.630  0.00  0.00     0.137 C 
ATOM      5  N   UNL d   1      11.403   7.259  -7.196  0.00  0.00    -0.343 N 
ATOM      6  C   UNL d   1      12.147   7.947  -8.243  0.00  0.00     0.137 C 
ATOM      7  C   UNL d   1      11.188   8.418  -9.362  0.00  0.00     0.274 C 
BRANCH   5   8
ATOM      8  C   UNL d   1      11.458   7.652  -5.845  0.00  0.00     0.079 A 
ATOM      9  C   UNL d   1      11.409   9.015  -5.466  0.00  0.00     0.110 A 
ATOM     10  C   UNL d   1      11.549   9.360  -4.101  0.00  0.00     0.026 A 
ATOM     11  C   UNL d   1      11.759   8.373  -3.120  0.00  0.00     0.002 A 
ATOM     12  C   UNL d   1      11.778   7.016  -3.492  0.00  0.00     0.002 A 
ATOM     13  C   UNL d   1      11.614   6.671  -4.843  0.00  0.00     0.019 A 
BRANCH   9  14
ATOM     14  O   UNL d   1      11.164   9.929  -6.461  0.00  0.00    -0.327 OA
ATOM     15  C   UNL d   1      11.849  11.143  -6.341  0.00  0.00     0.181 C 
ENDBRANCH   9  14
ENDBRANCH   5   8
ENDBRANCH   1   2
BRANCH   1  16
ATOM     16  C   UNL d   1       8.652   6.673 -11.611  0.00  0.00     0.037 C 
BRANCH  16  17
ATOM     17  C   UNL d   1       9.498   5.580 -12.277  0.00  0.00     0.029 C 
BRANCH  17  18
ATOM     18  C   UNL d   1       8.668   4.387 -12.759  0.00  0.00     0.129 C 
BRANCH  18  19
ATOM     19  N   UNL d   1       9.540   3.321 -13.239  0.00  0.00    -0.238 NA
ATOM     20  C   UNL d   1       9.912   3.143 -14.513  0.00  0.00     0.251 C 
ATOM     21  O   UNL d   1       9.503   3.855 -15.434  0.00  0.00    -0.271 OA
BRANCH  20  22
ATOM     22  C   UNL d   1      10.853   1.998 -14.711  0.00  0.00     0.085 A 
ATOM     23  C   UNL d   1      10.313   0.732 -15.357  0.00  0.00     0.032 A 
ATOM     24  C   UNL d   1      11.234   1.638 -16.137  0.00  0.00     0.015 A 
BRANCH  23  25
ATOM     25  C   UNL d   1       8.876   0.550 -15.710  0.00  0.00    -0.022 A 
ATOM     26  C   UNL d   1       8.470   0.542 -17.059  0.00  0.00    -0.004 A 
ATOM     27  C   UNL d   1       7.106   0.452 -17.396  0.00  0.00    -0.000 A 
ATOM     28  C   UNL d   1       6.136   0.372 -16.377  0.00  0.00    -0.000 A 
ATOM     29  C   UNL d   1       6.533   0.361 -15.024  0.00  0.00    -0.000 A 
ATOM     30  C   UNL d   1       7.901   0.449 -14.695  0.00  0.00    -0.004 A 
ENDBRANCH  23  25
ENDBRANCH  20  22
ENDBRANCH  18  19
ENDBRANCH  17  18
ENDBRANCH  16  17
ENDBRANCH   1  16
TORSDOF 9
