REMARK  6 active torsions:
REMARK  status: ('A' for Active; 'I' for Inactive)
REMARK    1  A    between atoms: C_5  and  N_6 
REMARK    2  A    between atoms: N_9  and  C_10 
REMARK    3  A    between atoms: C_10  and  C_11 
REMARK    4  A    between atoms: C_11  and  N_12 
REMARK    5  A    between atoms: N_12  and  C_14 
REMARK    6  A    between atoms: C_14  and  C_15 
ROOT
ATOM      1  C   UNL d   1       8.883   3.702 -15.064  0.00  0.00     0.141 C 
ENDROOT
BRANCH   1   2
ATOM      2  N   UNL d   1       8.398   4.104 -13.760  0.00  0.00    -0.298 N 
ATOM      3  C   UNL d   1       7.062   3.806 -13.284  0.00  0.00     0.131 A 
ATOM      4  C   UNL d   1       7.080   4.422 -11.882  0.00  0.00     0.135 A 
ATOM      5  N   UNL d   1       8.410   5.031 -11.798  0.00  0.00    -0.280 N 
ATOM      6  C   UNL d   1       9.123   4.833 -12.914  0.00  0.00     0.328 A 
ATOM      7  O   UNL d   1      10.275   5.213 -13.140  0.00  0.00    -0.247 OA
BRANCH   5   8
ATOM      8  C   UNL d   1       8.902   5.734 -10.670  0.00  0.00     0.064 A 
ATOM      9  C   UNL d   1       8.659   5.257  -9.362  0.00  0.00     0.017 A 
ATOM     10  C   UNL d   1       9.164   5.961  -8.251  0.00  0.00    -0.003 A 
ATOM     11  C   UNL d   1       9.923   7.135  -8.441  0.00  0.00    -0.022 A 
ATOM     12  C   UNL d   1      10.452   7.898  -7.255  0.00  0.00     0.031 C 
ATOM     13  C   UNL d   1      10.171   7.609  -9.739  0.00  0.00    -0.003 A 
ATOM     14  C   UNL d   1       9.652   6.921 -10.839  0.00  0.00     0.017 A 
ENDBRANCH   5   8
ENDBRANCH   1   2
BRANCH   1  15
ATOM     15  C   UNL d   1      10.126   2.786 -14.969  0.00  0.00     0.274 C 
BRANCH  15  16
ATOM     16  N   UNL d   1      10.946   2.911 -16.171  0.00  0.00     0.141 N 
ATOM     17  C   UNL d   1      12.090   3.782 -15.912  0.00  0.00     0.285 C 
BRANCH  16  18
ATOM     18  C   UNL d   1      11.400   1.607 -16.641  0.00  0.00     0.250 C 
BRANCH  18  19
ATOM     19  C   UNL d   1      10.307   0.884 -17.484  0.00  0.00     0.032 C 
ATOM     20  C   UNL d   1       9.706  -0.375 -16.790  0.00  0.00     0.002 C 
ATOM     21  C   UNL d   1       9.114  -1.177 -17.973  0.00  0.00     0.000 C 
ATOM     22  C   UNL d   1       9.420  -0.255 -19.179  0.00  0.00     0.000 C 
ATOM     23  C   UNL d   1       8.468   0.952 -19.078  0.00  0.00     0.000 C 
ATOM     24  C   UNL d   1      10.808   0.328 -18.839  0.00  0.00     0.002 C 
ATOM     25  C   UNL d   1       9.080   1.742 -17.919  0.00  0.00     0.002 C 
ATOM     26  C   UNL d   1      11.310   1.406 -19.843  0.00  0.00     0.000 C 
ATOM     27  C   UNL d   1      11.940  -0.737 -18.743  0.00  0.00     0.000 C 
ENDBRANCH  18  19
ENDBRANCH  16  18
ENDBRANCH  15  16
ENDBRANCH   1  15
TORSDOF 6
