REMARK  6 active torsions:
REMARK  status: ('A' for Active; 'I' for Inactive)
REMARK       I    between atoms: C_2  and  N_3 
REMARK    1  A    between atoms: C_2  and  C_27 
REMARK    2  A    between atoms: N_3  and  C_4 
REMARK    3  A    between atoms: C_7  and  C_8 
REMARK    4  A    between atoms: C_8  and  C_9 
REMARK    5  A    between atoms: C_9  and  N_10 
REMARK    6  A    between atoms: C_13  and  C_14 
ROOT
ATOM      1  C   UNL d   1       7.853   6.255 -11.547  0.00  0.00     0.035 C 
ENDROOT
BRANCH   1   2
ATOM      2  C   UNL d   1       7.561   5.296 -12.717  0.00  0.00     0.002 C 
ATOM      3  C   UNL d   1       8.387   4.005 -12.611  0.00  0.00     0.002 C 
ATOM      4  C   UNL d   1       8.027   2.993 -13.690  0.00  0.00     0.024 C 
ATOM      5  C   UNL d   1       6.529   2.653 -13.649  0.00  0.00     0.107 C 
ATOM      6  C   UNL d   1       5.683   3.923 -13.783  0.00  0.00     0.024 C 
ATOM      7  C   UNL d   1       6.051   4.959 -12.716  0.00  0.00     0.002 C 
BRANCH   5   8
ATOM      8  N   UNL d   1       6.273   1.708 -14.725  0.00  0.00    -0.236 NA
ATOM      9  C   UNL d   1       5.790   0.467 -14.586  0.00  0.00     0.275 C 
ATOM     10  O   UNL d   1       5.516  -0.033 -13.497  0.00  0.00    -0.266 OA
BRANCH   9  11
ATOM     11  C   UNL d   1       5.471  -0.237 -15.871  0.00  0.00     0.058 A 
ATOM     12  C   UNL d   1       6.285  -0.080 -17.020  0.00  0.00     0.006 A 
ATOM     13  C   UNL d   1       5.968  -0.759 -18.212  0.00  0.00     0.012 A 
ATOM     14  C   UNL d   1       4.837  -1.594 -18.266  0.00  0.00     0.058 A 
ATOM     15  C   UNL d   1       4.021  -1.749 -17.128  0.00  0.00     0.012 A 
ATOM     16 CL   UNL d   1       4.453  -2.451 -19.712  0.00  0.00    -0.082 Cl
ATOM     17  C   UNL d   1       4.343  -1.079 -15.933  0.00  0.00     0.006 A 
ENDBRANCH   9  11
ENDBRANCH   5   8
ENDBRANCH   1   2
BRANCH   1  18
ATOM     18  C   UNL d   1       9.347   6.489 -11.243  0.00  0.00     0.250 C 
BRANCH  18  19
ATOM     19  N   UNL d   1       9.594   7.171  -9.980  0.00  0.00     0.137 N 
ATOM     20  C   UNL d   1       9.274   6.297  -8.842  0.00  0.00     0.251 C 
ATOM     21  C   UNL d   1       9.479   7.056  -7.527  0.00  0.00     0.040 C 
ATOM     22  C   UNL d   1      10.924   7.543  -7.414  0.00  0.00     0.028 C 
ATOM     23  C   UNL d   1      11.331   8.309  -8.688  0.00  0.00     0.040 C 
ATOM     24  C   UNL d   1      11.017   7.503  -9.953  0.00  0.00     0.251 C 
BRANCH  22  25
ATOM     25  C   UNL d   1      11.073   8.412  -6.173  0.00  0.00     0.004 A 
ATOM     26  C   UNL d   1      11.457   7.996  -4.871  0.00  0.00     0.021 A 
ATOM     27  C   UNL d   1      11.472   9.175  -4.079  0.00  0.00     0.100 A 
ATOM     28  C   UNL d   1      11.845   6.794  -4.232  0.00  0.00     0.002 A 
ATOM     29  O   UNL d   1      11.057  10.243  -4.834  0.00  0.00    -0.305 OA
ATOM     30  C   UNL d   1      11.874   9.200  -2.736  0.00  0.00     0.025 A 
ATOM     31  C   UNL d   1      10.849   9.749  -6.097  0.00  0.00     0.118 A 
ATOM     32  C   UNL d   1      12.260   7.986  -2.136  0.00  0.00     0.002 A 
ATOM     33  C   UNL d   1      12.240   6.789  -2.874  0.00  0.00     0.000 A 
ENDBRANCH  22  25
ENDBRANCH  18  19
ENDBRANCH   1  18
TORSDOF 6
