REMARK  6 active torsions:
REMARK  status: ('A' for Active; 'I' for Inactive)
REMARK    1  A    between atoms: C_2  and  C_3 
REMARK    2  A    between atoms: C_2  and  C_22 
REMARK    3  A    between atoms: C_3  and  C_4 
REMARK    4  A    between atoms: C_4  and  C_5 
REMARK    5  A    between atoms: C_5  and  N_6 
REMARK    6  A    between atoms: C_9  and  N_10 
ROOT
ATOM      1  N   UNL d   1       9.119   6.361  -9.395  0.00  0.00     0.137 N 
ATOM      2  C   UNL d   1      10.564   6.494  -9.542  0.00  0.00     0.252 C 
ATOM      3  C   UNL d   1      11.097   7.455  -8.515  0.00  0.00     0.058 C 
ATOM      4  C   UNL d   1      10.753   7.061  -7.046  0.00  0.00     0.094 C 
ATOM      5  C   UNL d   1       9.241   6.800  -6.963  0.00  0.00     0.058 C 
ATOM      6  C   UNL d   1       8.787   5.831  -8.071  0.00  0.00     0.252 C 
ENDROOT
BRANCH   1   7
ATOM      7  C   UNL d   1       8.606   5.473 -10.429  0.00  0.00     0.251 C 
BRANCH   7   8
ATOM      8  C   UNL d   1       8.467   6.191 -11.787  0.00  0.00     0.043 C 
BRANCH   8   9
ATOM      9  C   UNL d   1       8.278   5.182 -12.930  0.00  0.00     0.071 C 
BRANCH   9  10
ATOM     10  C   UNL d   1       9.587   4.554 -13.444  0.00  0.00     0.173 C 
ATOM     11  O   UNL d   1      10.653   5.140 -13.281  0.00  0.00    -0.291 OA
BRANCH  10  12
ATOM     12  C   UNL d   1       9.502   3.257 -14.168  0.00  0.00     0.035 A 
ATOM     13  C   UNL d   1       8.267   2.631 -14.449  0.00  0.00     0.005 A 
ATOM     14  C   UNL d   1       8.232   1.399 -15.129  0.00  0.00     0.030 A 
ATOM     15  C   UNL d   1       9.430   0.790 -15.547  0.00  0.00     0.140 A 
ATOM     16  C   UNL d   1      10.661   1.412 -15.283  0.00  0.00     0.030 A 
ATOM     17  F   UNL d   1       9.407  -0.388 -16.212  0.00  0.00    -0.204 F 
ATOM     18  C   UNL d   1      10.702   2.640 -14.597  0.00  0.00     0.005 A 
ENDBRANCH  10  12
ENDBRANCH   9  10
ENDBRANCH   8   9
ENDBRANCH   7   8
ENDBRANCH   1   7
BRANCH   4  19
ATOM     19  N   UNL d   1      11.164   8.068  -6.043  0.00  0.00    -0.281 N 
ATOM     20  C   UNL d   1      11.493   7.814  -4.706  0.00  0.00     0.082 A 
ATOM     21  C   UNL d   1      11.812   9.032  -4.132  0.00  0.00     0.102 A 
ATOM     22  C   UNL d   1      11.544   6.635  -3.964  0.00  0.00     0.019 A 
ATOM     23  N   UNL d   1      11.648   9.991  -5.097  0.00  0.00    -0.191 NA
ATOM     24  C   UNL d   1      12.194   9.175  -2.806  0.00  0.00     0.021 A 
ATOM     25  C   UNL d   1      11.270   9.395  -6.224  0.00  0.00     0.350 A 
ATOM     26  O   UNL d   1      11.062   9.985  -7.250  0.00  0.00    -0.244 OA
ATOM     27  C   UNL d   1      12.263   8.001  -2.036  0.00  0.00     0.002 A 
ATOM     28  C   UNL d   1      11.935   6.748  -2.607  0.00  0.00     0.002 A 
ENDBRANCH   4  19
TORSDOF 6
