REMARK  8 active torsions:
REMARK  status: ('A' for Active; 'I' for Inactive)
REMARK    1  A    between atoms: C_2  and  N_3 
REMARK    2  A    between atoms: N_3  and  C_4 
REMARK    3  A    between atoms: N_3  and  C_6 
REMARK    4  A    between atoms: C_6  and  C_7 
REMARK    5  A    between atoms: C_7  and  O_8 
REMARK    6  A    between atoms: O_8  and  C_9 
REMARK    7  A    between atoms: C_9  and  C_10 
REMARK    8  A    between atoms: C_10  and  C_11 
ROOT
ATOM      1  C   UNL d   1       8.704   5.523  -9.122  0.00  0.00     0.054 C 
ENDROOT
BRANCH   1   2
ATOM      2  C   UNL d   1       9.611   4.979 -10.228  0.00  0.00     0.147 C 
BRANCH   2   3
ATOM      3  O   UNL d   1       8.845   4.607 -11.350  0.00  0.00    -0.352 OA
BRANCH   3   4
ATOM      4  C   UNL d   1       9.693   4.195 -12.399  0.00  0.00     0.178 C 
BRANCH   4   5
ATOM      5  C   UNL d   1       8.933   4.255 -13.730  0.00  0.00     0.282 C 
BRANCH   5   6
ATOM      6  N   UNL d   1       9.551   3.476 -14.815  0.00  0.00     0.140 N 
BRANCH   6   7
ATOM      7  C   UNL d   1       9.425   2.027 -14.581  0.00  0.00     0.250 C 
ATOM      8  C   UNL d   1       7.983   1.466 -14.535  0.00  0.00     0.037 C 
ENDBRANCH   6   7
BRANCH   6   9
ATOM      9  C   UNL d   1      10.957   3.864 -15.026  0.00  0.00     0.250 C 
ATOM     10  C   UNL d   1      11.192   5.349 -15.349  0.00  0.00     0.037 C 
ENDBRANCH   6   9
ENDBRANCH   5   6
ENDBRANCH   4   5
ENDBRANCH   3   4
ENDBRANCH   2   3
ENDBRANCH   1   2
BRANCH   1  11
ATOM     11  C   UNL d   1       9.234   6.741  -8.383  0.00  0.00    -0.046 C 
ATOM     12  C   UNL d   1      10.422   7.579  -8.904  0.00  0.00     0.018 C 
ATOM     13  C   UNL d   1      10.096   9.081  -8.847  0.00  0.00     0.004 C 
ATOM     14  C   UNL d   1      11.451   7.846  -7.774  0.00  0.00     0.004 C 
ATOM     15  C   UNL d   1      10.416   8.934  -7.336  0.00  0.00     0.005 C 
ATOM     16  C   UNL d   1       9.229   8.403  -6.516  0.00  0.00     0.025 C 
ATOM     17  C   UNL d   1       8.660   7.173  -7.218  0.00  0.00    -0.035 C 
ATOM     18  C   UNL d   1      12.830   8.350  -8.252  0.00  0.00     0.000 C 
ATOM     19  C   UNL d   1      11.718   6.689  -6.765  0.00  0.00     0.000 C 
ENDBRANCH   1  11
TORSDOF 8
