REMARK  5 active torsions:
REMARK  status: ('A' for Active; 'I' for Inactive)
REMARK    1  A    between atoms: C_2  and  C_3 
REMARK    2  A    between atoms: N_12  and  C_13 
REMARK    3  A    between atoms: C_13  and  C_14 
REMARK    4  A    between atoms: C_14  and  C_15 
REMARK    5  A    between atoms: C_15  and  C_16 
ROOT
ATOM      1  O   UNL d   1       7.019   6.007 -11.622  0.00  0.00    -0.221 OA
ATOM      2  C   UNL d   1       8.307   5.474 -11.818  0.00  0.00     0.149 C 
ATOM      3  C   UNL d   1       9.195   6.570 -12.410  0.00  0.00     0.070 C 
ATOM      4  C   UNL d   1       9.508   7.702 -11.429  0.00  0.00     0.253 C 
ATOM      5  N   UNL d   1      10.109   7.194 -10.197  0.00  0.00     0.137 N 
ATOM      6  C   UNL d   1       9.174   6.253  -9.558  0.00  0.00     0.253 C 
ATOM      7  C   UNL d   1       8.883   5.051 -10.468  0.00  0.00     0.070 C 
ENDROOT
BRANCH   5   8
ATOM      8  C   UNL d   1      10.377   8.366  -9.349  0.00  0.00     0.251 C 
BRANCH   8   9
ATOM      9  C   UNL d   1      10.915   7.953  -7.979  0.00  0.00     0.040 C 
BRANCH   9  10
ATOM     10  C   UNL d   1      10.922   9.060  -6.925  0.00  0.00     0.028 C 
BRANCH  10  11
ATOM     11  C   UNL d   1      11.319   8.571  -5.531  0.00  0.00    -0.022 A 
ATOM     12  C   UNL d   1      11.462   7.197  -5.216  0.00  0.00    -0.002 A 
ATOM     13  C   UNL d   1      11.855   6.801  -3.917  0.00  0.00     0.029 A 
ATOM     14  C   UNL d   1      12.124   7.766  -2.935  0.00  0.00     0.140 A 
ATOM     15  C   UNL d   1      11.963   9.133  -3.229  0.00  0.00     0.029 A 
ATOM     16  F   UNL d   1      12.537   7.381  -1.702  0.00  0.00    -0.204 F 
ATOM     17  C   UNL d   1      11.559   9.533  -4.524  0.00  0.00    -0.002 A 
ENDBRANCH  10  11
ENDBRANCH   9  10
ENDBRANCH   8   9
ENDBRANCH   5   8
BRANCH   2  18
ATOM     18  C   UNL d   1       8.228   4.281 -12.784  0.00  0.00     0.005 A 
ATOM     19  C   UNL d   1       9.409   3.627 -13.215  0.00  0.00    -0.001 A 
ATOM     20  C   UNL d   1       9.347   2.512 -14.072  0.00  0.00     0.011 A 
ATOM     21  C   UNL d   1       8.096   2.028 -14.507  0.00  0.00     0.058 A 
ATOM     22  C   UNL d   1       6.914   2.663 -14.087  0.00  0.00     0.011 A 
ATOM     23 CL   UNL d   1       8.016   0.654 -15.544  0.00  0.00    -0.082 Cl
ATOM     24  C   UNL d   1       6.981   3.788 -13.239  0.00  0.00    -0.001 A 
ENDBRANCH   2  18
TORSDOF 5
