REMARK  9 active torsions:
REMARK  status: ('A' for Active; 'I' for Inactive)
REMARK    1  A    between atoms: C_5  and  O_6 
REMARK    2  A    between atoms: O_6  and  C_7 
REMARK    3  A    between atoms: C_7  and  C_8 
REMARK    4  A    between atoms: C_8  and  N_9 
REMARK    5  A    between atoms: N_9  and  C_10 
REMARK    6  A    between atoms: C_10  and  C_11 
REMARK    7  A    between atoms: C_11  and  C_12 
REMARK    8  A    between atoms: C_12  and  O_13 
REMARK    9  A    between atoms: O_13  and  C_14 
ROOT
ATOM      1  N   UNL d   1       9.370   5.782  -9.469  0.00  0.00     0.342 N 
ENDROOT
BRANCH   1   2
ATOM      2  C   UNL d   1       9.285   7.003  -8.695  0.00  0.00     0.323 C 
BRANCH   2   3
ATOM      3  C   UNL d   1      10.228   6.919  -7.487  0.00  0.00     0.187 C 
BRANCH   3   4
ATOM      4  O   UNL d   1      10.391   8.165  -6.860  0.00  0.00    -0.329 OA
BRANCH   4   5
ATOM      5  C   UNL d   1      10.995   8.178  -5.621  0.00  0.00     0.094 A 
ATOM      6  C   UNL d   1      11.387   6.963  -4.964  0.00  0.00     0.024 A 
ATOM      7  C   UNL d   1      11.898   7.026  -3.643  0.00  0.00    -0.002 A 
ATOM      8  C   UNL d   1      12.063   8.257  -3.009  0.00  0.00    -0.022 A 
ATOM      9  C   UNL d   1      12.621   8.291  -1.607  0.00  0.00     0.031 C 
ATOM     10  C   UNL d   1      11.709   9.457  -3.667  0.00  0.00    -0.002 A 
ATOM     11  C   UNL d   1      11.178   9.391  -4.969  0.00  0.00     0.024 A 
ENDBRANCH   4   5
ENDBRANCH   3   4
ENDBRANCH   2   3
ENDBRANCH   1   2
BRANCH   1  12
ATOM     12  C   UNL d   1       8.659   5.980 -10.716  0.00  0.00     0.293 C 
BRANCH  12  13
ATOM     13  C   UNL d   1       9.008   4.877 -11.714  0.00  0.00     0.071 C 
BRANCH  13  14
ATOM     14  C   UNL d   1       8.739   5.294 -13.166  0.00  0.00     0.151 C 
BRANCH  14  15
ATOM     15  O   UNL d   1       9.295   4.329 -14.058  0.00  0.00    -0.331 OA
BRANCH  15  16
ATOM     16  C   UNL d   1       8.654   3.130 -14.276  0.00  0.00     0.090 A 
ATOM     17  C   UNL d   1       9.418   2.034 -14.762  0.00  0.00     0.001 A 
ATOM     18  C   UNL d   1       8.800   0.787 -15.009  0.00  0.00    -0.002 A 
ATOM     19  C   UNL d   1      10.912   2.183 -14.993  0.00  0.00     0.033 C 
ATOM     20  C   UNL d   1       7.420   0.622 -14.790  0.00  0.00    -0.000 A 
ATOM     21  C   UNL d   1       6.655   1.704 -14.320  0.00  0.00     0.002 A 
ATOM     22  C   UNL d   1       7.267   2.946 -14.070  0.00  0.00     0.024 A 
ENDBRANCH  15  16
ENDBRANCH  14  15
ENDBRANCH  13  14
ENDBRANCH  12  13
ENDBRANCH   1  12
TORSDOF 9
