REMARK  5 active torsions:
REMARK  status: ('A' for Active; 'I' for Inactive)
REMARK       I    between atoms: N_10  and  C_11 
REMARK    1  A    between atoms: C_11  and  C_13 
REMARK    2  A    between atoms: C_13  and  N_14 
REMARK    3  A    between atoms: N_17  and  C_18 
REMARK    4  A    between atoms: C_18  and  C_19 
REMARK    5  A    between atoms: C_19  and  C_20 
ROOT
ATOM      1  N   UNL d   1       9.543   5.733 -11.876  0.00  0.00     0.151 N 
ATOM      2  C   UNL d   1       8.979   4.812 -10.892  0.00  0.00     0.286 C 
ATOM      3  C   UNL d   1       9.592   5.003  -9.490  0.00  0.00     0.285 C 
ATOM      4  N   UNL d   1       9.456   6.388  -9.029  0.00  0.00     0.142 N 
ATOM      5  C   UNL d   1      10.017   7.285 -10.034  0.00  0.00     0.285 C 
ATOM      6  C   UNL d   1       9.356   7.089 -11.395  0.00  0.00     0.286 C 
ENDROOT
BRANCH   1   7
ATOM      7  C   UNL d   1       8.924   5.569 -13.170  0.00  0.00     0.337 C 
BRANCH   7   8
ATOM      8  C   UNL d   1       9.706   4.704 -14.171  0.00  0.00     0.271 C 
ATOM      9  N   UNL d   1       9.238   3.518 -14.635  0.00  0.00    -0.299 N 
ATOM     10  C   UNL d   1      10.067   2.660 -15.530  0.00  0.00     0.093 C 
ATOM     11  C   UNL d   1       8.026   2.808 -14.319  0.00  0.00     0.058 A 
ATOM     12  C   UNL d   1      10.173   3.241 -16.960  0.00  0.00     0.025 C 
ATOM     13  C   UNL d   1       9.392   1.258 -15.547  0.00  0.00     0.051 C 
ATOM     14  C   UNL d   1       8.110   1.497 -14.796  0.00  0.00    -0.004 A 
ATOM     15  C   UNL d   1       7.067   0.554 -14.611  0.00  0.00    -0.003 A 
ATOM     16  C   UNL d   1       5.911   0.951 -13.889  0.00  0.00    -0.000 A 
ATOM     17  C   UNL d   1       5.827   2.282 -13.420  0.00  0.00     0.002 A 
ATOM     18  C   UNL d   1       6.814   3.212 -13.675  0.00  0.00     0.017 A 
ATOM     19  O   UNL d   1      10.812   5.159 -14.559  0.00  0.00    -0.270 OA
ENDBRANCH   7   8
ENDBRANCH   1   7
BRANCH   4  20
ATOM     20  C   UNL d   1      10.082   6.566  -7.738  0.00  0.00     0.255 C 
BRANCH  20  21
ATOM     21  C   UNL d   1      10.073   7.999  -7.166  0.00  0.00     0.062 C 
BRANCH  21  22
ATOM     22  C   UNL d   1      10.735   8.110  -5.803  0.00  0.00    -0.020 A 
ATOM     23  C   UNL d   1      11.217   6.965  -5.122  0.00  0.00    -0.003 A 
ATOM     24  C   UNL d   1      11.818   7.070  -3.867  0.00  0.00     0.011 A 
ATOM     25  C   UNL d   1      11.940   8.328  -3.267  0.00  0.00     0.058 A 
ATOM     26  C   UNL d   1      11.472   9.480  -3.923  0.00  0.00     0.011 A 
ATOM     27 CL   UNL d   1      12.642   8.437  -1.704  0.00  0.00    -0.082 Cl
ATOM     28  C   UNL d   1      10.882   9.378  -5.199  0.00  0.00    -0.003 A 
ENDBRANCH  21  22
ENDBRANCH  20  21
ENDBRANCH   4  20
TORSDOF 5
