REMARK  6 active torsions:
REMARK  status: ('A' for Active; 'I' for Inactive)
REMARK       I    between atoms: C_2  and  N_3 
REMARK    1  A    between atoms: C_2  and  C_24 
REMARK    2  A    between atoms: N_3  and  C_4 
REMARK    3  A    between atoms: N_7  and  C_8 
REMARK    4  A    between atoms: C_8  and  C_9 
REMARK    5  A    between atoms: C_12  and  O_13 
REMARK    6  A    between atoms: O_13  and  C_14 
ROOT
ATOM      1  C   UNL d   1       8.540   5.421 -13.421  0.00  0.00     0.142 C 
ATOM      2  C   UNL d   1       7.084   5.094 -13.118  0.00  0.00     0.062 C 
ATOM      3  C   UNL d   1       7.080   4.676 -11.672  0.00  0.00     0.253 C 
ATOM      4  N   UNL d   1       8.254   5.348 -11.113  0.00  0.00     0.143 N 
ATOM      5  C   UNL d   1       9.267   5.097 -12.123  0.00  0.00     0.275 C 
ENDROOT
BRANCH   4   6
ATOM      6  C   UNL d   1       8.648   4.837  -9.807  0.00  0.00     0.277 C 
BRANCH   6   7
ATOM      7  C   UNL d   1       9.285   5.871  -8.900  0.00  0.00     0.011 A 
ATOM      8  C   UNL d   1      10.430   6.599  -9.306  0.00  0.00     0.006 A 
ATOM      9  C   UNL d   1      11.063   7.470  -8.434  0.00  0.00     0.057 A 
ATOM     10  C   UNL d   1      10.634   7.629  -7.113  0.00  0.00     0.100 A 
ATOM     11 BR   UNL d   1      12.607   8.381  -9.037  0.00  0.00    -0.047 Br
ATOM     12  C   UNL d   1       9.459   6.927  -6.700  0.00  0.00     0.024 A 
ATOM     13  C   UNL d   1       8.789   6.070  -7.598  0.00  0.00    -0.000 A 
BRANCH  10  14
ATOM     14  O   UNL d   1      11.423   8.434  -6.329  0.00  0.00    -0.333 OA
BRANCH  14  15
ATOM     15  C   UNL d   1      11.269   8.390  -4.921  0.00  0.00     0.126 C 
ATOM     16  C   UNL d   1      11.821   7.111  -4.256  0.00  0.00     0.068 C 
ATOM     17  C   UNL d   1      11.781   7.155  -2.741  0.00  0.00     0.293 C 
ATOM     18  N   UNL d   1      12.483   8.341  -2.270  0.00  0.00     0.339 N 
ATOM     19  C   UNL d   1      11.858   9.532  -2.841  0.00  0.00     0.293 C 
ATOM     20  C   UNL d   1      11.984   9.592  -4.349  0.00  0.00     0.068 C 
ENDBRANCH  14  15
ENDBRANCH  10  14
ENDBRANCH   6   7
ENDBRANCH   4   6
BRANCH   1  21
ATOM     21  N   UNL d   1       9.052   4.642 -14.545  0.00  0.00    -0.234 NA
ATOM     22  C   UNL d   1      10.341   4.468 -14.869  0.00  0.00     0.275 C 
ATOM     23  O   UNL d   1      11.265   5.156 -14.428  0.00  0.00    -0.266 OA
BRANCH  22  24
ATOM     24  C   UNL d   1      10.601   3.343 -15.822  0.00  0.00     0.058 A 
ATOM     25  C   UNL d   1      11.675   3.434 -16.741  0.00  0.00     0.017 A 
ATOM     26  C   UNL d   1      11.970   2.360 -17.599  0.00  0.00     0.069 A 
ATOM     27  C   UNL d   1      11.208   1.174 -17.533  0.00  0.00     0.068 A 
ATOM     28 CL   UNL d   1      13.272   2.524 -18.728  0.00  0.00    -0.082 Cl
ATOM     29  C   UNL d   1      10.146   1.071 -16.607  0.00  0.00     0.012 A 
ATOM     30 CL   UNL d   1      11.543  -0.167 -18.571  0.00  0.00    -0.082 Cl
ATOM     31  C   UNL d   1       9.852   2.149 -15.755  0.00  0.00     0.006 A 
ENDBRANCH  22  24
ENDBRANCH   1  21
TORSDOF 6
