REMARK  7 active torsions:
REMARK  status: ('A' for Active; 'I' for Inactive)
REMARK    1  A    between atoms: C_2  and  O_3 
REMARK    2  A    between atoms: O_3  and  N_4 
REMARK    3  A    between atoms: C_5  and  C_6 
REMARK    4  A    between atoms: C_5  and  C_20 
REMARK    5  A    between atoms: C_6  and  C_7 
REMARK    6  A    between atoms: C_7  and  N_8 
REMARK    7  A    between atoms: N_11  and  C_12 
ROOT
ATOM      1  C   UNL d   1       8.945   4.118 -14.338  0.00  0.00     0.257 C 
ENDROOT
BRANCH   1   2
ATOM      2  C   UNL d   1       8.649   2.610 -14.538  0.00  0.00     0.083 C 
BRANCH   2   3
ATOM      3  C   UNL d   1       9.071   2.036 -15.893  0.00  0.00     0.087 C 
ATOM      4  N   UNL d   1      10.252   2.140 -16.371  0.00  0.00    -0.136 NA
BRANCH   4   5
ATOM      5  O   UNL d   1      11.147   2.797 -15.502  0.00  0.00    -0.237 OA
BRANCH   5   6
ATOM      6  C   UNL d   1      12.256   3.271 -16.260  0.00  0.00     0.176 C 
ATOM      7  C   UNL d   1      13.014   4.350 -15.471  0.00  0.00     0.038 C 
ENDBRANCH   5   6
ENDBRANCH   4   5
BRANCH   3   8
ATOM      8  C   UNL d   1       8.003   1.325 -16.652  0.00  0.00     0.016 A 
ATOM      9  C   UNL d   1       7.138   0.410 -16.011  0.00  0.00     0.001 A 
ATOM     10  C   UNL d   1       6.158  -0.297 -16.736  0.00  0.00     0.000 A 
ATOM     11  C   UNL d   1       6.035  -0.104 -18.125  0.00  0.00     0.000 A 
ATOM     12  C   UNL d   1       6.895   0.794 -18.782  0.00  0.00     0.000 A 
ATOM     13  C   UNL d   1       7.875   1.501 -18.054  0.00  0.00     0.001 A 
ENDBRANCH   3   8
ENDBRANCH   2   3
ENDBRANCH   1   2
BRANCH   1  14
ATOM     14  N   UNL d   1       8.555   4.582 -13.008  0.00  0.00     0.141 N 
ATOM     15  C   UNL d   1       8.690   6.037 -12.994  0.00  0.00     0.274 C 
ATOM     16  C   UNL d   1       8.273   6.597 -11.635  0.00  0.00     0.138 C 
ATOM     17  N   UNL d   1       9.106   6.001 -10.587  0.00  0.00    -0.330 N 
ATOM     18  C   UNL d   1       9.110   4.538 -10.597  0.00  0.00     0.138 C 
ATOM     19  C   UNL d   1       9.480   4.042 -12.009  0.00  0.00     0.274 C 
BRANCH  17  20
ATOM     20  C   UNL d   1       9.785   6.749  -9.646  0.00  0.00     0.140 A 
ATOM     21  N   UNL d   1       9.990   6.211  -8.413  0.00  0.00    -0.227 NA
ATOM     22  C   UNL d   1      10.638   6.934  -7.481  0.00  0.00     0.101 A 
ATOM     23  C   UNL d   1      11.153   8.223  -7.722  0.00  0.00     0.021 A 
ATOM     24  C   UNL d   1      10.969   8.785  -8.996  0.00  0.00     0.005 A 
ATOM     25  C   UNL d   1      10.280   8.046  -9.967  0.00  0.00     0.037 A 
ENDBRANCH  17  20
ENDBRANCH   1  14
TORSDOF 7
