REMARK  6 active torsions:
REMARK  status: ('A' for Active; 'I' for Inactive)
REMARK    1  A    between atoms: C_2  and  C_5 
REMARK       I    between atoms: C_5  and  N_7 
REMARK    2  A    between atoms: N_7  and  C_8 
REMARK    3  A    between atoms: C_8  and  C_9 
REMARK    4  A    between atoms: C_9  and  C_10 
REMARK    5  A    between atoms: C_10  and  C_11 
REMARK    6  A    between atoms: C_11  and  N_12 
ROOT
ATOM      1  N   UNL d   1       9.617   6.509 -10.270  0.00  0.00     0.141 N 
ATOM      2  C   UNL d   1       9.133   5.801  -9.085  0.00  0.00     0.274 C 
ATOM      3  C   UNL d   1      10.182   5.849  -7.988  0.00  0.00     0.137 C 
ATOM      4  N   UNL d   1      10.526   7.209  -7.620  0.00  0.00    -0.346 N 
ATOM      5  C   UNL d   1      11.066   7.524  -6.318  0.00  0.00     0.052 C 
ATOM      6  C   UNL d   1      10.891   6.696  -5.225  0.00  0.00     0.017 C 
ATOM      7  C   UNL d   1      11.470   6.928  -3.958  0.00  0.00     0.013 C 
ATOM      8  C   UNL d   1      12.130   8.134  -3.709  0.00  0.00     0.058 C 
ATOM      9 CL   UNL d   1      12.659   8.499  -2.117  0.00  0.00    -0.082 Cl
ATOM     10  C   UNL d   1      12.307   9.032  -4.772  0.00  0.00     0.009 C 
ATOM     11  C   UNL d   1      11.788   8.707  -6.067  0.00  0.00    -0.006 C 
ATOM     12  C   UNL d   1      12.130   9.588  -7.207  0.00  0.00     0.030 C 
ATOM     13  C   UNL d   1      11.097   9.463  -8.332  0.00  0.00     0.029 C 
ATOM     14  C   UNL d   1      10.933   8.008  -8.763  0.00  0.00     0.115 C 
ATOM     15  C   UNL d   1       9.856   7.902  -9.866  0.00  0.00     0.272 C 
ENDROOT
BRANCH   1  16
ATOM     16  C   UNL d   1       8.611   6.456 -11.343  0.00  0.00     0.251 C 
BRANCH  16  17
ATOM     17  C   UNL d   1       8.478   5.065 -11.971  0.00  0.00     0.037 C 
BRANCH  17  18
ATOM     18  C   UNL d   1       7.479   5.042 -13.141  0.00  0.00     0.029 C 
BRANCH  18  19
ATOM     19  C   UNL d   1       7.148   3.624 -13.642  0.00  0.00     0.129 C 
BRANCH  19  20
ATOM     20  N   UNL d   1       8.367   2.953 -14.095  0.00  0.00    -0.238 NA
ATOM     21  C   UNL d   1       8.537   2.242 -15.214  0.00  0.00     0.250 C 
ATOM     22  O   UNL d   1       7.601   1.981 -15.985  0.00  0.00    -0.271 OA
BRANCH  21  23
ATOM     23  C   UNL d   1       9.971   1.762 -15.551  0.00  0.00     0.073 C 
ATOM     24  C   UNL d   1      11.058   2.499 -14.730  0.00  0.00     0.009 C 
ATOM     25  C   UNL d   1      10.249   1.987 -17.055  0.00  0.00     0.009 C 
ATOM     26  C   UNL d   1      10.049   0.252 -15.262  0.00  0.00     0.009 C 
ENDBRANCH  21  23
ENDBRANCH  19  20
ENDBRANCH  18  19
ENDBRANCH  17  18
ENDBRANCH  16  17
ENDBRANCH   1  16
TORSDOF 6
