REMARK  6 active torsions:
REMARK  status: ('A' for Active; 'I' for Inactive)
REMARK    1  A    between atoms: C_2  and  C_3 
REMARK    2  A    between atoms: C_8  and  N_9 
REMARK       I    between atoms: N_9  and  C_10 
REMARK       I    between atoms: C_10  and  N_12 
REMARK    3  A    between atoms: C_19  and  C_20 
REMARK    4  A    between atoms: C_23  and  C_24 
REMARK    5  A    between atoms: C_27  and  C_28 
REMARK    6  A    between atoms: C_28  and  C_29 
ROOT
ATOM      1  N   UNL d   1       7.272   0.647 -16.274  0.00  0.00    -0.193 NA
ATOM      2  C   UNL d   1       7.767   1.483 -17.203  0.00  0.00     0.350 C 
ATOM      3  O   UNL d   1       7.197   1.706 -18.290  0.00  0.00    -0.244 OA
ATOM      4  N   UNL d   1       8.956   2.046 -16.849  0.00  0.00    -0.276 N 
ATOM      5  C   UNL d   1      10.007   2.107 -17.870  0.00  0.00     0.141 C 
ATOM      6  C   UNL d   1      11.374   2.274 -17.183  0.00  0.00     0.144 C 
ATOM      7  C   UNL d   1      12.488   2.443 -18.209  0.00  0.00     0.035 C 
ATOM      8  O   UNL d   1      11.389   3.397 -16.297  0.00  0.00    -0.330 OA
ATOM      9  C   UNL d   1      10.318   3.472 -15.425  0.00  0.00     0.110 A 
ATOM     10  C   UNL d   1      10.455   4.323 -14.298  0.00  0.00     0.026 A 
ATOM     11  C   UNL d   1       9.366   4.473 -13.412  0.00  0.00     0.002 A 
ATOM     12  C   UNL d   1       8.170   3.786 -13.649  0.00  0.00     0.002 A 
ATOM     13  C   UNL d   1       8.014   2.975 -14.769  0.00  0.00     0.019 A 
ATOM     14  C   UNL d   1       9.098   2.799 -15.666  0.00  0.00     0.086 A 
ENDROOT
BRANCH  11  15
ATOM     15  C   UNL d   1       9.434   5.305 -12.214  0.00  0.00     0.000 A 
ATOM     16  C   UNL d   1       9.428   6.711 -12.274  0.00  0.00    -0.000 A 
ATOM     17  C   UNL d   1       9.520   7.474 -11.085  0.00  0.00    -0.004 A 
ATOM     18  C   UNL d   1       9.606   6.831  -9.822  0.00  0.00    -0.022 A 
ATOM     19  C   UNL d   1       9.537   5.414  -9.763  0.00  0.00    -0.004 A 
ATOM     20  C   UNL d   1       9.468   4.674 -10.960  0.00  0.00    -0.000 A 
BRANCH  18  21
ATOM     21  C   UNL d   1       9.789   7.673  -8.570  0.00  0.00     0.022 C 
ATOM     22  C   UNL d   1      11.170   8.355  -8.545  0.00  0.00     0.004 C 
ATOM     23  C   UNL d   1      11.363   9.174  -7.257  0.00  0.00     0.001 C 
ATOM     24  C   UNL d   1      11.113   8.333  -5.998  0.00  0.00     0.011 C 
ATOM     25  C   UNL d   1       9.728   7.681  -6.043  0.00  0.00     0.001 C 
ATOM     26  C   UNL d   1       9.566   6.840  -7.302  0.00  0.00     0.004 C 
BRANCH  24  27
ATOM     27  C   UNL d   1      11.300   9.182  -4.718  0.00  0.00     0.098 C 
BRANCH  27  28
ATOM     28  C   UNL d   1      11.860   8.412  -3.516  0.00  0.00     0.185 C 
ATOM     29  O   UNL d   1      11.933   7.189  -3.454  0.00  0.00    -0.647 OA
ATOM     30  O   UNL d   1      12.252   9.259  -2.525  0.00  0.00    -0.647 OA
ENDBRANCH  27  28
ENDBRANCH  24  27
ENDBRANCH  18  21
ENDBRANCH  11  15
BRANCH   1  31
ATOM     31  C   UNL d   1       6.041  -0.044 -16.245  0.00  0.00     0.082 A 
ATOM     32  C   UNL d   1       5.411  -0.232 -14.986  0.00  0.00    -0.004 A 
ATOM     33  C   UNL d   1       4.182  -0.924 -14.929  0.00  0.00    -0.003 A 
ATOM     34  C   UNL d   1       3.590  -1.442 -16.096  0.00  0.00    -0.000 A 
ATOM     35  C   UNL d   1       4.206  -1.249 -17.345  0.00  0.00     0.002 A 
ATOM     36  C   UNL d   1       5.431  -0.556 -17.423  0.00  0.00     0.019 A 
BRANCH  32  37
ATOM     37  C   UNL d   1       5.981   0.310 -13.672  0.00  0.00     0.028 C 
ATOM     38  C   UNL d   1       5.369   1.662 -13.270  0.00  0.00     0.005 C 
ENDBRANCH  32  37
ENDBRANCH   1  31
TORSDOF 6
