REMARK  4 active torsions:
REMARK  status: ('A' for Active; 'I' for Inactive)
REMARK    1  A    between atoms: C_5  and  C_6 
REMARK    2  A    between atoms: C_10  and  C_11 
REMARK    3  A    between atoms: C_11  and  N_12 
REMARK    4  A    between atoms: N_15  and  C_16 
ROOT
ATOM      1  C   UNL d   1       8.094   6.462 -12.118  0.00  0.00     0.278 C 
ENDROOT
BRANCH   1   2
ATOM      2  C   UNL d   1       7.592   5.144 -12.663  0.00  0.00     0.030 A 
ATOM      3  C   UNL d   1       6.310   4.659 -12.343  0.00  0.00     0.097 A 
ATOM      4  N   UNL d   1       5.823   3.508 -12.841  0.00  0.00    -0.243 NA
ATOM      5  C   UNL d   1       6.620   2.791 -13.660  0.00  0.00     0.099 A 
ATOM      6  C   UNL d   1       7.932   3.164 -14.043  0.00  0.00     0.019 A 
ATOM      7  C   UNL d   1       8.407   4.387 -13.524  0.00  0.00     0.001 A 
BRANCH   6   8
ATOM      8  C   UNL d   1       8.765   2.315 -14.932  0.00  0.00     0.002 A 
ATOM      9  C   UNL d   1      10.183   2.372 -14.889  0.00  0.00     0.002 A 
ATOM     10  C   UNL d   1      10.972   1.580 -15.746  0.00  0.00     0.030 A 
ATOM     11  C   UNL d   1      10.361   0.698 -16.652  0.00  0.00     0.140 A 
ATOM     12  F   UNL d   1      11.117  -0.066 -17.477  0.00  0.00    -0.204 F 
ATOM     13  C   UNL d   1       8.960   0.615 -16.704  0.00  0.00     0.030 A 
ATOM     14  C   UNL d   1       8.173   1.419 -15.858  0.00  0.00     0.002 A 
ENDBRANCH   6   8
ENDBRANCH   1   2
BRANCH   1  15
ATOM     15  N   UNL d   1       9.205   6.318 -11.183  0.00  0.00     0.145 N 
ATOM     16  C   UNL d   1       9.785   7.650 -10.937  0.00  0.00     0.275 C 
ATOM     17  C   UNL d   1      10.977   7.552  -9.977  0.00  0.00     0.137 C 
ATOM     18  N   UNL d   1      10.563   6.912  -8.741  0.00  0.00    -0.344 N 
ATOM     19  C   UNL d   1       9.865   5.630  -8.888  0.00  0.00     0.137 C 
ATOM     20  C   UNL d   1       8.720   5.749  -9.913  0.00  0.00     0.275 C 
BRANCH  18  21
ATOM     21  C   UNL d   1      10.795   7.519  -7.494  0.00  0.00     0.056 A 
ATOM     22  C   UNL d   1      10.773   8.924  -7.330  0.00  0.00     0.019 A 
ATOM     23  C   UNL d   1      11.015   9.507  -6.071  0.00  0.00     0.031 A 
ATOM     24  C   UNL d   1      11.272   8.697  -4.950  0.00  0.00     0.140 A 
ATOM     25  C   UNL d   1      11.288   7.298  -5.097  0.00  0.00     0.031 A 
ATOM     26  F   UNL d   1      11.476   9.258  -3.738  0.00  0.00    -0.204 F 
ATOM     27  C   UNL d   1      11.064   6.725  -6.361  0.00  0.00     0.019 A 
ENDBRANCH  18  21
ENDBRANCH   1  15
TORSDOF 4
