REMARK  7 active torsions:
REMARK  status: ('A' for Active; 'I' for Inactive)
REMARK    1  A    between atoms: C_8  and  C_9 
REMARK    2  A    between atoms: C_12  and  O_13 
REMARK    3  A    between atoms: O_13  and  C_14 
REMARK    4  A    between atoms: C_14  and  C_15 
REMARK    5  A    between atoms: C_15  and  C_16 
REMARK    6  A    between atoms: C_16  and  N_17 
REMARK    7  A    between atoms: N_20  and  C_21 
ROOT
ATOM      1  O   UNL d   1       4.750   0.048 -13.687  0.00  0.00    -0.331 OA
ENDROOT
BRANCH   1   2
ATOM      2  C   UNL d   1       5.454   1.222 -13.424  0.00  0.00     0.094 C 
ATOM      3  C   UNL d   1       5.332   1.767 -12.147  0.00  0.00     0.024 C 
ATOM      4  C   UNL d   1       5.832   3.020 -11.856  0.00  0.00     0.004 C 
ATOM      5  C   UNL d   1       6.762   3.625 -12.671  0.00  0.00     0.019 C 
ATOM      6  C   UNL d   1       6.946   3.130 -13.952  0.00  0.00     0.004 C 
ATOM      7  C   UNL d   1       6.268   1.979 -14.335  0.00  0.00     0.024 C 
BRANCH   5   8
ATOM      8  C   UNL d   1       7.563   4.740 -12.173  0.00  0.00     0.101 A 
ATOM      9  C   UNL d   1       7.949   5.861 -12.869  0.00  0.00     0.101 A 
ATOM     10  N   UNL d   1       8.655   6.662 -12.021  0.00  0.00    -0.288 N 
ATOM     11  C   UNL d   1       9.167   7.893 -12.226  0.00  0.00     0.082 A 
ATOM     12  C   UNL d   1       8.807   5.946 -10.810  0.00  0.00     0.144 A 
ATOM     13  C   UNL d   1       9.874   8.471 -11.218  0.00  0.00     0.019 A 
ATOM     14  C   UNL d   1      10.081   7.838  -9.996  0.00  0.00     0.000 A 
ATOM     15  C   UNL d   1       9.567   6.578  -9.790  0.00  0.00     0.013 A 
ATOM     16  C   UNL d   1       9.784   5.895  -8.474  0.00  0.00     0.034 C 
ATOM     17  N   UNL d   1       8.186   4.781 -10.905  0.00  0.00    -0.227 NA
ENDBRANCH   5   8
ENDBRANCH   1   2
BRANCH   1  18
ATOM     18  C   UNL d   1       4.159  -0.131 -14.962  0.00  0.00     0.151 C 
BRANCH  18  19
ATOM     19  C   UNL d   1       5.205  -0.468 -16.030  0.00  0.00     0.068 C 
BRANCH  19  20
ATOM     20  C   UNL d   1       4.723  -0.672 -17.484  0.00  0.00     0.253 C 
BRANCH  20  21
ATOM     21  N   UNL d   1       5.842  -0.880 -18.424  0.00  0.00     0.141 N 
ATOM     22  C   UNL d   1       6.386   0.407 -18.883  0.00  0.00     0.274 C 
ATOM     23  C   UNL d   1       7.516   0.165 -19.896  0.00  0.00     0.137 C 
ATOM     24  N   UNL d   1       8.524  -0.698 -19.300  0.00  0.00    -0.344 N 
ATOM     25  C   UNL d   1       8.056  -1.957 -18.754  0.00  0.00     0.137 C 
ATOM     26  C   UNL d   1       6.913  -1.669 -17.795  0.00  0.00     0.274 C 
BRANCH  24  27
ATOM     27  C   UNL d   1       9.896  -0.370 -19.302  0.00  0.00     0.068 A 
ATOM     28  C   UNL d   1      10.583  -0.102 -20.509  0.00  0.00     0.084 A 
ATOM     29  C   UNL d   1      11.966   0.207 -20.478  0.00  0.00     0.070 A 
ATOM     30 CL   UNL d   1       9.784  -0.189 -22.043  0.00  0.00    -0.080 Cl
ATOM     31  C   UNL d   1      12.647   0.260 -19.249  0.00  0.00     0.012 A 
ATOM     32 CL   UNL d   1      12.839   0.511 -21.933  0.00  0.00    -0.081 Cl
ATOM     33  C   UNL d   1      11.958   0.009 -18.053  0.00  0.00     0.002 A 
ATOM     34  C   UNL d   1      10.588  -0.322 -18.075  0.00  0.00     0.018 A 
ENDBRANCH  24  27
ENDBRANCH  20  21
ENDBRANCH  19  20
ENDBRANCH  18  19
ENDBRANCH   1  18
TORSDOF 7
