REMARK  7 active torsions:
REMARK  status: ('A' for Active; 'I' for Inactive)
REMARK    1  A    between atoms: C_3  and  S_4 
REMARK    2  A    between atoms: S_4  and  C_5 
REMARK    3  A    between atoms: C_5  and  C_6 
REMARK    4  A    between atoms: C_6  and  C_7 
REMARK    5  A    between atoms: C_7  and  N_8 
REMARK    6  A    between atoms: C_13  and  C_14 
REMARK    7  A    between atoms: C_24  and  C_25 
ROOT
ATOM      1  C   UNL d   1       7.525   0.943 -14.763  0.00  0.00     0.047 C 
ENDROOT
BRANCH   1   2
ATOM      2  C   UNL d   1       8.148   2.331 -14.520  0.00  0.00     0.067 C 
BRANCH   2   3
ATOM      3  S   UNL d   1       7.014   3.491 -13.685  0.00  0.00    -0.075 SA
BRANCH   3   4
ATOM      4  C   UNL d   1       8.194   4.646 -13.113  0.00  0.00     0.193 A 
ATOM      5  N   UNL d   1       8.127   5.157 -11.879  0.00  0.00    -0.289 N 
ATOM      6  C   UNL d   1       7.172   4.899 -10.859  0.00  0.00     0.134 C 
ATOM      7  C   UNL d   1       9.190   5.990 -11.844  0.00  0.00     0.168 A 
ATOM      8  N   UNL d   1       9.835   5.988 -12.998  0.00  0.00    -0.128 NA
ATOM      9  N   UNL d   1       9.217   5.089 -13.824  0.00  0.00    -0.122 NA
BRANCH   7  10
ATOM     10  C   UNL d   1       9.604   6.774 -10.682  0.00  0.00     0.055 A 
ATOM     11  C   UNL d   1       9.858   8.163 -10.806  0.00  0.00     0.102 A 
ATOM     12  N   UNL d   1      10.259   8.940  -9.780  0.00  0.00    -0.242 NA
ATOM     13  C   UNL d   1      10.400   8.370  -8.565  0.00  0.00     0.099 A 
ATOM     14  C   UNL d   1      10.170   7.001  -8.327  0.00  0.00     0.021 A 
ATOM     15  C   UNL d   1       9.760   6.196  -9.407  0.00  0.00     0.006 A 
ENDBRANCH   7  10
ENDBRANCH   3   4
ENDBRANCH   2   3
ENDBRANCH   1   2
BRANCH   1  16
ATOM     16  C   UNL d   1       6.003   0.875 -14.531  0.00  0.00     0.251 C 
BRANCH  16  17
ATOM     17  N   UNL d   1       5.396  -0.364 -15.002  0.00  0.00     0.137 N 
ATOM     18  C   UNL d   1       5.520  -0.488 -16.451  0.00  0.00     0.251 C 
ATOM     19  C   UNL d   1       4.512  -1.529 -16.817  0.00  0.00     0.037 A 
ATOM     20  C   UNL d   1       3.467  -1.435 -15.737  0.00  0.00     0.038 C 
ATOM     21  C   UNL d   1       4.202  -1.855 -18.273  0.00  0.00     0.024 A 
ATOM     22  C   UNL d   1       4.949  -2.863 -17.424  0.00  0.00     0.007 A 
ATOM     23  C   UNL d   1       3.954  -0.338 -14.803  0.00  0.00     0.250 C 
BRANCH  21  24
ATOM     24  C   UNL d   1       4.898  -1.074 -19.347  0.00  0.00    -0.022 A 
ATOM     25  C   UNL d   1       6.061  -1.572 -19.945  0.00  0.00    -0.002 A 
ATOM     26  C   UNL d   1       6.758  -0.812 -20.904  0.00  0.00     0.029 A 
ATOM     27  C   UNL d   1       6.269   0.452 -21.273  0.00  0.00     0.140 A 
ATOM     28  C   UNL d   1       5.098   0.956 -20.684  0.00  0.00     0.029 A 
ATOM     29  F   UNL d   1       6.930   1.177 -22.206  0.00  0.00    -0.204 F 
ATOM     30  C   UNL d   1       4.407   0.201 -19.715  0.00  0.00    -0.002 A 
ENDBRANCH  21  24
ENDBRANCH  16  17
ENDBRANCH   1  16
TORSDOF 7
