REMARK  8 active torsions:
REMARK  status: ('A' for Active; 'I' for Inactive)
REMARK    1  A    between atoms: O_2  and  C_3 
REMARK    2  A    between atoms: C_6  and  C_7 
REMARK       I    between atoms: C_7  and  N_9 
REMARK    3  A    between atoms: N_12  and  C_13 
REMARK    4  A    between atoms: C_13  and  C_14 
REMARK    5  A    between atoms: C_14  and  O_15 
REMARK    6  A    between atoms: O_15  and  C_16 
REMARK    7  A    between atoms: C_18  and  O_19 
REMARK    8  A    between atoms: C_22  and  O_23 
ROOT
ATOM      1  C   UNL d   1       9.633   8.521  -8.332  0.00  0.00     0.257 C 
ATOM      2  O   UNL d   1       8.925   9.504  -8.394  0.00  0.00    -0.267 OA
ATOM      3  N   UNL d   1       9.902   7.738  -9.415  0.00  0.00    -0.312 N 
ATOM      4  C   UNL d   1       9.718   8.218 -10.806  0.00  0.00     0.140 C 
ATOM      5  C   UNL d   1       8.900   7.202 -11.638  0.00  0.00     0.274 C 
ATOM      6  N   UNL d   1       9.485   5.864 -11.582  0.00  0.00     0.144 N 
ATOM      7  C   UNL d   1       9.554   5.446 -10.179  0.00  0.00     0.274 C 
ATOM      8  C   UNL d   1      10.463   6.381  -9.379  0.00  0.00     0.140 C 
ENDROOT
BRANCH   6   9
ATOM      9  C   UNL d   1       8.659   4.917 -12.317  0.00  0.00     0.283 C 
BRANCH   9  10
ATOM     10  C   UNL d   1       9.537   3.773 -12.839  0.00  0.00     0.184 C 
BRANCH  10  11
ATOM     11  O   UNL d   1       8.707   2.935 -13.647  0.00  0.00    -0.329 OA
BRANCH  11  12
ATOM     12  C   UNL d   1       9.229   2.325 -14.772  0.00  0.00     0.098 A 
ATOM     13  C   UNL d   1       8.372   1.472 -15.497  0.00  0.00     0.049 A 
ATOM     14  C   UNL d   1       8.815   0.823 -16.680  0.00  0.00     0.098 A 
ATOM     15  C   UNL d   1      10.135   1.056 -17.134  0.00  0.00     0.049 A 
ATOM     16  C   UNL d   1      10.997   1.922 -16.433  0.00  0.00     0.098 A 
ATOM     17  C   UNL d   1      10.550   2.513 -15.230  0.00  0.00     0.049 A 
BRANCH  14  18
ATOM     18  O   UNL d   1       8.036  -0.015 -17.443  0.00  0.00    -0.328 OA
ATOM     19  C   UNL d   1       6.711  -0.273 -17.003  0.00  0.00     0.181 C 
ENDBRANCH  14  18
BRANCH  16  20
ATOM     20  O   UNL d   1      12.260   2.171 -16.922  0.00  0.00    -0.328 OA
ATOM     21  C   UNL d   1      12.773   3.501 -16.767  0.00  0.00     0.181 C 
ENDBRANCH  16  20
ENDBRANCH  11  12
ENDBRANCH  10  11
ENDBRANCH   9  10
ENDBRANCH   6   9
BRANCH   1  22
ATOM     22  C   UNL d   1      10.337   8.285  -7.032  0.00  0.00     0.056 A 
ATOM     23  C   UNL d   1      11.087   9.336  -6.442  0.00  0.00     0.007 A 
ATOM     24  C   UNL d   1      11.799   9.131  -5.241  0.00  0.00     0.024 A 
ATOM     25  C   UNL d   1      11.791   7.863  -4.624  0.00  0.00     0.094 A 
ATOM     26  C   UNL d   1      11.038   6.827  -5.213  0.00  0.00     0.024 A 
ATOM     27  C   UNL d   1      10.268   7.053  -6.351  0.00  0.00     0.007 A 
BRANCH  25  28
ATOM     28  O   UNL d   1      12.531   7.702  -3.456  0.00  0.00    -0.328 OA
ATOM     29  C   UNL d   1      12.334   6.490  -2.741  0.00  0.00     0.181 C 
ENDBRANCH  25  28
ENDBRANCH   1  22
TORSDOF 8
