REMARK  1 active torsions:
REMARK  status: ('A' for Active; 'I' for Inactive)
REMARK    1  A    between atoms: C_2  and  C_5 
ROOT
ATOM      1  C   UNL d   1       9.595   1.189 -18.411  0.00  0.00     0.131 C 
ATOM      2  O   UNL d   1       8.868   0.801 -19.569  0.00  0.00    -0.226 OA
ATOM      3  C   UNL d   1       9.862   2.702 -18.558  0.00  0.00     0.066 C 
ATOM      4  C   UNL d   1      10.133   3.417 -17.220  0.00  0.00     0.253 C 
ATOM      5  N   UNL d   1       9.040   3.164 -16.290  0.00  0.00     0.140 N 
ATOM      6  C   UNL d   1       9.287   3.868 -15.056  0.00  0.00     0.259 C 
ATOM      7  C   UNL d   1       8.002   3.870 -14.208  0.00  0.00     0.077 C 
ATOM      8  C   UNL d   1       8.245   4.427 -12.832  0.00  0.00    -0.020 A 
ATOM      9  C   UNL d   1       9.506   4.441 -12.183  0.00  0.00    -0.004 A 
ATOM     10  C   UNL d   1       9.610   5.029 -10.889  0.00  0.00    -0.000 A 
ATOM     11  C   UNL d   1       8.528   5.595 -10.250  0.00  0.00    -0.000 A 
ATOM     12  C   UNL d   1       7.325   5.603 -10.921  0.00  0.00    -0.004 A 
ATOM     13  C   UNL d   1       7.159   5.006 -12.160  0.00  0.00    -0.021 A 
ATOM     14  C   UNL d   1       5.766   4.985 -12.703  0.00  0.00     0.052 C 
ATOM     15  C   UNL d   1       5.208   3.587 -12.884  0.00  0.00    -0.022 C 
ATOM     16  C   UNL d   1       6.008   2.398 -13.428  0.00  0.00    -0.008 C 
ATOM     17  C   UNL d   1       5.532   1.087 -13.221  0.00  0.00    -0.001 C 
ATOM     18  C   UNL d   1       6.164  -0.021 -13.796  0.00  0.00    -0.000 C 
ATOM     19  C   UNL d   1       7.246   0.165 -14.664  0.00  0.00    -0.003 C 
ATOM     20  C   UNL d   1       7.767   1.453 -14.916  0.00  0.00     0.005 C 
ATOM     21  C   UNL d   1       7.207   2.549 -14.201  0.00  0.00    -0.019 C 
ATOM     22  C   UNL d   1       8.882   1.746 -15.947  0.00  0.00     0.244 C 
ATOM     23  C   UNL d   1       8.574   0.985 -17.262  0.00  0.00     0.068 C 
ENDROOT
BRANCH   1  24
ATOM     24  C   UNL d   1      10.893   0.295 -18.370  0.00  0.00     0.026 C 
ATOM     25  C   UNL d   1      10.584  -1.133 -17.899  0.00  0.00     0.002 C 
ATOM     26  C   UNL d   1      11.978   0.841 -17.431  0.00  0.00     0.002 C 
ATOM     27  C   UNL d   1      11.567   0.181 -19.766  0.00  0.00     0.002 C 
ENDBRANCH   1  24
TORSDOF 1
