REMARK  7 active torsions:
REMARK  status: ('A' for Active; 'I' for Inactive)
REMARK       I    between atoms: C_2  and  N_4 
REMARK    1  A    between atoms: N_4  and  C_5 
REMARK    2  A    between atoms: C_8  and  O_9 
REMARK    3  A    between atoms: O_9  and  C_10 
REMARK    4  A    between atoms: C_10  and  C_11 
REMARK    5  A    between atoms: C_11  and  C_12 
REMARK    6  A    between atoms: C_12  and  N_13 
REMARK    7  A    between atoms: N_16  and  C_17 
ROOT
ATOM      1  N   UNL d   1       8.720   4.528 -12.324  0.00  0.00     0.141 N 
ATOM      2  C   UNL d   1       9.487   3.476 -13.002  0.00  0.00     0.274 C 
ATOM      3  C   UNL d   1       8.950   3.246 -14.421  0.00  0.00     0.137 C 
ATOM      4  N   UNL d   1       7.531   2.934 -14.359  0.00  0.00    -0.344 N 
ATOM      5  C   UNL d   1       6.707   3.881 -13.628  0.00  0.00     0.137 C 
ATOM      6  C   UNL d   1       7.298   4.141 -12.234  0.00  0.00     0.274 C 
ENDROOT
BRANCH   1   7
ATOM      7  C   UNL d   1       9.245   4.727 -10.977  0.00  0.00     0.253 C 
BRANCH   7   8
ATOM      8  C   UNL d   1       9.383   6.216 -10.648  0.00  0.00     0.068 C 
BRANCH   8   9
ATOM      9  C   UNL d   1       9.479   6.454  -9.148  0.00  0.00     0.151 C 
BRANCH   9  10
ATOM     10  O   UNL d   1      10.158   7.696  -8.941  0.00  0.00    -0.331 OA
BRANCH  10  11
ATOM     11  C   UNL d   1      10.598   7.958  -7.658  0.00  0.00     0.094 A 
ATOM     12  C   UNL d   1      11.050   9.257  -7.341  0.00  0.00     0.026 A 
ATOM     13  C   UNL d   1      11.503   9.596  -6.043  0.00  0.00     0.021 A 
ATOM     14  C   UNL d   1      11.552   8.602  -5.033  0.00  0.00     0.085 A 
ATOM     15  C   UNL d   1      11.169   7.277  -5.368  0.00  0.00     0.021 A 
ATOM     16  C   UNL d   1      10.670   6.980  -6.628  0.00  0.00     0.026 A 
BRANCH  14  17
ATOM     17  N   UNL d   1      12.021   9.015  -3.746  0.00  0.00    -0.212 NA
ATOM     18  C   UNL d   1      12.274   8.287  -2.641  0.00  0.00     0.256 C 
ATOM     19  C   UNL d   1      11.962   6.798  -2.578  0.00  0.00     0.100 C 
ATOM     20  O   UNL d   1      12.802   8.813  -1.658  0.00  0.00    -0.270 OA
ENDBRANCH  14  17
ENDBRANCH  10  11
ENDBRANCH   9  10
ENDBRANCH   8   9
ENDBRANCH   7   8
ENDBRANCH   1   7
BRANCH   4  21
ATOM     21  C   UNL d   1       6.965   1.828 -15.022  0.00  0.00     0.062 A 
ATOM     22  C   UNL d   1       7.320   1.510 -16.352  0.00  0.00     0.045 A 
ATOM     23  C   UNL d   1       6.729   0.393 -17.031  0.00  0.00     0.008 A 
ATOM     24  S   UNL d   1       8.441   2.347 -17.433  0.00  0.00    -0.085 SA
ATOM     25  C   UNL d   1       5.785  -0.377 -16.312  0.00  0.00     0.001 A 
ATOM     26  C   UNL d   1       7.219   0.246 -18.388  0.00  0.00     0.007 A 
ATOM     27  C   UNL d   1       5.429  -0.064 -14.987  0.00  0.00     0.002 A 
ATOM     28  C   UNL d   1       6.011   1.041 -14.347  0.00  0.00     0.017 A 
ATOM     29  C   UNL d   1       8.137   1.216 -18.707  0.00  0.00     0.035 A 
ENDBRANCH   4  21
TORSDOF 7
