REMARK  6 active torsions:
REMARK  status: ('A' for Active; 'I' for Inactive)
REMARK    1  A    between atoms: C_2  and  C_3 
REMARK    2  A    between atoms: C_3  and  C_4 
REMARK    3  A    between atoms: C_4  and  O_5 
REMARK    4  A    between atoms: C_4  and  C_14 
REMARK    5  A    between atoms: O_5  and  C_6 
REMARK    6  A    between atoms: C_19  and  N_20 
ROOT
ATOM      1  C   UNL d   1       9.985   4.372 -13.455  0.00  0.00     0.203 A 
ATOM      2  N   UNL d   1       9.820   3.071 -13.689  0.00  0.00    -0.039 NA
ATOM      3  C   UNL d   1      10.694   2.593 -14.573  0.00  0.00     0.785 A 
ATOM      4  N   UNL d   1      10.611   1.262 -14.850  0.00  0.00     0.063 N 
ATOM      5  N   UNL d   1      11.628   3.260 -15.236  0.00  0.00     0.134 NA
ATOM      6  C   UNL d   1      11.658   4.565 -14.934  0.00  0.00     0.744 A 
ATOM      7  N   UNL d   1      10.871   5.187 -14.036  0.00  0.00    -0.043 NA
ENDROOT
BRANCH   1   8
ATOM      8  C   UNL d   1       9.057   4.991 -12.428  0.00  0.00     0.180 C 
BRANCH   8   9
ATOM      9  C   UNL d   1       7.861   5.712 -13.092  0.00  0.00     0.038 C 
BRANCH   9  10
ATOM     10  C   UNL d   1       6.605   5.794 -12.209  0.00  0.00     0.003 C 
ATOM     11  C   UNL d   1       5.896   4.441 -12.047  0.00  0.00     0.000 C 
ENDBRANCH   9  10
ENDBRANCH   8   9
BRANCH   8  12
ATOM     12  O   UNL d   1       9.753   5.918 -11.584  0.00  0.00    -0.325 OA
BRANCH  12  13
ATOM     13  C   UNL d   1       9.439   6.062 -10.248  0.00  0.00     0.106 A 
ATOM     14  C   UNL d   1       9.913   7.209  -9.558  0.00  0.00     0.090 A 
ATOM     15  C   UNL d   1       9.674   7.378  -8.174  0.00  0.00     0.070 A 
ATOM     16 CL   UNL d   1      10.766   8.441 -10.417  0.00  0.00    -0.079 Cl
ATOM     17  C   UNL d   1       8.944   6.403  -7.468  0.00  0.00     0.012 A 
ATOM     18 CL   UNL d   1      10.254   8.763  -7.311  0.00  0.00    -0.081 Cl
ATOM     19  C   UNL d   1       8.449   5.287  -8.152  0.00  0.00     0.003 A 
ATOM     20  C   UNL d   1       8.690   5.110  -9.524  0.00  0.00     0.025 A 
ENDBRANCH  12  13
ENDBRANCH   8  12
ENDBRANCH   1   8
BRANCH   6  21
ATOM     21  N   UNL d   1      12.581   5.350 -15.603  0.00  0.00    -0.178 N 
ATOM     22  C   UNL d   1      12.559   6.820 -15.623  0.00  0.00     0.155 C 
ATOM     23  C   UNL d   1      12.645   7.345 -17.063  0.00  0.00     0.275 C 
ATOM     24  N   UNL d   1      13.853   6.831 -17.710  0.00  0.00     0.143 N 
ATOM     25  C   UNL d   1      13.778   5.370 -17.757  0.00  0.00     0.275 C 
ATOM     26  C   UNL d   1      13.923   7.350 -19.070  0.00  0.00     0.286 C 
ATOM     27  C   UNL d   1      13.732   4.804 -16.334  0.00  0.00     0.155 C 
ENDBRANCH   6  21
TORSDOF 6
