REMARK  7 active torsions:
REMARK  status: ('A' for Active; 'I' for Inactive)
REMARK    1  A    between atoms: N_12  and  C_13 
REMARK    2  A    between atoms: C_13  and  C_14 
REMARK    3  A    between atoms: C_14  and  C_15 
REMARK    4  A    between atoms: C_15  and  C_16 
REMARK    5  A    between atoms: C_16  and  C_17 
REMARK    6  A    between atoms: C_17  and  N_18 
REMARK    7  A    between atoms: C_21  and  C_22 
ROOT
ATOM      1  C   UNL d   1       9.320   6.806 -11.011  0.00  0.00     0.035 C 
ENDROOT
BRANCH   1   2
ATOM      2  C   UNL d   1       9.802   8.074 -10.326  0.00  0.00     0.004 C 
BRANCH   2   3
ATOM      3  C   UNL d   1      10.074   7.740  -8.880  0.00  0.00     0.025 C 
BRANCH   3   4
ATOM      4  C   UNL d   1      10.400   8.948  -7.989  0.00  0.00     0.112 C 
BRANCH   4   5
ATOM      5  N   UNL d   1      10.846   8.616  -6.624  0.00  0.00    -0.264 N 
ATOM      6  C   UNL d   1      11.134   9.563  -5.709  0.00  0.00     0.263 A 
ATOM      7  O   UNL d   1      11.056  10.785  -5.844  0.00  0.00    -0.267 OA
ATOM      8  C   UNL d   1      11.561   8.877  -4.473  0.00  0.00     0.061 A 
ATOM      9  C   UNL d   1      11.491   7.554  -4.747  0.00  0.00     0.063 A 
ATOM     10  C   UNL d   1      11.978   9.359  -3.219  0.00  0.00     0.007 A 
ATOM     11  C   UNL d   1      11.859   6.590  -3.825  0.00  0.00     0.035 A 
ATOM     12  C   UNL d   1      11.045   7.370  -6.134  0.00  0.00     0.263 A 
ATOM     13  C   UNL d   1      12.281   6.998  -2.553  0.00  0.00     0.140 A 
ATOM     14  C   UNL d   1      12.339   8.384  -2.241  0.00  0.00     0.030 A 
ATOM     15  F   UNL d   1      12.661   6.065  -1.650  0.00  0.00    -0.204 F 
ATOM     16  O   UNL d   1      10.938   6.285  -6.683  0.00  0.00    -0.267 OA
ENDBRANCH   4   5
ENDBRANCH   3   4
ENDBRANCH   2   3
ENDBRANCH   1   2
BRANCH   1  17
ATOM     17  C   UNL d   1       8.895   7.089 -12.459  0.00  0.00     0.251 C 
BRANCH  17  18
ATOM     18  N   UNL d   1       8.515   5.893 -13.204  0.00  0.00     0.142 N 
ATOM     19  C   UNL d   1       7.517   5.115 -12.488  0.00  0.00     0.255 C 
ATOM     20  C   UNL d   1       7.001   3.981 -13.352  0.00  0.00     0.061 C 
ATOM     21  C   UNL d   1       8.110   3.191 -14.035  0.00  0.00    -0.021 C 
ATOM     22  C   UNL d   1       9.334   3.735 -14.121  0.00  0.00     0.005 C 
ATOM     23  C   UNL d   1       9.691   5.097 -13.565  0.00  0.00     0.276 C 
BRANCH  21  24
ATOM     24  C   UNL d   1       7.830   1.860 -14.606  0.00  0.00     0.016 A 
ATOM     25  C   UNL d   1       6.644   1.065 -14.401  0.00  0.00     0.019 A 
ATOM     26  C   UNL d   1       6.813  -0.108 -15.198  0.00  0.00     0.081 A 
ATOM     27  C   UNL d   1       5.420   1.152 -13.674  0.00  0.00     0.002 A 
ATOM     28  N   UNL d   1       8.066  -0.011 -15.780  0.00  0.00    -0.244 NA
ATOM     29  C   UNL d   1       5.825  -1.107 -15.290  0.00  0.00     0.019 A 
ATOM     30  C   UNL d   1       8.697   1.164 -15.414  0.00  0.00     0.099 A 
ATOM     31  C   UNL d   1       4.621  -0.976 -14.578  0.00  0.00     0.002 A 
ATOM     32  C   UNL d   1       4.432   0.152 -13.769  0.00  0.00     0.000 A 
ENDBRANCH  21  24
ENDBRANCH  17  18
ENDBRANCH   1  17
TORSDOF 7
