REMARK  13 active torsions:
REMARK  status: ('A' for Active; 'I' for Inactive)
REMARK    1  A    between atoms: C_9  and  C_10 
REMARK    2  A    between atoms: C_10  and  C_12 
REMARK    3  A    between atoms: C_12  and  N_13 
REMARK    4  A    between atoms: N_13  and  C_14 
REMARK    5  A    between atoms: C_14  and  C_15 
REMARK    6  A    between atoms: C_15  and  C_16 
REMARK    7  A    between atoms: C_16  and  S_17 
REMARK    8  A    between atoms: S_17  and  C_18 
REMARK    9  A    between atoms: C_18  and  C_19 
REMARK   10  A    between atoms: C_19  and  N_20 
REMARK   11  A    between atoms: N_20  and  C_21 
REMARK   12  A    between atoms: C_21  and  C_22 
REMARK   13  A    between atoms: C_22  and  C_23 
ROOT
ATOM      1  C   UNL d   1       8.502   1.214 -14.565  0.00  0.00     0.291 C 
ENDROOT
BRANCH   1   2
ATOM      2  N   UNL d   1       8.876   0.423 -15.739  0.00  0.00     0.342 N 
BRANCH   2   3
ATOM      3  C   UNL d   1       8.363   0.953 -17.006  0.00  0.00     0.327 C 
BRANCH   3   4
ATOM      4  C   UNL d   1       8.694   0.029 -18.187  0.00  0.00     0.211 C 
ATOM      5  O   UNL d   1      10.032   0.279 -18.563  0.00  0.00    -0.216 OA
BRANCH   4   6
ATOM      6  C   UNL d   1       7.734   0.258 -19.350  0.00  0.00     0.018 A 
ATOM      7  C   UNL d   1       7.946   1.287 -20.303  0.00  0.00     0.001 A 
ATOM      8  C   UNL d   1       7.051   1.462 -21.387  0.00  0.00     0.029 A 
ATOM      9  C   UNL d   1       5.921   0.623 -21.536  0.00  0.00     0.149 A 
ATOM     10  C   UNL d   1       5.711  -0.380 -20.574  0.00  0.00     0.116 A 
ATOM     11  O   UNL d   1       5.059   0.794 -22.582  0.00  0.00    -0.189 OA
ATOM     12  N   UNL d   1       4.660  -1.303 -20.547  0.00  0.00    -0.200 NA
ATOM     13  C   UNL d   1       6.592  -0.552 -19.508  0.00  0.00     0.052 A 
ATOM     14  C   UNL d   1       4.658  -2.207 -19.496  0.00  0.00     0.311 A 
ATOM     15  O   UNL d   1       3.856  -3.107 -19.277  0.00  0.00    -0.258 OA
ATOM     16  S   UNL d   1       6.091  -1.863 -18.461  0.00  0.00    -0.024 SA
ENDBRANCH   4   6
ENDBRANCH   3   4
ENDBRANCH   2   3
ENDBRANCH   1   2
BRANCH   1  17
ATOM     17  C   UNL d   1       9.204   2.592 -14.522  0.00  0.00     0.050 C 
BRANCH  17  18
ATOM     18  C   UNL d   1       8.386   3.643 -13.759  0.00  0.00     0.060 C 
BRANCH  18  19
ATOM     19  S   UNL d   1       9.434   5.021 -13.219  0.00  0.00    -0.138 SA
BRANCH  19  20
ATOM     20  C   UNL d   1       8.712   5.338 -11.589  0.00  0.00     0.096 C 
BRANCH  20  21
ATOM     21  C   UNL d   1       9.562   6.328 -10.787  0.00  0.00     0.302 C 
BRANCH  21  22
ATOM     22  N   UNL d   1       9.060   6.397  -9.429  0.00  0.00     0.340 N 
BRANCH  22  23
ATOM     23  C   UNL d   1      10.013   7.101  -8.593  0.00  0.00     0.295 C 
BRANCH  23  24
ATOM     24  C   UNL d   1       9.502   7.170  -7.146  0.00  0.00     0.065 C 
BRANCH  24  25
ATOM     25  C   UNL d   1      10.483   7.861  -6.215  0.00  0.00    -0.019 A 
ATOM     26  C   UNL d   1      11.002   7.184  -5.091  0.00  0.00     0.007 A 
ATOM     27  C   UNL d   1      11.857   7.851  -4.195  0.00  0.00     0.057 A 
ATOM     28  C   UNL d   1      12.244   9.182  -4.444  0.00  0.00     0.011 A 
ATOM     29 CL   UNL d   1      12.419   7.037  -2.784  0.00  0.00    -0.082 Cl
ATOM     30  C   UNL d   1      11.748   9.852  -5.580  0.00  0.00     0.001 A 
ATOM     31  C   UNL d   1      10.864   9.196  -6.455  0.00  0.00    -0.004 A 
ENDBRANCH  24  25
ENDBRANCH  23  24
ENDBRANCH  22  23
ENDBRANCH  21  22
ENDBRANCH  20  21
ENDBRANCH  19  20
ENDBRANCH  18  19
ENDBRANCH  17  18
ENDBRANCH   1  17
TORSDOF 13
