REMARK  6 active torsions:
REMARK  status: ('A' for Active; 'I' for Inactive)
REMARK    1  A    between atoms: N_12  and  C_13 
REMARK    2  A    between atoms: C_13  and  C_14 
REMARK    3  A    between atoms: C_14  and  C_15 
REMARK    4  A    between atoms: C_15  and  C_16 
REMARK    5  A    between atoms: C_16  and  N_17 
REMARK    6  A    between atoms: N_20  and  C_21 
ROOT
ATOM      1  C   UNL d   1       9.191   1.772 -14.845  0.00  0.00     0.028 C 
ENDROOT
BRANCH   1   2
ATOM      2  C   UNL d   1       8.519   0.392 -14.773  0.00  0.00     0.122 C 
BRANCH   2   3
ATOM      3  N   UNL d   1       7.410   0.292 -15.739  0.00  0.00    -0.221 N 
ATOM      4  C   UNL d   1       6.222  -0.400 -15.448  0.00  0.00     0.271 A 
ATOM      5  O   UNL d   1       5.852  -0.762 -14.330  0.00  0.00    -0.266 OA
ATOM      6  C   UNL d   1       5.474  -0.637 -16.720  0.00  0.00     0.069 A 
ATOM      7  C   UNL d   1       6.131  -0.184 -17.867  0.00  0.00     0.108 A 
ATOM      8  C   UNL d   1       4.214  -1.251 -16.835  0.00  0.00     0.005 A 
ATOM      9  C   UNL d   1       5.584  -0.294 -19.154  0.00  0.00     0.013 A 
ATOM     10  S   UNL d   1       7.674   0.537 -17.431  0.00  0.00     0.270 S 
ATOM     11  C   UNL d   1       4.319  -0.905 -19.272  0.00  0.00     0.001 A 
ATOM     12  C   UNL d   1       3.646  -1.387 -18.122  0.00  0.00     0.000 A 
ATOM     13  O   UNL d   1       8.775  -0.331 -17.875  0.00  0.00    -0.200 OA
ATOM     14  O   UNL d   1       7.647   1.980 -17.729  0.00  0.00    -0.200 OA
ENDBRANCH   2   3
ENDBRANCH   1   2
BRANCH   1  15
ATOM     15  C   UNL d   1       8.212   2.902 -14.493  0.00  0.00     0.037 C 
BRANCH  15  16
ATOM     16  C   UNL d   1       8.903   4.264 -14.296  0.00  0.00     0.251 C 
BRANCH  16  17
ATOM     17  N   UNL d   1       8.586   4.787 -12.976  0.00  0.00     0.141 N 
ATOM     18  C   UNL d   1       9.469   4.149 -11.992  0.00  0.00     0.275 C 
ATOM     19  C   UNL d   1       9.168   4.660 -10.565  0.00  0.00     0.155 C 
ATOM     20  N   UNL d   1       9.309   6.105 -10.529  0.00  0.00    -0.179 N 
ATOM     21  C   UNL d   1       8.499   6.779 -11.536  0.00  0.00     0.155 C 
ATOM     22  C   UNL d   1       8.811   6.233 -12.931  0.00  0.00     0.275 C 
BRANCH  20  23
ATOM     23  C   UNL d   1      10.047   6.799  -9.578  0.00  0.00     0.727 A 
ATOM     24  N   UNL d   1      10.536   7.981  -9.954  0.00  0.00    -0.060 NA
ATOM     25  C   UNL d   1      11.305   8.644  -9.073  0.00  0.00     0.120 A 
ATOM     26  C   UNL d   1      11.577   8.129  -7.796  0.00  0.00     0.043 A 
ATOM     27  C   UNL d   1      11.006   6.880  -7.497  0.00  0.00     0.120 A 
ATOM     28  N   UNL d   1      10.258   6.207  -8.398  0.00  0.00    -0.060 NA
ENDBRANCH  20  23
ENDBRANCH  16  17
ENDBRANCH  15  16
ENDBRANCH   1  15
TORSDOF 6
