REMARK  4 active torsions:
REMARK  status: ('A' for Active; 'I' for Inactive)
REMARK    1  A    between atoms: N_11  and  C_12 
REMARK    2  A    between atoms: C_12  and  C_13 
REMARK    3  A    between atoms: C_13  and  N_14 
REMARK    4  A    between atoms: N_17  and  C_18 
ROOT
ATOM      1  C   UNL d   1      11.519   1.303 -17.215  0.00  0.00     0.275 C 
ENDROOT
BRANCH   1   2
ATOM      2  C   UNL d   1      11.641   1.499 -18.736  0.00  0.00     0.146 C 
BRANCH   2   3
ATOM      3  N   UNL d   1      12.669   2.502 -19.050  0.00  0.00    -0.276 N 
ATOM      4  C   UNL d   1      13.777   2.035 -19.796  0.00  0.00     0.181 A 
ATOM      5  N   UNL d   1      14.794   2.761 -20.167  0.00  0.00    -0.219 NA
ATOM      6  C   UNL d   1      14.696   4.081 -19.780  0.00  0.00     0.117 A 
ATOM      7  S   UNL d   1      15.918   5.233 -20.226  0.00  0.00    -0.070 SA
ATOM      8  C   UNL d   1      13.690   4.675 -19.064  0.00  0.00     0.076 A 
ATOM      9  C   UNL d   1      15.080   6.499 -19.366  0.00  0.00     0.038 A 
ATOM     10  C   UNL d   1      13.906   6.065 -18.815  0.00  0.00    -0.010 A 
ATOM     11  C   UNL d   1      15.595   7.892 -19.239  0.00  0.00     0.283 C 
ATOM     12  C   UNL d   1      13.020   7.044 -18.087  0.00  0.00     0.062 C 
ATOM     13  C   UNL d   1      13.780   8.347 -17.731  0.00  0.00     0.255 C 
ATOM     14  N   UNL d   1      14.519   8.829 -18.903  0.00  0.00     0.144 N 
ATOM     15  C   UNL d   1      15.087  10.147 -18.635  0.00  0.00     0.286 C 
ATOM     16  C   UNL d   1      12.541   3.814 -18.676  0.00  0.00     0.264 A 
ATOM     17  O   UNL d   1      11.576   4.278 -18.069  0.00  0.00    -0.267 OA
ENDBRANCH   2   3
ENDBRANCH   1   2
BRANCH   1  18
ATOM     18  N   UNL d   1      10.509   0.304 -16.847  0.00  0.00     0.143 N 
ATOM     19  C   UNL d   1       9.137   0.602 -17.318  0.00  0.00     0.274 C 
ATOM     20  C   UNL d   1       8.595   1.920 -16.728  0.00  0.00     0.137 C 
ATOM     21  N   UNL d   1       8.712   1.883 -15.289  0.00  0.00    -0.343 N 
ATOM     22  C   UNL d   1       9.977   1.466 -14.698  0.00  0.00     0.137 C 
ATOM     23  C   UNL d   1      10.470   0.167 -15.386  0.00  0.00     0.274 C 
BRANCH  21  24
ATOM     24  C   UNL d   1       7.625   2.199 -14.455  0.00  0.00     0.076 A 
ATOM     25  C   UNL d   1       7.566   3.415 -13.747  0.00  0.00     0.018 A 
ATOM     26  C   UNL d   1       6.439   3.648 -12.905  0.00  0.00     0.021 A 
ATOM     27  C   UNL d   1       8.570   4.400 -13.833  0.00  0.00     0.002 A 
ATOM     28  C   UNL d   1       5.460   2.642 -12.812  0.00  0.00     0.099 A 
ATOM     29  C   UNL d   1       6.342   4.843 -12.166  0.00  0.00     0.002 A 
ATOM     30  N   UNL d   1       5.523   1.470 -13.471  0.00  0.00    -0.241 NA
ATOM     31  C   UNL d   1       6.586   1.267 -14.293  0.00  0.00     0.116 A 
ATOM     32  C   UNL d   1       7.356   5.812 -12.253  0.00  0.00     0.000 A 
ATOM     33  C   UNL d   1       8.471   5.591 -13.090  0.00  0.00     0.000 A 
ENDBRANCH  21  24
ENDBRANCH   1  18
TORSDOF 4
