REMARK  7 active torsions:
REMARK  status: ('A' for Active; 'I' for Inactive)
REMARK    1  A    between atoms: C_4  and  C_5 
REMARK    2  A    between atoms: C_5  and  C_6 
REMARK       I    between atoms: C_6  and  N_8 
REMARK    3  A    between atoms: N_8  and  C_9 
REMARK    4  A    between atoms: C_12  and  C_13 
REMARK    5  A    between atoms: C_13  and  C_14 
REMARK    6  A    between atoms: C_14  and  N_15 
REMARK    7  A    between atoms: N_18  and  C_19 
ROOT
ATOM      1  C   UNL d   1       8.292   5.837 -11.913  0.00  0.00     0.035 C 
ENDROOT
BRANCH   1   2
ATOM      2  C   UNL d   1       8.267   4.927 -13.155  0.00  0.00     0.002 C 
ATOM      3  C   UNL d   1       9.673   4.362 -13.491  0.00  0.00     0.002 C 
ATOM      4  C   UNL d   1       9.643   3.449 -14.697  0.00  0.00     0.024 C 
ATOM      5  C   UNL d   1       8.662   2.284 -14.450  0.00  0.00     0.106 C 
ATOM      6  C   UNL d   1       7.227   2.785 -14.127  0.00  0.00     0.024 C 
ATOM      7  C   UNL d   1       7.205   3.824 -12.982  0.00  0.00     0.002 C 
BRANCH   5   8
ATOM      8  N   UNL d   1       8.598   1.435 -15.621  0.00  0.00    -0.240 NA
ATOM      9  C   UNL d   1       9.561   0.593 -16.053  0.00  0.00     0.258 C 
ATOM     10  O   UNL d   1      10.632   0.422 -15.475  0.00  0.00    -0.270 OA
BRANCH   9  11
ATOM     11  C   UNL d   1       9.293  -0.189 -17.350  0.00  0.00     0.143 C 
BRANCH  11  12
ATOM     12  C   UNL d   1       7.884  -0.052 -17.848  0.00  0.00     0.113 A 
ATOM     13  C   UNL d   1       6.815  -0.915 -17.887  0.00  0.00     0.040 A 
ATOM     14  C   UNL d   1       5.761  -0.126 -18.412  0.00  0.00     0.088 A 
ATOM     15  C   UNL d   1       4.350  -0.538 -18.710  0.00  0.00     0.055 C 
ATOM     16  N   UNL d   1       6.144   1.118 -18.631  0.00  0.00    -0.131 NA
ATOM     17  O   UNL d   1       7.507   1.164 -18.317  0.00  0.00    -0.215 OA
ENDBRANCH  11  12
ENDBRANCH   9  11
ENDBRANCH   5   8
ENDBRANCH   1   2
BRANCH   1  18
ATOM     18  C   UNL d   1       9.171   5.289 -10.763  0.00  0.00     0.250 C 
BRANCH  18  19
ATOM     19  N   UNL d   1       9.032   6.046  -9.546  0.00  0.00     0.141 N 
ATOM     20  C   UNL d   1       9.822   5.378  -8.532  0.00  0.00     0.274 C 
ATOM     21  C   UNL d   1       9.661   6.110  -7.197  0.00  0.00     0.137 C 
ATOM     22  N   UNL d   1      10.021   7.500  -7.334  0.00  0.00    -0.343 N 
ATOM     23  C   UNL d   1       9.304   8.191  -8.393  0.00  0.00     0.137 C 
ATOM     24  C   UNL d   1       9.524   7.410  -9.703  0.00  0.00     0.274 C 
BRANCH  22  25
ATOM     25  C   UNL d   1      10.856   8.171  -6.433  0.00  0.00     0.081 A 
ATOM     26  C   UNL d   1      11.205   7.679  -5.147  0.00  0.00     0.135 A 
ATOM     27  C   UNL d   1      12.067   8.364  -4.317  0.00  0.00     0.121 A 
ATOM     28  O   UNL d   1      10.831   6.539  -4.504  0.00  0.00    -0.298 OA
ATOM     29  C   UNL d   1      12.672   9.552  -4.703  0.00  0.00     0.026 A 
ATOM     30  O   UNL d   1      12.243   7.673  -3.155  0.00  0.00    -0.299 OA
ATOM     31  C   UNL d   1      12.306  10.089  -5.968  0.00  0.00     0.004 A 
ATOM     32  C   UNL d   1      11.440   9.383  -6.817  0.00  0.00     0.019 A 
ATOM     33  C   UNL d   1      11.481   6.512  -3.274  0.00  0.00     0.304 A 
ENDBRANCH  22  25
ENDBRANCH  18  19
ENDBRANCH   1  18
TORSDOF 7
