REMARK  8 active torsions:
REMARK  status: ('A' for Active; 'I' for Inactive)
REMARK    1  A    between atoms: S_2  and  N_4 
REMARK    2  A    between atoms: S_2  and  C_24 
REMARK    3  A    between atoms: N_4  and  C_5 
REMARK    4  A    between atoms: C_5  and  C_6 
REMARK    5  A    between atoms: C_6  and  C_7 
REMARK    6  A    between atoms: C_7  and  C_8 
REMARK    7  A    between atoms: C_8  and  N_9 
REMARK    8  A    between atoms: N_12  and  C_13 
ROOT
ATOM      1  C   UNL d   1       8.948   5.130 -11.377  0.00  0.00     0.037 C 
ENDROOT
BRANCH   1   2
ATOM      2  C   UNL d   1       8.751   4.930 -12.890  0.00  0.00     0.029 C 
BRANCH   2   3
ATOM      3  C   UNL d   1       8.389   3.486 -13.230  0.00  0.00     0.139 C 
BRANCH   3   4
ATOM      4  N   UNL d   1       8.277   3.285 -14.662  0.00  0.00    -0.183 NA
BRANCH   4   5
ATOM      5  S   UNL d   1       8.250   1.727 -15.391  0.00  0.00     0.298 S 
ATOM      6  O   UNL d   1       8.175   1.962 -16.838  0.00  0.00    -0.197 OA
ATOM      7  O   UNL d   1       9.344   0.921 -14.829  0.00  0.00    -0.197 OA
BRANCH   5   8
ATOM      8  C   UNL d   1       6.712   0.956 -14.883  0.00  0.00     0.191 A 
ATOM      9  N   UNL d   1       6.028   0.041 -15.681  0.00  0.00    -0.279 N 
ATOM     10  C   UNL d   1       4.873  -0.321 -14.934  0.00  0.00     0.148 A 
ATOM     11  C   UNL d   1       6.278  -0.485 -16.920  0.00  0.00     0.082 A 
ATOM     12  N   UNL d   1       4.855   0.276 -13.751  0.00  0.00    -0.224 NA
ATOM     13  C   UNL d   1       3.947  -1.212 -15.534  0.00  0.00     0.037 A 
ATOM     14  C   UNL d   1       5.985   1.079 -13.727  0.00  0.00     0.131 A 
ATOM     15  C   UNL d   1       4.200  -1.722 -16.781  0.00  0.00     0.005 A 
ATOM     16  C   UNL d   1       5.378  -1.369 -17.478  0.00  0.00     0.019 A 
ENDBRANCH   5   8
ENDBRANCH   4   5
ENDBRANCH   3   4
ENDBRANCH   2   3
ENDBRANCH   1   2
BRANCH   1  17
ATOM     17  C   UNL d   1       9.302   6.596 -11.060  0.00  0.00     0.251 C 
BRANCH  17  18
ATOM     18  N   UNL d   1      10.252   6.721  -9.957  0.00  0.00     0.141 N 
ATOM     19  C   UNL d   1       9.615   6.429  -8.667  0.00  0.00     0.274 C 
ATOM     20  C   UNL d   1      10.653   6.504  -7.532  0.00  0.00     0.138 C 
ATOM     21  N   UNL d   1      11.343   7.789  -7.539  0.00  0.00    -0.328 N 
ATOM     22  C   UNL d   1      11.852   8.233  -8.832  0.00  0.00     0.138 C 
ATOM     23  C   UNL d   1      10.769   8.095  -9.916  0.00  0.00     0.274 C 
BRANCH  21  24
ATOM     24  C   UNL d   1      11.339   8.608  -6.419  0.00  0.00     0.169 A 
ATOM     25  C   UNL d   1      11.571   8.181  -5.079  0.00  0.00     0.061 A 
ATOM     26  C   UNL d   1      11.572   9.303  -4.251  0.00  0.00     0.128 A 
ATOM     27  C   UNL d   1      11.851   6.910  -4.533  0.00  0.00     0.005 A 
ATOM     28  O   UNL d   1      11.310  10.378  -5.094  0.00  0.00    -0.210 OA
ATOM     29  C   UNL d   1      11.832   9.215  -2.873  0.00  0.00     0.027 A 
ATOM     30  N   UNL d   1      11.217   9.938  -6.442  0.00  0.00    -0.109 NA
ATOM     31  C   UNL d   1      12.059   7.941  -2.318  0.00  0.00     0.002 A 
ATOM     32  C   UNL d   1      12.078   6.793  -3.143  0.00  0.00     0.000 A 
ENDBRANCH  21  24
ENDBRANCH  17  18
ENDBRANCH   1  17
TORSDOF 8
