REMARK  4 active torsions:
REMARK  status: ('A' for Active; 'I' for Inactive)
REMARK    1  A    between atoms: C_9  and  C_10 
REMARK    2  A    between atoms: C_10  and  C_11 
REMARK    3  A    between atoms: C_11  and  N_12 
REMARK    4  A    between atoms: N_15  and  C_16 
ROOT
ATOM      1  N   UNL d   1       8.580   4.611 -11.887  0.00  0.00     0.141 N 
ATOM      2  C   UNL d   1       9.836   3.917 -12.167  0.00  0.00     0.274 C 
ATOM      3  C   UNL d   1       9.846   3.292 -13.572  0.00  0.00     0.138 C 
ATOM      4  N   UNL d   1       9.559   4.328 -14.557  0.00  0.00    -0.330 N 
ATOM      5  C   UNL d   1       8.338   5.088 -14.298  0.00  0.00     0.138 C 
ATOM      6  C   UNL d   1       8.363   5.666 -12.877  0.00  0.00     0.274 C 
ENDROOT
BRANCH   1   7
ATOM      7  C   UNL d   1       8.548   5.120 -10.516  0.00  0.00     0.250 C 
BRANCH   7   8
ATOM      8  C   UNL d   1       9.525   6.295 -10.263  0.00  0.00     0.036 C 
BRANCH   8   9
ATOM      9  C   UNL d   1       9.332   6.971  -8.909  0.00  0.00     0.011 C 
ATOM     10  C   UNL d   1       9.796   6.134  -7.702  0.00  0.00     0.026 C 
ATOM     11  C   UNL d   1      10.515   7.135  -6.835  0.00  0.00    -0.025 A 
ATOM     12  C   UNL d   1      10.669   8.357  -7.480  0.00  0.00    -0.026 A 
ATOM     13  C   UNL d   1      10.989   6.944  -5.528  0.00  0.00     0.007 A 
ATOM     14  C   UNL d   1      11.316   9.439  -6.860  0.00  0.00    -0.004 A 
ATOM     15  C   UNL d   1      10.065   8.334  -8.852  0.00  0.00     0.026 C 
ATOM     16  C   UNL d   1      11.794   9.259  -5.549  0.00  0.00     0.011 A 
ATOM     17  C   UNL d   1      11.627   8.025  -4.876  0.00  0.00     0.057 A 
ATOM     18 CL   UNL d   1      12.260   7.817  -3.287  0.00  0.00    -0.082 Cl
ENDBRANCH   8   9
ENDBRANCH   7   8
ENDBRANCH   1   7
BRANCH   4  19
ATOM     19  C   UNL d   1      10.431   4.613 -15.621  0.00  0.00     0.140 A 
ATOM     20  N   UNL d   1      11.741   4.300 -15.479  0.00  0.00    -0.227 NA
ATOM     21  C   UNL d   1      12.588   4.529 -16.504  0.00  0.00     0.101 A 
ATOM     22  C   UNL d   1      12.181   5.098 -17.727  0.00  0.00     0.021 A 
ATOM     23  C   UNL d   1      10.827   5.440 -17.880  0.00  0.00     0.005 A 
ATOM     24  C   UNL d   1       9.942   5.189 -16.822  0.00  0.00     0.037 A 
ENDBRANCH   4  19
TORSDOF 4
