REMARK  5 active torsions:
REMARK  status: ('A' for Active; 'I' for Inactive)
REMARK    1  A    between atoms: C_4  and  C_5 
REMARK    2  A    between atoms: C_5  and  C_6 
REMARK    3  A    between atoms: C_6  and  N_7 
REMARK    4  A    between atoms: N_10  and  C_11 
REMARK    5  A    between atoms: C_13  and  C_14 
ROOT
ATOM      1  N   UNL d   1      10.209   7.135  -8.488  0.00  0.00     0.141 N 
ATOM      2  C   UNL d   1      10.738   7.594  -9.773  0.00  0.00     0.274 C 
ATOM      3  C   UNL d   1       9.687   7.441 -10.893  0.00  0.00     0.138 C 
ATOM      4  N   UNL d   1       9.171   6.076 -10.908  0.00  0.00    -0.328 N 
ATOM      5  C   UNL d   1       8.713   5.563  -9.627  0.00  0.00     0.138 C 
ATOM      6  C   UNL d   1       9.798   5.731  -8.563  0.00  0.00     0.274 C 
ENDROOT
BRANCH   4   7
ATOM      7  C   UNL d   1       9.144   5.282 -12.041  0.00  0.00     0.163 A 
ATOM      8  N   UNL d   1       8.704   5.772 -13.244  0.00  0.00    -0.131 NA
ATOM      9  N   UNL d   1       8.733   4.851 -14.231  0.00  0.00    -0.147 NA
ATOM     10  C   UNL d   1       9.203   3.760 -13.640  0.00  0.00     0.106 A 
ATOM     11  C   UNL d   1       9.459   3.985 -12.250  0.00  0.00     0.059 A 
BRANCH  10  12
ATOM     12  C   UNL d   1       9.401   2.542 -14.419  0.00  0.00     0.019 A 
ATOM     13  C   UNL d   1      10.646   2.289 -15.031  0.00  0.00     0.002 A 
ATOM     14  C   UNL d   1      10.844   1.111 -15.783  0.00  0.00     0.000 A 
ATOM     15  C   UNL d   1       9.797   0.178 -15.912  0.00  0.00     0.000 A 
ATOM     16  C   UNL d   1       8.554   0.422 -15.299  0.00  0.00     0.000 A 
ATOM     17  C   UNL d   1       8.358   1.605 -14.556  0.00  0.00     0.002 A 
ENDBRANCH  10  12
ENDBRANCH   4   7
BRANCH   1  18
ATOM     18  C   UNL d   1      11.220   7.388  -7.443  0.00  0.00     0.255 C 
BRANCH  18  19
ATOM     19  C   UNL d   1      10.809   6.789  -6.087  0.00  0.00     0.062 C 
BRANCH  19  20
ATOM     20  C   UNL d   1      11.338   7.545  -4.890  0.00  0.00    -0.020 A 
ATOM     21  C   UNL d   1      11.897   6.861  -3.789  0.00  0.00    -0.004 A 
ATOM     22  C   UNL d   1      12.311   7.576  -2.651  0.00  0.00    -0.000 A 
ATOM     23  C   UNL d   1      12.176   8.979  -2.620  0.00  0.00    -0.000 A 
ATOM     24  C   UNL d   1      11.580   9.652  -3.707  0.00  0.00    -0.000 A 
ATOM     25  C   UNL d   1      11.147   8.938  -4.835  0.00  0.00    -0.004 A 
ENDBRANCH  19  20
ENDBRANCH  18  19
ENDBRANCH   1  18
TORSDOF 5
