REMARK  8 active torsions:
REMARK  status: ('A' for Active; 'I' for Inactive)
REMARK    1  A    between atoms: O_2  and  C_3 
REMARK    2  A    between atoms: C_6  and  O_7 
REMARK    3  A    between atoms: C_9  and  C_10 
REMARK       I    between atoms: C_10  and  N_12 
REMARK    4  A    between atoms: N_12  and  C_13 
REMARK    5  A    between atoms: C_13  and  C_14 
REMARK    6  A    between atoms: C_14  and  N_15 
REMARK    7  A    between atoms: N_18  and  C_19 
REMARK    8  A    between atoms: C_24  and  O_25 
ROOT
ATOM      1  C   UNL d   1       6.691   1.483 -13.961  0.00  0.00     0.277 C 
ENDROOT
BRANCH   1   2
ATOM      2  C   UNL d   1       6.837   2.995 -14.238  0.00  0.00     0.164 C 
BRANCH   2   3
ATOM      3  N   UNL d   1       7.766   3.609 -13.293  0.00  0.00    -0.232 NA
ATOM      4  C   UNL d   1       9.097   3.764 -13.419  0.00  0.00     0.277 C 
ATOM      5  O   UNL d   1       9.800   3.997 -12.442  0.00  0.00    -0.266 OA
BRANCH   4   6
ATOM      6  C   UNL d   1       9.697   3.753 -14.805  0.00  0.00     0.082 A 
ATOM      7  C   UNL d   1      10.420   2.646 -15.302  0.00  0.00     0.099 A 
ATOM      8  C   UNL d   1      10.886   2.680 -16.637  0.00  0.00     0.026 A 
ATOM      9  C   UNL d   1      10.643   3.778 -17.474  0.00  0.00     0.026 A 
ATOM     10  C   UNL d   1       9.902   4.889 -16.986  0.00  0.00     0.094 A 
ATOM     11  C   UNL d   1       9.455   4.833 -15.663  0.00  0.00     0.031 A 
BRANCH   7  12
ATOM     12  O   UNL d   1      10.591   1.556 -14.493  0.00  0.00    -0.328 OA
ATOM     13  C   UNL d   1      10.857   0.350 -15.171  0.00  0.00     0.181 C 
ENDBRANCH   7  12
BRANCH  10  14
ATOM     14  O   UNL d   1       9.532   5.989 -17.738  0.00  0.00    -0.328 OA
ATOM     15  C   UNL d   1      10.004   6.085 -19.078  0.00  0.00     0.181 C 
ENDBRANCH  10  14
ENDBRANCH   4   6
ENDBRANCH   2   3
ENDBRANCH   1   2
BRANCH   1  16
ATOM     16  N   UNL d   1       5.877   0.827 -14.976  0.00  0.00     0.143 N 
ATOM     17  C   UNL d   1       5.399  -0.468 -14.490  0.00  0.00     0.274 C 
ATOM     18  C   UNL d   1       4.479  -1.127 -15.542  0.00  0.00     0.137 C 
ATOM     19  N   UNL d   1       5.183  -1.256 -16.816  0.00  0.00    -0.343 N 
ATOM     20  C   UNL d   1       5.785  -0.018 -17.291  0.00  0.00     0.137 C 
ATOM     21  C   UNL d   1       6.659   0.614 -16.205  0.00  0.00     0.274 C 
BRANCH  19  22
ATOM     22  C   UNL d   1       5.283  -2.473 -17.507  0.00  0.00     0.079 A 
ATOM     23  C   UNL d   1       5.208  -2.541 -18.930  0.00  0.00     0.110 A 
ATOM     24  C   UNL d   1       5.349  -3.803 -19.576  0.00  0.00     0.026 A 
ATOM     25  C   UNL d   1       5.530  -4.980 -18.833  0.00  0.00     0.002 A 
ATOM     26  C   UNL d   1       5.581  -4.920 -17.435  0.00  0.00     0.002 A 
ATOM     27  C   UNL d   1       5.462  -3.676 -16.785  0.00  0.00     0.019 A 
BRANCH  23  28
ATOM     28  O   UNL d   1       4.950  -1.376 -19.619  0.00  0.00    -0.327 OA
ATOM     29  C   UNL d   1       5.053  -1.383 -21.033  0.00  0.00     0.181 C 
ENDBRANCH  23  28
ENDBRANCH  19  22
ENDBRANCH   1  16
TORSDOF 8
