REMARK  7 active torsions:
REMARK  status: ('A' for Active; 'I' for Inactive)
REMARK       I    between atoms: C_2  and  N_3 
REMARK    1  A    between atoms: C_2  and  C_24 
REMARK    2  A    between atoms: N_3  and  C_4 
REMARK    3  A    between atoms: C_4  and  C_5 
REMARK    4  A    between atoms: C_5  and  C_6 
REMARK    5  A    between atoms: C_6  and  C_7 
REMARK    6  A    between atoms: C_7  and  N_8 
REMARK    7  A    between atoms: N_11  and  C_12 
ROOT
ATOM      1  C   UNL d   1       8.895   5.741 -13.166  0.00  0.00     0.251 C 
ENDROOT
BRANCH   1   2
ATOM      2  C   UNL d   1       8.235   5.788 -11.770  0.00  0.00     0.037 C 
BRANCH   2   3
ATOM      3  C   UNL d   1       9.315   5.724 -10.696  0.00  0.00     0.029 C 
BRANCH   3   4
ATOM      4  C   UNL d   1       8.712   5.599  -9.280  0.00  0.00     0.129 C 
BRANCH   4   5
ATOM      5  N   UNL d   1       9.532   6.182  -8.225  0.00  0.00    -0.234 NA
ATOM      6  C   UNL d   1      10.214   7.339  -8.264  0.00  0.00     0.275 C 
ATOM      7  O   UNL d   1      10.447   7.997  -9.272  0.00  0.00    -0.266 OA
BRANCH   6   8
ATOM      8  C   UNL d   1      10.632   7.894  -6.948  0.00  0.00     0.058 A 
ATOM      9  C   UNL d   1      11.044   7.062  -5.888  0.00  0.00     0.005 A 
ATOM     10  C   UNL d   1      11.456   7.628  -4.677  0.00  0.00     0.000 A 
ATOM     11  C   UNL d   1      11.463   9.036  -4.502  0.00  0.00     0.000 A 
ATOM     12  C   UNL d   1      11.861   6.790  -3.625  0.00  0.00     0.000 A 
ATOM     13  C   UNL d   1      11.065   9.874  -5.561  0.00  0.00     0.000 A 
ATOM     14  C   UNL d   1      11.865   9.587  -3.280  0.00  0.00     0.000 A 
ATOM     15  C   UNL d   1      10.659   9.293  -6.771  0.00  0.00     0.005 A 
ATOM     16  C   UNL d   1      12.263   8.750  -2.228  0.00  0.00     0.000 A 
ATOM     17  C   UNL d   1      12.261   7.351  -2.402  0.00  0.00     0.000 A 
ENDBRANCH   6   8
ENDBRANCH   4   5
ENDBRANCH   3   4
ENDBRANCH   2   3
ENDBRANCH   1   2
BRANCH   1  18
ATOM     18  N   UNL d   1       9.260   4.390 -13.582  0.00  0.00     0.141 N 
ATOM     19  C   UNL d   1       9.888   4.439 -14.914  0.00  0.00     0.274 C 
ATOM     20  C   UNL d   1      10.315   3.026 -15.366  0.00  0.00     0.137 C 
ATOM     21  N   UNL d   1       9.180   2.119 -15.312  0.00  0.00    -0.343 N 
ATOM     22  C   UNL d   1       8.438   2.115 -14.065  0.00  0.00     0.137 C 
ATOM     23  C   UNL d   1       8.061   3.544 -13.668  0.00  0.00     0.274 C 
BRANCH  21  24
ATOM     24  C   UNL d   1       8.751   1.360 -16.420  0.00  0.00     0.076 A 
ATOM     25  C   UNL d   1       9.662   0.729 -17.288  0.00  0.00     0.119 A 
ATOM     26  C   UNL d   1       9.238  -0.022 -18.369  0.00  0.00     0.105 A 
ATOM     27  N   UNL d   1      11.060   0.665 -17.293  0.00  0.00    -0.188 NA
ATOM     28  C   UNL d   1       7.884  -0.200 -18.673  0.00  0.00     0.021 A 
ATOM     29  N   UNL d   1      10.391  -0.500 -18.994  0.00  0.00    -0.189 NA
ATOM     30  C   UNL d   1       6.945   0.419 -17.821  0.00  0.00     0.003 A 
ATOM     31  C   UNL d   1       7.373   1.188 -16.706  0.00  0.00     0.018 A 
ATOM     32  C   UNL d   1      11.481  -0.072 -18.334  0.00  0.00     0.369 A 
ATOM     33  O   UNL d   1      12.644  -0.316 -18.631  0.00  0.00    -0.242 OA
ENDBRANCH  21  24
ENDBRANCH   1  18
TORSDOF 7
