REMARK  11 active torsions:
REMARK  status: ('A' for Active; 'I' for Inactive)
REMARK    1  A    between atoms: C_2  and  C_3 
REMARK    2  A    between atoms: C_3  and  N_4 
REMARK    3  A    between atoms: N_4  and  C_5 
REMARK    4  A    between atoms: C_5  and  C_6 
REMARK    5  A    between atoms: C_6  and  C_8 
REMARK    6  A    between atoms: C_8  and  O_9 
REMARK    7  A    between atoms: O_9  and  C_10 
REMARK    8  A    between atoms: C_15  and  C_16 
REMARK    9  A    between atoms: C_16  and  C_18 
REMARK   10  A    between atoms: C_18  and  C_19 
REMARK   11  A    between atoms: C_19  and  C_20 
ROOT
ATOM      1  C   UNL d   1       9.585   7.061  -9.985  0.00  0.00     0.097 C 
ATOM      2  C   UNL d   1       9.629   5.746 -10.423  0.00  0.00     0.024 C 
ATOM      3  C   UNL d   1       9.459   4.567  -9.771  0.00  0.00     0.002 C 
ATOM      4  C   UNL d   1       9.299   4.716  -8.408  0.00  0.00     0.000 C 
ATOM      5  C   UNL d   1       9.338   5.980  -7.843  0.00  0.00     0.005 C 
ATOM      6  C   UNL d   1       9.483   7.174  -8.590  0.00  0.00     0.057 C 
ENDROOT
BRANCH   6   7
ATOM      7  C   UNL d   1       9.427   8.481  -7.976  0.00  0.00     0.175 C 
ATOM      8  O   UNL d   1       9.125   9.505  -8.571  0.00  0.00    -0.291 OA
BRANCH   7   9
ATOM      9  C   UNL d   1       9.796   8.540  -6.521  0.00  0.00     0.074 C 
BRANCH   9  10
ATOM     10  C   UNL d   1      11.286   8.255  -6.319  0.00  0.00     0.035 C 
BRANCH  10  11
ATOM     11  C   UNL d   1      11.632   8.144  -4.849  0.00  0.00    -0.022 A 
ATOM     12  C   UNL d   1      11.789   9.303  -4.066  0.00  0.00    -0.004 A 
ATOM     13  C   UNL d   1      12.140   9.184  -2.709  0.00  0.00    -0.000 A 
ATOM     14  C   UNL d   1      12.328   7.929  -2.124  0.00  0.00    -0.000 A 
ATOM     15  C   UNL d   1      12.176   6.770  -2.904  0.00  0.00    -0.000 A 
ATOM     16  C   UNL d   1      11.829   6.878  -4.263  0.00  0.00    -0.004 A 
ENDBRANCH  10  11
ENDBRANCH   9  10
ENDBRANCH   7   9
ENDBRANCH   6   7
BRANCH   1  17
ATOM     17  O   UNL d   1       9.580   8.160 -10.847  0.00  0.00    -0.328 OA
BRANCH  17  18
ATOM     18  C   UNL d   1       9.171   8.055 -12.232  0.00  0.00     0.184 C 
BRANCH  18  19
ATOM     19  C   UNL d   1       7.988   7.078 -12.525  0.00  0.00     0.206 C 
ATOM     20  O   UNL d   1       6.829   7.793 -12.841  0.00  0.00    -0.219 OA
BRANCH  19  21
ATOM     21  C   UNL d   1       8.298   5.970 -13.580  0.00  0.00     0.155 C 
BRANCH  21  22
ATOM     22  N   UNL d   1       9.625   5.352 -13.488  0.00  0.00    -0.293 NA
BRANCH  22  23
ATOM     23  C   UNL d   1      10.268   4.837 -14.649  0.00  0.00     0.120 C 
BRANCH  23  24
ATOM     24  C   UNL d   1      11.403   3.884 -14.194  0.00  0.00     0.026 C 
ATOM     25  C   UNL d   1      10.885   2.451 -14.039  0.00  0.00     0.002 C 
ENDBRANCH  23  24
ENDBRANCH  22  23
ENDBRANCH  21  22
ENDBRANCH  19  21
ENDBRANCH  18  19
ENDBRANCH  17  18
ENDBRANCH   1  17
TORSDOF 11
