REMARK  2 active torsions:
REMARK  status: ('A' for Active; 'I' for Inactive)
REMARK    1  A    between atoms: C_4  and  C_5 
REMARK    2  A    between atoms: C_5  and  N_6 
ROOT
ATOM      1  N   UNL d   1       6.461   0.202 -18.370  0.00  0.00     0.137 N 
ATOM      2  C   UNL d   1       6.889  -0.811 -19.339  0.00  0.00     0.220 C 
ATOM      3  C   UNL d   1       6.150  -2.063 -18.904  0.00  0.00     0.035 C 
ATOM      4  C   UNL d   1       4.795  -1.504 -18.445  0.00  0.00     0.035 C 
ATOM      5  C   UNL d   1       5.023   0.018 -18.617  0.00  0.00     0.220 C 
ATOM      6  C   UNL d   1       4.995   0.388 -20.117  0.00  0.00     0.035 C 
ATOM      7  C   UNL d   1       6.324  -0.208 -20.596  0.00  0.00     0.035 C 
ENDROOT
BRANCH   1   8
ATOM      8  C   UNL d   1       6.886   0.079 -16.957  0.00  0.00     0.277 C 
BRANCH   8   9
ATOM      9  C   UNL d   1       8.370   0.380 -16.711  0.00  0.00     0.011 A 
ATOM     10  C   UNL d   1       8.733   1.176 -15.578  0.00  0.00    -0.002 A 
ATOM     11  C   UNL d   1      10.104   1.477 -15.347  0.00  0.00    -0.000 A 
ATOM     12  C   UNL d   1      11.104   1.027 -16.254  0.00  0.00    -0.000 A 
ATOM     13  C   UNL d   1      10.721   0.232 -17.354  0.00  0.00    -0.000 A 
ATOM     14  C   UNL d   1       9.396  -0.128 -17.546  0.00  0.00    -0.002 A 
ENDBRANCH   8   9
ENDBRANCH   1   8
TORSDOF 2
