REMARK  4 active torsions:
REMARK  status: ('A' for Active; 'I' for Inactive)
REMARK    1  A    between atoms: N_5  and  C_6 
REMARK    2  A    between atoms: C_6  and  C_7 
REMARK    3  A    between atoms: C_7  and  N_8 
REMARK    4  A    between atoms: N_11  and  C_12 
ROOT
ATOM      1  N   UNL d   1       9.121   6.346 -10.137  0.00  0.00    -0.298 N 
ATOM      2  C   UNL d   1       8.257   5.689  -9.195  0.00  0.00     0.131 A 
ATOM      3  C   UNL d   1       8.683   6.281  -7.852  0.00  0.00     0.135 A 
ATOM      4  N   UNL d   1       9.720   7.240  -8.206  0.00  0.00    -0.280 N 
ATOM      5  C   UNL d   1       9.935   7.245  -9.546  0.00  0.00     0.328 A 
ATOM      6  O   UNL d   1      10.752   7.937 -10.156  0.00  0.00    -0.247 OA
ENDROOT
BRANCH   1   7
ATOM      7  C   UNL d   1       8.870   6.200 -11.560  0.00  0.00     0.141 C 
BRANCH   7   8
ATOM      8  C   UNL d   1       9.826   5.143 -12.046  0.00  0.00     0.274 C 
BRANCH   8   9
ATOM      9  N   UNL d   1       9.568   4.707 -13.396  0.00  0.00     0.139 N 
ATOM     10  C   UNL d   1       8.912   3.426 -13.216  0.00  0.00     0.250 C 
ATOM     11  C   UNL d   1       8.458   2.873 -14.556  0.00  0.00     0.035 C 
ATOM     12  C   UNL d   1       9.627   2.734 -15.550  0.00  0.00     0.004 C 
ATOM     13  C   UNL d   1       9.129   2.348 -16.950  0.00  0.00     0.000 C 
ATOM     14  C   UNL d   1      10.436   4.042 -15.583  0.00  0.00     0.035 C 
ATOM     15  C   UNL d   1      10.802   4.511 -14.165  0.00  0.00     0.250 C 
ENDBRANCH   8   9
ENDBRANCH   7   8
ENDBRANCH   1   7
BRANCH   4  16
ATOM     16  C   UNL d   1      10.451   7.947  -7.214  0.00  0.00     0.065 A 
ATOM     17  C   UNL d   1      10.736   7.382  -5.944  0.00  0.00     0.029 A 
ATOM     18  C   UNL d   1      11.471   8.105  -4.982  0.00  0.00     0.059 A 
ATOM     19  C   UNL d   1      11.919   9.407  -5.270  0.00  0.00     0.011 A 
ATOM     20 CL   UNL d   1      11.888   7.375  -3.478  0.00  0.00    -0.082 Cl
ATOM     21  C   UNL d   1      11.614   9.991  -6.503  0.00  0.00     0.002 A 
ATOM     22  C   UNL d   1      10.910   9.261  -7.478  0.00  0.00     0.017 A 
ENDBRANCH   4  16
TORSDOF 4
