REMARK  5 active torsions:
REMARK  status: ('A' for Active; 'I' for Inactive)
REMARK    1  A    between atoms: N_11  and  C_12 
REMARK    2  A    between atoms: C_12  and  C_13 
REMARK    3  A    between atoms: C_13  and  C_14 
REMARK    4  A    between atoms: C_17  and  N_18 
REMARK       I    between atoms: N_18  and  C_19 
REMARK    5  A    between atoms: C_19  and  C_21 
ROOT
ATOM      1  N   UNL d   1       5.026  -2.583 -21.214  0.00  0.00    -0.191 NA
ATOM      2  C   UNL d   1       5.040  -2.237 -20.108  0.00  0.00     0.101 C 
ATOM      3  C   UNL d   1       5.057  -1.810 -18.726  0.00  0.00     0.068 A 
ATOM      4  C   UNL d   1       4.250  -2.416 -17.766  0.00  0.00     0.010 A 
ATOM      5  C   UNL d   1       4.275  -1.974 -16.431  0.00  0.00    -0.004 A 
ATOM      6  C   UNL d   1       5.141  -0.938 -16.018  0.00  0.00    -0.024 A 
ATOM      7  C   UNL d   1       5.962  -0.322 -17.000  0.00  0.00    -0.023 A 
ATOM      8  C   UNL d   1       5.916  -0.750 -18.348  0.00  0.00     0.006 A 
ATOM      9  C   UNL d   1       6.931   0.831 -16.741  0.00  0.00     0.061 C 
ATOM     10  C   UNL d   1       7.859   0.602 -15.531  0.00  0.00     0.255 C 
ATOM     11  N   UNL d   1       7.196   0.744 -14.231  0.00  0.00     0.138 N 
ATOM     12  C   UNL d   1       6.450  -0.444 -13.842  0.00  0.00     0.255 C 
ATOM     13  C   UNL d   1       5.082  -0.582 -14.534  0.00  0.00     0.061 C 
ENDROOT
BRANCH  11  14
ATOM     14  C   UNL d   1       6.336   1.928 -14.103  0.00  0.00     0.250 C 
BRANCH  14  15
ATOM     15  C   UNL d   1       7.082   3.220 -14.422  0.00  0.00     0.035 C 
BRANCH  15  16
ATOM     16  C   UNL d   1       7.976   3.720 -13.299  0.00  0.00     0.002 C 
ATOM     17  C   UNL d   1       7.101   4.385 -12.218  0.00  0.00     0.002 C 
ATOM     18  C   UNL d   1       7.953   4.937 -11.086  0.00  0.00     0.024 C 
ATOM     19  C   UNL d   1       9.029   5.884 -11.627  0.00  0.00     0.107 C 
ATOM     20  C   UNL d   1       9.888   5.187 -12.697  0.00  0.00     0.024 C 
ATOM     21  C   UNL d   1       9.028   4.686 -13.844  0.00  0.00     0.002 C 
BRANCH  19  22
ATOM     22  N   UNL d   1       9.844   6.324 -10.506  0.00  0.00    -0.235 NA
ATOM     23  C   UNL d   1       9.957   7.579 -10.063  0.00  0.00     0.292 C 
ATOM     24  O   UNL d   1       9.694   8.573 -10.739  0.00  0.00    -0.264 OA
BRANCH  23  25
ATOM     25  C   UNL d   1      10.417   7.715  -8.668  0.00  0.00     0.139 A 
ATOM     26  N   UNL d   1      10.556   8.986  -8.142  0.00  0.00    -0.241 NA
ATOM     27  C   UNL d   1      10.949   8.943  -6.820  0.00  0.00     0.082 A 
ATOM     28  C   UNL d   1      11.054   7.556  -6.505  0.00  0.00     0.019 A 
ATOM     29  C   UNL d   1      11.223   9.946  -5.872  0.00  0.00     0.019 A 
ATOM     30  C   UNL d   1      10.698   6.804  -7.677  0.00  0.00     0.025 A 
ATOM     31  C   UNL d   1      11.456   7.216  -5.191  0.00  0.00     0.002 A 
ATOM     32  C   UNL d   1      11.754   8.214  -4.240  0.00  0.00     0.000 A 
ATOM     33  C   UNL d   1      11.627   9.576  -4.574  0.00  0.00     0.002 A 
ENDBRANCH  23  25
ENDBRANCH  19  22
ENDBRANCH  15  16
ENDBRANCH  14  15
ENDBRANCH  11  14
TORSDOF 5
