REMARK  9 active torsions:
REMARK  status: ('A' for Active; 'I' for Inactive)
REMARK    1  A    between atoms: C_6  and  C_7 
REMARK    2  A    between atoms: C_10  and  S_11 
REMARK    3  A    between atoms: S_11  and  C_12 
REMARK    4  A    between atoms: C_12  and  C_13 
REMARK    5  A    between atoms: C_13  and  C_14 
REMARK    6  A    between atoms: C_14  and  N_15 
REMARK    7  A    between atoms: N_20  and  C_21 
REMARK    8  A    between atoms: C_26  and  O_27 
REMARK    9  A    between atoms: O_27  and  C_28 
ROOT
ATOM      1  N   UNL d   1      10.458   3.746 -14.699  0.00  0.00     0.138 N 
ATOM      2  C   UNL d   1       9.766   4.601 -13.743  0.00  0.00     0.252 C 
ATOM      3  C   UNL d   1       8.725   3.680 -13.110  0.00  0.00     0.052 C 
ATOM      4  C   UNL d   1       7.347   4.300 -12.848  0.00  0.00     0.021 C 
ATOM      5  C   UNL d   1       6.389   3.204 -13.301  0.00  0.00     0.077 C 
ATOM      6  N   UNL d   1       7.056   2.563 -14.435  0.00  0.00    -0.250 NA
ATOM      7  C   UNL d   1       8.488   2.587 -14.146  0.00  0.00     0.097 C 
ATOM      8  C   UNL d   1       9.374   2.998 -15.327  0.00  0.00     0.266 C 
ENDROOT
BRANCH   1   9
ATOM      9  C   UNL d   1      11.195   4.555 -15.659  0.00  0.00     0.251 C 
BRANCH   9  10
ATOM     10  C   UNL d   1      12.197   3.722 -16.478  0.00  0.00     0.047 C 
BRANCH  10  11
ATOM     11  C   UNL d   1      13.101   4.579 -17.380  0.00  0.00     0.067 C 
BRANCH  11  12
ATOM     12  S   UNL d   1      13.989   5.863 -16.442  0.00  0.00    -0.075 SA
BRANCH  12  13
ATOM     13  C   UNL d   1      14.999   6.471 -17.748  0.00  0.00     0.193 A 
ATOM     14  N   UNL d   1      15.997   5.768 -18.279  0.00  0.00    -0.122 NA
ATOM     15  N   UNL d   1      16.505   6.563 -19.276  0.00  0.00    -0.126 NA
ATOM     16  C   UNL d   1      15.772   7.682 -19.278  0.00  0.00     0.191 A 
ATOM     17  N   UNL d   1      14.829   7.687 -18.307  0.00  0.00    -0.287 N 
ATOM     18  C   UNL d   1      13.858   8.719 -17.971  0.00  0.00     0.134 C 
BRANCH  16  19
ATOM     19  C   UNL d   1      16.001   8.742 -20.262  0.00  0.00     0.151 A 
ATOM     20  C   UNL d   1      16.941   8.894 -21.255  0.00  0.00     0.087 A 
ATOM     21  C   UNL d   1      18.074   7.994 -21.649  0.00  0.00     0.054 C 
ATOM     22  N   UNL d   1      16.692  10.089 -21.918  0.00  0.00    -0.221 NA
ATOM     23  C   UNL d   1      15.619  10.591 -21.313  0.00  0.00     0.225 A 
ATOM     24  O   UNL d   1      15.153   9.821 -20.297  0.00  0.00    -0.282 OA
ENDBRANCH  16  19
ENDBRANCH  12  13
ENDBRANCH  11  12
ENDBRANCH  10  11
ENDBRANCH   9  10
ENDBRANCH   1   9
BRANCH   6  25
ATOM     25  C   UNL d   1       6.564   1.345 -14.954  0.00  0.00     0.059 A 
ATOM     26  C   UNL d   1       6.765   1.029 -16.332  0.00  0.00     0.112 A 
ATOM     27  C   UNL d   1       6.277  -0.200 -16.840  0.00  0.00     0.025 A 
ATOM     28  C   UNL d   1       5.566  -1.088 -16.013  0.00  0.00     0.002 A 
ATOM     29  C   UNL d   1       5.359  -0.776 -14.663  0.00  0.00     0.001 A 
ATOM     30  C   UNL d   1       5.856   0.429 -14.134  0.00  0.00     0.013 A 
BRANCH  26  31
ATOM     31  O   UNL d   1       7.374   1.977 -17.139  0.00  0.00    -0.253 OA
BRANCH  31  32
ATOM     32  C   UNL d   1       8.025   1.625 -18.285  0.00  0.00     0.530 C 
ATOM     33  F   UNL d   1       8.694   2.704 -18.762  0.00  0.00    -0.144 F 
ATOM     34  F   UNL d   1       8.947   0.654 -18.068  0.00  0.00    -0.144 F 
ATOM     35  F   UNL d   1       7.171   1.224 -19.262  0.00  0.00    -0.144 F 
ENDBRANCH  31  32
ENDBRANCH  26  31
ENDBRANCH   6  25
TORSDOF 9
