REMARK  3 active torsions:
REMARK  status: ('A' for Active; 'I' for Inactive)
REMARK    1  A    between atoms: C_6  and  C_7 
REMARK    2  A    between atoms: C_7  and  C_8 
REMARK    3  A    between atoms: C_7  and  N_16 
ROOT
ATOM      1  N   UNL d   1       3.827  -0.410 -13.864  0.00  0.00    -0.191 NA
ATOM      2  C   UNL d   1       4.821  -0.188 -14.416  0.00  0.00     0.101 C 
ATOM      3  C   UNL d   1       6.069   0.086 -15.107  0.00  0.00     0.068 A 
ATOM      4  C   UNL d   1       7.245   0.384 -14.391  0.00  0.00     0.010 A 
ATOM      5  C   UNL d   1       8.446   0.657 -15.081  0.00  0.00    -0.001 A 
ATOM      6  C   UNL d   1       8.477   0.643 -16.502  0.00  0.00     0.004 A 
ATOM      7  C   UNL d   1       7.294   0.331 -17.199  0.00  0.00    -0.001 A 
ATOM      8  C   UNL d   1       6.089   0.066 -16.508  0.00  0.00     0.010 A 
ENDROOT
BRANCH   6   9
ATOM      9  C   UNL d   1       9.817   0.911 -17.230  0.00  0.00     0.151 C 
BRANCH   9  10
ATOM     10  C   UNL d   1      10.421   2.284 -16.948  0.00  0.00     0.004 A 
ATOM     11  C   UNL d   1      11.687   2.394 -16.340  0.00  0.00    -0.001 A 
ATOM     12  C   UNL d   1      12.268   3.655 -16.101  0.00  0.00     0.010 A 
ATOM     13  C   UNL d   1      11.583   4.833 -16.472  0.00  0.00     0.068 A 
ATOM     14  C   UNL d   1      10.315   4.738 -17.076  0.00  0.00     0.010 A 
ATOM     15  C   UNL d   1      12.192   6.132 -16.233  0.00  0.00     0.101 C 
ATOM     16  C   UNL d   1       9.731   3.475 -17.301  0.00  0.00    -0.001 A 
ATOM     17  N   UNL d   1      12.681   7.163 -16.042  0.00  0.00    -0.191 NA
ENDBRANCH   9  10
BRANCH   9  18
ATOM     18  N   UNL d   1       9.767   0.640 -18.670  0.00  0.00    -0.224 N 
ATOM     19  N   UNL d   1       9.079   1.421 -19.533  0.00  0.00    -0.145 NA
ATOM     20  C   UNL d   1       9.148   0.724 -20.682  0.00  0.00     0.221 A 
ATOM     21  N   UNL d   1       9.872  -0.431 -20.624  0.00  0.00    -0.201 NA
ATOM     22  C   UNL d   1      10.246  -0.409 -19.352  0.00  0.00     0.198 A 
ENDBRANCH   9  18
ENDBRANCH   6   9
TORSDOF 3
