REMARK  4 active torsions:
REMARK  status: ('A' for Active; 'I' for Inactive)
REMARK    1  A    between atoms: C_5  and  C_6 
REMARK    2  A    between atoms: C_8  and  C_9 
REMARK    3  A    between atoms: C_9  and  N_10 
REMARK    4  A    between atoms: N_13  and  C_14 
ROOT
ATOM      1  N   UNL d   1       9.460   7.042  -9.927  0.00  0.00     0.141 N 
ATOM      2  C   UNL d   1       9.201   5.615  -9.711  0.00  0.00     0.274 C 
ATOM      3  C   UNL d   1       8.016   5.154 -10.537  0.00  0.00     0.137 C 
ATOM      4  N   UNL d   1       8.221   5.446 -11.937  0.00  0.00    -0.344 N 
ATOM      5  C   UNL d   1       8.558   6.820 -12.219  0.00  0.00     0.137 C 
ATOM      6  C   UNL d   1       9.749   7.271 -11.345  0.00  0.00     0.274 C 
ENDROOT
BRANCH   1   7
ATOM      7  C   UNL d   1      10.596   7.485  -9.123  0.00  0.00     0.251 C 
BRANCH   7   8
ATOM      8  C   UNL d   1      10.235   7.521  -7.645  0.00  0.00     0.038 A 
ATOM      9  C   UNL d   1      11.153   6.884  -6.618  0.00  0.00     0.024 A 
ATOM     10  C   UNL d   1       9.792   6.312  -6.812  0.00  0.00     0.007 A 
BRANCH   9  11
ATOM     11  C   UNL d   1      11.459   7.496  -5.312  0.00  0.00    -0.022 A 
ATOM     12  C   UNL d   1      11.381   8.887  -5.156  0.00  0.00    -0.002 A 
ATOM     13  C   UNL d   1      11.627   9.473  -3.919  0.00  0.00     0.027 A 
ATOM     14  C   UNL d   1      12.004   8.670  -2.841  0.00  0.00     0.131 A 
ATOM     15  O   UNL d   1      12.269   9.254  -1.625  0.00  0.00    -0.190 OA
ATOM     16  C   UNL d   1      12.125   7.283  -2.974  0.00  0.00     0.027 A 
ATOM     17  C   UNL d   1      11.855   6.688  -4.206  0.00  0.00    -0.002 A 
ENDBRANCH   9  11
ENDBRANCH   7   8
ENDBRANCH   1   7
BRANCH   4  18
ATOM     18  C   UNL d   1       8.085   4.439 -12.923  0.00  0.00     0.067 A 
ATOM     19  C   UNL d   1       6.864   3.768 -13.083  0.00  0.00     0.074 A 
ATOM     20  C   UNL d   1       6.706   2.762 -14.046  0.00  0.00     0.024 A 
ATOM     21 CL   UNL d   1       5.535   4.153 -12.093  0.00  0.00    -0.081 Cl
ATOM     22  C   UNL d   1       7.806   2.409 -14.840  0.00  0.00     0.059 A 
ATOM     23  C   UNL d   1       9.039   3.064 -14.659  0.00  0.00     0.013 A 
ATOM     24 CL   UNL d   1       7.627   1.193 -16.039  0.00  0.00    -0.082 Cl
ATOM     25  C   UNL d   1       9.181   4.079 -13.700  0.00  0.00     0.019 A 
ENDBRANCH   4  18
TORSDOF 4
