REMARK  8 active torsions:
REMARK  status: ('A' for Active; 'I' for Inactive)
REMARK    1  A    between atoms: O_2  and  C_3 
REMARK    2  A    between atoms: C_7  and  C_8 
REMARK    3  A    between atoms: C_8  and  C_10 
REMARK    4  A    between atoms: C_10  and  C_11 
REMARK    5  A    between atoms: C_11  and  C_12 
REMARK    6  A    between atoms: C_12  and  N_13 
REMARK    7  A    between atoms: N_16  and  C_17 
REMARK    8  A    between atoms: C_22  and  O_23 
ROOT
ATOM      1  N   UNL d   1       8.957   5.004 -12.160  0.00  0.00     0.141 N 
ATOM      2  C   UNL d   1       9.885   3.883 -12.304  0.00  0.00     0.274 C 
ATOM      3  C   UNL d   1       9.476   2.967 -13.465  0.00  0.00     0.137 C 
ATOM      4  N   UNL d   1       9.373   3.757 -14.683  0.00  0.00    -0.343 N 
ATOM      5  C   UNL d   1       8.587   4.978 -14.580  0.00  0.00     0.137 C 
ATOM      6  C   UNL d   1       9.031   5.810 -13.373  0.00  0.00     0.274 C 
ENDROOT
BRANCH   1   7
ATOM      7  C   UNL d   1       9.379   5.871 -11.069  0.00  0.00     0.251 C 
BRANCH   7   8
ATOM      8  C   UNL d   1       8.890   5.392  -9.698  0.00  0.00     0.043 C 
BRANCH   8   9
ATOM      9  C   UNL d   1       9.758   5.841  -8.507  0.00  0.00     0.071 C 
BRANCH   9  10
ATOM     10  C   UNL d   1      10.191   7.321  -8.468  0.00  0.00     0.173 C 
ATOM     11  O   UNL d   1      10.115   8.039  -9.464  0.00  0.00    -0.291 OA
BRANCH  10  12
ATOM     12  C   UNL d   1      10.762   7.847  -7.203  0.00  0.00     0.037 A 
ATOM     13  C   UNL d   1      11.173   9.197  -7.172  0.00  0.00     0.003 A 
ATOM     14  C   UNL d   1      11.717   9.764  -6.010  0.00  0.00     0.002 A 
ATOM     15  C   UNL d   1      11.855   8.975  -4.852  0.00  0.00     0.024 A 
ATOM     16  C   UNL d   1      11.459   7.609  -4.864  0.00  0.00     0.094 A 
ATOM     17  C   UNL d   1      10.920   7.058  -6.042  0.00  0.00     0.027 A 
BRANCH  16  18
ATOM     18  O   UNL d   1      11.566   6.761  -3.788  0.00  0.00    -0.328 OA
ATOM     19  C   UNL d   1      12.100   7.283  -2.590  0.00  0.00     0.181 C 
ENDBRANCH  16  18
ENDBRANCH  10  12
ENDBRANCH   9  10
ENDBRANCH   8   9
ENDBRANCH   7   8
ENDBRANCH   1   7
BRANCH   4  20
ATOM     20  C   UNL d   1      10.073   3.406 -15.837  0.00  0.00     0.079 A 
ATOM     21  C   UNL d   1      10.929   4.332 -16.501  0.00  0.00     0.110 A 
ATOM     22  C   UNL d   1      11.600   3.923 -17.678  0.00  0.00     0.026 A 
ATOM     23  C   UNL d   1      11.430   2.623 -18.188  0.00  0.00     0.002 A 
ATOM     24  C   UNL d   1      10.593   1.708 -17.527  0.00  0.00     0.002 A 
ATOM     25  C   UNL d   1       9.923   2.100 -16.354  0.00  0.00     0.019 A 
BRANCH  21  26
ATOM     26  O   UNL d   1      11.084   5.580 -15.931  0.00  0.00    -0.327 OA
ATOM     27  C   UNL d   1      11.925   6.521 -16.570  0.00  0.00     0.181 C 
ENDBRANCH  21  26
ENDBRANCH   4  20
TORSDOF 8
