REMARK  3 active torsions:
REMARK  status: ('A' for Active; 'I' for Inactive)
REMARK    1  A    between atoms: C_4  and  C_5 
REMARK    2  A    between atoms: C_5  and  C_7 
REMARK       I    between atoms: C_7  and  N_9 
REMARK    3  A    between atoms: N_9  and  C_10 
ROOT
ATOM      1  C   UNL d   1       8.994   6.226 -11.143  0.00  0.00     0.254 C 
ATOM      2  O   UNL d   1       9.443   7.285 -11.588  0.00  0.00    -0.281 OA
ENDROOT
BRANCH   1   3
ATOM      3  C   UNL d   1       8.353   5.224 -11.962  0.00  0.00     0.062 A 
ATOM      4  C   UNL d   1       7.020   4.938 -11.891  0.00  0.00     0.079 A 
ATOM      5  N   UNL d   1       6.703   3.960 -12.816  0.00  0.00    -0.324 N 
ATOM      6  C   UNL d   1       5.387   3.408 -13.018  0.00  0.00     0.131 C 
ATOM      7  C   UNL d   1       7.844   3.598 -13.513  0.00  0.00     0.060 A 
ATOM      8  C   UNL d   1       8.906   4.388 -12.989  0.00  0.00     0.021 A 
ATOM      9  C   UNL d   1       8.064   2.653 -14.532  0.00  0.00     0.017 A 
ATOM     10  C   UNL d   1      10.197   4.199 -13.538  0.00  0.00     0.002 A 
ATOM     11  C   UNL d   1      10.424   3.256 -14.559  0.00  0.00     0.000 A 
ATOM     12  C   UNL d   1       9.358   2.481 -15.055  0.00  0.00     0.002 A 
ENDBRANCH   1   3
BRANCH   1  13
ATOM     13  C   UNL d   1       9.150   5.864  -9.645  0.00  0.00     0.314 C 
ATOM     14  O   UNL d   1       9.382   4.716  -9.261  0.00  0.00    -0.262 OA
ATOM     15  N   UNL d   1       9.066   6.937  -8.854  0.00  0.00    -0.232 NA
BRANCH  15  16
ATOM     16  C   UNL d   1       9.439   7.037  -7.447  0.00  0.00     0.140 C 
ATOM     17  C   UNL d   1      10.916   6.630  -7.224  0.00  0.00     0.029 C 
ATOM     18  C   UNL d   1      11.802   7.612  -8.018  0.00  0.00     0.037 C 
ATOM     19  C   UNL d   1      11.233   6.818  -5.732  0.00  0.00     0.037 C 
ATOM     20  C   UNL d   1      11.504   9.065  -7.564  0.00  0.00     0.250 C 
ATOM     21  N   UNL d   1      10.520   9.094  -6.475  0.00  0.00     0.139 N 
ATOM     22  C   UNL d   1       9.251   8.508  -6.952  0.00  0.00     0.274 C 
ATOM     23  C   UNL d   1      11.045   8.312  -5.351  0.00  0.00     0.250 C 
ENDBRANCH  15  16
ENDBRANCH   1  13
TORSDOF 3
