REMARK  4 active torsions:
REMARK  status: ('A' for Active; 'I' for Inactive)
REMARK    1  A    between atoms: C_8  and  C_9 
REMARK    2  A    between atoms: C_9  and  C_10 
REMARK    3  A    between atoms: C_10  and  N_11 
REMARK    4  A    between atoms: N_14  and  C_15 
ROOT
ATOM      1  C   UNL d   1       9.542   6.000 -10.769  0.00  0.00     0.255 C 
ENDROOT
BRANCH   1   2
ATOM      2  C   UNL d   1       8.794   6.424 -12.032  0.00  0.00     0.068 C 
BRANCH   2   3
ATOM      3  C   UNL d   1       8.361   5.222 -12.873  0.00  0.00     0.050 A 
ATOM      4  C   UNL d   1       7.092   4.737 -12.851  0.00  0.00     0.061 A 
ATOM      5  C   UNL d   1       5.994   5.346 -12.015  0.00  0.00     0.052 C 
ATOM      6  N   UNL d   1       6.715   3.630 -13.613  0.00  0.00    -0.234 NA
ATOM      7  C   UNL d   1       7.573   3.054 -14.383  0.00  0.00     0.153 A 
ATOM      8  C   UNL d   1       7.125   1.893 -15.296  0.00  0.00     0.208 C 
ATOM      9  N   UNL d   1       8.913   3.519 -14.503  0.00  0.00    -0.283 N 
ATOM     10  C   UNL d   1       8.241   1.048 -15.893  0.00  0.00     0.043 C 
ATOM     11  O   UNL d   1       6.253   1.021 -14.595  0.00  0.00    -0.215 OA
ATOM     12  C   UNL d   1       9.281   1.965 -16.506  0.00  0.00     0.028 C 
ATOM     13  C   UNL d   1       9.878   2.850 -15.405  0.00  0.00     0.111 C 
ATOM     14  C   UNL d   1       9.355   4.577 -13.748  0.00  0.00     0.259 A 
ATOM     15  O   UNL d   1      10.526   4.974 -13.816  0.00  0.00    -0.267 OA
ENDBRANCH   2   3
ENDBRANCH   1   2
BRANCH   1  16
ATOM     16  N   UNL d   1       9.727   7.129  -9.851  0.00  0.00     0.141 N 
ATOM     17  C   UNL d   1       9.282   6.728  -8.521  0.00  0.00     0.274 C 
ATOM     18  C   UNL d   1       9.351   7.927  -7.569  0.00  0.00     0.137 C 
ATOM     19  N   UNL d   1      10.719   8.431  -7.545  0.00  0.00    -0.344 N 
ATOM     20  C   UNL d   1      11.274   8.789  -8.851  0.00  0.00     0.137 C 
ATOM     21  C   UNL d   1      11.112   7.611  -9.811  0.00  0.00     0.274 C 
BRANCH  19  22
ATOM     22  C   UNL d   1      11.430   8.604  -6.342  0.00  0.00     0.069 A 
ATOM     23  C   UNL d   1      11.404   7.849  -5.219  0.00  0.00     0.051 A 
ATOM     24  C   UNL d   1      12.190   8.274  -4.253  0.00  0.00     0.037 A 
ATOM     25  S   UNL d   1      10.716   6.394  -4.890  0.00  0.00    -0.084 SA
ATOM     26  S   UNL d   1      13.059   9.583  -4.504  0.00  0.00    -0.084 SA
ATOM     27  C   UNL d   1      12.285   7.501  -3.076  0.00  0.00     0.014 A 
ATOM     28  C   UNL d   1      12.331   9.610  -6.117  0.00  0.00     0.053 A 
ATOM     29  C   UNL d   1      11.450   6.476  -3.261  0.00  0.00     0.036 A 
ENDBRANCH  19  22
ENDBRANCH   1  16
TORSDOF 4
