REMARK  7 active torsions:
REMARK  status: ('A' for Active; 'I' for Inactive)
REMARK       I    between atoms: C_2  and  N_3 
REMARK    1  A    between atoms: C_2  and  C_23 
REMARK    2  A    between atoms: N_3  and  C_4 
REMARK    3  A    between atoms: C_4  and  C_5 
REMARK    4  A    between atoms: C_5  and  C_6 
REMARK    5  A    between atoms: C_6  and  C_7 
REMARK    6  A    between atoms: C_7  and  N_8 
REMARK    7  A    between atoms: N_11  and  C_12 
ROOT
ATOM      1  C   UNL d   1       8.264   5.343 -11.791  0.00  0.00     0.037 C 
ENDROOT
BRANCH   1   2
ATOM      2  C   UNL d   1       9.250   5.831 -10.744  0.00  0.00     0.029 C 
BRANCH   2   3
ATOM      3  C   UNL d   1       8.765   5.602  -9.308  0.00  0.00     0.129 C 
BRANCH   3   4
ATOM      4  N   UNL d   1       9.633   6.175  -8.282  0.00  0.00    -0.234 NA
ATOM      5  C   UNL d   1      10.258   7.369  -8.309  0.00  0.00     0.275 C 
ATOM      6  O   UNL d   1      10.444   8.052  -9.314  0.00  0.00    -0.266 OA
BRANCH   5   7
ATOM      7  C   UNL d   1      10.656   7.906  -6.971  0.00  0.00     0.058 A 
ATOM      8  C   UNL d   1      11.063   7.067  -5.920  0.00  0.00     0.005 A 
ATOM      9  C   UNL d   1      11.465   7.627  -4.702  0.00  0.00     0.000 A 
ATOM     10  C   UNL d   1      11.459   9.037  -4.515  0.00  0.00     0.000 A 
ATOM     11  C   UNL d   1      11.864   6.788  -3.657  0.00  0.00     0.000 A 
ATOM     12  C   UNL d   1      11.061   9.879  -5.568  0.00  0.00     0.000 A 
ATOM     13  C   UNL d   1      11.858   9.579  -3.282  0.00  0.00     0.000 A 
ATOM     14  C   UNL d   1      10.664   9.306  -6.787  0.00  0.00     0.005 A 
ATOM     15  C   UNL d   1      12.262   8.727  -2.240  0.00  0.00     0.000 A 
ATOM     16  C   UNL d   1      12.257   7.331  -2.423  0.00  0.00     0.000 A 
ENDBRANCH   5   7
ENDBRANCH   3   4
ENDBRANCH   2   3
ENDBRANCH   1   2
BRANCH   1  17
ATOM     17  C   UNL d   1       8.831   5.603 -13.202  0.00  0.00     0.251 C 
BRANCH  17  18
ATOM     18  N   UNL d   1       9.844   4.630 -13.607  0.00  0.00     0.141 N 
ATOM     19  C   UNL d   1      10.344   4.985 -14.936  0.00  0.00     0.274 C 
ATOM     20  C   UNL d   1      11.418   3.995 -15.404  0.00  0.00     0.137 C 
ATOM     21  N   UNL d   1      10.910   2.627 -15.364  0.00  0.00    -0.344 N 
ATOM     22  C   UNL d   1      10.299   2.254 -14.096  0.00  0.00     0.137 C 
ATOM     23  C   UNL d   1       9.249   3.293 -13.708  0.00  0.00     0.274 C 
BRANCH  21  24
ATOM     24  C   UNL d   1      10.937   1.753 -16.480  0.00  0.00     0.058 A 
ATOM     25  C   UNL d   1      11.931   1.868 -17.503  0.00  0.00     0.035 A 
ATOM     26  C   UNL d   1      11.881   0.933 -18.583  0.00  0.00     0.083 A 
ATOM     27  C   UNL d   1      13.071   2.729 -17.749  0.00  0.00     0.024 A 
ATOM     28  C   UNL d   1      10.910  -0.078 -18.660  0.00  0.00     0.019 A 
ATOM     29  N   UNL d   1      12.925   1.258 -19.425  0.00  0.00    -0.244 NA
ATOM     30  C   UNL d   1       9.938  -0.175 -17.653  0.00  0.00     0.003 A 
ATOM     31  C   UNL d   1       9.950   0.738 -16.585  0.00  0.00     0.017 A 
ATOM     32  C   UNL d   1      13.635   2.337 -18.933  0.00  0.00     0.099 A 
ENDBRANCH  21  24
ENDBRANCH  17  18
ENDBRANCH   1  17
TORSDOF 7
