REMARK  1 active torsions:
REMARK  status: ('A' for Active; 'I' for Inactive)
REMARK    1  A    between atoms: C_7  and  N_8 
ROOT
ATOM      1  N   UNL d   1      12.262   6.574  -2.421  0.00  0.00    -0.191 NA
ATOM      2  C   UNL d   1      12.017   7.183  -3.369  0.00  0.00     0.101 C 
ATOM      3  C   UNL d   1      11.711   7.942  -4.559  0.00  0.00     0.070 A 
ATOM      4  C   UNL d   1      12.163   9.267  -4.677  0.00  0.00     0.010 A 
ATOM      5  C   UNL d   1      11.866   9.992  -5.843  0.00  0.00     0.002 A 
ATOM      6  C   UNL d   1      11.120   9.395  -6.877  0.00  0.00     0.017 A 
ATOM      7  C   UNL d   1      10.670   8.061  -6.777  0.00  0.00     0.057 A 
ATOM      8  C   UNL d   1      10.981   7.338  -5.603  0.00  0.00     0.027 A 
ENDROOT
BRANCH   7   9
ATOM      9  N   UNL d   1       9.944   7.485  -7.840  0.00  0.00    -0.344 N 
ATOM     10  C   UNL d   1       9.007   6.385  -7.646  0.00  0.00     0.140 C 
ATOM     11  C   UNL d   1       9.325   5.252  -8.645  0.00  0.00     0.314 C 
ATOM     12  N   UNL d   1       9.271   5.745 -10.021  0.00  0.00     0.343 N 
ATOM     13  C   UNL d   1      10.254   6.816 -10.182  0.00  0.00     0.314 C 
ATOM     14  C   UNL d   1       9.995   7.987  -9.217  0.00  0.00     0.140 C 
ENDBRANCH   7   9
TORSDOF 1
