REMARK  9 active torsions:
REMARK  status: ('A' for Active; 'I' for Inactive)
REMARK    1  A    between atoms: S_2  and  C_3 
REMARK    2  A    between atoms: S_2  and  C_20 
REMARK    3  A    between atoms: C_3  and  C_4 
REMARK    4  A    between atoms: C_4  and  N_5 
REMARK    5  A    between atoms: N_5  and  C_6 
REMARK    6  A    between atoms: N_9  and  C_10 
REMARK    7  A    between atoms: C_10  and  C_11 
REMARK    8  A    between atoms: C_20  and  C_21 
REMARK    9  A    between atoms: C_20  and  C_28 
ROOT
ATOM      1  O   UNL d   1       9.288   4.829 -15.239  0.00  0.00    -0.256 OA
ATOM      2  S   UNL d   1       8.616   3.774 -14.364  0.00  0.00     0.051 S 
ENDROOT
BRANCH   2   3
ATOM      3  C   UNL d   1       9.573   3.784 -12.778  0.00  0.00     0.131 C 
BRANCH   3   4
ATOM      4  C   UNL d   1       9.023   4.936 -11.925  0.00  0.00     0.304 C 
BRANCH   4   5
ATOM      5  N   UNL d   1       9.455   4.794 -10.543  0.00  0.00     0.338 N 
BRANCH   5   6
ATOM      6  C   UNL d   1       9.286   6.013  -9.767  0.00  0.00     0.261 C 
ATOM      7  C   UNL d   1       9.417   5.691  -8.275  0.00  0.00     0.071 C 
ATOM      8  C   UNL d   1       9.374   6.984  -7.447  0.00  0.00     0.253 C 
ATOM      9  N   UNL d   1      10.505   7.844  -7.831  0.00  0.00     0.141 N 
ATOM     10  C   UNL d   1      10.327   8.260  -9.220  0.00  0.00     0.253 C 
ATOM     11  C   UNL d   1      10.373   7.038 -10.138  0.00  0.00     0.071 C 
BRANCH   9  12
ATOM     12  C   UNL d   1      10.587   9.026  -6.978  0.00  0.00     0.277 C 
BRANCH  12  13
ATOM     13  C   UNL d   1      11.053   8.758  -5.549  0.00  0.00     0.011 A 
ATOM     14  C   UNL d   1      11.474   7.472  -5.128  0.00  0.00    -0.000 A 
ATOM     15  C   UNL d   1      11.895   7.245  -3.812  0.00  0.00     0.029 A 
ATOM     16  C   UNL d   1      11.932   8.310  -2.897  0.00  0.00     0.140 A 
ATOM     17  C   UNL d   1      11.533   9.596  -3.305  0.00  0.00     0.029 A 
ATOM     18  F   UNL d   1      12.367   8.102  -1.636  0.00  0.00    -0.204 F 
ATOM     19  C   UNL d   1      11.078   9.822  -4.621  0.00  0.00    -0.000 A 
ENDBRANCH  12  13
ENDBRANCH   9  12
ENDBRANCH   5   6
ENDBRANCH   4   5
ENDBRANCH   3   4
ENDBRANCH   2   3
BRANCH   2  20
ATOM     20  C   UNL d   1       9.075   2.083 -15.002  0.00  0.00     0.124 C 
BRANCH  20  21
ATOM     21  C   UNL d   1       9.955   2.198 -16.251  0.00  0.00    -0.006 A 
ATOM     22  C   UNL d   1      11.242   1.615 -16.249  0.00  0.00    -0.001 A 
ATOM     23  C   UNL d   1      12.062   1.672 -17.395  0.00  0.00     0.029 A 
ATOM     24  C   UNL d   1      11.589   2.290 -18.568  0.00  0.00     0.140 A 
ATOM     25  C   UNL d   1      10.312   2.886 -18.577  0.00  0.00     0.029 A 
ATOM     26  F   UNL d   1      12.370   2.330 -19.676  0.00  0.00    -0.204 F 
ATOM     27  C   UNL d   1       9.524   2.886 -17.413  0.00  0.00    -0.001 A 
ENDBRANCH  20  21
BRANCH  20  28
ATOM     28  C   UNL d   1       7.805   1.221 -15.189  0.00  0.00    -0.006 A 
ATOM     29  C   UNL d   1       7.015   1.290 -16.369  0.00  0.00    -0.001 A 
ATOM     30  C   UNL d   1       5.893   0.446 -16.515  0.00  0.00     0.029 A 
ATOM     31  C   UNL d   1       5.509  -0.441 -15.486  0.00  0.00     0.140 A 
ATOM     32  C   UNL d   1       6.268  -0.509 -14.309  0.00  0.00     0.029 A 
ATOM     33  F   UNL d   1       4.409  -1.222 -15.639  0.00  0.00    -0.204 F 
ATOM     34  C   UNL d   1       7.410   0.307 -14.175  0.00  0.00    -0.001 A 
ENDBRANCH  20  28
ENDBRANCH   2  20
TORSDOF 9
