REMARK  7 active torsions:
REMARK  status: ('A' for Active; 'I' for Inactive)
REMARK    1  A    between atoms: N_11  and  C_12 
REMARK    2  A    between atoms: C_12  and  C_13 
REMARK    3  A    between atoms: C_13  and  C_14 
REMARK    4  A    between atoms: C_14  and  C_15 
REMARK    5  A    between atoms: C_15  and  C_16 
REMARK    6  A    between atoms: C_16  and  N_17 
REMARK    7  A    between atoms: N_20  and  C_21 
ROOT
ATOM      1  C   UNL d   1      10.485   8.072 -10.921  0.00  0.00     0.035 C 
ENDROOT
BRANCH   1   2
ATOM      2  C   UNL d   1       9.722   8.555  -9.712  0.00  0.00     0.004 C 
BRANCH   2   3
ATOM      3  C   UNL d   1      10.601   8.608  -8.480  0.00  0.00     0.025 C 
BRANCH   3   4
ATOM      4  C   UNL d   1       9.763   8.919  -7.259  0.00  0.00     0.112 C 
BRANCH   4   5
ATOM      5  N   UNL d   1      10.505   8.675  -6.034  0.00  0.00    -0.264 N 
ATOM      6  C   UNL d   1      10.906   9.635  -5.180  0.00  0.00     0.263 A 
ATOM      7  O   UNL d   1      10.730  10.830  -5.237  0.00  0.00    -0.267 OA
ATOM      8  C   UNL d   1      11.568   8.952  -4.061  0.00  0.00     0.061 A 
ATOM      9  C   UNL d   1      11.509   7.601  -4.311  0.00  0.00     0.061 A 
ATOM     10  C   UNL d   1      12.122   9.480  -2.893  0.00  0.00     0.005 A 
ATOM     11  C   UNL d   1      11.989   6.671  -3.395  0.00  0.00     0.005 A 
ATOM     12  C   UNL d   1      10.819   7.441  -5.615  0.00  0.00     0.263 A 
ATOM     13  C   UNL d   1      12.564   7.163  -2.205  0.00  0.00     0.000 A 
ATOM     14  C   UNL d   1      12.652   8.568  -1.964  0.00  0.00     0.000 A 
ATOM     15  O   UNL d   1      10.569   6.392  -6.182  0.00  0.00    -0.267 OA
ENDBRANCH   4   5
ENDBRANCH   3   4
ENDBRANCH   2   3
ENDBRANCH   1   2
BRANCH   1  16
ATOM     16  C   UNL d   1       9.571   7.811 -12.148  0.00  0.00     0.250 C 
BRANCH  16  17
ATOM     17  N   UNL d   1       8.879   6.514 -12.085  0.00  0.00     0.141 N 
ATOM     18  C   UNL d   1       9.794   5.431 -12.459  0.00  0.00     0.274 C 
ATOM     19  C   UNL d   1       9.089   4.075 -12.320  0.00  0.00     0.137 C 
ATOM     20  N   UNL d   1       7.914   4.044 -13.169  0.00  0.00    -0.344 N 
ATOM     21  C   UNL d   1       6.999   5.155 -12.951  0.00  0.00     0.137 C 
ATOM     22  C   UNL d   1       7.785   6.484 -13.052  0.00  0.00     0.274 C 
BRANCH  20  23
ATOM     23  C   UNL d   1       7.681   3.017 -14.101  0.00  0.00     0.068 A 
ATOM     24  C   UNL d   1       6.549   2.175 -14.022  0.00  0.00     0.084 A 
ATOM     25  C   UNL d   1       6.391   1.106 -14.917  0.00  0.00     0.070 A 
ATOM     26 CL   UNL d   1       5.391   2.394 -12.752  0.00  0.00    -0.080 Cl
ATOM     27  C   UNL d   1       7.310   0.925 -15.971  0.00  0.00     0.012 A 
ATOM     28 CL   UNL d   1       5.100  -0.040 -14.743  0.00  0.00    -0.081 Cl
ATOM     29  C   UNL d   1       8.421   1.782 -16.072  0.00  0.00     0.002 A 
ATOM     30  C   UNL d   1       8.626   2.797 -15.129  0.00  0.00     0.018 A 
ENDBRANCH  20  23
ENDBRANCH  16  17
ENDBRANCH   1  16
TORSDOF 7
