REMARK  4 active torsions:
REMARK  status: ('A' for Active; 'I' for Inactive)
REMARK    1  A    between atoms: O_2  and  C_3 
REMARK    2  A    between atoms: N_15  and  C_16 
REMARK    3  A    between atoms: C_16  and  C_17 
REMARK    4  A    between atoms: C_17  and  C_18 
ROOT
ATOM      1  C   UNL d   1       8.987   0.739 -16.217  0.00  0.00     0.096 A 
ATOM      2  C   UNL d   1      10.194   1.341 -15.765  0.00  0.00     0.024 A 
ATOM      3  C   UNL d   1      10.153   2.415 -14.852  0.00  0.00     0.004 A 
ATOM      4  C   UNL d   1       8.911   2.895 -14.370  0.00  0.00     0.019 A 
ATOM      5  C   UNL d   1       8.743   3.997 -13.432  0.00  0.00    -0.015 A 
ATOM      6  C   UNL d   1       7.515   4.365 -12.984  0.00  0.00     0.071 A 
ATOM      7  C   UNL d   1       6.288   3.676 -13.457  0.00  0.00     0.298 A 
ATOM      8  O   UNL d   1       5.152   3.989 -13.095  0.00  0.00    -0.259 OA
ATOM      9  O   UNL d   1       6.482   2.672 -14.343  0.00  0.00    -0.273 OA
ATOM     10  C   UNL d   1       7.721   2.280 -14.794  0.00  0.00     0.105 A 
ATOM     11  C   UNL d   1       7.766   1.228 -15.706  0.00  0.00     0.049 A 
ATOM     12  C   UNL d   1       7.306   5.485 -11.972  0.00  0.00     0.282 C 
ATOM     13  N   UNL d   1       8.535   5.823 -11.253  0.00  0.00     0.142 N 
ATOM     14  C   UNL d   1       9.642   6.021 -12.205  0.00  0.00     0.255 C 
ATOM     15  C   UNL d   1       9.982   4.710 -12.953  0.00  0.00     0.062 C 
ENDROOT
BRANCH  13  16
ATOM     16  C   UNL d   1       8.793   4.876 -10.159  0.00  0.00     0.255 C 
BRANCH  16  17
ATOM     17  C   UNL d   1       8.534   5.537  -8.776  0.00  0.00     0.062 C 
BRANCH  17  18
ATOM     18  C   UNL d   1       9.481   6.680  -8.380  0.00  0.00    -0.020 A 
ATOM     19  C   UNL d   1       9.177   7.519  -7.274  0.00  0.00    -0.004 A 
ATOM     20  C   UNL d   1      10.049   8.591  -6.957  0.00  0.00    -0.000 A 
ATOM     21  C   UNL d   1      11.184   8.864  -7.760  0.00  0.00    -0.000 A 
ATOM     22  C   UNL d   1      11.470   8.028  -8.857  0.00  0.00    -0.000 A 
ATOM     23  C   UNL d   1      10.668   6.899  -9.129  0.00  0.00    -0.004 A 
ENDBRANCH  17  18
ENDBRANCH  16  17
ENDBRANCH  13  16
BRANCH   1  24
ATOM     24  O   UNL d   1       9.068  -0.287 -17.131  0.00  0.00    -0.328 OA
ATOM     25  C   UNL d   1       7.840  -0.750 -17.689  0.00  0.00     0.181 C 
ENDBRANCH   1  24
TORSDOF 4
