REMARK  8 active torsions:
REMARK  status: ('A' for Active; 'I' for Inactive)
REMARK    1  A    between atoms: C_3  and  S_4 
REMARK    2  A    between atoms: S_4  and  C_5 
REMARK    3  A    between atoms: C_5  and  C_6 
REMARK    4  A    between atoms: C_6  and  C_7 
REMARK    5  A    between atoms: C_7  and  N_8 
REMARK    6  A    between atoms: C_13  and  C_14 
REMARK    7  A    between atoms: C_17  and  C_18 
REMARK    8  A    between atoms: C_27  and  C_28 
ROOT
ATOM      1  N   UNL d   1      10.108   4.154 -14.963  0.00  0.00     0.137 N 
ATOM      2  C   UNL d   1      10.465   3.180 -13.942  0.00  0.00     0.250 C 
ATOM      3  C   UNL d   1       9.808   3.828 -12.676  0.00  0.00     0.038 C 
ATOM      4  C   UNL d   1       8.628   4.592 -13.185  0.00  0.00     0.037 A 
ATOM      5  C   UNL d   1       7.302   4.645 -12.477  0.00  0.00     0.007 A 
ATOM      6  C   UNL d   1       8.186   5.869 -12.539  0.00  0.00     0.024 A 
ATOM      7  C   UNL d   1       8.705   4.409 -14.682  0.00  0.00     0.251 C 
ENDROOT
BRANCH   1   8
ATOM      8  C   UNL d   1      10.238   3.534 -16.247  0.00  0.00     0.251 C 
BRANCH   8   9
ATOM      9  C   UNL d   1      11.696   3.339 -16.723  0.00  0.00     0.047 C 
BRANCH   9  10
ATOM     10  C   UNL d   1      11.859   2.038 -17.531  0.00  0.00     0.067 C 
BRANCH  10  11
ATOM     11  S   UNL d   1      10.983   2.039 -19.143  0.00  0.00    -0.075 SA
BRANCH  11  12
ATOM     12  C   UNL d   1       9.370   1.531 -18.658  0.00  0.00     0.193 A 
ATOM     13  N   UNL d   1       8.941   0.238 -18.696  0.00  0.00    -0.287 N 
ATOM     14  C   UNL d   1       9.671  -0.919 -19.213  0.00  0.00     0.134 C 
ATOM     15  C   UNL d   1       7.687   0.315 -18.184  0.00  0.00     0.186 A 
ATOM     16  N   UNL d   1       7.374   1.591 -17.862  0.00  0.00    -0.127 NA
ATOM     17  N   UNL d   1       8.467   2.385 -18.182  0.00  0.00    -0.122 NA
BRANCH  15  18
ATOM     18  C   UNL d   1       6.711  -0.767 -18.009  0.00  0.00     0.139 A 
ATOM     19  N   UNL d   1       7.001  -1.981 -18.536  0.00  0.00    -0.145 NA
ATOM     20  N   UNL d   1       6.145  -2.999 -18.441  0.00  0.00    -0.146 NA
ATOM     21  C   UNL d   1       4.967  -2.833 -17.800  0.00  0.00     0.122 A 
ATOM     22  C   UNL d   1       4.584  -1.606 -17.228  0.00  0.00     0.024 A 
ATOM     23  C   UNL d   1       5.490  -0.535 -17.337  0.00  0.00     0.026 A 
ENDBRANCH  15  18
ENDBRANCH  11  12
ENDBRANCH  10  11
ENDBRANCH   9  10
ENDBRANCH   8   9
ENDBRANCH   1   8
BRANCH   6  24
ATOM     24  C   UNL d   1       8.903   6.411 -11.325  0.00  0.00    -0.022 A 
ATOM     25  C   UNL d   1       9.402   7.727 -11.317  0.00  0.00    -0.004 A 
ATOM     26  C   UNL d   1      10.111   8.217 -10.184  0.00  0.00     0.004 A 
ATOM     27  C   UNL d   1      10.257   7.412  -9.030  0.00  0.00     0.071 A 
ATOM     28  C   UNL d   1       9.717   6.110  -9.034  0.00  0.00     0.004 A 
ATOM     29  C   UNL d   1       9.060   5.616 -10.156  0.00  0.00    -0.004 A 
BRANCH  27  30
ATOM     30  C   UNL d   1      10.982   7.928  -7.800  0.00  0.00     0.419 C 
ATOM     31  F   UNL d   1      12.190   8.369  -8.145  0.00  0.00    -0.166 F 
ATOM     32  F   UNL d   1      10.281   8.928  -7.270  0.00  0.00    -0.166 F 
ATOM     33  F   UNL d   1      11.134   6.980  -6.871  0.00  0.00    -0.166 F 
ENDBRANCH  27  30
ENDBRANCH   6  24
TORSDOF 8
