REMARK  6 active torsions:
REMARK  status: ('A' for Active; 'I' for Inactive)
REMARK    1  A    between atoms: N_12  and  C_13 
REMARK    2  A    between atoms: C_13  and  C_14 
REMARK    3  A    between atoms: C_14  and  C_15 
REMARK    4  A    between atoms: C_15  and  C_16 
REMARK    5  A    between atoms: C_16  and  N_17 
REMARK    6  A    between atoms: N_20  and  C_21 
ROOT
ATOM      1  C   UNL d   1       9.444   6.614 -10.257  0.00  0.00     0.251 C 
ENDROOT
BRANCH   1   2
ATOM      2  C   UNL d   1       9.985   8.052 -10.400  0.00  0.00     0.037 C 
BRANCH   2   3
ATOM      3  C   UNL d   1      10.768   8.488  -9.157  0.00  0.00     0.027 C 
BRANCH   3   4
ATOM      4  C   UNL d   1       9.834   8.774  -7.950  0.00  0.00     0.112 C 
BRANCH   4   5
ATOM      5  N   UNL d   1      10.504   8.526  -6.670  0.00  0.00    -0.263 N 
ATOM      6  C   UNL d   1      10.827   7.259  -6.309  0.00  0.00     0.263 A 
ATOM      7  O   UNL d   1      10.672   6.233  -6.966  0.00  0.00    -0.267 OA
ATOM      8  C   UNL d   1      11.430   7.386  -4.955  0.00  0.00     0.063 A 
ATOM      9  C   UNL d   1      11.444   8.697  -4.601  0.00  0.00     0.088 A 
ATOM     10  C   UNL d   1      11.899   6.418  -4.087  0.00  0.00     0.005 A 
ATOM     11  C   UNL d   1      11.880   9.110  -3.338  0.00  0.00     0.145 A 
ATOM     12  C   UNL d   1      10.860   9.451  -5.733  0.00  0.00     0.265 A 
ATOM     13  C   UNL d   1      12.419   8.167  -2.449  0.00  0.00     0.030 A 
ATOM     14  F   UNL d   1      11.707  10.393  -2.931  0.00  0.00    -0.204 F 
ATOM     15  C   UNL d   1      12.414   6.803  -2.830  0.00  0.00     0.003 A 
ATOM     16  O   UNL d   1      10.746  10.668  -5.745  0.00  0.00    -0.267 OA
ENDBRANCH   4   5
ENDBRANCH   3   4
ENDBRANCH   2   3
ENDBRANCH   1   2
BRANCH   1  17
ATOM     17  N   UNL d   1       8.818   6.218 -11.517  0.00  0.00     0.141 N 
ATOM     18  C   UNL d   1       9.641   5.190 -12.158  0.00  0.00     0.274 C 
ATOM     19  C   UNL d   1       9.046   4.719 -13.496  0.00  0.00     0.137 C 
ATOM     20  N   UNL d   1       7.649   4.311 -13.345  0.00  0.00    -0.344 N 
ATOM     21  C   UNL d   1       6.806   5.263 -12.604  0.00  0.00     0.137 C 
ATOM     22  C   UNL d   1       7.484   5.642 -11.274  0.00  0.00     0.274 C 
BRANCH  20  23
ATOM     23  C   UNL d   1       7.157   3.085 -13.891  0.00  0.00     0.057 A 
ATOM     24  C   UNL d   1       7.811   2.413 -14.985  0.00  0.00     0.022 A 
ATOM     25  C   UNL d   1       7.291   1.119 -15.360  0.00  0.00     0.031 A 
ATOM     26  C   UNL d   1       8.943   2.783 -15.830  0.00  0.00     0.009 A 
ATOM     27  C   UNL d   1       6.192   0.543 -14.719  0.00  0.00     0.007 A 
ATOM     28  S   UNL d   1       8.207   0.421 -16.683  0.00  0.00    -0.086 SA
ATOM     29  C   UNL d   1       5.558   1.220 -13.673  0.00  0.00     0.002 A 
ATOM     30  C   UNL d   1       6.041   2.476 -13.265  0.00  0.00     0.017 A 
ATOM     31  C   UNL d   1       9.252   1.815 -16.744  0.00  0.00     0.035 A 
ENDBRANCH  20  23
ENDBRANCH   1  17
TORSDOF 6
