REMARK  10 active torsions:
REMARK  status: ('A' for Active; 'I' for Inactive)
REMARK    1  A    between atoms: O_2  and  C_3 
REMARK    2  A    between atoms: C_6  and  S_7 
REMARK    3  A    between atoms: S_7  and  N_10 
REMARK    4  A    between atoms: N_10  and  C_11 
REMARK    5  A    between atoms: C_14  and  N_15 
REMARK    6  A    between atoms: N_18  and  C_19 
REMARK    7  A    between atoms: C_24  and  O_25 
REMARK    8  A    between atoms: O_25  and  C_26 
REMARK    9  A    between atoms: C_26  and  C_27 
REMARK   10  A    between atoms: C_36  and  O_37 
ROOT
ATOM      1  C   UNL d   1       8.844   4.721 -11.756  0.00  0.00     0.116 C 
ATOM      2  C   UNL d   1       7.566   4.366 -12.513  0.00  0.00     0.027 C 
ATOM      3  C   UNL d   1       7.927   3.647 -13.817  0.00  0.00     0.035 C 
ATOM      4  C   UNL d   1       8.944   4.458 -14.679  0.00  0.00     0.220 C 
ATOM      5  C   UNL d   1      10.182   4.889 -13.853  0.00  0.00     0.035 C 
ATOM      6  C   UNL d   1       9.744   5.608 -12.586  0.00  0.00     0.027 C 
ENDROOT
BRANCH   4   7
ATOM      7  N   UNL d   1       9.278   3.739 -15.919  0.00  0.00     0.139 N 
ATOM      8  C   UNL d   1      10.037   2.493 -15.735  0.00  0.00     0.274 C 
ATOM      9  C   UNL d   1      10.206   1.748 -17.054  0.00  0.00     0.137 C 
ATOM     10  N   UNL d   1      10.812   2.631 -18.038  0.00  0.00    -0.343 N 
ATOM     11  C   UNL d   1      10.139   3.909 -18.240  0.00  0.00     0.137 C 
ATOM     12  C   UNL d   1       9.931   4.629 -16.892  0.00  0.00     0.274 C 
BRANCH  10  13
ATOM     13  C   UNL d   1      12.061   2.323 -18.599  0.00  0.00     0.079 A 
ATOM     14  C   UNL d   1      13.131   3.241 -18.640  0.00  0.00     0.110 A 
ATOM     15  C   UNL d   1      14.348   2.862 -19.283  0.00  0.00     0.026 A 
ATOM     16  C   UNL d   1      14.478   1.576 -19.851  0.00  0.00     0.002 A 
ATOM     17  C   UNL d   1      13.426   0.663 -19.782  0.00  0.00     0.002 A 
ATOM     18  C   UNL d   1      12.215   1.034 -19.153  0.00  0.00     0.019 A 
BRANCH  14  19
ATOM     19  O   UNL d   1      12.971   4.464 -18.017  0.00  0.00    -0.321 OA
BRANCH  19  20
ATOM     20  C   UNL d   1      13.966   5.463 -18.161  0.00  0.00     0.252 C 
BRANCH  20  21
ATOM     21  C   UNL d   1      13.475   6.759 -17.514  0.00  0.00     0.425 C 
ATOM     22  F   UNL d   1      12.392   7.207 -18.150  0.00  0.00    -0.168 F 
ATOM     23  F   UNL d   1      13.192   6.571 -16.224  0.00  0.00    -0.168 F 
ATOM     24  F   UNL d   1      14.441   7.671 -17.607  0.00  0.00    -0.168 F 
ENDBRANCH  20  21
ENDBRANCH  19  20
ENDBRANCH  14  19
ENDBRANCH  10  13
ENDBRANCH   4   7
BRANCH   1  25
ATOM     25  N   UNL d   1       8.498   5.391 -10.500  0.00  0.00    -0.187 NA
BRANCH  25  26
ATOM     26  S   UNL d   1       9.070   4.902  -8.974  0.00  0.00     0.281 S 
ATOM     27  O   UNL d   1      10.066   3.842  -9.193  0.00  0.00    -0.199 OA
ATOM     28  O   UNL d   1       7.933   4.652  -8.101  0.00  0.00    -0.199 OA
BRANCH  26  29
ATOM     29  C   UNL d   1       9.814   6.356  -8.316  0.00  0.00     0.107 A 
ATOM     30  C   UNL d   1       9.252   6.942  -7.166  0.00  0.00     0.015 A 
ATOM     31  C   UNL d   1       9.863   8.076  -6.610  0.00  0.00     0.027 A 
ATOM     32  C   UNL d   1      11.055   8.599  -7.172  0.00  0.00     0.116 A 
ATOM     33  C   UNL d   1      11.613   7.994  -8.319  0.00  0.00     0.117 A 
ATOM     34  C   UNL d   1      10.938   6.910  -8.927  0.00  0.00     0.039 A 
BRANCH  32  35
ATOM     35  O   UNL d   1      11.727   9.684  -6.660  0.00  0.00    -0.326 OA
ATOM     36  C   UNL d   1      11.234  10.248  -5.477  0.00  0.00     0.181 C 
ENDBRANCH  32  35
BRANCH  33  37
ATOM     37  O   UNL d   1      12.837   8.445  -8.763  0.00  0.00    -0.326 OA
ATOM     38  C   UNL d   1      13.228   8.086 -10.075  0.00  0.00     0.181 C 
ENDBRANCH  33  37
ENDBRANCH  26  29
ENDBRANCH  25  26
ENDBRANCH   1  25
TORSDOF 10
