REMARK  6 active torsions:
REMARK  status: ('A' for Active; 'I' for Inactive)
REMARK    1  A    between atoms: C_7  and  O_8 
REMARK    2  A    between atoms: O_8  and  C_9 
REMARK    3  A    between atoms: C_9  and  C_10 
REMARK    4  A    between atoms: C_10  and  N_11 
REMARK    5  A    between atoms: N_11  and  C_12 
REMARK    6  A    between atoms: C_12  and  C_13 
ROOT
ATOM      1  C   UNL d   1       9.869   5.885  -9.766  0.00  0.00     0.187 C 
ENDROOT
BRANCH   1   2
ATOM      2  O   UNL d   1       8.651   6.070 -10.447  0.00  0.00    -0.327 OA
BRANCH   2   3
ATOM      3  C   UNL d   1       8.385   5.301 -11.550  0.00  0.00     0.119 A 
ATOM      4  C   UNL d   1       7.118   5.451 -12.135  0.00  0.00     0.153 A 
ATOM      5  O   UNL d   1       6.233   6.372 -11.652  0.00  0.00    -0.188 OA
ATOM      6  C   UNL d   1       6.747   4.659 -13.238  0.00  0.00     0.029 A 
ATOM      7  C   UNL d   1       7.658   3.734 -13.776  0.00  0.00     0.002 A 
ATOM      8  C   UNL d   1       8.937   3.587 -13.214  0.00  0.00     0.002 A 
ATOM      9  C   UNL d   1       9.298   4.369 -12.102  0.00  0.00     0.026 A 
ENDBRANCH   2   3
ENDBRANCH   1   2
BRANCH   1  10
ATOM     10  C   UNL d   1       9.736   6.504  -8.381  0.00  0.00     0.323 C 
BRANCH  10  11
ATOM     11  N   UNL d   1       9.557   7.947  -8.458  0.00  0.00     0.347 N 
BRANCH  11  12
ATOM     12  C   UNL d   1       9.207   8.506  -7.155  0.00  0.00     0.317 C 
BRANCH  12  13
ATOM     13  C   UNL d   1      10.234   8.302  -6.039  0.00  0.00     0.014 A 
ATOM     14  C   UNL d   1      10.511   7.002  -5.558  0.00  0.00    -0.002 A 
ATOM     15  C   UNL d   1      11.493   6.794  -4.563  0.00  0.00    -0.000 A 
ATOM     16  C   UNL d   1      12.171   7.893  -4.001  0.00  0.00    -0.000 A 
ATOM     17  C   UNL d   1      11.853   9.194  -4.431  0.00  0.00    -0.000 A 
ATOM     18  C   UNL d   1      10.897   9.409  -5.457  0.00  0.00    -0.002 A 
ENDBRANCH  12  13
ENDBRANCH  11  12
ENDBRANCH  10  11
ENDBRANCH   1  10
TORSDOF 6
