REMARK  6 active torsions:
REMARK  status: ('A' for Active; 'I' for Inactive)
REMARK    1  A    between atoms: C_2  and  C_3 
REMARK    2  A    between atoms: N_16  and  C_17 
REMARK    3  A    between atoms: C_17  and  C_18 
REMARK    4  A    between atoms: C_18  and  C_19 
REMARK    5  A    between atoms: C_19  and  C_20 
REMARK    6  A    between atoms: C_20  and  C_21 
ROOT
ATOM      1  O   UNL d   1       7.673   3.515 -13.758  0.00  0.00    -0.221 OA
ATOM      2  C   UNL d   1       8.998   4.009 -13.780  0.00  0.00     0.149 C 
ATOM      3  C   UNL d   1       9.639   3.812 -12.380  0.00  0.00     0.068 C 
ATOM      4  C   UNL d   1       9.205   4.799 -11.269  0.00  0.00     0.222 C 
ATOM      5  C   UNL d   1       7.685   4.913 -11.074  0.00  0.00     0.035 C 
ATOM      6  C   UNL d   1       7.247   5.977 -12.090  0.00  0.00     0.035 C 
ATOM      7  C   UNL d   1       8.576   6.394 -12.731  0.00  0.00     0.222 C 
ATOM      8  C   UNL d   1       8.933   5.539 -13.974  0.00  0.00     0.068 C 
ATOM      9  N   UNL d   1       9.598   6.125 -11.726  0.00  0.00     0.133 N 
ENDROOT
BRANCH   9  10
ATOM     10  C   UNL d   1       9.631   7.151 -10.683  0.00  0.00     0.250 C 
BRANCH  10  11
ATOM     11  C   UNL d   1      10.880   7.014  -9.805  0.00  0.00     0.036 C 
BRANCH  11  12
ATOM     12  C   UNL d   1      10.976   8.076  -8.704  0.00  0.00     0.007 C 
BRANCH  12  13
ATOM     13  C   UNL d   1      10.022   7.805  -7.520  0.00  0.00     0.026 C 
BRANCH  13  14
ATOM     14  C   UNL d   1      10.683   8.062  -6.175  0.00  0.00    -0.022 A 
ATOM     15  C   UNL d   1      10.780   9.370  -5.669  0.00  0.00    -0.002 A 
ATOM     16  C   UNL d   1      11.387   9.597  -4.418  0.00  0.00     0.029 A 
ATOM     17  C   UNL d   1      11.917   8.525  -3.676  0.00  0.00     0.140 A 
ATOM     18  C   UNL d   1      11.836   7.218  -4.181  0.00  0.00     0.029 A 
ATOM     19  F   UNL d   1      12.500   8.756  -2.476  0.00  0.00    -0.204 F 
ATOM     20  C   UNL d   1      11.214   6.992  -5.427  0.00  0.00    -0.002 A 
ENDBRANCH  13  14
ENDBRANCH  12  13
ENDBRANCH  11  12
ENDBRANCH  10  11
ENDBRANCH   9  10
BRANCH   2  21
ATOM     21  C   UNL d   1       9.758   3.302 -14.910  0.00  0.00     0.005 A 
ATOM     22  C   UNL d   1       9.877   3.872 -16.195  0.00  0.00    -0.001 A 
ATOM     23  C   UNL d   1      10.511   3.163 -17.228  0.00  0.00     0.011 A 
ATOM     24  C   UNL d   1      11.016   1.872 -16.990  0.00  0.00     0.058 A 
ATOM     25  C   UNL d   1      10.874   1.289 -15.721  0.00  0.00     0.011 A 
ATOM     26 CL   UNL d   1      11.789   0.999 -18.267  0.00  0.00    -0.082 Cl
ATOM     27  C   UNL d   1      10.245   1.998 -14.685  0.00  0.00    -0.001 A 
ENDBRANCH   2  21
TORSDOF 6
