REMARK  11 active torsions:
REMARK  status: ('A' for Active; 'I' for Inactive)
REMARK    1  A    between atoms: N_2  and  C_3 
REMARK    2  A    between atoms: N_2  and  C_22 
REMARK    3  A    between atoms: C_3  and  C_4 
REMARK    4  A    between atoms: C_4  and  C_5 
REMARK    5  A    between atoms: C_5  and  C_6 
REMARK    6  A    between atoms: C_22  and  C_23 
REMARK    7  A    between atoms: C_26  and  O_27 
REMARK    8  A    between atoms: O_27  and  C_28 
REMARK    9  A    between atoms: C_28  and  C_29 
REMARK   10  A    between atoms: C_29  and  C_30 
REMARK   11  A    between atoms: C_30  and  N_31 
ROOT
ATOM      1  C   UNL d   1      10.487   2.665 -17.227  0.00  0.00     0.286 C 
ATOM      2  N   UNL d   1      10.385   4.040 -17.712  0.00  0.00     0.143 N 
ENDROOT
BRANCH   2   3
ATOM      3  C   UNL d   1      11.174   4.164 -18.936  0.00  0.00     0.251 C 
BRANCH   3   4
ATOM      4  C   UNL d   1      10.904   5.504 -19.636  0.00  0.00     0.036 C 
BRANCH   4   5
ATOM      5  C   UNL d   1       9.726   5.437 -20.633  0.00  0.00     0.010 C 
BRANCH   5   6
ATOM      6  C   UNL d   1       9.331   6.773 -21.309  0.00  0.00     0.037 C 
ATOM      7  C   UNL d   1      10.431   7.411 -22.201  0.00  0.00    -0.023 A 
ATOM      8  C   UNL d   1      10.046   8.628 -22.761  0.00  0.00    -0.022 A 
ATOM      9  C   UNL d   1      11.713   6.824 -22.424  0.00  0.00    -0.004 A 
ATOM     10  C   UNL d   1       8.591   9.013 -22.421  0.00  0.00     0.044 C 
ATOM     11  C   UNL d   1      10.870   9.422 -23.596  0.00  0.00    -0.004 A 
ATOM     12  C   UNL d   1       8.501   9.164 -20.896  0.00  0.00     0.009 C 
ATOM     13  C   UNL d   1       7.711   7.833 -22.805  0.00  0.00    -0.022 A 
ATOM     14  C   UNL d   1       8.951   7.840 -20.233  0.00  0.00     0.009 C 
ATOM     15  C   UNL d   1       8.101   6.634 -22.215  0.00  0.00    -0.023 A 
ATOM     16  C   UNL d   1       6.597   7.896 -23.669  0.00  0.00    -0.004 A 
ATOM     17  C   UNL d   1       7.396   5.438 -22.478  0.00  0.00    -0.004 A 
ATOM     18  C   UNL d   1       6.283   5.488 -23.346  0.00  0.00    -0.000 A 
ATOM     19  C   UNL d   1       5.884   6.706 -23.932  0.00  0.00    -0.000 A 
ATOM     20  C   UNL d   1      12.164   8.860 -23.782  0.00  0.00    -0.000 A 
ATOM     21  C   UNL d   1      12.563   7.632 -23.216  0.00  0.00    -0.000 A 
ENDBRANCH   5   6
ENDBRANCH   4   5
ENDBRANCH   3   4
ENDBRANCH   2   3
BRANCH   2  22
ATOM     22  C   UNL d   1      10.898   4.984 -16.712  0.00  0.00     0.277 C 
BRANCH  22  23
ATOM     23  C   UNL d   1      10.280   4.824 -15.351  0.00  0.00     0.011 C 
ATOM     24  C   UNL d   1      11.040   4.358 -14.281  0.00  0.00    -0.000 C 
ATOM     25  C   UNL d   1      10.417   4.215 -13.036  0.00  0.00     0.024 C 
ATOM     26  C   UNL d   1       9.049   4.491 -12.819  0.00  0.00     0.094 C 
ATOM     27  C   UNL d   1       8.294   4.923 -13.913  0.00  0.00     0.024 C 
ATOM     28  C   UNL d   1       8.941   5.167 -15.140  0.00  0.00    -0.000 C 
BRANCH  26  29
ATOM     29  O   UNL d   1       8.408   4.396 -11.607  0.00  0.00    -0.331 OA
BRANCH  29  30
ATOM     30  C   UNL d   1       9.179   4.387 -10.410  0.00  0.00     0.151 C 
BRANCH  30  31
ATOM     31  C   UNL d   1       9.640   5.775  -9.991  0.00  0.00     0.068 C 
BRANCH  31  32
ATOM     32  C   UNL d   1      10.043   5.759  -8.506  0.00  0.00     0.253 C 
BRANCH  32  33
ATOM     33  N   UNL d   1      10.296   7.111  -8.062  0.00  0.00     0.137 N 
ATOM     34  C   UNL d   1       9.034   7.665  -7.618  0.00  0.00     0.250 C 
ATOM     35  C   UNL d   1       9.291   9.111  -7.242  0.00  0.00     0.035 C 
ATOM     36  C   UNL d   1      10.290   9.272  -6.098  0.00  0.00     0.004 C 
ATOM     37  C   UNL d   1      11.553   8.578  -6.524  0.00  0.00     0.035 C 
ATOM     38  C   UNL d   1      11.258   7.128  -6.961  0.00  0.00     0.250 C 
ENDBRANCH  32  33
ENDBRANCH  31  32
ENDBRANCH  30  31
ENDBRANCH  29  30
ENDBRANCH  26  29
ENDBRANCH  22  23
ENDBRANCH   2  22
TORSDOF 11
