REMARK  10 active torsions:
REMARK  status: ('A' for Active; 'I' for Inactive)
REMARK    1  A    between atoms: S_2  and  C_3 
REMARK    2  A    between atoms: S_2  and  C_21 
REMARK    3  A    between atoms: C_3  and  C_4 
REMARK    4  A    between atoms: C_4  and  N_5 
REMARK    5  A    between atoms: N_8  and  C_9 
REMARK    6  A    between atoms: C_9  and  C_10 
REMARK    7  A    between atoms: C_10  and  C_12 
REMARK    8  A    between atoms: C_12  and  C_13 
REMARK    9  A    between atoms: C_21  and  C_22 
REMARK   10  A    between atoms: C_21  and  C_29 
ROOT
ATOM      1  C   UNL d   1       7.624   4.252 -13.324  0.00  0.00     0.128 C 
ENDROOT
BRANCH   1   2
ATOM      2  S   UNL d   1       6.707   2.675 -13.667  0.00  0.00     0.051 S 
ATOM      3  O   UNL d   1       5.263   3.083 -13.450  0.00  0.00    -0.256 OA
BRANCH   2   4
ATOM      4  C   UNL d   1       7.149   2.316 -15.406  0.00  0.00     0.124 C 
BRANCH   4   5
ATOM      5  C   UNL d   1       6.715   0.973 -15.995  0.00  0.00    -0.006 A 
ATOM      6  C   UNL d   1       7.217   0.550 -17.258  0.00  0.00    -0.001 A 
ATOM      7  C   UNL d   1       6.789  -0.658 -17.844  0.00  0.00     0.029 A 
ATOM      8  C   UNL d   1       5.828  -1.448 -17.177  0.00  0.00     0.140 A 
ATOM      9  C   UNL d   1       5.288  -1.008 -15.950  0.00  0.00     0.029 A 
ATOM     10  F   UNL d   1       5.437  -2.630 -17.709  0.00  0.00    -0.204 F 
ATOM     11  C   UNL d   1       5.722   0.195 -15.366  0.00  0.00    -0.001 A 
ENDBRANCH   4   5
BRANCH   4  12
ATOM     12  C   UNL d   1       8.660   2.590 -15.655  0.00  0.00    -0.006 A 
ATOM     13  C   UNL d   1       9.627   2.212 -14.679  0.00  0.00    -0.001 A 
ATOM     14  C   UNL d   1      11.003   2.475 -14.862  0.00  0.00     0.029 A 
ATOM     15  C   UNL d   1      11.464   3.033 -16.065  0.00  0.00     0.140 A 
ATOM     16  C   UNL d   1      10.543   3.356 -17.073  0.00  0.00     0.029 A 
ATOM     17  F   UNL d   1      12.778   3.305 -16.234  0.00  0.00    -0.204 F 
ATOM     18  C   UNL d   1       9.155   3.148 -16.868  0.00  0.00    -0.001 A 
ENDBRANCH   4  12
ENDBRANCH   2   4
ENDBRANCH   1   2
BRANCH   1  19
ATOM     19  C   UNL d   1       8.084   4.149 -11.882  0.00  0.00     0.265 C 
BRANCH  19  20
ATOM     20  N   UNL d   1       8.935   5.214 -11.452  0.00  0.00     0.142 N 
ATOM     21  C   UNL d   1       8.216   6.477 -11.460  0.00  0.00     0.285 C 
ATOM     22  C   UNL d   1       9.176   7.636 -11.027  0.00  0.00     0.286 C 
ATOM     23  N   UNL d   1       9.668   7.410  -9.651  0.00  0.00     0.144 N 
ATOM     24  C   UNL d   1      10.371   6.155  -9.656  0.00  0.00     0.286 C 
ATOM     25  C   UNL d   1       9.462   4.993 -10.111  0.00  0.00     0.285 C 
BRANCH  23  26
ATOM     26  C   UNL d   1      10.497   8.510  -9.222  0.00  0.00     0.283 C 
BRANCH  26  27
ATOM     27  C   UNL d   1      10.596   8.696  -7.691  0.00  0.00     0.190 C 
ATOM     28  O   UNL d   1      11.289   9.878  -7.508  0.00  0.00    -0.221 OA
BRANCH  27  29
ATOM     29  C   UNL d   1      11.404   7.640  -6.933  0.00  0.00     0.061 C 
BRANCH  29  30
ATOM     30  C   UNL d   1      11.553   7.892  -5.438  0.00  0.00    -0.020 A 
ATOM     31  C   UNL d   1      11.495   6.785  -4.574  0.00  0.00    -0.004 A 
ATOM     32  C   UNL d   1      11.693   6.909  -3.184  0.00  0.00    -0.000 A 
ATOM     33  C   UNL d   1      11.940   8.187  -2.637  0.00  0.00    -0.000 A 
ATOM     34  C   UNL d   1      12.011   9.310  -3.491  0.00  0.00    -0.000 A 
ATOM     35  C   UNL d   1      11.863   9.162  -4.875  0.00  0.00    -0.004 A 
ENDBRANCH  29  30
ENDBRANCH  27  29
ENDBRANCH  26  27
ENDBRANCH  23  26
ENDBRANCH  19  20
ENDBRANCH   1  19
TORSDOF 10
