REMARK  3 active torsions:
REMARK  status: ('A' for Active; 'I' for Inactive)
REMARK    1  A    between atoms: C_2  and  C_3 
REMARK    2  A    between atoms: C_2  and  N_6 
REMARK    3  A    between atoms: C_9  and  C_10 
ROOT
ATOM      1  N   UNL d   1       9.907   6.680  -9.991  0.00  0.00     0.135 N 
ATOM      2  C   UNL d   1       9.521   7.430 -11.195  0.00  0.00     0.250 C 
ATOM      3  C   UNL d   1       9.200   6.484 -12.353  0.00  0.00     0.036 C 
ATOM      4  C   UNL d   1       8.083   5.523 -11.992  0.00  0.00     0.011 C 
ATOM      5  C   UNL d   1       8.475   4.804 -10.687  0.00  0.00     0.036 C 
ATOM      6  C   UNL d   1       8.803   5.795  -9.585  0.00  0.00     0.250 C 
ENDROOT
BRANCH   4   7
ATOM      7  C   UNL d   1       7.719   4.556 -13.151  0.00  0.00     0.062 C 
ATOM      8  C   UNL d   1       6.411   3.783 -12.877  0.00  0.00     0.172 C 
ATOM      9  C   UNL d   1       6.249   2.450 -13.529  0.00  0.00     0.031 A 
ATOM     10  O   UNL d   1       5.532   4.282 -12.154  0.00  0.00    -0.291 OA
ATOM     11  C   UNL d   1       7.234   1.900 -14.396  0.00  0.00    -0.019 A 
ATOM     12  C   UNL d   1       5.102   1.686 -13.231  0.00  0.00     0.003 A 
ATOM     13  C   UNL d   1       8.522   2.641 -14.678  0.00  0.00     0.027 C 
ATOM     14  C   UNL d   1       7.025   0.625 -14.968  0.00  0.00    -0.004 A 
ATOM     15  C   UNL d   1       8.886   3.614 -13.559  0.00  0.00     0.012 C 
ATOM     16  C   UNL d   1       5.855  -0.101 -14.689  0.00  0.00    -0.000 A 
ATOM     17  C   UNL d   1       4.891   0.423 -13.809  0.00  0.00     0.000 A 
ENDBRANCH   4   7
BRANCH   1  18
ATOM     18  C   UNL d   1      10.288   7.603  -8.908  0.00  0.00     0.219 C 
ATOM     19  C   UNL d   1      11.582   8.370  -9.260  0.00  0.00     0.035 C 
BRANCH  18  20
ATOM     20  C   UNL d   1      10.481   6.870  -7.587  0.00  0.00     0.031 A 
ATOM     21  C   UNL d   1      10.800   7.614  -6.314  0.00  0.00     0.002 A 
ATOM     22  C   UNL d   1       9.439   7.000  -6.497  0.00  0.00     0.002 A 
ENDBRANCH  18  20
ENDBRANCH   1  18
TORSDOF 3
