REMARK  2 active torsions:
REMARK  status: ('A' for Active; 'I' for Inactive)
REMARK    1  A    between atoms: C_2  and  N_3 
REMARK    2  A    between atoms: C_7  and  C_8 
ROOT
ATOM      1  C   UNL d   1      11.134   8.885  -6.422  0.00  0.00     0.040 C 
ATOM      2  C   UNL d   1      10.983  10.204  -6.109  0.00  0.00     0.101 C 
ATOM      3  N   UNL d   1      11.063  10.385  -4.746  0.00  0.00    -0.244 NA
ATOM      4  C   UNL d   1      11.463   9.220  -4.148  0.00  0.00     0.084 A 
ATOM      5  C   UNL d   1      11.840   8.925  -2.829  0.00  0.00     0.019 A 
ATOM      6  C   UNL d   1      12.161   7.599  -2.494  0.00  0.00     0.004 A 
ATOM      7  C   UNL d   1      12.143   6.614  -3.486  0.00  0.00     0.030 A 
ATOM      8  C   UNL d   1      11.800   6.929  -4.817  0.00  0.00     0.142 A 
ATOM      9  F   UNL d   1      11.852   6.000  -5.790  0.00  0.00    -0.204 F 
ATOM     10  C   UNL d   1      11.452   8.244  -5.181  0.00  0.00     0.048 A 
ENDROOT
BRANCH   1  11
ATOM     11  C   UNL d   1      11.061   8.295  -7.747  0.00  0.00     0.082 A 
ATOM     12  N   UNL d   1      10.103   7.347  -8.081  0.00  0.00    -0.309 N 
ATOM     13  C   UNL d   1      10.335   7.068  -9.374  0.00  0.00     0.179 A 
ATOM     14  N   UNL d   1      11.347   7.731  -9.907  0.00  0.00    -0.223 NA
ATOM     15  C   UNL d   1      11.818   8.522  -8.870  0.00  0.00     0.118 A 
BRANCH  12  16
ATOM     16  C   UNL d   1       9.029   6.832  -7.241  0.00  0.00     0.108 C 
ATOM     17  C   UNL d   1       8.287   5.649  -7.873  0.00  0.00     0.027 C 
ENDBRANCH  12  16
ENDBRANCH   1  11
TORSDOF 2
