REMARK  5 active torsions:
REMARK  status: ('A' for Active; 'I' for Inactive)
REMARK       I    between atoms: C_2  and  N_3 
REMARK    1  A    between atoms: C_2  and  C_16 
REMARK    2  A    between atoms: N_3  and  C_4 
REMARK    3  A    between atoms: N_7  and  C_8 
REMARK    4  A    between atoms: C_8  and  C_9 
REMARK    5  A    between atoms: C_20  and  C_21 
ROOT
ATOM      1  O   UNL d   1       9.862   4.551  -8.841  0.00  0.00    -0.266 OA
ATOM      2  C   UNL d   1       9.525   5.687  -9.168  0.00  0.00     0.275 C 
ATOM      3  N   UNL d   1       8.646   5.926 -10.138  0.00  0.00    -0.234 NA
ENDROOT
BRANCH   2   4
ATOM      4  C   UNL d   1      10.111   6.900  -8.514  0.00  0.00     0.058 A 
ATOM      5  C   UNL d   1      10.478   6.883  -7.156  0.00  0.00     0.005 A 
ATOM      6  C   UNL d   1      11.065   8.012  -6.533  0.00  0.00     0.001 A 
ATOM      7  C   UNL d   1      11.294   9.164  -7.319  0.00  0.00     0.000 A 
ATOM      8  C   UNL d   1      10.953   9.176  -8.685  0.00  0.00     0.000 A 
ATOM      9  C   UNL d   1      10.362   8.056  -9.281  0.00  0.00     0.005 A 
BRANCH   6  10
ATOM     10  C   UNL d   1      11.456   8.002  -5.109  0.00  0.00     0.007 A 
ATOM     11  C   UNL d   1      11.853   9.082  -4.355  0.00  0.00     0.035 A 
ATOM     12  S   UNL d   1      12.257   8.654  -2.715  0.00  0.00    -0.086 SA
ATOM     13  C   UNL d   1      11.871   6.991  -3.028  0.00  0.00     0.035 A 
ATOM     14  C   UNL d   1      11.482   6.802  -4.325  0.00  0.00     0.007 A 
ENDBRANCH   6  10
ENDBRANCH   2   4
BRANCH   3  15
ATOM     15  C   UNL d   1       8.104   4.868 -10.983  0.00  0.00     0.142 C 
ATOM     16  C   UNL d   1       9.123   4.450 -12.055  0.00  0.00     0.275 C 
ATOM     17  N   UNL d   1       8.298   4.114 -13.199  0.00  0.00     0.143 N 
ATOM     18  C   UNL d   1       7.318   5.177 -13.212  0.00  0.00     0.253 C 
ATOM     19  C   UNL d   1       6.898   5.351 -11.766  0.00  0.00     0.062 C 
BRANCH  17  20
ATOM     20  C   UNL d   1       9.066   4.057 -14.437  0.00  0.00     0.277 C 
BRANCH  20  21
ATOM     21  C   UNL d   1       9.344   2.639 -14.881  0.00  0.00     0.011 A 
ATOM     22  C   UNL d   1      10.615   2.292 -15.375  0.00  0.00    -0.002 A 
ATOM     23  C   UNL d   1      10.867   0.978 -15.815  0.00  0.00    -0.000 A 
ATOM     24  C   UNL d   1       9.849   0.008 -15.764  0.00  0.00    -0.000 A 
ATOM     25  C   UNL d   1       8.570   0.360 -15.293  0.00  0.00    -0.000 A 
ATOM     26  C   UNL d   1       8.314   1.673 -14.860  0.00  0.00    -0.002 A 
ENDBRANCH  20  21
ENDBRANCH  17  20
ENDBRANCH   3  15
TORSDOF 5
