REMARK  6 active torsions:
REMARK  status: ('A' for Active; 'I' for Inactive)
REMARK    1  A    between atoms: N_4  and  C_5 
REMARK    2  A    between atoms: C_5  and  C_6 
REMARK    3  A    between atoms: C_6  and  O_7 
REMARK    4  A    between atoms: O_7  and  C_8 
REMARK    5  A    between atoms: C_13  and  C_14 
REMARK    6  A    between atoms: C_14  and  C_15 
ROOT
ATOM      1  C   UNL d   1       8.975   4.859 -13.285  0.00  0.00     0.090 A 
ATOM      2  C   UNL d   1       8.257   3.751 -13.804  0.00  0.00     0.024 A 
ATOM      3  C   UNL d   1       6.875   3.615 -13.565  0.00  0.00     0.002 A 
ATOM      4  C   UNL d   1       6.193   4.588 -12.812  0.00  0.00    -0.000 A 
ATOM      5  C   UNL d   1       6.889   5.710 -12.325  0.00  0.00    -0.002 A 
ATOM      6  C   UNL d   1       8.271   5.856 -12.570  0.00  0.00     0.004 A 
ENDROOT
BRANCH   1   7
ATOM      7  O   UNL d   1      10.338   5.029 -13.429  0.00  0.00    -0.329 OA
BRANCH   7   8
ATOM      8  C   UNL d   1      11.142   3.910 -13.774  0.00  0.00     0.184 C 
BRANCH   8   9
ATOM      9  C   UNL d   1      11.407   3.843 -15.285  0.00  0.00     0.283 C 
BRANCH   9  10
ATOM     10  N   UNL d   1      12.563   4.627 -15.727  0.00  0.00     0.145 N 
ATOM     11  C   UNL d   1      12.250   6.046 -15.855  0.00  0.00     0.280 C 
ATOM     12  C   UNL d   1      13.450   6.873 -16.364  0.00  0.00     0.149 C 
ATOM     13  C   UNL d   1      13.066   8.336 -16.597  0.00  0.00     0.034 C 
ATOM     14  O   UNL d   1      13.911   6.329 -17.598  0.00  0.00    -0.352 OA
ATOM     15  C   UNL d   1      14.281   4.957 -17.491  0.00  0.00     0.178 C 
ATOM     16  C   UNL d   1      13.076   4.138 -16.999  0.00  0.00     0.282 C 
ENDBRANCH   9  10
ENDBRANCH   8   9
ENDBRANCH   7   8
ENDBRANCH   1   7
BRANCH   6  17
ATOM     17  C   UNL d   1       9.009   7.059 -11.986  0.00  0.00     0.055 C 
BRANCH  17  18
ATOM     18  C   UNL d   1       9.525   6.856 -10.563  0.00  0.00    -0.018 A 
ATOM     19  C   UNL d   1       9.036   5.816  -9.738  0.00  0.00    -0.004 A 
ATOM     20  C   UNL d   1       9.498   5.677  -8.422  0.00  0.00    -0.000 A 
ATOM     21  C   UNL d   1      10.459   6.564  -7.905  0.00  0.00    -0.000 A 
ATOM     22  C   UNL d   1      10.960   7.600  -8.718  0.00  0.00    -0.000 A 
ATOM     23  C   UNL d   1      10.489   7.747 -10.039  0.00  0.00    -0.004 A 
ENDBRANCH  17  18
ENDBRANCH   6  17
TORSDOF 6
