REMARK  0 active torsions:
REMARK  status: ('A' for Active; 'I' for Inactive)
ROOT
ATOM      1  C   UNL d   1      10.622   5.088 -16.510  0.00  0.00     0.001 C 
ATOM      2  C   UNL d   1      10.472   4.230 -15.492  0.00  0.00     0.043 C 
ATOM      3  C   UNL d   1      11.143   2.939 -15.425  0.00  0.00     0.292 C 
ATOM      4  O   UNL d   1      11.991   2.510 -16.204  0.00  0.00    -0.260 OA
ATOM      5  O   UNL d   1      10.683   2.309 -14.347  0.00  0.00    -0.298 OA
ATOM      6  C   UNL d   1       9.546   2.926 -13.745  0.00  0.00     0.158 C 
ATOM      7  C   UNL d   1       9.579   4.365 -14.282  0.00  0.00     0.058 C 
ATOM      8  C   UNL d   1      10.210   5.325 -13.251  0.00  0.00     0.011 C 
ATOM      9  C   UNL d   1       9.528   5.540 -11.878  0.00  0.00     0.022 C 
ATOM     10  C   UNL d   1       8.031   5.577 -11.997  0.00  0.00    -0.048 C 
ATOM     11  C   UNL d   1       7.478   6.831 -12.639  0.00  0.00     0.026 C 
ATOM     12  C   UNL d   1       7.356   4.448 -11.776  0.00  0.00    -0.035 C 
ATOM     13  C   UNL d   1       5.989   4.098 -12.284  0.00  0.00     0.028 C 
ATOM     14  C   UNL d   1       6.108   3.672 -13.750  0.00  0.00     0.034 C 
ATOM     15  C   UNL d   1       6.836   2.352 -14.041  0.00  0.00     0.120 A 
ATOM     16  C   UNL d   1       5.893   1.167 -13.911  0.00  0.00     0.032 C 
ATOM     17  O   UNL d   1       7.589   2.374 -15.263  0.00  0.00    -0.354 OA
ATOM     18  C   UNL d   1       8.334   2.059 -14.085  0.00  0.00     0.168 A 
ENDROOT
TORSDOF 0
