REMARK  7 active torsions:
REMARK  status: ('A' for Active; 'I' for Inactive)
REMARK       I    between atoms: C_2  and  N_3 
REMARK    1  A    between atoms: C_2  and  C_20 
REMARK    2  A    between atoms: N_3  and  C_4 
REMARK    3  A    between atoms: C_4  and  C_5 
REMARK    4  A    between atoms: C_5  and  C_6 
REMARK    5  A    between atoms: C_6  and  C_7 
REMARK    6  A    between atoms: C_7  and  N_8 
REMARK    7  A    between atoms: N_11  and  C_12 
ROOT
ATOM      1  C   UNL d   1       9.075   4.719 -13.561  0.00  0.00     0.029 C 
ENDROOT
BRANCH   1   2
ATOM      2  C   UNL d   1       9.580   3.310 -13.907  0.00  0.00     0.129 C 
BRANCH   2   3
ATOM      3  N   UNL d   1       8.517   2.467 -14.439  0.00  0.00    -0.233 NA
ATOM      4  C   UNL d   1       8.364   2.121 -15.726  0.00  0.00     0.293 C 
ATOM      5  O   UNL d   1       9.063   2.576 -16.631  0.00  0.00    -0.264 OA
BRANCH   4   6
ATOM      6  C   UNL d   1       7.237   1.160 -16.004  0.00  0.00     0.139 A 
ATOM      7  N   UNL d   1       6.751   1.124 -17.270  0.00  0.00    -0.241 NA
ATOM      8  C   UNL d   1       5.786   0.232 -17.587  0.00  0.00     0.082 A 
ATOM      9  C   UNL d   1       5.259  -0.670 -16.626  0.00  0.00     0.018 A 
ATOM     10  C   UNL d   1       5.275   0.183 -18.902  0.00  0.00     0.019 A 
ATOM     11  C   UNL d   1       5.756  -0.636 -15.310  0.00  0.00     0.003 A 
ATOM     12  C   UNL d   1       4.259  -1.599 -16.975  0.00  0.00     0.002 A 
ATOM     13  C   UNL d   1       6.767   0.288 -14.995  0.00  0.00     0.024 A 
ATOM     14  C   UNL d   1       3.760  -1.626 -18.288  0.00  0.00     0.000 A 
ATOM     15  C   UNL d   1       4.264  -0.735 -19.251  0.00  0.00     0.002 A 
ENDBRANCH   4   6
ENDBRANCH   2   3
ENDBRANCH   1   2
BRANCH   1  16
ATOM     16  C   UNL d   1       8.027   4.731 -12.428  0.00  0.00     0.037 C 
BRANCH  16  17
ATOM     17  C   UNL d   1       8.039   6.021 -11.597  0.00  0.00     0.251 C 
BRANCH  17  18
ATOM     18  N   UNL d   1       9.199   6.029 -10.700  0.00  0.00     0.141 N 
ATOM     19  C   UNL d   1       8.770   5.672  -9.340  0.00  0.00     0.274 C 
ATOM     20  C   UNL d   1       9.965   5.665  -8.368  0.00  0.00     0.137 C 
ATOM     21  N   UNL d   1      10.659   6.948  -8.406  0.00  0.00    -0.344 N 
ATOM     22  C   UNL d   1      11.022   7.410  -9.745  0.00  0.00     0.137 C 
ATOM     23  C   UNL d   1       9.792   7.371 -10.666  0.00  0.00     0.274 C 
BRANCH  21  24
ATOM     24  C   UNL d   1      10.912   7.708  -7.244  0.00  0.00     0.056 A 
ATOM     25  C   UNL d   1      10.989   9.120  -7.301  0.00  0.00     0.017 A 
ATOM     26  C   UNL d   1      11.263   9.881  -6.152  0.00  0.00     0.002 A 
ATOM     27  C   UNL d   1      11.454   9.249  -4.912  0.00  0.00     0.000 A 
ATOM     28  C   UNL d   1      11.379   7.845  -4.838  0.00  0.00     0.002 A 
ATOM     29  C   UNL d   1      11.101   7.082  -5.987  0.00  0.00     0.017 A 
ENDBRANCH  21  24
ENDBRANCH  17  18
ENDBRANCH  16  17
ENDBRANCH   1  16
TORSDOF 7
