REMARK  6 active torsions:
REMARK  status: ('A' for Active; 'I' for Inactive)
REMARK    1  A    between atoms: O_2  and  N_3 
REMARK    2  A    between atoms: C_4  and  C_5 
REMARK    3  A    between atoms: C_4  and  C_12 
REMARK    4  A    between atoms: C_12  and  C_14 
REMARK    5  A    between atoms: C_14  and  N_15 
REMARK    6  A    between atoms: N_18  and  C_19 
ROOT
ATOM      1  C   UNL d   1       8.901   5.822 -11.845  0.00  0.00     0.227 C 
ATOM      2  O   UNL d   1       8.216   7.056 -12.030  0.00  0.00    -0.215 OA
ENDROOT
BRANCH   1   3
ATOM      3  C   UNL d   1       8.356   4.748 -12.783  0.00  0.00     0.118 C 
ATOM      4  N   UNL d   1       7.154   4.348 -12.652  0.00  0.00    -0.133 NA
BRANCH   4   5
ATOM      5  O   UNL d   1       6.805   3.373 -13.602  0.00  0.00    -0.234 OA
ATOM      6  C   UNL d   1       5.622   2.732 -13.154  0.00  0.00     0.211 C 
ENDBRANCH   4   5
BRANCH   3   7
ATOM      7  C   UNL d   1       9.309   4.249 -13.802  0.00  0.00     0.018 A 
ATOM      8  C   UNL d   1      10.221   3.226 -13.490  0.00  0.00     0.002 A 
ATOM      9  C   UNL d   1      11.140   2.765 -14.454  0.00  0.00     0.011 A 
ATOM     10  C   UNL d   1      11.145   3.315 -15.749  0.00  0.00     0.058 A 
ATOM     11  C   UNL d   1      10.236   4.334 -16.072  0.00  0.00     0.011 A 
ATOM     12 CL   UNL d   1      12.250   2.746 -16.943  0.00  0.00    -0.082 Cl
ATOM     13  C   UNL d   1       9.329   4.791 -15.099  0.00  0.00     0.002 A 
ENDBRANCH   3   7
ENDBRANCH   1   3
BRANCH   1  14
ATOM     14  C   UNL d   1       8.825   5.383 -10.355  0.00  0.00     0.289 C 
BRANCH  14  15
ATOM     15  N   UNL d   1       9.099   6.461  -9.397  0.00  0.00     0.144 N 
ATOM     16  C   UNL d   1      10.499   6.872  -9.348  0.00  0.00     0.274 C 
ATOM     17  C   UNL d   1      10.760   8.061  -8.394  0.00  0.00     0.138 C 
ATOM     18  N   UNL d   1      10.209   7.763  -7.081  0.00  0.00    -0.330 N 
ATOM     19  C   UNL d   1       8.833   7.295  -7.049  0.00  0.00     0.138 C 
ATOM     20  C   UNL d   1       8.646   6.133  -8.045  0.00  0.00     0.274 C 
BRANCH  18  21
ATOM     21  C   UNL d   1      10.980   7.867  -5.914  0.00  0.00     0.140 A 
ATOM     22  N   UNL d   1      10.993   6.802  -5.083  0.00  0.00    -0.227 NA
ATOM     23  C   UNL d   1      11.738   6.868  -3.960  0.00  0.00     0.101 A 
ATOM     24  C   UNL d   1      12.484   8.002  -3.599  0.00  0.00     0.021 A 
ATOM     25  C   UNL d   1      12.470   9.111  -4.464  0.00  0.00     0.005 A 
ATOM     26  C   UNL d   1      11.708   9.041  -5.647  0.00  0.00     0.037 A 
ENDBRANCH  18  21
ENDBRANCH  14  15
ENDBRANCH   1  14
TORSDOF 6
