REMARK  0 active torsions:
REMARK  status: ('A' for Active; 'I' for Inactive)
ROOT
ATOM      1  C   UNL d   1       7.138   6.246 -11.720  0.00  0.00     0.038 C 
ATOM      2  C   UNL d   1       7.997   5.377 -12.547  0.00  0.00     0.003 C 
ATOM      3  S   UNL d   1       9.596   5.907 -12.876  0.00  0.00    -0.096 SA
ATOM      4  C   UNL d   1       9.875   4.531 -13.893  0.00  0.00     0.009 C 
ATOM      5  C   UNL d   1      11.154   4.451 -14.673  0.00  0.00     0.038 C 
ATOM      6  C   UNL d   1       8.832   3.632 -13.826  0.00  0.00     0.017 C 
ATOM      7  C   UNL d   1       7.728   4.141 -13.037  0.00  0.00    -0.018 C 
ATOM      8  C   UNL d   1       6.393   3.513 -12.774  0.00  0.00     0.027 C 
ATOM      9  C   UNL d   1       5.711   3.138 -14.045  0.00  0.00     0.009 C 
ATOM     10  C   UNL d   1       6.187   1.738 -14.575  0.00  0.00     0.030 C 
ATOM     11  C   UNL d   1       7.660   1.498 -14.740  0.00  0.00     0.016 A 
ATOM     12  C   UNL d   1       8.199   0.385 -15.327  0.00  0.00     0.092 A 
ATOM     13  N   UNL d   1       9.561   0.538 -15.332  0.00  0.00    -0.248 N 
ATOM     14  C   UNL d   1      10.595  -0.371 -15.741  0.00  0.00     0.154 C 
ATOM     15  N   UNL d   1       9.925   1.713 -14.796  0.00  0.00    -0.170 NA
ATOM     16  C   UNL d   1       8.786   2.308 -14.438  0.00  0.00     0.098 A 
ENDROOT
TORSDOF 0
