REMARK  2 active torsions:
REMARK  status: ('A' for Active; 'I' for Inactive)
REMARK    1  A    between atoms: C_8  and  N_9 
REMARK    2  A    between atoms: N_12  and  C_13 
ROOT
ATOM      1 CL   UNL d   1       5.882   1.155 -14.154  0.00  0.00    -0.082 Cl
ATOM      2  C   UNL d   1       7.519   1.616 -14.446  0.00  0.00     0.058 A 
ATOM      3  C   UNL d   1       8.440   0.643 -14.873  0.00  0.00     0.013 A 
ATOM      4  C   UNL d   1       9.792   0.989 -15.040  0.00  0.00     0.020 A 
ATOM      5  C   UNL d   1      10.226   2.303 -14.780  0.00  0.00     0.086 A 
ATOM      6  C   UNL d   1       9.323   3.288 -14.311  0.00  0.00     0.052 A 
ATOM      7  C   UNL d   1       7.956   2.927 -14.166  0.00  0.00     0.016 A 
ATOM      8  C   UNL d   1       9.750   4.666 -13.862  0.00  0.00     0.142 C 
ATOM      9  N   UNL d   1      10.699   5.365 -14.437  0.00  0.00    -0.226 NA
ATOM     10  C   UNL d   1      11.443   4.993 -15.552  0.00  0.00     0.119 A 
ATOM     11  C   UNL d   1      11.848   6.029 -16.419  0.00  0.00     0.024 A 
ATOM     12  C   UNL d   1      12.714   5.737 -17.488  0.00  0.00     0.022 A 
ATOM     13  C   UNL d   1      13.157   4.412 -17.637  0.00  0.00     0.101 A 
ATOM     14  N   UNL d   1      12.762   3.406 -16.835  0.00  0.00    -0.224 NA
ATOM     15  C   UNL d   1      11.922   3.692 -15.818  0.00  0.00     0.180 A 
ATOM     16  N   UNL d   1      11.563   2.598 -15.052  0.00  0.00    -0.225 NA
ENDROOT
BRANCH   8  17
ATOM     17  N   UNL d   1       9.102   5.130 -12.734  0.00  0.00    -0.330 N 
ATOM     18  C   UNL d   1       8.461   6.430 -12.560  0.00  0.00     0.138 C 
ATOM     19  C   UNL d   1       9.105   7.162 -11.373  0.00  0.00     0.274 C 
ATOM     20  N   UNL d   1       8.947   6.392 -10.129  0.00  0.00     0.139 N 
ATOM     21  C   UNL d   1       9.523   5.076 -10.279  0.00  0.00     0.274 C 
ATOM     22  C   UNL d   1       8.993   4.353 -11.513  0.00  0.00     0.138 C 
BRANCH  20  23
ATOM     23  C   UNL d   1       9.452   7.127  -8.964  0.00  0.00     0.220 C 
ATOM     24  C   UNL d   1       9.090   6.415  -7.629  0.00  0.00     0.033 C 
ATOM     25  C   UNL d   1       9.637   7.194  -6.426  0.00  0.00     0.002 C 
ATOM     26  C   UNL d   1      11.151   7.442  -6.559  0.00  0.00     0.000 C 
ATOM     27  C   UNL d   1      11.475   8.197  -7.864  0.00  0.00     0.002 C 
ATOM     28  C   UNL d   1      10.959   7.443  -9.052  0.00  0.00     0.033 C 
ENDBRANCH  20  23
ENDBRANCH   8  17
TORSDOF 2
