REMARK  6 active torsions:
REMARK  status: ('A' for Active; 'I' for Inactive)
REMARK    1  A    between atoms: C_2  and  C_3 
REMARK    2  A    between atoms: C_2  and  C_19 
REMARK    3  A    between atoms: C_3  and  C_4 
REMARK    4  A    between atoms: C_4  and  C_5 
REMARK    5  A    between atoms: C_5  and  N_6 
REMARK    6  A    between atoms: N_9  and  C_10 
ROOT
ATOM      1  C   UNL d   1       9.588   5.967 -10.748  0.00  0.00     0.251 C 
ENDROOT
BRANCH   1   2
ATOM      2  C   UNL d   1       8.273   5.721 -11.514  0.00  0.00     0.043 C 
BRANCH   2   3
ATOM      3  C   UNL d   1       8.319   4.506 -12.470  0.00  0.00     0.073 C 
BRANCH   3   4
ATOM      4  C   UNL d   1       9.448   4.499 -13.519  0.00  0.00     0.197 C 
ATOM      5  O   UNL d   1      10.235   5.434 -13.649  0.00  0.00    -0.289 OA
BRANCH   4   6
ATOM      6  C   UNL d   1       9.596   3.308 -14.393  0.00  0.00     0.145 A 
ATOM      7  S   UNL d   1       8.294   2.113 -14.500  0.00  0.00    -0.064 SA
ATOM      8  C   UNL d   1       9.256   1.255 -15.694  0.00  0.00     0.049 A 
ATOM      9  C   UNL d   1      10.489   1.938 -15.910  0.00  0.00     0.088 A 
ATOM     10  C   UNL d   1       8.945   0.076 -16.384  0.00  0.00     0.008 A 
ATOM     11  N   UNL d   1      10.670   3.088 -15.162  0.00  0.00    -0.236 NA
ATOM     12  C   UNL d   1      11.394   1.399 -16.848  0.00  0.00     0.020 A 
ATOM     13  C   UNL d   1      11.082   0.217 -17.547  0.00  0.00     0.002 A 
ATOM     14  C   UNL d   1       9.863  -0.444 -17.311  0.00  0.00     0.001 A 
ENDBRANCH   4   6
ENDBRANCH   3   4
ENDBRANCH   2   3
ENDBRANCH   1   2
BRANCH   1  15
ATOM     15  N   UNL d   1       9.464   6.950  -9.696  0.00  0.00     0.141 N 
ATOM     16  C   UNL d   1       8.963   6.316  -8.473  0.00  0.00     0.274 C 
ATOM     17  C   UNL d   1       8.809   7.349  -7.340  0.00  0.00     0.137 C 
ATOM     18  N   UNL d   1      10.050   8.085  -7.154  0.00  0.00    -0.344 N 
ATOM     19  C   UNL d   1      10.653   8.657  -8.343  0.00  0.00     0.137 C 
ATOM     20  C   UNL d   1      10.764   7.574  -9.429  0.00  0.00     0.274 C 
BRANCH  18  21
ATOM     21  C   UNL d   1      10.686   8.145  -5.910  0.00  0.00     0.056 A 
ATOM     22  C   UNL d   1      11.043   6.962  -5.224  0.00  0.00     0.018 A 
ATOM     23  C   UNL d   1      11.659   7.034  -3.960  0.00  0.00     0.013 A 
ATOM     24  C   UNL d   1      11.910   8.286  -3.368  0.00  0.00     0.058 A 
ATOM     25  C   UNL d   1      11.546   9.461  -4.046  0.00  0.00     0.013 A 
ATOM     26 CL   UNL d   1      12.635   8.393  -1.818  0.00  0.00    -0.082 Cl
ATOM     27  C   UNL d   1      10.960   9.403  -5.323  0.00  0.00     0.018 A 
ENDBRANCH  18  21
ENDBRANCH   1  15
TORSDOF 6
