REMARK  6 active torsions:
REMARK  status: ('A' for Active; 'I' for Inactive)
REMARK    1  A    between atoms: C_6  and  C_7 
REMARK    2  A    between atoms: C_10  and  S_11 
REMARK    3  A    between atoms: S_11  and  C_12 
REMARK    4  A    between atoms: C_12  and  C_13 
REMARK    5  A    between atoms: C_13  and  C_14 
REMARK    6  A    between atoms: C_14  and  N_15 
ROOT
ATOM      1  S   UNL d   1       7.058   1.883 -14.450  0.00  0.00    -0.075 SA
ENDROOT
BRANCH   1   2
ATOM      2  C   UNL d   1       8.224   2.385 -15.684  0.00  0.00     0.193 A 
ATOM      3  N   UNL d   1       7.931   2.347 -16.994  0.00  0.00    -0.122 NA
ATOM      4  N   UNL d   1       9.023   2.893 -17.625  0.00  0.00    -0.128 NA
ATOM      5  C   UNL d   1       9.904   3.185 -16.653  0.00  0.00     0.167 A 
ATOM      6  N   UNL d   1       9.454   2.877 -15.415  0.00  0.00    -0.289 N 
ATOM      7  C   UNL d   1      10.176   3.065 -14.146  0.00  0.00     0.134 C 
BRANCH   5   8
ATOM      8  C   UNL d   1      11.213   3.765 -16.906  0.00  0.00     0.037 A 
ATOM      9  C   UNL d   1      12.185   3.100 -17.699  0.00  0.00     0.021 A 
ATOM     10  C   UNL d   1      11.930   1.829 -18.270  0.00  0.00     0.003 A 
ATOM     11  C   UNL d   1      13.447   3.706 -17.944  0.00  0.00     0.081 A 
ATOM     12  C   UNL d   1      12.913   1.228 -19.071  0.00  0.00     0.015 A 
ATOM     13  C   UNL d   1      14.122   1.914 -19.270  0.00  0.00     0.059 A 
ATOM     14  C   UNL d   1      15.223   1.316 -20.120  0.00  0.00     0.052 C 
ATOM     15  N   UNL d   1      14.384   3.121 -18.726  0.00  0.00    -0.250 NA
ATOM     16  C   UNL d   1      13.721   4.959 -17.356  0.00  0.00     0.019 A 
ATOM     17  C   UNL d   1      12.774   5.610 -16.545  0.00  0.00     0.002 A 
ATOM     18  C   UNL d   1      11.525   5.014 -16.320  0.00  0.00     0.003 A 
ENDBRANCH   5   8
ENDBRANCH   1   2
BRANCH   1  19
ATOM     19  C   UNL d   1       6.515   3.503 -13.773  0.00  0.00     0.067 C 
BRANCH  19  20
ATOM     20  C   UNL d   1       7.662   4.315 -13.191  0.00  0.00     0.047 C 
BRANCH  20  21
ATOM     21  C   UNL d   1       7.361   5.265 -12.043  0.00  0.00     0.251 C 
BRANCH  21  22
ATOM     22  N   UNL d   1       8.574   5.495 -11.246  0.00  0.00     0.138 N 
ATOM     23  C   UNL d   1       8.256   5.197  -9.844  0.00  0.00     0.255 C 
ATOM     24  C   UNL d   1       9.465   5.097  -8.918  0.00  0.00     0.061 C 
ATOM     25  C   UNL d   1       9.970   6.445  -8.421  0.00  0.00    -0.022 A 
ATOM     26  C   UNL d   1      10.389   7.434  -9.333  0.00  0.00    -0.022 A 
ATOM     27  C   UNL d   1      10.004   6.708  -7.051  0.00  0.00     0.021 A 
ATOM     28  C   UNL d   1      10.374   7.197 -10.809  0.00  0.00     0.061 C 
ATOM     29  C   UNL d   1      10.884   8.679  -8.831  0.00  0.00     0.016 A 
ATOM     30  C   UNL d   1       9.012   6.876 -11.426  0.00  0.00     0.255 C 
ATOM     31  C   UNL d   1      10.930   8.908  -7.458  0.00  0.00     0.098 A 
ATOM     32  N   UNL d   1      11.454  10.096  -6.951  0.00  0.00    -0.266 NA
ATOM     33  C   UNL d   1      10.475   7.928  -6.553  0.00  0.00     0.111 A 
ATOM     34  C   UNL d   1      11.769  10.149  -5.552  0.00  0.00     0.158 C 
ATOM     35  C   UNL d   1      10.683   9.460  -4.753  0.00  0.00     0.175 C 
ATOM     36  O   UNL d   1      10.539   8.111  -5.204  0.00  0.00    -0.327 OA
ENDBRANCH  21  22
ENDBRANCH  20  21
ENDBRANCH  19  20
ENDBRANCH   1  19
TORSDOF 6
