REMARK  7 active torsions:
REMARK  status: ('A' for Active; 'I' for Inactive)
REMARK    1  A    between atoms: C_2  and  O_4 
REMARK    2  A    between atoms: O_4  and  C_5 
REMARK    3  A    between atoms: C_10  and  N_11 
REMARK    4  A    between atoms: N_14  and  C_15 
REMARK    5  A    between atoms: C_18  and  N_19 
REMARK    6  A    between atoms: N_19  and  S_20 
REMARK    7  A    between atoms: S_20  and  C_23 
ROOT
ATOM      1  C   UNL d   1       8.060   4.890 -13.045  0.00  0.00     0.220 C 
ATOM      2  C   UNL d   1       7.786   4.450 -11.617  0.00  0.00     0.035 C 
ATOM      3  C   UNL d   1       8.958   4.832 -10.659  0.00  0.00     0.027 C 
ATOM      4  C   UNL d   1       9.142   6.365 -10.639  0.00  0.00     0.116 C 
ATOM      5  C   UNL d   1       9.254   6.892 -12.073  0.00  0.00     0.027 C 
ATOM      6  C   UNL d   1       8.093   6.420 -12.963  0.00  0.00     0.035 C 
ENDROOT
BRANCH   1   7
ATOM      7  N   UNL d   1       9.273   4.246 -13.646  0.00  0.00     0.139 N 
ATOM      8  C   UNL d   1       9.188   2.793 -13.756  0.00  0.00     0.274 C 
ATOM      9  C   UNL d   1      10.494   2.188 -14.267  0.00  0.00     0.137 C 
ATOM     10  N   UNL d   1      10.924   2.771 -15.514  0.00  0.00    -0.343 N 
ATOM     11  C   UNL d   1      10.923   4.210 -15.573  0.00  0.00     0.137 C 
ATOM     12  C   UNL d   1       9.578   4.691 -15.021  0.00  0.00     0.274 C 
BRANCH  10  13
ATOM     13  C   UNL d   1      11.113   1.986 -16.648  0.00  0.00     0.079 A 
ATOM     14  C   UNL d   1      10.182   0.990 -17.045  0.00  0.00     0.109 A 
ATOM     15  C   UNL d   1      10.499   0.202 -18.180  0.00  0.00     0.026 A 
ATOM     16  C   UNL d   1      11.691   0.433 -18.894  0.00  0.00     0.002 A 
ATOM     17  C   UNL d   1      12.589   1.432 -18.501  0.00  0.00     0.002 A 
ATOM     18  C   UNL d   1      12.292   2.221 -17.382  0.00  0.00     0.019 A 
BRANCH  14  19
ATOM     19  O   UNL d   1       9.009   0.861 -16.313  0.00  0.00    -0.332 OA
BRANCH  19  20
ATOM     20  C   UNL d   1       7.895   0.188 -16.889  0.00  0.00     0.122 C 
ATOM     21  C   UNL d   1       7.346   0.961 -18.108  0.00  0.00     0.033 C 
ATOM     22  C   UNL d   1       6.809   0.064 -15.806  0.00  0.00     0.033 C 
ENDBRANCH  19  20
ENDBRANCH  14  19
ENDBRANCH  10  13
ENDBRANCH   1   7
BRANCH   4  23
ATOM     23  N   UNL d   1      10.297   6.801  -9.851  0.00  0.00    -0.187 NA
BRANCH  23  24
ATOM     24  S   UNL d   1      10.488   8.428  -9.268  0.00  0.00     0.282 S 
ATOM     25  O   UNL d   1      11.704   8.944  -9.911  0.00  0.00    -0.199 OA
ATOM     26  O   UNL d   1       9.257   9.208  -9.333  0.00  0.00    -0.199 OA
BRANCH  24  27
ATOM     27  C   UNL d   1      10.806   8.236  -7.530  0.00  0.00     0.116 A 
ATOM     28  C   UNL d   1      10.152   7.293  -6.711  0.00  0.00     0.071 A 
ATOM     29  C   UNL d   1      10.545   7.184  -5.358  0.00  0.00     0.024 A 
ATOM     30 CL   UNL d   1       8.788   6.401  -7.260  0.00  0.00    -0.082 Cl
ATOM     31  C   UNL d   1      11.461   8.101  -4.799  0.00  0.00     0.059 A 
ATOM     32  C   UNL d   1      12.035   9.097  -5.610  0.00  0.00     0.012 A 
ATOM     33 CL   UNL d   1      11.909   8.015  -3.139  0.00  0.00    -0.082 Cl
ATOM     34  C   UNL d   1      11.732   9.129  -6.979  0.00  0.00     0.015 A 
ENDBRANCH  24  27
ENDBRANCH  23  24
ENDBRANCH   4  23
TORSDOF 7
