REMARK  4 active torsions:
REMARK  status: ('A' for Active; 'I' for Inactive)
REMARK    1  A    between atoms: C_5  and  C_6 
REMARK    2  A    between atoms: C_8  and  C_9 
REMARK    3  A    between atoms: N_14  and  C_15 
REMARK    4  A    between atoms: C_15  and  C_16 
ROOT
ATOM      1  C   UNL d   1       6.342  -0.783 -17.603  0.00  0.00     0.261 C 
ATOM      2  C   UNL d   1       5.005  -1.102 -16.874  0.00  0.00     0.040 C 
ATOM      3  C   UNL d   1       4.090  -2.023 -17.685  0.00  0.00     0.004 C 
ATOM      4  C   UNL d   1       3.917  -1.434 -19.064  0.00  0.00     0.035 C 
ATOM      5  C   UNL d   1       5.271  -1.193 -19.694  0.00  0.00     0.251 C 
ATOM      6  N   UNL d   1       6.068  -0.204 -18.947  0.00  0.00     0.145 N 
ENDROOT
BRANCH   1   7
ATOM      7  C   UNL d   1       7.187   0.098 -16.711  0.00  0.00     0.113 A 
ATOM      8  C   UNL d   1       6.854   1.011 -15.749  0.00  0.00     0.039 A 
ATOM      9  C   UNL d   1       8.093   1.631 -15.381  0.00  0.00     0.104 A 
ATOM     10  N   UNL d   1       9.115   1.097 -16.032  0.00  0.00    -0.148 NA
ATOM     11  N   UNL d   1       8.558   0.151 -16.803  0.00  0.00    -0.150 NA
BRANCH   9  12
ATOM     12  C   UNL d   1       8.320   2.720 -14.434  0.00  0.00     0.019 A 
ATOM     13  C   UNL d   1       9.634   3.095 -14.095  0.00  0.00     0.002 A 
ATOM     14  C   UNL d   1       9.861   4.116 -13.156  0.00  0.00     0.011 A 
ATOM     15  C   UNL d   1       8.772   4.766 -12.549  0.00  0.00     0.058 A 
ATOM     16 CL   UNL d   1       9.059   6.008 -11.396  0.00  0.00    -0.082 Cl
ATOM     17  C   UNL d   1       7.455   4.394 -12.878  0.00  0.00     0.011 A 
ATOM     18  C   UNL d   1       7.226   3.374 -13.822  0.00  0.00     0.002 A 
ENDBRANCH   9  12
ENDBRANCH   1   7
BRANCH   6  19
ATOM     19  C   UNL d   1       7.295   0.097 -19.712  0.00  0.00     0.277 C 
BRANCH  19  20
ATOM     20  C   UNL d   1       7.190   1.149 -20.815  0.00  0.00     0.011 A 
ATOM     21  C   UNL d   1       8.152   2.196 -20.844  0.00  0.00    -0.002 A 
ATOM     22  C   UNL d   1       8.113   3.170 -21.884  0.00  0.00    -0.000 A 
ATOM     23  C   UNL d   1       7.098   3.104 -22.873  0.00  0.00    -0.000 A 
ATOM     24  C   UNL d   1       6.152   2.074 -22.830  0.00  0.00    -0.000 A 
ATOM     25  C   UNL d   1       6.197   1.099 -21.822  0.00  0.00    -0.002 A 
ENDBRANCH  19  20
ENDBRANCH   6  19
TORSDOF 4
