REMARK  7 active torsions:
REMARK  status: ('A' for Active; 'I' for Inactive)
REMARK    1  A    between atoms: C_2  and  C_3 
REMARK    2  A    between atoms: C_3  and  N_4 
REMARK    3  A    between atoms: N_4  and  C_5 
REMARK    4  A    between atoms: N_4  and  C_15 
REMARK    5  A    between atoms: C_5  and  C_6 
REMARK    6  A    between atoms: C_9  and  N_10 
REMARK    7  A    between atoms: C_23  and  O_24 
ROOT
ATOM      1  N   UNL d   1       8.498   5.446 -12.003  0.00  0.00     0.140 N 
ENDROOT
BRANCH   1   2
ATOM      2  C   UNL d   1       7.595   6.553 -11.700  0.00  0.00     0.251 C 
BRANCH   2   3
ATOM      3  C   UNL d   1       6.700   7.070 -12.835  0.00  0.00     0.035 C 
ATOM      4  C   UNL d   1       5.685   8.138 -12.416  0.00  0.00     0.002 C 
ENDBRANCH   2   3
ENDBRANCH   1   2
BRANCH   1   5
ATOM      5  C   UNL d   1       8.996   4.842 -10.745  0.00  0.00     0.277 C 
BRANCH   5   6
ATOM      6  C   UNL d   1       9.489   5.784  -9.671  0.00  0.00     0.011 A 
ATOM      7  C   UNL d   1       9.072   5.579  -8.340  0.00  0.00    -0.001 A 
ATOM      8  C   UNL d   1       9.516   6.441  -7.327  0.00  0.00     0.023 A 
ATOM      9  C   UNL d   1      10.383   7.513  -7.635  0.00  0.00     0.127 A 
ATOM     10  C   UNL d   1      10.804   7.706  -8.976  0.00  0.00     0.023 A 
ATOM     11  C   UNL d   1      10.361   6.839  -9.982  0.00  0.00    -0.001 A 
BRANCH   9  12
ATOM     12  N   UNL d   1      10.850   8.421  -6.585  0.00  0.00    -0.114 N 
ATOM     13  O   UNL d   1      10.664   8.089  -5.415  0.00  0.00    -0.532 OA
ATOM     14  O   UNL d   1      11.410   9.454  -6.922  0.00  0.00    -0.532 OA
ENDBRANCH   9  12
ENDBRANCH   5   6
ENDBRANCH   1   5
BRANCH   1  15
ATOM     15  C   UNL d   1       7.869   4.459 -12.889  0.00  0.00     0.224 C 
ATOM     16  C   UNL d   1       8.917   3.475 -13.441  0.00  0.00     0.059 C 
ATOM     17  C   UNL d   1       8.289   2.348 -14.232  0.00  0.00    -0.022 A 
ATOM     18  C   UNL d   1       6.904   2.008 -14.094  0.00  0.00    -0.004 A 
ATOM     19  C   UNL d   1       9.148   1.578 -15.020  0.00  0.00    -0.004 A 
ATOM     20  C   UNL d   1       5.949   2.834 -13.235  0.00  0.00     0.030 C 
ATOM     21  C   UNL d   1       6.424   0.842 -14.763  0.00  0.00     0.090 A 
ATOM     22  C   UNL d   1       6.637   3.771 -12.241  0.00  0.00     0.038 C 
ATOM     23  C   UNL d   1       7.304   0.099 -15.567  0.00  0.00     0.024 A 
ATOM     24  C   UNL d   1       8.657   0.452 -15.698  0.00  0.00     0.002 A 
BRANCH  21  25
ATOM     25  O   UNL d   1       5.098   0.486 -14.560  0.00  0.00    -0.328 OA
ATOM     26  C   UNL d   1       4.585  -0.623 -15.285  0.00  0.00     0.181 C 
ENDBRANCH  21  25
ENDBRANCH   1  15
TORSDOF 7
