REMARK  6 active torsions:
REMARK  status: ('A' for Active; 'I' for Inactive)
REMARK    1  A    between atoms: C_2  and  N_3 
REMARK    2  A    between atoms: N_3  and  C_4 
REMARK    3  A    between atoms: N_3  and  C_6 
REMARK    4  A    between atoms: C_6  and  C_7 
REMARK    5  A    between atoms: C_7  and  C_8 
REMARK    6  A    between atoms: C_12  and  C_13 
ROOT
ATOM      1  C   UNL d   1       8.915   6.008 -11.764  0.00  0.00     0.155 A 
ATOM      2  C   UNL d   1       8.772   7.427 -12.342  0.00  0.00     0.038 C 
ATOM      3  O   UNL d   1       7.617   5.499 -11.466  0.00  0.00    -0.326 OA
ATOM      4  C   UNL d   1       7.402   4.390 -12.239  0.00  0.00     0.119 A 
ATOM      5  C   UNL d   1       8.393   4.036 -13.060  0.00  0.00     0.061 A 
ATOM      6  C   UNL d   1       9.413   5.054 -12.848  0.00  0.00     0.200 A 
ATOM      7  O   UNL d   1      10.485   5.179 -13.435  0.00  0.00    -0.289 OA
ENDROOT
BRANCH   1   8
ATOM      8  C   UNL d   1       9.780   5.940 -10.495  0.00  0.00     0.071 C 
BRANCH   8   9
ATOM      9  C   UNL d   1       9.290   6.789  -9.317  0.00  0.00     0.253 C 
BRANCH   9  10
ATOM     10  N   UNL d   1      10.320   6.955  -8.289  0.00  0.00     0.137 N 
BRANCH  10  11
ATOM     11  C   UNL d   1       9.680   7.032  -6.971  0.00  0.00     0.250 C 
ATOM     12  C   UNL d   1      10.693   6.948  -5.814  0.00  0.00     0.037 C 
ENDBRANCH  10  11
BRANCH  10  13
ATOM     13  C   UNL d   1      11.119   8.174  -8.512  0.00  0.00     0.250 C 
ATOM     14  C   UNL d   1      11.842   8.222  -9.860  0.00  0.00     0.037 C 
ENDBRANCH  10  13
ENDBRANCH   9  10
ENDBRANCH   8   9
ENDBRANCH   1   8
BRANCH   5  15
ATOM     15  C   UNL d   1       8.380   2.931 -14.042  0.00  0.00     0.005 A 
ATOM     16  C   UNL d   1       9.578   2.373 -14.533  0.00  0.00     0.000 A 
ATOM     17  C   UNL d   1       9.539   1.299 -15.448  0.00  0.00     0.000 A 
ATOM     18  C   UNL d   1       8.299   0.781 -15.869  0.00  0.00     0.000 A 
ATOM     19  C   UNL d   1       7.102   1.327 -15.376  0.00  0.00     0.000 A 
ATOM     20  C   UNL d   1       7.138   2.396 -14.461  0.00  0.00     0.000 A 
ENDBRANCH   5  15
TORSDOF 6
