REMARK  2 active torsions:
REMARK  status: ('A' for Active; 'I' for Inactive)
REMARK    1  A    between atoms: C_2  and  C_3 
REMARK    2  A    between atoms: C_3  and  N_4 
ROOT
ATOM      1  N   UNL d   1       7.944   1.695 -14.447  0.00  0.00     0.137 N 
ATOM      2  C   UNL d   1       7.876   0.434 -15.186  0.00  0.00     0.253 C 
ATOM      3  C   UNL d   1       9.318   0.169 -15.665  0.00  0.00     0.070 C 
ATOM      4  C   UNL d   1       9.387  -0.215 -17.154  0.00  0.00     0.151 C 
ATOM      5  O   UNL d   1      10.721  -0.187 -17.649  0.00  0.00    -0.331 OA
ATOM      6  C   UNL d   1      11.368   1.017 -17.497  0.00  0.00     0.090 A 
ATOM      7  C   UNL d   1      12.368   1.372 -18.422  0.00  0.00     0.025 A 
ATOM      8  C   UNL d   1      13.049   2.601 -18.302  0.00  0.00     0.012 A 
ATOM      9  C   UNL d   1      12.737   3.481 -17.245  0.00  0.00     0.068 A 
ATOM     10  C   UNL d   1      13.452   4.740 -17.102  0.00  0.00     0.101 C 
ATOM     11  N   UNL d   1      14.021   5.740 -16.985  0.00  0.00    -0.191 NA
ATOM     12  C   UNL d   1      11.748   3.122 -16.307  0.00  0.00     0.008 A 
ATOM     13  C   UNL d   1      11.064   1.893 -16.427  0.00  0.00     0.003 A 
ATOM     14  C   UNL d   1      10.051   1.479 -15.375  0.00  0.00     0.062 C 
ATOM     15  C   UNL d   1       8.923   2.479 -15.185  0.00  0.00     0.255 C 
ENDROOT
BRANCH   1  16
ATOM     16  C   UNL d   1       6.647   2.355 -14.353  0.00  0.00     0.250 C 
BRANCH  16  17
ATOM     17  C   UNL d   1       6.707   3.597 -13.442  0.00  0.00     0.035 C 
ATOM     18  C   UNL d   1       5.360   4.306 -13.317  0.00  0.00     0.002 C 
ENDBRANCH  16  17
ENDBRANCH   1  16
TORSDOF 2
