REMARK  8 active torsions:
REMARK  status: ('A' for Active; 'I' for Inactive)
REMARK    1  A    between atoms: S_2  and  N_4 
REMARK    2  A    between atoms: S_2  and  C_25 
REMARK    3  A    between atoms: N_4  and  C_5 
REMARK    4  A    between atoms: C_5  and  C_6 
REMARK    5  A    between atoms: C_6  and  C_7 
REMARK    6  A    between atoms: C_7  and  C_8 
REMARK    7  A    between atoms: C_8  and  N_9 
REMARK    8  A    between atoms: C_12  and  C_13 
ROOT
ATOM      1  N   UNL d   1       8.805   5.353 -11.488  0.00  0.00     0.142 N 
ATOM      2  C   UNL d   1       7.379   5.255 -11.809  0.00  0.00     0.276 C 
ATOM      3  C   UNL d   1       7.068   4.161 -12.821  0.00  0.00     0.005 C 
ATOM      4  C   UNL d   1       8.009   3.564 -13.580  0.00  0.00    -0.021 C 
ATOM      5  C   UNL d   1       9.451   3.993 -13.388  0.00  0.00     0.061 C 
ATOM      6  C   UNL d   1       9.586   5.337 -12.707  0.00  0.00     0.255 C 
ENDROOT
BRANCH   1   7
ATOM      7  C   UNL d   1       9.055   6.590 -10.766  0.00  0.00     0.251 C 
BRANCH   7   8
ATOM      8  C   UNL d   1      10.427   6.544 -10.084  0.00  0.00     0.037 C 
BRANCH   8   9
ATOM      9  C   UNL d   1      10.724   7.852  -9.394  0.00  0.00     0.029 C 
BRANCH   9  10
ATOM     10  C   UNL d   1      12.041   7.795  -8.595  0.00  0.00     0.139 C 
BRANCH  10  11
ATOM     11  N   UNL d   1      12.283   9.038  -7.895  0.00  0.00    -0.185 NA
BRANCH  11  12
ATOM     12  S   UNL d   1      11.255   9.710  -6.704  0.00  0.00     0.281 S 
ATOM     13  O   UNL d   1      11.831  11.023  -6.370  0.00  0.00    -0.199 OA
ATOM     14  O   UNL d   1       9.864   9.559  -7.153  0.00  0.00    -0.199 OA
BRANCH  12  15
ATOM     15  C   UNL d   1      11.457   8.632  -5.342  0.00  0.00     0.106 A 
ATOM     16  C   UNL d   1      12.011   9.109  -4.143  0.00  0.00     0.024 A 
ATOM     17  C   UNL d   1      12.207   8.220  -3.083  0.00  0.00     0.059 A 
ATOM     18  C   UNL d   1      11.886   6.866  -3.213  0.00  0.00     0.011 A 
ATOM     19 CL   UNL d   1      12.812   8.786  -1.619  0.00  0.00    -0.082 Cl
ATOM     20  C   UNL d   1      11.325   6.427  -4.418  0.00  0.00     0.002 A 
ATOM     21  C   UNL d   1      11.056   7.298  -5.475  0.00  0.00     0.013 A 
ENDBRANCH  12  15
ENDBRANCH  11  12
ENDBRANCH  10  11
ENDBRANCH   9  10
ENDBRANCH   8   9
ENDBRANCH   7   8
ENDBRANCH   1   7
BRANCH   4  22
ATOM     22  C   UNL d   1       7.687   2.437 -14.479  0.00  0.00     0.017 A 
ATOM     23  C   UNL d   1       8.527   1.879 -15.522  0.00  0.00     0.020 A 
ATOM     24  C   UNL d   1       7.772   0.817 -16.116  0.00  0.00     0.082 A 
ATOM     25  C   UNL d   1       9.822   2.108 -16.064  0.00  0.00     0.013 A 
ATOM     26  N   UNL d   1       6.560   0.771 -15.446  0.00  0.00    -0.244 NA
ATOM     27  C   UNL d   1       8.278   0.040 -17.181  0.00  0.00     0.020 A 
ATOM     28  C   UNL d   1       6.507   1.739 -14.456  0.00  0.00     0.099 A 
ATOM     29  C   UNL d   1       9.569   0.301 -17.685  0.00  0.00     0.013 A 
ATOM     30  C   UNL d   1      10.334   1.338 -17.125  0.00  0.00     0.058 A 
ATOM     31 CL   UNL d   1      11.910   1.688 -17.725  0.00  0.00    -0.082 Cl
ENDBRANCH   4  22
TORSDOF 8
