REMARK  1 active torsions:
REMARK  status: ('A' for Active; 'I' for Inactive)
REMARK    1  A    between atoms: O_2  and  C_3 
ROOT
ATOM      1  C   UNL d   1       7.455   0.910 -15.745  0.00  0.00     0.098 A 
ATOM      2  C   UNL d   1       7.980   0.001 -16.705  0.00  0.00     0.048 A 
ATOM      3  C   UNL d   1       9.322   0.115 -17.096  0.00  0.00     0.097 A 
ATOM      4  C   UNL d   1      10.130   1.102 -16.570  0.00  0.00     0.032 A 
ATOM      5  C   UNL d   1       9.662   2.027 -15.625  0.00  0.00     0.103 A 
ATOM      6  O   UNL d   1      10.525   2.994 -15.138  0.00  0.00    -0.273 OA
ATOM      7  C   UNL d   1      10.161   3.940 -14.214  0.00  0.00     0.303 A 
ATOM      8  O   UNL d   1      10.961   4.782 -13.806  0.00  0.00    -0.259 OA
ATOM      9  C   UNL d   1       8.751   3.845 -13.769  0.00  0.00     0.094 A 
ATOM     10  C   UNL d   1       7.892   2.930 -14.215  0.00  0.00    -0.010 A 
ATOM     11  C   UNL d   1       8.306   1.926 -15.210  0.00  0.00     0.041 A 
ATOM     12  C   UNL d   1       6.519   3.055 -13.585  0.00  0.00     0.035 A 
ATOM     13  C   UNL d   1       6.649   4.253 -12.616  0.00  0.00     0.074 A 
ATOM     14  C   UNL d   1       8.096   4.708 -12.793  0.00  0.00     0.178 A 
ATOM     15  O   UNL d   1       8.583   5.658 -12.185  0.00  0.00    -0.291 OA
ATOM     16  C   UNL d   1      11.486   0.985 -17.176  0.00  0.00     0.107 A 
ATOM     17  C   UNL d   1      11.858   2.082 -18.116  0.00  0.00     0.009 A 
ATOM     18  C   UNL d   1      11.862   1.617 -19.360  0.00  0.00     0.115 A 
ATOM     19  O   UNL d   1      11.533   0.296 -19.436  0.00  0.00    -0.303 OA
ATOM     20  C   UNL d   1      11.303  -0.217 -18.149  0.00  0.00     0.253 A 
ATOM     21  O   UNL d   1       9.982  -0.679 -17.993  0.00  0.00    -0.305 OA
ENDROOT
BRANCH   1  22
ATOM     22  O   UNL d   1       6.149   0.847 -15.308  0.00  0.00    -0.328 OA
ATOM     23  C   UNL d   1       5.302  -0.175 -15.815  0.00  0.00     0.181 C 
ENDBRANCH   1  22
TORSDOF 1
