REMARK  7 active torsions:
REMARK  status: ('A' for Active; 'I' for Inactive)
REMARK    1  A    between atoms: S_2  and  N_4 
REMARK    2  A    between atoms: S_2  and  C_20 
REMARK    3  A    between atoms: N_4  and  C_5 
REMARK    4  A    between atoms: N_8  and  C_9 
REMARK    5  A    between atoms: C_9  and  C_10 
REMARK    6  A    between atoms: C_10  and  O_11 
REMARK    7  A    between atoms: O_11  and  C_12 
ROOT
ATOM      1  C   UNL d   1       9.171   5.907 -10.440  0.00  0.00     0.120 C 
ATOM      2  C   UNL d   1      10.218   7.029 -10.495  0.00  0.00     0.060 C 
ATOM      3  C   UNL d   1      10.014   8.034  -9.354  0.00  0.00     0.252 C 
ATOM      4  N   UNL d   1      10.077   7.372  -8.048  0.00  0.00     0.140 N 
ATOM      5  C   UNL d   1       9.035   6.345  -7.957  0.00  0.00     0.252 C 
ATOM      6  C   UNL d   1       9.194   5.269  -9.046  0.00  0.00     0.060 C 
ENDROOT
BRANCH   1   7
ATOM      7  N   UNL d   1       9.458   4.899 -11.461  0.00  0.00    -0.186 NA
BRANCH   7   8
ATOM      8  S   UNL d   1       9.132   5.195 -13.122  0.00  0.00     0.287 S 
ATOM      9  O   UNL d   1       8.203   6.332 -13.208  0.00  0.00    -0.198 OA
ATOM     10  O   UNL d   1      10.416   5.207 -13.839  0.00  0.00    -0.198 OA
BRANCH   8  11
ATOM     11  C   UNL d   1       8.218   3.767 -13.648  0.00  0.00     0.134 A 
ATOM     12  S   UNL d   1       9.020   2.434 -14.437  0.00  0.00    -0.073 SA
ATOM     13  C   UNL d   1       7.517   1.565 -14.563  0.00  0.00     0.036 A 
ATOM     14  C   UNL d   1       6.473   2.280 -14.034  0.00  0.00     0.008 A 
ATOM     15  C   UNL d   1       6.870   3.550 -13.514  0.00  0.00     0.020 A 
ENDBRANCH   8  11
ENDBRANCH   7   8
ENDBRANCH   1   7
BRANCH   4  16
ATOM     16  C   UNL d   1       9.868   8.357  -6.987  0.00  0.00     0.283 C 
BRANCH  16  17
ATOM     17  C   UNL d   1      11.104   9.290  -6.857  0.00  0.00     0.184 C 
BRANCH  17  18
ATOM     18  O   UNL d   1      11.208   9.867  -5.558  0.00  0.00    -0.329 OA
BRANCH  18  19
ATOM     19  C   UNL d   1      11.574   9.024  -4.533  0.00  0.00     0.094 A 
ATOM     20  C   UNL d   1      11.870   9.555  -3.247  0.00  0.00     0.024 A 
ATOM     21  C   UNL d   1      12.253   8.698  -2.193  0.00  0.00     0.002 A 
ATOM     22  C   UNL d   1      12.266   7.303  -2.382  0.00  0.00     0.000 A 
ATOM     23  C   UNL d   1      11.954   6.784  -3.652  0.00  0.00     0.002 A 
ATOM     24  C   UNL d   1      11.645   7.625  -4.713  0.00  0.00     0.024 A 
ENDBRANCH  18  19
ENDBRANCH  17  18
ENDBRANCH  16  17
ENDBRANCH   4  16
TORSDOF 7
