REMARK  4 active torsions:
REMARK  status: ('A' for Active; 'I' for Inactive)
REMARK    1  A    between atoms: C_2  and  N_3 
REMARK    2  A    between atoms: C_6  and  N_7 
REMARK    3  A    between atoms: N_10  and  C_11 
REMARK    4  A    between atoms: C_11  and  C_12 
ROOT
ATOM      1  N   UNL d   1      12.634   5.268 -18.434  0.00  0.00    -0.298 N 
ATOM      2  C   UNL d   1      13.191   4.270 -17.700  0.00  0.00     0.269 C 
ATOM      3  O   UNL d   1      14.365   4.290 -17.349  0.00  0.00    -0.270 OA
ATOM      4  C   UNL d   1      12.296   3.105 -17.187  0.00  0.00     0.297 C 
ATOM      5  C   UNL d   1      11.984   2.118 -18.350  0.00  0.00     0.048 C 
ATOM      6  C   UNL d   1      11.601   2.773 -19.690  0.00  0.00     0.030 C 
ATOM      7  C   UNL d   1      10.758   4.038 -19.546  0.00  0.00    -0.006 A 
ATOM      8  C   UNL d   1       9.437   4.047 -20.054  0.00  0.00    -0.003 A 
ATOM      9  C   UNL d   1       8.658   5.215 -20.007  0.00  0.00    -0.000 A 
ATOM     10  C   UNL d   1       9.175   6.379 -19.428  0.00  0.00     0.002 A 
ATOM     11  C   UNL d   1      10.482   6.386 -18.913  0.00  0.00     0.017 A 
ATOM     12  C   UNL d   1      11.301   5.216 -18.958  0.00  0.00     0.058 A 
ENDROOT
BRANCH   4  13
ATOM     13  N   UNL d   1      11.115   3.543 -16.401  0.00  0.00     0.148 N 
ATOM     14  C   UNL d   1      11.418   4.631 -15.465  0.00  0.00     0.286 C 
ATOM     15  C   UNL d   1      10.185   5.121 -14.723  0.00  0.00     0.286 C 
ATOM     16  N   UNL d   1       9.544   4.056 -13.959  0.00  0.00     0.146 N 
ATOM     17  C   UNL d   1       9.223   2.965 -14.887  0.00  0.00     0.286 C 
ATOM     18  C   UNL d   1      10.467   2.459 -15.644  0.00  0.00     0.286 C 
BRANCH  16  19
ATOM     19  C   UNL d   1       8.369   4.535 -13.236  0.00  0.00     0.277 C 
BRANCH  19  20
ATOM     20  C   UNL d   1       8.697   5.298 -11.957  0.00  0.00     0.011 A 
ATOM     21  C   UNL d   1       8.249   4.810 -10.713  0.00  0.00    -0.003 A 
ATOM     22  C   UNL d   1       8.580   5.455  -9.510  0.00  0.00    -0.004 A 
ATOM     23  C   UNL d   1       9.362   6.625  -9.545  0.00  0.00    -0.022 A 
ATOM     24  C   UNL d   1       9.784   7.148 -10.783  0.00  0.00    -0.004 A 
ATOM     25  C   UNL d   1       9.634   7.412  -8.280  0.00  0.00     0.031 C 
ATOM     26  C   UNL d   1       9.427   6.504 -11.986  0.00  0.00    -0.003 A 
ENDBRANCH  19  20
ENDBRANCH  16  19
ENDBRANCH   4  13
BRANCH   1  27
ATOM     27  C   UNL d   1      13.398   6.513 -18.610  0.00  0.00     0.109 C 
ATOM     28  C   UNL d   1      13.359   7.410 -17.349  0.00  0.00     0.027 C 
ENDBRANCH   1  27
TORSDOF 4
