REMARK  5 active torsions:
REMARK  status: ('A' for Active; 'I' for Inactive)
REMARK    1  A    between atoms: C_2  and  C_3 
REMARK    2  A    between atoms: C_3  and  N_4 
REMARK    3  A    between atoms: N_4  and  C_5 
REMARK    4  A    between atoms: N_4  and  C_8 
REMARK    5  A    between atoms: C_5  and  C_6 
ROOT
ATOM      1  C   UNL d   1      10.385   7.520  -7.165  0.00  0.00     0.224 C 
ATOM      2  C   UNL d   1      11.412   8.629  -7.564  0.00  0.00     0.040 C 
ATOM      3  C   UNL d   1      11.745   9.617  -6.418  0.00  0.00     0.049 C 
ATOM      4  C   UNL d   1      11.875   8.900  -5.125  0.00  0.00     0.078 A 
ATOM      5  N   UNL d   1      12.400   9.357  -3.937  0.00  0.00    -0.153 NA
ATOM      6  N   UNL d   1      12.409   8.418  -2.965  0.00  0.00    -0.147 NA
ATOM      7  C   UNL d   1      11.859   7.361  -3.552  0.00  0.00     0.119 A 
ATOM      8  C   UNL d   1      11.503   7.618  -4.894  0.00  0.00     0.016 A 
ATOM      9  C   UNL d   1      10.877   6.735  -5.899  0.00  0.00     0.062 C 
ENDROOT
BRANCH   1  10
ATOM     10  N   UNL d   1      10.097   6.642  -8.328  0.00  0.00     0.135 N 
BRANCH  10  11
ATOM     11  C   UNL d   1       9.226   5.518  -8.032  0.00  0.00     0.250 C 
BRANCH  11  12
ATOM     12  C   UNL d   1       9.600   4.300  -8.862  0.00  0.00     0.035 C 
ATOM     13  C   UNL d   1       8.896   3.064  -8.285  0.00  0.00     0.002 C 
ENDBRANCH  11  12
ENDBRANCH  10  11
BRANCH  10  14
ATOM     14  C   UNL d   1       9.412   7.322  -9.420  0.00  0.00     0.250 C 
BRANCH  14  15
ATOM     15  C   UNL d   1      10.266   7.489 -10.658  0.00  0.00     0.035 C 
ATOM     16  C   UNL d   1       9.451   8.111 -11.802  0.00  0.00     0.002 C 
ENDBRANCH  14  15
ENDBRANCH  10  14
ENDBRANCH   1  10
TORSDOF 5
