REMARK  7 active torsions:
REMARK  status: ('A' for Active; 'I' for Inactive)
REMARK    1  A    between atoms: C_6  and  C_7 
REMARK    2  A    between atoms: C_10  and  S_11 
REMARK    3  A    between atoms: S_11  and  C_12 
REMARK    4  A    between atoms: C_12  and  C_13 
REMARK    5  A    between atoms: C_13  and  C_14 
REMARK    6  A    between atoms: C_14  and  N_15 
REMARK    7  A    between atoms: C_23  and  C_24 
ROOT
ATOM      1  N   UNL d   1      10.793   3.830 -16.034  0.00  0.00     0.138 N 
ATOM      2  C   UNL d   1      10.685   3.248 -17.375  0.00  0.00     0.255 C 
ATOM      3  C   UNL d   1      11.921   2.428 -17.785  0.00  0.00     0.061 C 
ATOM      4  C   UNL d   1      13.062   3.272 -18.325  0.00  0.00    -0.022 A 
ATOM      5  C   UNL d   1      13.509   3.055 -19.651  0.00  0.00    -0.002 A 
ATOM      6  C   UNL d   1      14.563   3.821 -20.184  0.00  0.00     0.026 A 
ATOM      7  C   UNL d   1      15.152   4.794 -19.367  0.00  0.00     0.119 A 
ATOM      8  O   UNL d   1      16.201   5.645 -19.659  0.00  0.00    -0.287 OA
ATOM      9  C   UNL d   1      16.375   6.345 -18.494  0.00  0.00     0.221 A 
ATOM     10  N   UNL d   1      15.526   6.043 -17.499  0.00  0.00    -0.220 NA
ATOM     11  C   UNL d   1      14.738   5.041 -18.040  0.00  0.00     0.102 A 
ATOM     12  C   UNL d   1      13.671   4.265 -17.517  0.00  0.00    -0.004 A 
ATOM     13  C   UNL d   1      13.207   4.500 -16.092  0.00  0.00     0.063 C 
ATOM     14  C   UNL d   1      11.741   4.948 -15.989  0.00  0.00     0.255 C 
ENDROOT
BRANCH   1  15
ATOM     15  C   UNL d   1       9.468   4.294 -15.614  0.00  0.00     0.251 C 
BRANCH  15  16
ATOM     16  C   UNL d   1       9.338   4.370 -14.080  0.00  0.00     0.047 C 
BRANCH  16  17
ATOM     17  C   UNL d   1       7.969   4.924 -13.661  0.00  0.00     0.067 C 
BRANCH  17  18
ATOM     18  S   UNL d   1       7.674   4.803 -11.881  0.00  0.00    -0.075 SA
BRANCH  18  19
ATOM     19  C   UNL d   1       8.712   6.107 -11.281  0.00  0.00     0.193 A 
ATOM     20  N   UNL d   1       9.083   7.165 -12.003  0.00  0.00    -0.122 NA
ATOM     21  N   UNL d   1       9.848   7.931 -11.149  0.00  0.00    -0.126 NA
ATOM     22  C   UNL d   1       9.852   7.288  -9.978  0.00  0.00     0.191 A 
ATOM     23  N   UNL d   1       9.167   6.121 -10.010  0.00  0.00    -0.287 N 
ATOM     24  C   UNL d   1       8.934   5.153  -8.943  0.00  0.00     0.134 C 
BRANCH  22  25
ATOM     25  C   UNL d   1      10.561   7.851  -8.825  0.00  0.00     0.151 A 
ATOM     26  C   UNL d   1      10.230   8.063  -7.504  0.00  0.00     0.087 A 
ATOM     27  C   UNL d   1       8.967   7.784  -6.749  0.00  0.00     0.054 C 
ATOM     28  N   UNL d   1      11.324   8.648  -6.877  0.00  0.00    -0.221 NA
ATOM     29  C   UNL d   1      12.246   8.763  -7.830  0.00  0.00     0.225 A 
ATOM     30  O   UNL d   1      11.843   8.290  -9.035  0.00  0.00    -0.282 OA
ENDBRANCH  22  25
ENDBRANCH  18  19
ENDBRANCH  17  18
ENDBRANCH  16  17
ENDBRANCH  15  16
ENDBRANCH   1  15
BRANCH   9  31
ATOM     31  C   UNL d   1      17.467   7.371 -18.444  0.00  0.00     0.320 C 
ATOM     32  C   UNL d   1      16.949   8.784 -18.755  0.00  0.00     0.081 C 
ATOM     33  F   UNL d   1      18.039   7.379 -17.238  0.00  0.00    -0.196 F 
ATOM     34  F   UNL d   1      18.415   7.087 -19.337  0.00  0.00    -0.196 F 
ENDBRANCH   9  31
TORSDOF 7
