REMARK  5 active torsions:
REMARK  status: ('A' for Active; 'I' for Inactive)
REMARK    1  A    between atoms: C_2  and  C_3 
REMARK    2  A    between atoms: C_3  and  N_4 
REMARK    3  A    between atoms: N_4  and  C_5 
REMARK    4  A    between atoms: N_4  and  C_8 
REMARK    5  A    between atoms: C_5  and  C_6 
ROOT
ATOM      1  C   UNL d   1       6.846   4.124 -12.637  0.00  0.00     0.227 C 
ATOM      2  C   UNL d   1       5.858   3.109 -12.014  0.00  0.00     0.060 C 
ATOM      3  C   UNL d   1       5.474   1.952 -12.990  0.00  0.00     0.129 C 
ATOM      4  N   UNL d   1       6.522   1.600 -13.946  0.00  0.00    -0.255 N 
ATOM      5  N   UNL d   1       6.438   0.482 -14.703  0.00  0.00    -0.168 NA
ATOM      6  C   UNL d   1       7.581   0.446 -15.379  0.00  0.00     0.121 A 
ATOM      7  C   UNL d   1       8.434   1.545 -15.062  0.00  0.00     0.037 A 
ATOM      8  C   UNL d   1       7.712   2.279 -14.162  0.00  0.00     0.059 A 
ATOM      9  C   UNL d   1       8.068   3.499 -13.367  0.00  0.00     0.079 C 
ENDROOT
BRANCH   1  10
ATOM     10  N   UNL d   1       7.186   5.209 -11.687  0.00  0.00     0.135 N 
BRANCH  10  11
ATOM     11  C   UNL d   1       7.123   6.510 -12.336  0.00  0.00     0.250 C 
BRANCH  11  12
ATOM     12  C   UNL d   1       5.660   6.953 -12.357  0.00  0.00     0.035 C 
ATOM     13  C   UNL d   1       5.529   8.378 -12.870  0.00  0.00     0.002 C 
ENDBRANCH  11  12
ENDBRANCH  10  11
BRANCH  10  14
ATOM     14  C   UNL d   1       8.422   5.014 -10.909  0.00  0.00     0.250 C 
BRANCH  14  15
ATOM     15  C   UNL d   1       8.706   6.034  -9.778  0.00  0.00     0.035 C 
ATOM     16  C   UNL d   1      10.113   5.849  -9.190  0.00  0.00     0.002 C 
ENDBRANCH  14  15
ENDBRANCH  10  14
ENDBRANCH   1  10
TORSDOF 5
