REMARK  4 active torsions:
REMARK  status: ('A' for Active; 'I' for Inactive)
REMARK    1  A    between atoms: C_3  and  C_4 
REMARK    2  A    between atoms: N_14  and  C_15 
REMARK    3  A    between atoms: N_18  and  C_19 
REMARK    4  A    between atoms: C_19  and  C_20 
ROOT
ATOM      1  C   UNL d   1       9.621   4.704  -8.954  0.00  0.00     0.052 C 
ATOM      2  C   UNL d   1       9.605   5.980  -9.765  0.00  0.00     0.059 A 
ATOM      3  C   UNL d   1       9.964   7.225  -9.422  0.00  0.00     0.098 A 
ATOM      4  N   UNL d   1       9.867   7.976 -10.572  0.00  0.00    -0.191 NA
ATOM      5  C   UNL d   1       9.418   7.225 -11.575  0.00  0.00     0.350 A 
ATOM      6  O   UNL d   1       9.202   7.621 -12.704  0.00  0.00    -0.244 OA
ATOM      7  N   UNL d   1       9.257   5.967 -11.113  0.00  0.00    -0.284 N 
ENDROOT
BRANCH   7   8
ATOM      8  C   UNL d   1       8.748   4.801 -11.860  0.00  0.00     0.094 C 
ATOM      9  C   UNL d   1       7.427   5.077 -12.608  0.00  0.00     0.058 C 
ATOM     10  C   UNL d   1       7.013   3.862 -13.467  0.00  0.00     0.253 C 
ATOM     11  N   UNL d   1       8.079   3.496 -14.402  0.00  0.00     0.141 N 
ATOM     12  C   UNL d   1       9.290   3.112 -13.682  0.00  0.00     0.253 C 
ATOM     13  C   UNL d   1       9.807   4.278 -12.839  0.00  0.00     0.058 C 
BRANCH  11  14
ATOM     14  C   UNL d   1       7.619   2.378 -15.237  0.00  0.00     0.277 C 
BRANCH  14  15
ATOM     15  C   UNL d   1       8.621   1.955 -16.296  0.00  0.00     0.011 A 
ATOM     16  C   UNL d   1       9.122   0.639 -16.272  0.00  0.00    -0.002 A 
ATOM     17  C   UNL d   1      10.068   0.221 -17.227  0.00  0.00    -0.000 A 
ATOM     18  C   UNL d   1      10.518   1.120 -18.213  0.00  0.00    -0.000 A 
ATOM     19  C   UNL d   1      10.024   2.438 -18.245  0.00  0.00    -0.000 A 
ATOM     20  C   UNL d   1       9.075   2.857 -17.285  0.00  0.00    -0.002 A 
ENDBRANCH  14  15
ENDBRANCH  11  14
ENDBRANCH   7   8
BRANCH   3  21
ATOM     21  C   UNL d   1      10.332   7.821  -8.132  0.00  0.00     0.019 A 
ATOM     22  C   UNL d   1      10.959   9.084  -8.084  0.00  0.00     0.002 A 
ATOM     23  C   UNL d   1      11.322   9.663  -6.842  0.00  0.00     0.011 A 
ATOM     24  C   UNL d   1      11.086   8.943  -5.654  0.00  0.00     0.058 A 
ATOM     25  C   UNL d   1      10.460   7.684  -5.702  0.00  0.00     0.011 A 
ATOM     26 CL   UNL d   1      11.508   9.597  -4.118  0.00  0.00    -0.082 Cl
ATOM     27  C   UNL d   1      10.049   7.141  -6.929  0.00  0.00     0.002 A 
ENDBRANCH   3  21
TORSDOF 4
