REMARK  8 active torsions:
REMARK  status: ('A' for Active; 'I' for Inactive)
REMARK    1  A    between atoms: C_5  and  C_6 
REMARK    2  A    between atoms: N_8  and  C_9 
REMARK    3  A    between atoms: C_9  and  C_10 
REMARK    4  A    between atoms: C_10  and  C_11 
REMARK    5  A    between atoms: C_11  and  S_12 
REMARK    6  A    between atoms: S_12  and  C_13 
REMARK    7  A    between atoms: C_16  and  C_17 
REMARK    8  A    between atoms: C_20  and  C_21 
ROOT
ATOM      1  C   UNL d   1       7.772   1.192 -20.420  0.00  0.00     0.193 A 
ATOM      2  N   UNL d   1       8.123   0.199 -19.600  0.00  0.00    -0.122 NA
ATOM      3  N   UNL d   1       9.245   0.634 -18.941  0.00  0.00    -0.128 NA
ATOM      4  C   UNL d   1       9.493   1.856 -19.420  0.00  0.00     0.167 A 
ATOM      5  N   UNL d   1       8.605   2.249 -20.363  0.00  0.00    -0.289 N 
ATOM      6  C   UNL d   1       8.558   3.483 -21.134  0.00  0.00     0.134 C 
ENDROOT
BRANCH   1   7
ATOM      7  S   UNL d   1       6.354   1.160 -21.479  0.00  0.00    -0.075 SA
BRANCH   7   8
ATOM      8  C   UNL d   1       5.434  -0.210 -20.701  0.00  0.00     0.067 C 
BRANCH   8   9
ATOM      9  C   UNL d   1       4.868   0.196 -19.322  0.00  0.00     0.047 C 
BRANCH   9  10
ATOM     10  C   UNL d   1       5.018  -0.911 -18.260  0.00  0.00     0.251 C 
BRANCH  10  11
ATOM     11  N   UNL d   1       5.072  -0.446 -16.873  0.00  0.00     0.143 N 
ATOM     12  C   UNL d   1       6.302   0.302 -16.603  0.00  0.00     0.284 C 
ATOM     13  C   UNL d   1       6.433   0.736 -15.127  0.00  0.00     0.171 C 
ATOM     14  O   UNL d   1       6.346  -0.405 -14.283  0.00  0.00    -0.348 OA
ATOM     15  C   UNL d   1       5.149  -1.145 -14.485  0.00  0.00     0.178 C 
ATOM     16  C   UNL d   1       5.027  -1.580 -15.954  0.00  0.00     0.282 C 
BRANCH  13  17
ATOM     17  C   UNL d   1       7.741   1.474 -14.894  0.00  0.00     0.007 A 
ATOM     18  C   UNL d   1       8.967   0.824 -15.142  0.00  0.00    -0.002 A 
ATOM     19  C   UNL d   1      10.184   1.494 -14.922  0.00  0.00    -0.004 A 
ATOM     20  C   UNL d   1      10.181   2.823 -14.449  0.00  0.00    -0.022 A 
ATOM     21  C   UNL d   1      11.492   3.534 -14.195  0.00  0.00     0.031 C 
ATOM     22  C   UNL d   1       8.959   3.477 -14.209  0.00  0.00    -0.004 A 
ATOM     23  C   UNL d   1       7.739   2.807 -14.436  0.00  0.00    -0.002 A 
ENDBRANCH  13  17
ENDBRANCH  10  11
ENDBRANCH   9  10
ENDBRANCH   8   9
ENDBRANCH   7   8
ENDBRANCH   1   7
BRANCH   4  24
ATOM     24  C   UNL d   1      10.620   2.645 -18.940  0.00  0.00     0.036 A 
ATOM     25  C   UNL d   1      10.443   3.990 -18.557  0.00  0.00     0.003 A 
ATOM     26  C   UNL d   1      11.540   4.744 -18.097  0.00  0.00     0.003 A 
ATOM     27  C   UNL d   1      12.828   4.171 -18.006  0.00  0.00     0.038 A 
ATOM     28  C   UNL d   1      12.994   2.819 -18.384  0.00  0.00     0.003 A 
ATOM     29  C   UNL d   1      11.899   2.059 -18.842  0.00  0.00     0.003 A 
BRANCH  27  30
ATOM     30  C   UNL d   1      13.970   4.966 -17.529  0.00  0.00     0.191 A 
ATOM     31  N   UNL d   1      15.220   4.789 -18.037  0.00  0.00    -0.203 NA
ATOM     32  C   UNL d   1      15.891   5.690 -17.322  0.00  0.00     0.185 A 
ATOM     33  O   UNL d   1      15.126   6.384 -16.441  0.00  0.00    -0.195 OA
ATOM     34  C   UNL d   1      17.348   5.992 -17.399  0.00  0.00     0.083 C 
ATOM     35  N   UNL d   1      13.822   5.889 -16.587  0.00  0.00    -0.105 NA
ENDBRANCH  27  30
ENDBRANCH   4  24
TORSDOF 8
