REMARK  7 active torsions:
REMARK  status: ('A' for Active; 'I' for Inactive)
REMARK    1  A    between atoms: O_2  and  C_3 
REMARK    2  A    between atoms: C_8  and  O_9 
REMARK    3  A    between atoms: C_14  and  C_15 
REMARK    4  A    between atoms: C_15  and  N_16 
REMARK    5  A    between atoms: N_19  and  C_20 
REMARK    6  A    between atoms: C_20  and  C_21 
REMARK    7  A    between atoms: C_22  and  C_24 
ROOT
ATOM      1  C   UNL d   1       7.386   0.571 -17.259  0.00  0.00     0.118 A 
ATOM      2  C   UNL d   1       8.425   1.530 -17.295  0.00  0.00     0.050 A 
ATOM      3  C   UNL d   1       8.607   2.441 -16.233  0.00  0.00     0.097 A 
ATOM      4  C   UNL d   1       7.719   2.381 -15.124  0.00  0.00     0.040 A 
ATOM      5  C   UNL d   1       6.679   1.434 -15.097  0.00  0.00     0.029 A 
ATOM      6  C   UNL d   1       6.485   0.538 -16.177  0.00  0.00     0.116 A 
ATOM      7  C   UNL d   1       7.895   3.362 -14.035  0.00  0.00     0.092 C 
ATOM      8  N   UNL d   1       7.090   3.658 -13.109  0.00  0.00    -0.136 NA
ATOM      9  O   UNL d   1       7.705   4.653 -12.321  0.00  0.00    -0.237 OA
ATOM     10  C   UNL d   1       8.633   5.333 -13.152  0.00  0.00     0.188 C 
ATOM     11  C   UNL d   1       9.111   4.200 -14.061  0.00  0.00     0.105 C 
ATOM     12  C   UNL d   1       9.469   4.565 -15.510  0.00  0.00     0.157 C 
ATOM     13  O   UNL d   1       9.602   3.392 -16.327  0.00  0.00    -0.330 OA
ENDROOT
BRANCH  10  14
ATOM     14  C   UNL d   1       9.758   6.050 -12.394  0.00  0.00     0.283 C 
BRANCH  14  15
ATOM     15  N   UNL d   1       9.364   6.796 -11.194  0.00  0.00     0.144 N 
ATOM     16  C   UNL d   1      10.114   8.037 -11.015  0.00  0.00     0.286 C 
ATOM     17  C   UNL d   1       9.702   8.841  -9.791  0.00  0.00     0.286 C 
ATOM     18  N   UNL d   1       9.861   8.058  -8.568  0.00  0.00     0.146 N 
ATOM     19  C   UNL d   1       9.137   6.774  -8.694  0.00  0.00     0.286 C 
ATOM     20  C   UNL d   1       9.517   5.998  -9.971  0.00  0.00     0.286 C 
BRANCH  18  21
ATOM     21  C   UNL d   1       9.411   8.834  -7.426  0.00  0.00     0.276 C 
BRANCH  21  22
ATOM     22  C   UNL d   1      10.106   8.396  -6.153  0.00  0.00     0.005 C 
ATOM     23  C   UNL d   1      10.916   9.140  -5.363  0.00  0.00    -0.024 C 
ATOM     24  C   UNL d   1      11.302  10.585  -5.668  0.00  0.00     0.031 C 
BRANCH  23  25
ATOM     25  C   UNL d   1      11.553   8.563  -4.154  0.00  0.00    -0.004 A 
ATOM     26  C   UNL d   1      11.879   9.377  -3.041  0.00  0.00    -0.000 A 
ATOM     27  C   UNL d   1      12.429   8.826  -1.879  0.00  0.00    -0.000 A 
ATOM     28  C   UNL d   1      12.651   7.454  -1.799  0.00  0.00    -0.000 A 
ATOM     29  C   UNL d   1      12.324   6.631  -2.877  0.00  0.00    -0.000 A 
ATOM     30  C   UNL d   1      11.792   7.171  -4.053  0.00  0.00    -0.000 A 
ENDBRANCH  23  25
ENDBRANCH  21  22
ENDBRANCH  18  21
ENDBRANCH  14  15
ENDBRANCH  10  14
BRANCH   6  31
ATOM     31  O   UNL d   1       5.415  -0.333 -16.255  0.00  0.00    -0.326 OA
ATOM     32  C   UNL d   1       4.606  -0.526 -15.111  0.00  0.00     0.181 C 
ENDBRANCH   6  31
BRANCH   1  33
ATOM     33  O   UNL d   1       7.265  -0.244 -18.360  0.00  0.00    -0.326 OA
ATOM     34  C   UNL d   1       7.387  -1.637 -18.067  0.00  0.00     0.181 C 
ENDBRANCH   1  33
TORSDOF 7
