REMARK  2 active torsions:
REMARK  status: ('A' for Active; 'I' for Inactive)
REMARK    1  A    between atoms: C_2  and  N_3 
REMARK    2  A    between atoms: C_6  and  C_7 
ROOT
ATOM      1  C   UNL d   1       9.503   5.290 -12.155  0.00  0.00     0.079 C 
ATOM      2  N   UNL d   1      10.475   5.009 -12.917  0.00  0.00    -0.244 NA
ATOM      3  C   UNL d   1      10.478   4.363 -14.155  0.00  0.00     0.100 A 
ATOM      4  C   UNL d   1      11.621   4.619 -14.963  0.00  0.00     0.032 A 
ATOM      5  C   UNL d   1      11.775   3.957 -16.199  0.00  0.00     0.059 A 
ATOM      6 CL   UNL d   1      13.138   4.336 -17.195  0.00  0.00    -0.082 Cl
ATOM      7  C   UNL d   1      10.829   3.021 -16.629  0.00  0.00     0.013 A 
ATOM      8  C   UNL d   1       9.709   2.737 -15.807  0.00  0.00     0.021 A 
ATOM      9  C   UNL d   1       9.537   3.417 -14.585  0.00  0.00     0.099 A 
ATOM     10  N   UNL d   1       8.386   3.089 -13.866  0.00  0.00    -0.244 NA
ATOM     11  C   UNL d   1       7.600   4.058 -13.286  0.00  0.00     0.083 A 
ATOM     12  C   UNL d   1       6.233   4.022 -13.550  0.00  0.00     0.021 A 
ATOM     13  C   UNL d   1       5.454   5.111 -13.184  0.00  0.00     0.031 A 
ATOM     14  C   UNL d   1       5.992   6.237 -12.495  0.00  0.00     0.140 A 
ATOM     15  F   UNL d   1       5.367   7.421 -12.327  0.00  0.00    -0.204 F 
ATOM     16  C   UNL d   1       7.312   6.214 -12.150  0.00  0.00     0.033 A 
ATOM     17  C   UNL d   1       8.132   5.157 -12.547  0.00  0.00     0.037 A 
ENDROOT
BRANCH   1  18
ATOM     18  C   UNL d   1       9.783   5.754 -10.778  0.00  0.00    -0.005 C 
ATOM     19  C   UNL d   1      10.279   6.972 -10.516  0.00  0.00     0.006 C 
ATOM     20  C   UNL d   1      10.700   7.471  -9.161  0.00  0.00     0.276 C 
ATOM     21  N   UNL d   1      10.626   6.430  -8.126  0.00  0.00     0.142 N 
ATOM     22  C   UNL d   1       9.419   5.626  -8.292  0.00  0.00     0.255 C 
ATOM     23  C   UNL d   1       9.415   4.850  -9.617  0.00  0.00     0.063 C 
BRANCH  21  24
ATOM     24  C   UNL d   1      10.788   7.014  -6.804  0.00  0.00     0.251 C 
ATOM     25  C   UNL d   1       9.561   7.818  -6.310  0.00  0.00     0.037 C 
ENDBRANCH  21  24
ENDBRANCH   1  18
TORSDOF 2
