REMARK  12 active torsions:
REMARK  status: ('A' for Active; 'I' for Inactive)
REMARK    1  A    between atoms: C_2  and  C_3 
REMARK    2  A    between atoms: C_3  and  N_4 
REMARK    3  A    between atoms: N_4  and  C_5 
REMARK    4  A    between atoms: N_4  and  C_24 
REMARK    5  A    between atoms: C_5  and  C_6 
REMARK    6  A    between atoms: C_6  and  C_7 
REMARK    7  A    between atoms: C_7  and  C_8 
REMARK    8  A    between atoms: C_8  and  N_9 
REMARK       I    between atoms: N_9  and  C_10 
REMARK    9  A    between atoms: C_10  and  C_12 
REMARK   10  A    between atoms: C_15  and  C_16 
REMARK   11  A    between atoms: C_24  and  C_25 
REMARK   12  A    between atoms: C_27  and  C_28 
ROOT
ATOM      1  C   UNL d   1       8.724   5.021 -14.247  0.00  0.00     0.037 C 
ENDROOT
BRANCH   1   2
ATOM      2  C   UNL d   1      10.160   4.736 -14.715  0.00  0.00     0.250 C 
BRANCH   2   3
ATOM      3  N   UNL d   1      10.167   4.386 -16.130  0.00  0.00     0.137 N 
BRANCH   3   4
ATOM      4  C   UNL d   1      11.446   4.570 -16.812  0.00  0.00     0.250 C 
BRANCH   4   5
ATOM      5  C   UNL d   1      11.887   6.043 -16.859  0.00  0.00     0.035 C 
ATOM      6  C   UNL d   1      13.262   6.167 -17.514  0.00  0.00     0.002 C 
ENDBRANCH   4   5
ENDBRANCH   3   4
BRANCH   3   7
ATOM      7  C   UNL d   1       9.699   3.023 -16.283  0.00  0.00     0.251 C 
BRANCH   7   8
ATOM      8  C   UNL d   1      10.648   1.943 -15.749  0.00  0.00     0.038 A 
ATOM      9  C   UNL d   1      10.482   0.516 -16.241  0.00  0.00     0.024 A 
ATOM     10  C   UNL d   1      10.168   0.855 -14.802  0.00  0.00     0.007 A 
BRANCH   9  11
ATOM     11  C   UNL d   1       9.397   0.170 -17.222  0.00  0.00    -0.020 A 
ATOM     12  C   UNL d   1       8.057   0.576 -16.982  0.00  0.00     0.025 A 
ATOM     13  C   UNL d   1       7.043   0.320 -17.911  0.00  0.00     0.140 A 
ATOM     14  C   UNL d   1       7.333  -0.387 -19.092  0.00  0.00     0.030 A 
ATOM     15  F   UNL d   1       5.791   0.774 -17.671  0.00  0.00    -0.204 F 
ATOM     16  C   UNL d   1       8.656  -0.815 -19.347  0.00  0.00     0.002 A 
ATOM     17  C   UNL d   1       9.685  -0.528 -18.420  0.00  0.00    -0.004 A 
ENDBRANCH   9  11
ENDBRANCH   7   8
ENDBRANCH   3   7
ENDBRANCH   2   3
ENDBRANCH   1   2
BRANCH   1  18
ATOM     18  C   UNL d   1       8.747   5.723 -12.908  0.00  0.00     0.029 C 
BRANCH  18  19
ATOM     19  C   UNL d   1       9.024   4.776 -11.725  0.00  0.00     0.129 C 
BRANCH  19  20
ATOM     20  N   UNL d   1       9.203   5.459 -10.455  0.00  0.00    -0.234 NA
ATOM     21  C   UNL d   1       9.689   6.700 -10.252  0.00  0.00     0.275 C 
ATOM     22  O   UNL d   1       9.850   7.557 -11.118  0.00  0.00    -0.266 OA
BRANCH  21  23
ATOM     23  C   UNL d   1      10.148   6.995  -8.865  0.00  0.00     0.058 A 
ATOM     24  C   UNL d   1       9.479   6.473  -7.735  0.00  0.00     0.005 A 
ATOM     25  C   UNL d   1       9.900   6.804  -6.436  0.00  0.00     0.002 A 
ATOM     26  C   UNL d   1      11.004   7.673  -6.238  0.00  0.00     0.018 A 
ATOM     27  C   UNL d   1      11.671   8.206  -7.364  0.00  0.00     0.002 A 
ATOM     28  C   UNL d   1      11.252   7.862  -8.656  0.00  0.00     0.005 A 
BRANCH  26  29
ATOM     29  C   UNL d   1      11.457   8.014  -4.888  0.00  0.00     0.081 A 
ATOM     30  N   UNL d   1      11.854   6.969  -4.126  0.00  0.00    -0.244 NA
ATOM     31  C   UNL d   1      12.260   7.217  -2.868  0.00  0.00     0.099 A 
ATOM     32  C   UNL d   1      12.278   8.506  -2.312  0.00  0.00     0.021 A 
ATOM     33  C   UNL d   1      11.866   9.591  -3.104  0.00  0.00     0.003 A 
ATOM     34  C   UNL d   1      11.443   9.346  -4.420  0.00  0.00     0.019 A 
ENDBRANCH  26  29
ENDBRANCH  21  23
ENDBRANCH  19  20
ENDBRANCH  18  19
ENDBRANCH   1  18
TORSDOF 12
