REMARK  6 active torsions:
REMARK  status: ('A' for Active; 'I' for Inactive)
REMARK    1  A    between atoms: C_2  and  O_5 
REMARK    2  A    between atoms: O_5  and  C_6 
REMARK       I    between atoms: C_6  and  N_8 
REMARK    3  A    between atoms: N_8  and  C_9 
REMARK    4  A    between atoms: C_12  and  C_13 
REMARK    5  A    between atoms: C_13  and  C_14 
REMARK    6  A    between atoms: C_14  and  N_15 
ROOT
ATOM      1  C   UNL d   1       7.971   5.247 -12.940  0.00  0.00     0.109 C 
ATOM      2  C   UNL d   1       8.156   4.388 -11.691  0.00  0.00     0.025 C 
ATOM      3  C   UNL d   1       9.278   4.896 -10.787  0.00  0.00     0.002 C 
ATOM      4  C   UNL d   1       9.069   6.352 -10.382  0.00  0.00     0.002 C 
ATOM      5  C   UNL d   1       8.884   7.231 -11.634  0.00  0.00     0.002 C 
ATOM      6  C   UNL d   1       7.725   6.704 -12.514  0.00  0.00     0.025 C 
ENDROOT
BRANCH   4   7
ATOM      7  C   UNL d   1      10.192   6.896  -9.495  0.00  0.00     0.035 C 
BRANCH   7   8
ATOM      8  C   UNL d   1      10.182   6.293  -8.072  0.00  0.00     0.251 C 
BRANCH   8   9
ATOM      9  N   UNL d   1      10.771   7.199  -7.088  0.00  0.00     0.142 N 
ATOM     10  C   UNL d   1      10.979   6.470  -5.832  0.00  0.00     0.276 C 
ATOM     11  C   UNL d   1      11.468   7.336  -4.678  0.00  0.00     0.007 A 
ATOM     12  C   UNL d   1      11.286   8.726  -4.727  0.00  0.00    -0.022 A 
ATOM     13  C   UNL d   1      12.045   6.754  -3.532  0.00  0.00    -0.003 A 
ATOM     14  C   UNL d   1      10.637   9.340  -5.934  0.00  0.00     0.061 C 
ATOM     15  C   UNL d   1      11.664   9.540  -3.638  0.00  0.00    -0.004 A 
ATOM     16  C   UNL d   1       9.875   8.324  -6.798  0.00  0.00     0.255 C 
ATOM     17  C   UNL d   1      12.260   8.953  -2.502  0.00  0.00    -0.000 A 
ATOM     18  C   UNL d   1      12.447   7.562  -2.454  0.00  0.00    -0.000 A 
ENDBRANCH   8   9
ENDBRANCH   7   8
ENDBRANCH   4   7
BRANCH   1  19
ATOM     19  N   UNL d   1       9.160   5.193 -13.779  0.00  0.00    -0.214 NA
ATOM     20  C   UNL d   1       9.573   4.154 -14.599  0.00  0.00     0.383 C 
ATOM     21  O   UNL d   1      10.567   4.238 -15.318  0.00  0.00    -0.236 OA
BRANCH  20  22
ATOM     22  O   UNL d   1       8.738   3.079 -14.497  0.00  0.00    -0.289 OA
BRANCH  22  23
ATOM     23  C   UNL d   1       8.859   1.910 -15.323  0.00  0.00     0.103 C 
ATOM     24  C   UNL d   1       7.725   0.948 -14.885  0.00  0.00     0.030 C 
ATOM     25  C   UNL d   1      10.215   1.192 -15.095  0.00  0.00     0.030 C 
ATOM     26  C   UNL d   1       8.629   2.268 -16.807  0.00  0.00     0.030 C 
ENDBRANCH  22  23
ENDBRANCH  20  22
ENDBRANCH   1  19
TORSDOF 6
