REMARK  7 active torsions:
REMARK  status: ('A' for Active; 'I' for Inactive)
REMARK    1  A    between atoms: C_2  and  C_3 
REMARK    2  A    between atoms: C_7  and  O_8 
REMARK    3  A    between atoms: C_10  and  C_11 
REMARK       I    between atoms: C_11  and  N_13 
REMARK    4  A    between atoms: N_13  and  C_14 
REMARK    5  A    between atoms: C_14  and  C_15 
REMARK    6  A    between atoms: N_19  and  C_20 
REMARK    7  A    between atoms: C_20  and  C_21 
ROOT
ATOM      1  C   UNL d   1       9.289   5.181 -11.284  0.00  0.00     0.279 C 
ATOM      2  O   UNL d   1      10.152   5.932 -11.675  0.00  0.00    -0.265 OA
ATOM      3  N   UNL d   1       8.921   5.076  -9.991  0.00  0.00    -0.232 NA
ENDROOT
BRANCH   1   4
ATOM      4  C   UNL d   1       8.568   4.373 -12.289  0.00  0.00     0.106 A 
ATOM      5  C   UNL d   1       9.274   3.631 -13.268  0.00  0.00     0.111 A 
ATOM      6  C   UNL d   1       8.581   2.893 -14.260  0.00  0.00     0.080 A 
ATOM      7  C   UNL d   1       7.171   2.942 -14.268  0.00  0.00     0.011 A 
ATOM      8 CL   UNL d   1       9.399   1.848 -15.351  0.00  0.00    -0.080 Cl
ATOM      9  C   UNL d   1       6.496   3.744 -13.335  0.00  0.00     0.004 A 
ATOM     10  C   UNL d   1       7.171   4.504 -12.374  0.00  0.00     0.134 A 
ATOM     11  O   UNL d   1       6.502   5.463 -11.675  0.00  0.00    -0.190 OA
BRANCH   5  12
ATOM     12  O   UNL d   1      10.660   3.578 -13.251  0.00  0.00    -0.327 OA
ATOM     13  C   UNL d   1      11.333   4.339 -14.231  0.00  0.00     0.181 C 
ENDBRANCH   5  12
BRANCH   9  14
ATOM     14  C   UNL d   1       5.017   3.842 -13.397  0.00  0.00     0.029 C 
ATOM     15  C   UNL d   1       4.423   2.540 -12.829  0.00  0.00     0.005 C 
ENDBRANCH   9  14
ENDBRANCH   1   4
BRANCH   3  16
ATOM     16  C   UNL d   1       9.636   5.652  -8.859  0.00  0.00     0.162 C 
BRANCH  16  17
ATOM     17  C   UNL d   1       9.456   7.171  -8.645  0.00  0.00     0.244 C 
ATOM     18  N   UNL d   1      10.326   7.696  -7.600  0.00  0.00     0.141 N 
ATOM     19  C   UNL d   1      10.316   9.143  -7.831  0.00  0.00     0.251 C 
ATOM     20  C   UNL d   1      10.475   9.282  -9.308  0.00  0.00     0.037 C 
ATOM     21  C   UNL d   1       9.967   7.993  -9.836  0.00  0.00     0.037 C 
BRANCH  18  22
ATOM     22  C   UNL d   1       9.847   7.391  -6.265  0.00  0.00     0.277 C 
BRANCH  22  23
ATOM     23  C   UNL d   1      10.831   7.827  -5.200  0.00  0.00     0.011 A 
ATOM     24  C   UNL d   1      10.964   9.188  -4.837  0.00  0.00    -0.002 A 
ATOM     25  C   UNL d   1      11.777   9.560  -3.757  0.00  0.00    -0.000 A 
ATOM     26  C   UNL d   1      12.488   8.588  -3.041  0.00  0.00    -0.000 A 
ATOM     27  C   UNL d   1      12.349   7.231  -3.381  0.00  0.00    -0.000 A 
ATOM     28  C   UNL d   1      11.525   6.851  -4.457  0.00  0.00    -0.002 A 
ENDBRANCH  22  23
ENDBRANCH  18  22
ENDBRANCH  16  17
ENDBRANCH   3  16
TORSDOF 7
