REMARK  8 active torsions:
REMARK  status: ('A' for Active; 'I' for Inactive)
REMARK    1  A    between atoms: C_2  and  C_3 
REMARK    2  A    between atoms: C_3  and  N_4 
REMARK    3  A    between atoms: N_4  and  C_5 
REMARK    4  A    between atoms: N_4  and  C_8 
REMARK    5  A    between atoms: C_5  and  C_6 
REMARK    6  A    between atoms: C_16  and  C_17 
REMARK    7  A    between atoms: C_17  and  C_19 
REMARK    8  A    between atoms: C_22  and  O_23 
ROOT
ATOM      1  C   UNL d   1       8.681   1.188 -15.364  0.00  0.00     0.253 C 
ATOM      2  C   UNL d   1       9.507   2.506 -15.514  0.00  0.00     0.182 C 
ATOM      3  O   UNL d   1       9.538   3.233 -14.307  0.00  0.00    -0.329 OA
ATOM      4  C   UNL d   1       8.297   3.531 -13.769  0.00  0.00     0.093 A 
ATOM      5  C   UNL d   1       7.159   2.708 -14.018  0.00  0.00     0.002 A 
ATOM      6  C   UNL d   1       5.935   3.009 -13.383  0.00  0.00    -0.002 A 
ATOM      7  C   UNL d   1       5.834   4.083 -12.490  0.00  0.00    -0.000 A 
ATOM      8  C   UNL d   1       6.950   4.887 -12.235  0.00  0.00     0.005 A 
ATOM      9  C   UNL d   1       8.198   4.623 -12.875  0.00  0.00     0.061 A 
ATOM     10  C   UNL d   1       7.210   1.490 -14.913  0.00  0.00     0.064 C 
ENDROOT
BRANCH   9  11
ATOM     11  C   UNL d   1       9.369   5.499 -12.568  0.00  0.00     0.197 C 
ATOM     12  O   UNL d   1      10.236   5.738 -13.409  0.00  0.00    -0.286 OA
BRANCH  11  13
ATOM     13  C   UNL d   1       9.475   6.061 -11.213  0.00  0.00     0.039 A 
ATOM     14  C   UNL d   1       9.894   7.392 -11.021  0.00  0.00     0.005 A 
ATOM     15  C   UNL d   1       9.933   7.944  -9.734  0.00  0.00     0.024 A 
ATOM     16  C   UNL d   1       9.582   7.166  -8.608  0.00  0.00     0.094 A 
ATOM     17  C   UNL d   1       9.180   5.808  -8.822  0.00  0.00     0.024 A 
ATOM     18  C   UNL d   1       9.128   5.277 -10.100  0.00  0.00     0.005 A 
BRANCH  16  19
ATOM     19  O   UNL d   1       9.662   7.737  -7.360  0.00  0.00    -0.328 OA
ATOM     20  C   UNL d   1       9.421   6.877  -6.257  0.00  0.00     0.181 C 
ENDBRANCH  16  19
ENDBRANCH  11  13
ENDBRANCH   9  11
BRANCH   1  21
ATOM     21  N   UNL d   1       8.731   0.393 -16.617  0.00  0.00     0.138 N 
BRANCH  21  22
ATOM     22  C   UNL d   1       8.345   1.133 -17.850  0.00  0.00     0.250 C 
BRANCH  22  23
ATOM     23  C   UNL d   1       6.804   1.229 -17.957  0.00  0.00     0.035 C 
ATOM     24  C   UNL d   1       6.303   1.164 -19.399  0.00  0.00     0.002 C 
ENDBRANCH  22  23
ENDBRANCH  21  22
BRANCH  21  25
ATOM     25  C   UNL d   1       9.990  -0.375 -16.710  0.00  0.00     0.250 C 
BRANCH  25  26
ATOM     26  C   UNL d   1      10.243  -0.997 -18.104  0.00  0.00     0.035 C 
ATOM     27  C   UNL d   1       9.054  -1.810 -18.692  0.00  0.00     0.002 C 
ENDBRANCH  25  26
ENDBRANCH  21  25
ENDBRANCH   1  21
TORSDOF 8
