REMARK  7 active torsions:
REMARK  status: ('A' for Active; 'I' for Inactive)
REMARK    1  A    between atoms: C_2  and  C_3 
REMARK       I    between atoms: C_2  and  N_8 
REMARK    2  A    between atoms: C_3  and  C_4 
REMARK    3  A    between atoms: N_8  and  C_9 
REMARK    4  A    between atoms: C_12  and  C_13 
REMARK    5  A    between atoms: C_13  and  C_14 
REMARK    6  A    between atoms: C_14  and  N_15 
REMARK    7  A    between atoms: C_18  and  C_19 
ROOT
ATOM      1  C   UNL d   1       9.051   5.149 -12.052  0.00  0.00     0.250 C 
ENDROOT
BRANCH   1   2
ATOM      2  C   UNL d   1       9.123   4.849 -10.557  0.00  0.00     0.035 C 
BRANCH   2   3
ATOM      3  C   UNL d   1       9.229   6.136  -9.730  0.00  0.00     0.002 C 
ATOM      4  C   UNL d   1       9.305   5.831  -8.229  0.00  0.00     0.002 C 
ATOM      5  C   UNL d   1       9.404   7.120  -7.414  0.00  0.00     0.024 C 
ATOM      6  C   UNL d   1      10.611   7.976  -7.874  0.00  0.00     0.106 C 
ATOM      7  C   UNL d   1      10.496   8.330  -9.347  0.00  0.00     0.024 C 
ATOM      8  C   UNL d   1      10.394   7.048 -10.171  0.00  0.00     0.002 C 
BRANCH   6   9
ATOM      9  N   UNL d   1      10.720   9.199  -7.103  0.00  0.00    -0.240 NA
ATOM     10  C   UNL d   1      11.067   9.282  -5.827  0.00  0.00     0.252 C 
ATOM     11  O   UNL d   1      11.045  10.376  -5.268  0.00  0.00    -0.271 OA
BRANCH  10  12
ATOM     12  C   UNL d   1      11.442   8.002  -5.061  0.00  0.00     0.095 C 
BRANCH  12  13
ATOM     13  C   UNL d   1      12.332   8.195  -3.860  0.00  0.00     0.069 C 
ATOM     14  C   UNL d   1      11.868   9.071  -2.720  0.00  0.00     0.145 C 
ATOM     15  O   UNL d   1      12.266   8.093  -1.738  0.00  0.00    -0.354 OA
ATOM     16  C   UNL d   1      12.342   7.112  -2.790  0.00  0.00     0.145 C 
ENDBRANCH  12  13
ENDBRANCH  10  12
ENDBRANCH   6   9
ENDBRANCH   2   3
ENDBRANCH   1   2
BRANCH   1  17
ATOM     17  N   UNL d   1       8.505   4.019 -12.766  0.00  0.00     0.137 N 
ATOM     18  C   UNL d   1       7.389   4.460 -13.589  0.00  0.00     0.251 C 
ATOM     19  C   UNL d   1       6.713   3.257 -14.251  0.00  0.00     0.040 C 
ATOM     20  C   UNL d   1       7.708   2.458 -15.129  0.00  0.00     0.028 C 
ATOM     21  C   UNL d   1       8.950   2.109 -14.312  0.00  0.00     0.040 C 
ATOM     22  C   UNL d   1       9.520   3.358 -13.601  0.00  0.00     0.251 C 
BRANCH  20  23
ATOM     23  C   UNL d   1       7.055   1.243 -15.747  0.00  0.00     0.002 A 
ATOM     24  C   UNL d   1       7.115   0.985 -17.126  0.00  0.00     0.115 A 
ATOM     25  C   UNL d   1       6.528  -0.132 -17.680  0.00  0.00     0.119 A 
ATOM     26  O   UNL d   1       7.712   1.717 -18.108  0.00  0.00    -0.300 OA
ATOM     27  C   UNL d   1       5.822  -1.062 -16.897  0.00  0.00     0.026 A 
ATOM     28  O   UNL d   1       6.755  -0.152 -19.018  0.00  0.00    -0.300 OA
ATOM     29  C   UNL d   1       5.734  -0.818 -15.508  0.00  0.00     0.002 A 
ATOM     30  C   UNL d   1       6.354   0.306 -14.933  0.00  0.00    -0.002 A 
ATOM     31  C   UNL d   1       7.498   1.004 -19.300  0.00  0.00     0.304 A 
ENDBRANCH  20  23
ENDBRANCH   1  17
TORSDOF 7
