REMARK  7 active torsions:
REMARK  status: ('A' for Active; 'I' for Inactive)
REMARK    1  A    between atoms: C_5  and  O_6 
REMARK    2  A    between atoms: O_6  and  C_7 
REMARK    3  A    between atoms: C_7  and  C_8 
REMARK    4  A    between atoms: C_8  and  N_9 
REMARK    5  A    between atoms: N_9  and  C_10 
REMARK    6  A    between atoms: C_10  and  C_11 
REMARK       I    between atoms: N_15  and  C_16 
REMARK    7  A    between atoms: C_16  and  C_18 
ROOT
ATOM      1  C   UNL d   1       8.827   5.772 -11.906  0.00  0.00     0.172 C 
ATOM      2  F   UNL d   1       8.456   6.940 -12.439  0.00  0.00    -0.238 F 
ATOM      3  C   UNL d   1       9.533   4.968 -13.010  0.00  0.00     0.059 C 
ATOM      4  C   UNL d   1       8.563   4.620 -14.153  0.00  0.00     0.107 C 
ATOM      5  N   UNL d   1       7.399   3.877 -13.622  0.00  0.00    -0.317 N 
ATOM      6  C   UNL d   1       6.976   2.654 -14.039  0.00  0.00     0.257 C 
ATOM      7  O   UNL d   1       5.880   2.178 -13.728  0.00  0.00    -0.267 OA
ATOM      8  C   UNL d   1       6.648   4.642 -12.617  0.00  0.00     0.107 C 
ATOM      9  C   UNL d   1       7.565   5.023 -11.440  0.00  0.00     0.059 C 
ENDROOT
BRANCH   1  10
ATOM     10  C   UNL d   1       9.796   6.067 -10.754  0.00  0.00     0.323 C 
BRANCH  10  11
ATOM     11  N   UNL d   1       9.127   6.790  -9.690  0.00  0.00     0.345 N 
BRANCH  11  12
ATOM     12  C   UNL d   1      10.070   7.601  -8.955  0.00  0.00     0.323 C 
BRANCH  12  13
ATOM     13  C   UNL d   1       9.292   8.558  -8.026  0.00  0.00     0.190 C 
BRANCH  13  14
ATOM     14  O   UNL d   1      10.190   9.336  -7.231  0.00  0.00    -0.298 OA
BRANCH  14  15
ATOM     15  C   UNL d   1      10.768   8.751  -6.159  0.00  0.00     0.270 A 
ATOM     16  N   UNL d   1      10.580   7.442  -5.973  0.00  0.00    -0.204 NA
ATOM     17  C   UNL d   1      11.128   6.889  -4.884  0.00  0.00     0.100 A 
ATOM     18  C   UNL d   1      11.861   7.657  -3.965  0.00  0.00     0.017 A 
ATOM     19  C   UNL d   1      12.449   7.025  -2.731  0.00  0.00     0.034 C 
ATOM     20  C   UNL d   1      12.023   9.025  -4.266  0.00  0.00     0.100 A 
ATOM     21  N   UNL d   1      11.472   9.567  -5.370  0.00  0.00    -0.204 NA
ENDBRANCH  14  15
ENDBRANCH  13  14
ENDBRANCH  12  13
ENDBRANCH  11  12
ENDBRANCH  10  11
ENDBRANCH   1  10
BRANCH   6  22
ATOM     22  C   UNL d   1       7.900   1.838 -14.898  0.00  0.00     0.057 A 
ATOM     23  C   UNL d   1       7.430   1.250 -16.099  0.00  0.00     0.018 A 
ATOM     24  C   UNL d   1       8.306   0.500 -16.908  0.00  0.00     0.085 A 
ATOM     25  C   UNL d   1       9.648   0.308 -16.520  0.00  0.00     0.151 A 
ATOM     26 CL   UNL d   1       7.729  -0.186 -18.385  0.00  0.00    -0.080 Cl
ATOM     27  C   UNL d   1      10.115   0.875 -15.318  0.00  0.00     0.031 A 
ATOM     28  F   UNL d   1      10.503  -0.389 -17.302  0.00  0.00    -0.203 F 
ATOM     29  C   UNL d   1       9.238   1.610 -14.505  0.00  0.00     0.007 A 
ENDBRANCH   6  22
TORSDOF 7
