REMARK  5 active torsions:
REMARK  status: ('A' for Active; 'I' for Inactive)
REMARK    1  A    between atoms: O_2  and  C_3 
REMARK    2  A    between atoms: C_9  and  C_10 
REMARK    3  A    between atoms: C_14  and  C_15 
REMARK    4  A    between atoms: C_15  and  N_16 
REMARK    5  A    between atoms: N_19  and  C_20 
ROOT
ATOM      1  C   UNL d   1       8.667   4.408 -13.105  0.00  0.00     0.155 C 
ATOM      2  N   UNL d   1       9.339   5.448 -13.497  0.00  0.00    -0.253 NA
ATOM      3  C   UNL d   1       9.352   6.635 -12.655  0.00  0.00     0.129 C 
ATOM      4  C   UNL d   1       8.167   6.771 -11.728  0.00  0.00     0.053 C 
ATOM      5  C   UNL d   1       8.035   5.470 -10.931  0.00  0.00     0.140 C 
ATOM      6  N   UNL d   1       7.941   4.404 -11.908  0.00  0.00    -0.253 NA
ENDROOT
BRANCH   5   7
ATOM      7  C   UNL d   1       9.199   5.200  -9.948  0.00  0.00     0.275 C 
BRANCH   7   8
ATOM      8  N   UNL d   1       9.431   6.381  -9.109  0.00  0.00     0.143 N 
ATOM      9  C   UNL d   1       8.713   6.251  -7.838  0.00  0.00     0.274 C 
ATOM     10  C   UNL d   1       8.928   7.537  -6.992  0.00  0.00     0.137 C 
ATOM     11  N   UNL d   1      10.355   7.764  -6.785  0.00  0.00    -0.344 N 
ATOM     12  C   UNL d   1      11.171   7.772  -7.976  0.00  0.00     0.137 C 
ATOM     13  C   UNL d   1      10.842   6.510  -8.790  0.00  0.00     0.274 C 
BRANCH  11  14
ATOM     14  C   UNL d   1      10.946   7.936  -5.521  0.00  0.00     0.056 A 
ATOM     15  C   UNL d   1      11.093   9.233  -5.003  0.00  0.00     0.017 A 
ATOM     16  C   UNL d   1      11.686   9.409  -3.726  0.00  0.00     0.002 A 
ATOM     17  C   UNL d   1      12.125   8.300  -2.990  0.00  0.00     0.000 A 
ATOM     18  C   UNL d   1      11.978   7.005  -3.506  0.00  0.00     0.002 A 
ATOM     19  C   UNL d   1      11.392   6.824  -4.787  0.00  0.00     0.017 A 
ENDBRANCH  11  14
ENDBRANCH   7   8
ENDBRANCH   5   7
BRANCH   1  20
ATOM     20  C   UNL d   1       8.648   3.190 -13.964  0.00  0.00     0.058 A 
ATOM     21  C   UNL d   1       9.823   2.708 -14.594  0.00  0.00     0.097 A 
ATOM     22  C   UNL d   1       9.739   1.521 -15.364  0.00  0.00     0.025 A 
ATOM     23  C   UNL d   1       8.519   0.826 -15.479  0.00  0.00     0.009 A 
ATOM     24  C   UNL d   1       7.364   1.309 -14.842  0.00  0.00     0.035 A 
ATOM     25 BR   UNL d   1       5.759   0.283 -14.911  0.00  0.00    -0.049 Br
ATOM     26  C   UNL d   1       7.421   2.507 -14.110  0.00  0.00     0.012 A 
BRANCH  21  27
ATOM     27  O   UNL d   1      11.010   3.387 -14.397  0.00  0.00    -0.328 OA
ATOM     28  C   UNL d   1      12.079   3.156 -15.299  0.00  0.00     0.181 C 
ENDBRANCH  21  27
ENDBRANCH   1  20
TORSDOF 5
