REMARK  7 active torsions:
REMARK  status: ('A' for Active; 'I' for Inactive)
REMARK    1  A    between atoms: N_3  and  C_4 
REMARK    2  A    between atoms: C_4  and  C_5 
REMARK    3  A    between atoms: C_5  and  N_6 
REMARK    4  A    between atoms: C_10  and  O_11 
REMARK    5  A    between atoms: O_11  and  C_12 
REMARK    6  A    between atoms: C_12  and  C_13 
REMARK    7  A    between atoms: N_22  and  C_23 
ROOT
ATOM      1  C   UNL d   1       9.114   1.786 -15.399  0.00  0.00     0.274 C 
ENDROOT
BRANCH   1   2
ATOM      2  C   UNL d   1       9.257   3.307 -15.323  0.00  0.00     0.141 C 
BRANCH   2   3
ATOM      3  N   UNL d   1       8.742   3.804 -14.049  0.00  0.00    -0.298 N 
ATOM      4  C   UNL d   1       9.430   4.499 -13.159  0.00  0.00     0.328 A 
ATOM      5  O   UNL d   1      10.631   4.807 -13.246  0.00  0.00    -0.247 OA
ATOM      6  N   UNL d   1       8.616   4.809 -12.132  0.00  0.00    -0.280 N 
ATOM      7  C   UNL d   1       7.263   4.307 -12.335  0.00  0.00     0.135 A 
ATOM      8  C   UNL d   1       7.335   3.643 -13.704  0.00  0.00     0.131 A 
BRANCH   6   9
ATOM      9  C   UNL d   1       9.003   5.471 -10.942  0.00  0.00     0.065 A 
ATOM     10  C   UNL d   1       9.728   6.681 -11.013  0.00  0.00     0.029 A 
ATOM     11  C   UNL d   1      10.138   7.336  -9.828  0.00  0.00     0.059 A 
ATOM     12  C   UNL d   1       9.803   6.804  -8.579  0.00  0.00     0.011 A 
ATOM     13 CL   UNL d   1      11.066   8.788  -9.933  0.00  0.00    -0.082 Cl
ATOM     14  C   UNL d   1       9.060   5.618  -8.502  0.00  0.00     0.002 A 
ATOM     15  C   UNL d   1       8.660   4.949  -9.686  0.00  0.00     0.017 A 
ENDBRANCH   6   9
ENDBRANCH   2   3
ENDBRANCH   1   2
BRANCH   1  16
ATOM     16  N   UNL d   1       9.751   1.175 -16.558  0.00  0.00     0.142 N 
ATOM     17  C   UNL d   1       9.164   1.643 -17.808  0.00  0.00     0.280 C 
ATOM     18  C   UNL d   1       9.912   1.085 -19.042  0.00  0.00     0.149 C 
ATOM     19  C   UNL d   1       9.821  -0.441 -19.052  0.00  0.00     0.034 C 
ATOM     20  C   UNL d   1      10.359  -0.952 -17.698  0.00  0.00     0.038 C 
ATOM     21  C   UNL d   1       9.641  -0.277 -16.509  0.00  0.00     0.251 C 
BRANCH  18  22
ATOM     22  O   UNL d   1       9.356   1.673 -20.216  0.00  0.00    -0.350 OA
BRANCH  22  23
ATOM     23  C   UNL d   1      10.057   2.806 -20.742  0.00  0.00     0.169 C 
BRANCH  23  24
ATOM     24  C   UNL d   1      10.166   3.988 -19.778  0.00  0.00     0.007 A 
ATOM     25  C   UNL d   1      11.189   4.017 -18.785  0.00  0.00    -0.002 A 
ATOM     26  C   UNL d   1      11.184   5.003 -17.800  0.00  0.00    -0.000 A 
ATOM     27  C   UNL d   1      10.222   6.034 -17.837  0.00  0.00    -0.000 A 
ATOM     28  C   UNL d   1       9.246   6.057 -18.849  0.00  0.00    -0.000 A 
ATOM     29  C   UNL d   1       9.209   5.022 -19.807  0.00  0.00    -0.002 A 
ENDBRANCH  23  24
ENDBRANCH  22  23
ENDBRANCH  18  22
ENDBRANCH   1  16
TORSDOF 7
