REMARK  7 active torsions:
REMARK  status: ('A' for Active; 'I' for Inactive)
REMARK    1  A    between atoms: C_2  and  C_25 
REMARK    2  A    between atoms: C_3  and  C_4 
REMARK    3  A    between atoms: C_4  and  N_5 
REMARK    4  A    between atoms: N_8  and  C_9 
REMARK    5  A    between atoms: C_11  and  C_12 
REMARK    6  A    between atoms: C_17  and  C_18 
REMARK    7  A    between atoms: C_25  and  N_26 
ROOT
ATOM      1  N   UNL d   1      12.758   4.886 -16.570  0.00  0.00     0.145 N 
ATOM      2  C   UNL d   1      12.886   4.720 -15.123  0.00  0.00     0.275 C 
ATOM      3  C   UNL d   1      11.887   3.690 -14.565  0.00  0.00     0.138 C 
ATOM      4  N   UNL d   1      10.542   4.021 -14.981  0.00  0.00    -0.330 N 
ATOM      5  C   UNL d   1      10.352   4.291 -16.390  0.00  0.00     0.138 C 
ATOM      6  C   UNL d   1      11.384   5.329 -16.862  0.00  0.00     0.275 C 
ENDROOT
BRANCH   1   7
ATOM      7  C   UNL d   1      13.812   5.816 -17.033  0.00  0.00     0.276 C 
BRANCH   7   8
ATOM      8  C   UNL d   1      13.566   6.286 -18.453  0.00  0.00     0.002 C 
ATOM      9  C   UNL d   1      13.795   7.504 -18.995  0.00  0.00    -0.024 C 
ATOM     10  C   UNL d   1      14.507   8.626 -18.253  0.00  0.00     0.028 C 
BRANCH   9  11
ATOM     11  C   UNL d   1      13.378   7.892 -20.422  0.00  0.00     0.131 C 
BRANCH  11  12
ATOM     12  N   UNL d   1      12.775   6.795 -21.195  0.00  0.00    -0.296 N 
ATOM     13  C   UNL d   1      11.342   6.559 -21.139  0.00  0.00     0.059 A 
ATOM     14  C   UNL d   1      10.735   5.638 -22.041  0.00  0.00    -0.006 A 
ATOM     15  C   UNL d   1      10.509   7.223 -20.210  0.00  0.00     0.017 A 
ATOM     16  C   UNL d   1      11.595   4.897 -23.034  0.00  0.00     0.038 C 
ATOM     17  C   UNL d   1       9.343   5.429 -22.024  0.00  0.00    -0.003 A 
ATOM     18  C   UNL d   1      13.004   4.652 -22.471  0.00  0.00     0.093 C 
ATOM     19  C   UNL d   1      13.610   5.896 -21.821  0.00  0.00     0.238 C 
ATOM     20  O   UNL d   1      14.846   6.019 -21.842  0.00  0.00    -0.272 OA
ATOM     21  C   UNL d   1       8.527   6.129 -21.108  0.00  0.00    -0.000 A 
ATOM     22  C   UNL d   1       9.120   7.020 -20.198  0.00  0.00     0.002 A 
ENDBRANCH  11  12
ENDBRANCH   9  11
ENDBRANCH   7   8
ENDBRANCH   1   7
BRANCH   4  23
ATOM     23  C   UNL d   1       9.507   4.196 -14.060  0.00  0.00     0.143 A 
ATOM     24  N   UNL d   1       9.735   5.002 -13.003  0.00  0.00    -0.214 NA
ATOM     25  C   UNL d   1       8.719   5.169 -12.142  0.00  0.00     0.140 A 
ATOM     26  N   UNL d   1       7.508   4.626 -12.274  0.00  0.00    -0.227 NA
ATOM     27  C   UNL d   1       7.286   3.763 -13.280  0.00  0.00     0.157 A 
ATOM     28  C   UNL d   1       8.286   3.539 -14.258  0.00  0.00     0.060 A 
BRANCH  25  29
ATOM     29  C   UNL d   1       8.889   6.231 -11.052  0.00  0.00     0.052 C 
ATOM     30  C   UNL d   1      10.249   6.199 -10.379  0.00  0.00     0.008 C 
ATOM     31  C   UNL d   1       7.962   5.920  -9.873  0.00  0.00     0.008 C 
ATOM     32  C   UNL d   1       8.677   7.629 -11.665  0.00  0.00     0.008 C 
ENDBRANCH  25  29
BRANCH  27  33
ATOM     33  C   UNL d   1       5.920   3.105 -13.327  0.00  0.00     0.435 C 
ATOM     34  F   UNL d   1       5.053   4.058 -13.644  0.00  0.00    -0.165 F 
ATOM     35  F   UNL d   1       5.884   2.132 -14.238  0.00  0.00    -0.165 F 
ATOM     36  F   UNL d   1       5.538   2.575 -12.162  0.00  0.00    -0.165 F 
ENDBRANCH  27  33
ENDBRANCH   4  23
TORSDOF 7
