REMARK  7 active torsions:
REMARK  status: ('A' for Active; 'I' for Inactive)
REMARK    1  A    between atoms: C_7  and  O_8 
REMARK    2  A    between atoms: O_8  and  C_9 
REMARK    3  A    between atoms: C_9  and  C_10 
REMARK    4  A    between atoms: C_10  and  C_11 
REMARK    5  A    between atoms: C_11  and  C_12 
REMARK    6  A    between atoms: C_12  and  N_13 
REMARK    7  A    between atoms: N_16  and  C_17 
ROOT
ATOM      1  N   UNL d   1       8.279   3.987 -12.472  0.00  0.00     0.141 N 
ATOM      2  C   UNL d   1       8.050   5.392 -12.834  0.00  0.00     0.274 C 
ATOM      3  C   UNL d   1       7.843   6.151 -11.525  0.00  0.00     0.137 C 
ATOM      4  N   UNL d   1       9.005   5.945 -10.679  0.00  0.00    -0.344 N 
ATOM      5  C   UNL d   1       9.403   4.582 -10.420  0.00  0.00     0.137 C 
ATOM      6  C   UNL d   1       9.578   3.890 -11.759  0.00  0.00     0.274 C 
ENDROOT
BRANCH   1   7
ATOM      7  C   UNL d   1       8.403   3.255 -13.691  0.00  0.00     0.251 C 
BRANCH   7   8
ATOM      8  C   UNL d   1       7.140   2.692 -14.354  0.00  0.00     0.038 C 
BRANCH   8   9
ATOM      9  C   UNL d   1       7.433   1.778 -15.586  0.00  0.00     0.035 C 
BRANCH   9  10
ATOM     10  C   UNL d   1       8.316   0.510 -15.327  0.00  0.00     0.149 C 
BRANCH  10  11
ATOM     11  O   UNL d   1       9.230   0.224 -16.409  0.00  0.00    -0.331 OA
BRANCH  11  12
ATOM     12  C   UNL d   1      10.276   1.110 -16.653  0.00  0.00     0.090 A 
ATOM     13  C   UNL d   1      11.092   0.931 -17.799  0.00  0.00     0.000 A 
ATOM     14  C   UNL d   1      10.792  -0.254 -18.689  0.00  0.00     0.033 C 
ATOM     15  C   UNL d   1      12.169   1.830 -18.087  0.00  0.00    -0.004 A 
ATOM     16  C   UNL d   1      12.376   2.927 -17.214  0.00  0.00     0.007 A 
ATOM     17  C   UNL d   1      13.420   4.031 -17.209  0.00  0.00     0.155 A 
ATOM     18  C   UNL d   1      11.586   3.098 -16.109  0.00  0.00     0.057 A 
ATOM     19  N   UNL d   1      13.078   4.808 -16.006  0.00  0.00    -0.229 NA
ATOM     20  C   UNL d   1      12.020   4.304 -15.340  0.00  0.00     0.275 A 
ATOM     21  O   UNL d   1      11.514   4.762 -14.327  0.00  0.00    -0.266 OA
ATOM     22  C   UNL d   1      10.588   2.174 -15.790  0.00  0.00     0.028 A 
ENDBRANCH  11  12
ENDBRANCH  10  11
ENDBRANCH   9  10
ENDBRANCH   8   9
ENDBRANCH   7   8
ENDBRANCH   1   7
BRANCH   4  23
ATOM     23  C   UNL d   1       9.616   7.029 -10.072  0.00  0.00     0.058 C 
ATOM     24  C   UNL d   1       9.681   7.237  -8.670  0.00  0.00     0.043 A 
ATOM     25  C   UNL d   1      10.356   8.393  -8.187  0.00  0.00     0.004 A 
ATOM     26  C   UNL d   1       9.074   6.399  -7.734  0.00  0.00     0.141 A 
ATOM     27  C   UNL d   1      10.987   9.285  -9.042  0.00  0.00     0.000 C 
ATOM     28  C   UNL d   1      10.446   8.710  -6.824  0.00  0.00     0.000 A 
ATOM     29  C   UNL d   1      10.966   9.008 -10.392  0.00  0.00     0.002 C 
ATOM     30  C   UNL d   1      10.202   7.965 -10.917  0.00  0.00     0.017 C 
ATOM     31  C   UNL d   1       9.871   7.831  -5.933  0.00  0.00     0.002 A 
ATOM     32  C   UNL d   1       9.187   6.707  -6.387  0.00  0.00     0.030 A 
ATOM     33  F   UNL d   1       8.365   5.295  -8.038  0.00  0.00    -0.204 F 
ENDBRANCH   4  23
TORSDOF 7
