REMARK  7 active torsions:
REMARK  status: ('A' for Active; 'I' for Inactive)
REMARK    1  A    between atoms: C_2  and  O_4 
REMARK    2  A    between atoms: O_4  and  C_5 
REMARK    3  A    between atoms: C_10  and  N_11 
REMARK    4  A    between atoms: N_14  and  C_15 
REMARK    5  A    between atoms: C_18  and  N_19 
REMARK    6  A    between atoms: N_19  and  S_20 
REMARK    7  A    between atoms: S_20  and  C_23 
ROOT
ATOM      1  C   UNL d   1       8.060   5.276 -12.396  0.00  0.00     0.220 C 
ATOM      2  C   UNL d   1       8.047   4.789 -10.931  0.00  0.00     0.035 C 
ATOM      3  C   UNL d   1       9.340   5.180 -10.166  0.00  0.00     0.027 C 
ATOM      4  C   UNL d   1       9.466   6.705 -10.187  0.00  0.00     0.116 C 
ATOM      5  C   UNL d   1       9.361   7.301 -11.616  0.00  0.00     0.027 C 
ATOM      6  C   UNL d   1       8.101   6.816 -12.355  0.00  0.00     0.035 C 
ENDROOT
BRANCH   1   7
ATOM      7  N   UNL d   1       9.124   4.685 -13.255  0.00  0.00     0.139 N 
ATOM      8  C   UNL d   1       9.221   3.230 -13.080  0.00  0.00     0.274 C 
ATOM      9  C   UNL d   1      10.297   2.627 -14.001  0.00  0.00     0.137 C 
ATOM     10  N   UNL d   1      10.044   2.962 -15.387  0.00  0.00    -0.343 N 
ATOM     11  C   UNL d   1       9.788   4.370 -15.619  0.00  0.00     0.137 C 
ATOM     12  C   UNL d   1       8.722   4.885 -14.645  0.00  0.00     0.274 C 
BRANCH  10  13
ATOM     13  C   UNL d   1       9.886   1.986 -16.374  0.00  0.00     0.079 A 
ATOM     14  C   UNL d   1      10.517   2.112 -17.651  0.00  0.00     0.109 A 
ATOM     15  C   UNL d   1      10.372   1.073 -18.582  0.00  0.00     0.026 A 
ATOM     16  C   UNL d   1       9.577  -0.058 -18.294  0.00  0.00     0.002 A 
ATOM     17  C   UNL d   1       8.939  -0.165 -17.042  0.00  0.00     0.002 A 
ATOM     18  C   UNL d   1       9.107   0.832 -16.086  0.00  0.00     0.019 A 
BRANCH  14  19
ATOM     19  O   UNL d   1      11.255   3.270 -17.882  0.00  0.00    -0.332 OA
BRANCH  19  20
ATOM     20  C   UNL d   1      12.101   3.368 -19.025  0.00  0.00     0.122 C 
ATOM     21  C   UNL d   1      13.459   2.707 -18.712  0.00  0.00     0.033 C 
ATOM     22  C   UNL d   1      12.266   4.843 -19.384  0.00  0.00     0.033 C 
ENDBRANCH  19  20
ENDBRANCH  14  19
ENDBRANCH  10  13
ENDBRANCH   1   7
BRANCH   4  23
ATOM     23  N   UNL d   1      10.721   7.100  -9.549  0.00  0.00    -0.187 NA
BRANCH  23  24
ATOM     24  S   UNL d   1      10.681   8.588  -8.716  0.00  0.00     0.283 S 
ATOM     25  O   UNL d   1      11.861   9.291  -9.256  0.00  0.00    -0.199 OA
ATOM     26  O   UNL d   1       9.339   9.153  -8.720  0.00  0.00    -0.199 OA
BRANCH  24  27
ATOM     27  C   UNL d   1      10.992   8.158  -7.025  0.00  0.00     0.133 A 
ATOM     28  C   UNL d   1      10.423   6.985  -6.492  0.00  0.00     0.152 A 
ATOM     29  C   UNL d   1      10.704   6.630  -5.169  0.00  0.00     0.031 A 
ATOM     30  F   UNL d   1       9.608   6.190  -7.221  0.00  0.00    -0.203 F 
ATOM     31  C   UNL d   1      11.470   7.437  -4.340  0.00  0.00     0.014 A 
ATOM     32  C   UNL d   1      11.941   8.643  -4.846  0.00  0.00     0.059 A 
ATOM     33  C   UNL d   1      11.742   9.020  -6.194  0.00  0.00     0.027 A 
ATOM     34 CL   UNL d   1      12.820   9.582  -3.751  0.00  0.00    -0.082 Cl
ENDBRANCH  24  27
ENDBRANCH  23  24
ENDBRANCH   4  23
TORSDOF 7
