REMARK  9 active torsions:
REMARK  status: ('A' for Active; 'I' for Inactive)
REMARK    1  A    between atoms: C_9  and  C_10 
REMARK    2  A    between atoms: C_10  and  N_11 
REMARK    3  A    between atoms: N_11  and  C_12 
REMARK    4  A    between atoms: C_12  and  C_13 
REMARK    5  A    between atoms: C_13  and  N_14 
REMARK    6  A    between atoms: N_17  and  C_18 
REMARK    7  A    between atoms: C_21  and  O_22 
REMARK    8  A    between atoms: O_22  and  C_23 
REMARK    9  A    between atoms: C_23  and  C_24 
ROOT
ATOM      1  N   UNL d   1       9.241   6.493 -10.479  0.00  0.00     0.143 N 
ATOM      2  C   UNL d   1       9.754   7.866 -10.318  0.00  0.00     0.274 C 
ATOM      3  C   UNL d   1       9.456   8.480  -8.934  0.00  0.00     0.137 C 
ATOM      4  N   UNL d   1       9.908   7.563  -7.904  0.00  0.00    -0.344 N 
ATOM      5  C   UNL d   1       9.442   6.181  -8.028  0.00  0.00     0.137 C 
ATOM      6  C   UNL d   1       9.801   5.654  -9.417  0.00  0.00     0.274 C 
ENDROOT
BRANCH   1   7
ATOM      7  C   UNL d   1       9.543   5.994 -11.812  0.00  0.00     0.288 C 
BRANCH   7   8
ATOM      8  C   UNL d   1       8.937   4.622 -12.148  0.00  0.00     0.325 C 
BRANCH   8   9
ATOM      9  N   UNL d   1       9.283   4.217 -13.504  0.00  0.00     0.344 N 
BRANCH   9  10
ATOM     10  C   UNL d   1       8.716   2.925 -13.886  0.00  0.00     0.320 C 
BRANCH  10  11
ATOM     11  C   UNL d   1       9.022   2.606 -15.356  0.00  0.00     0.158 C 
ATOM     12  O   UNL d   1       7.963   1.793 -15.852  0.00  0.00    -0.331 OA
ATOM     13  C   UNL d   1       8.109   1.320 -17.136  0.00  0.00     0.092 A 
ATOM     14  C   UNL d   1       9.373   1.242 -17.772  0.00  0.00     0.000 A 
ATOM     15  C   UNL d   1       6.960   0.876 -17.819  0.00  0.00     0.051 A 
ATOM     16  C   UNL d   1       9.470   0.751 -19.090  0.00  0.00    -0.000 A 
ATOM     17  C   UNL d   1      10.628   1.677 -17.037  0.00  0.00     0.031 C 
ATOM     18  C   UNL d   1       8.316   0.317 -19.769  0.00  0.00     0.027 A 
ATOM     19  C   UNL d   1       7.061   0.379 -19.135  0.00  0.00     0.133 A 
ATOM     20  O   UNL d   1       5.946  -0.039 -19.802  0.00  0.00    -0.190 OA
ATOM     21  C   UNL d   1      10.365   1.879 -15.543  0.00  0.00     0.037 C 
ENDBRANCH  10  11
ENDBRANCH   9  10
ENDBRANCH   8   9
ENDBRANCH   7   8
ENDBRANCH   1   7
BRANCH   4  22
ATOM     22  C   UNL d   1      10.665   8.024  -6.820  0.00  0.00     0.056 A 
ATOM     23  C   UNL d   1      11.401   9.225  -6.916  0.00  0.00     0.019 A 
ATOM     24  C   UNL d   1      12.166   9.673  -5.829  0.00  0.00     0.026 A 
ATOM     25  C   UNL d   1      12.241   8.902  -4.664  0.00  0.00     0.094 A 
ATOM     26  C   UNL d   1      11.542   7.680  -4.574  0.00  0.00     0.026 A 
ATOM     27  C   UNL d   1      10.720   7.276  -5.633  0.00  0.00     0.019 A 
BRANCH  25  28
ATOM     28  O   UNL d   1      13.023   9.395  -3.661  0.00  0.00    -0.328 OA
BRANCH  28  29
ATOM     29  C   UNL d   1      13.309   8.521  -2.595  0.00  0.00     0.187 C 
BRANCH  29  30
ATOM     30  C   UNL d   1      12.158   8.362  -1.647  0.00  0.00     0.226 C 
ATOM     31  F   UNL d   1      12.016   9.594  -1.245  0.00  0.00    -0.232 F 
ENDBRANCH  29  30
ENDBRANCH  28  29
ENDBRANCH  25  28
ENDBRANCH   4  22
TORSDOF 9
