REMARK  7 active torsions:
REMARK  status: ('A' for Active; 'I' for Inactive)
REMARK    1  A    between atoms: O_2  and  C_3 
REMARK    2  A    between atoms: C_8  and  N_9 
REMARK    3  A    between atoms: N_12  and  C_13 
REMARK    4  A    between atoms: C_13  and  C_14 
REMARK    5  A    between atoms: C_14  and  C_16 
REMARK    6  A    between atoms: C_16  and  N_17 
REMARK    7  A    between atoms: C_21  and  C_23 
ROOT
ATOM      1  C   UNL d   1       8.104   5.215 -13.024  0.00  0.00     0.208 C 
ATOM      2  O   UNL d   1       6.742   4.920 -13.213  0.00  0.00    -0.219 OA
ENDROOT
BRANCH   1   3
ATOM      3  C   UNL d   1       8.215   6.661 -12.434  0.00  0.00     0.285 C 
BRANCH   3   4
ATOM      4  N   UNL d   1       9.424   6.912 -11.632  0.00  0.00     0.144 N 
ATOM      5  C   UNL d   1       9.552   8.344 -11.288  0.00  0.00     0.274 C 
ATOM      6  C   UNL d   1      10.822   8.670 -10.448  0.00  0.00     0.137 C 
ATOM      7  N   UNL d   1      10.848   7.788  -9.299  0.00  0.00    -0.343 N 
ATOM      8  C   UNL d   1      10.619   6.387  -9.520  0.00  0.00     0.137 C 
ATOM      9  C   UNL d   1       9.390   6.144 -10.379  0.00  0.00     0.274 C 
BRANCH   7  10
ATOM     10  C   UNL d   1      11.030   8.231  -7.975  0.00  0.00     0.079 A 
ATOM     11  C   UNL d   1      10.235   7.719  -6.962  0.00  0.00     0.110 A 
ATOM     12  C   UNL d   1      10.467   8.175  -5.649  0.00  0.00     0.026 A 
ATOM     13  C   UNL d   1      11.432   9.154  -5.359  0.00  0.00     0.002 A 
ATOM     14  C   UNL d   1      12.234   9.646  -6.394  0.00  0.00     0.002 A 
ATOM     15  C   UNL d   1      12.045   9.136  -7.702  0.00  0.00     0.019 A 
BRANCH  11  16
ATOM     16  O   UNL d   1       9.283   6.800  -7.331  0.00  0.00    -0.327 OA
ATOM     17  C   UNL d   1       8.254   6.490  -6.478  0.00  0.00     0.181 C 
ENDBRANCH  11  16
ENDBRANCH   7  10
ENDBRANCH   3   4
ENDBRANCH   1   3
BRANCH   1  18
ATOM     18  C   UNL d   1       8.880   5.067 -14.354  0.00  0.00     0.148 C 
BRANCH  18  19
ATOM     19  N   UNL d   1       9.480   3.745 -14.516  0.00  0.00    -0.247 N 
ATOM     20  C   UNL d   1       8.934   2.666 -15.100  0.00  0.00     0.265 A 
ATOM     21  C   UNL d   1       9.920   1.528 -15.050  0.00  0.00     0.179 A 
ATOM     22  O   UNL d   1       7.820   2.529 -15.584  0.00  0.00    -0.269 OA
ATOM     23  N   UNL d   1      10.971   2.194 -14.297  0.00  0.00    -0.209 NA
ATOM     24  C   UNL d   1       9.271   0.377 -14.265  0.00  0.00     0.039 C 
ATOM     25  C   UNL d   1      10.705   3.483 -14.059  0.00  0.00     0.348 A 
ATOM     26  O   UNL d   1      11.460   4.295 -13.517  0.00  0.00    -0.245 OA
BRANCH  21  27
ATOM     27  C   UNL d   1      10.340   1.124 -16.469  0.00  0.00     0.006 A 
ATOM     28  C   UNL d   1       9.535   0.241 -17.229  0.00  0.00    -0.001 A 
ATOM     29  C   UNL d   1       9.931  -0.165 -18.513  0.00  0.00     0.011 A 
ATOM     30  C   UNL d   1      11.125   0.326 -19.066  0.00  0.00     0.058 A 
ATOM     31  C   UNL d   1      11.921   1.226 -18.335  0.00  0.00     0.011 A 
ATOM     32 CL   UNL d   1      11.607  -0.165 -20.645  0.00  0.00    -0.082 Cl
ATOM     33  C   UNL d   1      11.531   1.627 -17.045  0.00  0.00    -0.001 A 
ENDBRANCH  21  27
ENDBRANCH  18  19
ENDBRANCH   1  18
TORSDOF 7
