REMARK  3 active torsions:
REMARK  status: ('A' for Active; 'I' for Inactive)
REMARK    1  A    between atoms: N_7  and  C_8 
REMARK    2  A    between atoms: N_11  and  C_12 
REMARK    3  A    between atoms: C_12  and  C_13 
ROOT
ATOM      1  C   UNL d   1       5.841   6.769 -12.781  0.00  0.00     0.083 C 
ATOM      2  C   UNL d   1       6.692   5.883 -12.726  0.00  0.00    -0.110 C 
ATOM      3  C   UNL d   1       7.783   5.009 -12.684  0.00  0.00     0.091 C 
ATOM      4  C   UNL d   1       8.117   3.908 -13.424  0.00  0.00     0.026 C 
ATOM      5  C   UNL d   1       9.341   3.406 -12.890  0.00  0.00     0.021 C 
ATOM      6  C   UNL d   1       9.569   4.115 -11.738  0.00  0.00     0.076 C 
ATOM      7  N   UNL d   1       8.718   5.187 -11.652  0.00  0.00    -0.323 N 
ENDROOT
BRANCH   7   8
ATOM      8  C   UNL d   1       8.803   6.232 -10.619  0.00  0.00     0.090 C 
ATOM      9  C   UNL d   1       9.105   5.728  -9.183  0.00  0.00     0.058 C 
ATOM     10  C   UNL d   1       9.279   6.903  -8.201  0.00  0.00     0.253 C 
ATOM     11  N   UNL d   1      10.400   7.728  -8.626  0.00  0.00     0.141 N 
ATOM     12  C   UNL d   1      10.077   8.372  -9.905  0.00  0.00     0.253 C 
ATOM     13  C   UNL d   1       9.848   7.298 -10.982  0.00  0.00     0.058 C 
BRANCH  11  14
ATOM     14  C   UNL d   1      10.728   8.774  -7.629  0.00  0.00     0.277 C 
BRANCH  14  15
ATOM     15  C   UNL d   1      11.144   8.262  -6.262  0.00  0.00     0.011 A 
ATOM     16  C   UNL d   1      11.465   6.898  -6.074  0.00  0.00    -0.002 A 
ATOM     17  C   UNL d   1      11.865   6.462  -4.787  0.00  0.00    -0.000 A 
ATOM     18  C   UNL d   1      11.911   7.346  -3.687  0.00  0.00    -0.000 A 
ATOM     19  C   UNL d   1      11.623   8.694  -3.882  0.00  0.00    -0.000 A 
ATOM     20  C   UNL d   1      11.231   9.153  -5.163  0.00  0.00    -0.002 A 
ENDBRANCH  14  15
ENDBRANCH  11  14
ENDBRANCH   7   8
TORSDOF 3
