REMARK  12 active torsions:
REMARK  status: ('A' for Active; 'I' for Inactive)
REMARK    1  A    between atoms: O_2  and  C_3 
REMARK    2  A    between atoms: C_5  and  C_6 
REMARK    3  A    between atoms: C_6  and  C_7 
REMARK    4  A    between atoms: C_7  and  N_8 
REMARK    5  A    between atoms: N_8  and  C_9 
REMARK    6  A    between atoms: C_9  and  C_10 
REMARK    7  A    between atoms: C_10  and  C_11 
REMARK    8  A    between atoms: C_21  and  O_22 
REMARK    9  A    between atoms: O_22  and  C_23 
REMARK   10  A    between atoms: C_23  and  C_24 
REMARK   11  A    between atoms: C_24  and  C_25 
REMARK   12  A    between atoms: C_25  and  C_26 
ROOT
ATOM      1  C   UNL d   1      10.418   3.281 -14.176  0.00  0.00     0.116 A 
ATOM      2  C   UNL d   1      10.203   3.832 -12.915  0.00  0.00     0.022 A 
ATOM      3  C   UNL d   1       8.943   4.135 -12.402  0.00  0.00    -0.018 A 
ATOM      4  C   UNL d   1       7.832   3.892 -13.214  0.00  0.00    -0.002 A 
ATOM      5  C   UNL d   1       7.993   3.338 -14.484  0.00  0.00     0.026 A 
ATOM      6  C   UNL d   1       9.287   3.024 -14.986  0.00  0.00     0.116 A 
ENDROOT
BRANCH   3   7
ATOM      7  C   UNL d   1       8.758   4.682 -10.995  0.00  0.00     0.065 C 
BRANCH   7   8
ATOM      8  C   UNL d   1       9.365   6.071 -10.869  0.00  0.00     0.295 C 
BRANCH   8   9
ATOM      9  N   UNL d   1       9.261   6.504  -9.490  0.00  0.00     0.340 N 
BRANCH   9  10
ATOM     10  C   UNL d   1       9.865   7.816  -9.389  0.00  0.00     0.295 C 
BRANCH  10  11
ATOM     11  C   UNL d   1       9.339   8.525  -8.138  0.00  0.00     0.065 C 
BRANCH  11  12
ATOM     12  C   UNL d   1      10.167   8.247  -6.906  0.00  0.00    -0.018 A 
ATOM     13  C   UNL d   1      11.213   9.109  -6.503  0.00  0.00     0.025 A 
ATOM     14  C   UNL d   1      11.971   8.832  -5.345  0.00  0.00     0.156 A 
ATOM     15  C   UNL d   1      11.672   7.695  -4.584  0.00  0.00     0.156 A 
ATOM     16  O   UNL d   1      13.031   9.595  -4.977  0.00  0.00    -0.188 OA
ATOM     17  C   UNL d   1      10.649   6.834  -4.992  0.00  0.00     0.029 A 
ATOM     18  O   UNL d   1      12.413   7.380  -3.484  0.00  0.00    -0.188 OA
ATOM     19  C   UNL d   1       9.877   7.102  -6.145  0.00  0.00    -0.002 A 
ENDBRANCH  11  12
ENDBRANCH  10  11
ENDBRANCH   9  10
ENDBRANCH   8   9
ENDBRANCH   7   8
ENDBRANCH   3   7
BRANCH   1  20
ATOM     20  O   UNL d   1      11.722   3.008 -14.563  0.00  0.00    -0.326 OA
ATOM     21  C   UNL d   1      12.188   3.681 -15.721  0.00  0.00     0.181 C 
ENDBRANCH   1  20
BRANCH   6  22
ATOM     22  O   UNL d   1       9.543   2.421 -16.207  0.00  0.00    -0.329 OA
BRANCH  22  23
ATOM     23  C   UNL d   1       8.592   2.518 -17.266  0.00  0.00     0.149 C 
BRANCH  23  24
ATOM     24  C   UNL d   1       7.302   1.811 -16.844  0.00  0.00     0.037 C 
BRANCH  24  25
ATOM     25  C   UNL d   1       6.758   0.712 -17.704  0.00  0.00     0.029 C 
BRANCH  25  26
ATOM     26  C   UNL d   1       5.667  -0.070 -16.975  0.00  0.00    -0.022 A 
ATOM     27  C   UNL d   1       4.785  -0.837 -17.768  0.00  0.00    -0.004 A 
ATOM     28  C   UNL d   1       3.775  -1.606 -17.155  0.00  0.00    -0.000 A 
ATOM     29  C   UNL d   1       3.634  -1.591 -15.750  0.00  0.00    -0.000 A 
ATOM     30  C   UNL d   1       4.493  -0.818 -14.954  0.00  0.00    -0.000 A 
ATOM     31  C   UNL d   1       5.508  -0.060 -15.558  0.00  0.00    -0.004 A 
ENDBRANCH  25  26
ENDBRANCH  24  25
ENDBRANCH  23  24
ENDBRANCH  22  23
ENDBRANCH   6  22
TORSDOF 12
