REMARK  5 active torsions:
REMARK  status: ('A' for Active; 'I' for Inactive)
REMARK    1  A    between atoms: C_2  and  C_3 
REMARK       I    between atoms: C_2  and  N_12 
REMARK    2  A    between atoms: N_15  and  C_16 
REMARK    3  A    between atoms: C_16  and  C_17 
REMARK    4  A    between atoms: C_17  and  O_18 
REMARK    5  A    between atoms: O_18  and  C_19 
ROOT
ATOM      1  O   UNL d   1      10.351   9.222  -9.197  0.00  0.00    -0.265 OA
ATOM      2  C   UNL d   1      10.309   8.105  -8.680  0.00  0.00     0.280 C 
ATOM      3  N   UNL d   1       9.956   7.021  -9.377  0.00  0.00    -0.311 N 
ATOM      4  C   UNL d   1       9.999   7.024 -10.851  0.00  0.00     0.140 C 
ATOM      5  C   UNL d   1       8.730   6.462 -11.478  0.00  0.00     0.274 C 
ATOM      6  N   UNL d   1       8.455   5.118 -10.957  0.00  0.00     0.144 N 
ATOM      7  C   UNL d   1       8.311   5.216  -9.499  0.00  0.00     0.274 C 
ATOM      8  C   UNL d   1       9.587   5.703  -8.825  0.00  0.00     0.140 C 
ENDROOT
BRANCH   2   9
ATOM      9  C   UNL d   1      10.717   7.979  -7.250  0.00  0.00     0.156 A 
ATOM     10  O   UNL d   1      10.775   9.130  -6.486  0.00  0.00    -0.302 OA
ATOM     11  C   UNL d   1      11.234   8.775  -5.232  0.00  0.00     0.100 A 
ATOM     12  C   UNL d   1      11.444   7.377  -5.203  0.00  0.00     0.025 A 
ATOM     13  C   UNL d   1      11.459   9.600  -4.114  0.00  0.00     0.025 A 
ATOM     14  C   UNL d   1      11.163   6.902  -6.516  0.00  0.00     0.032 A 
ATOM     15  C   UNL d   1      11.867   6.815  -3.977  0.00  0.00     0.002 A 
ATOM     16  C   UNL d   1      12.104   7.614  -2.837  0.00  0.00     0.000 A 
ATOM     17  C   UNL d   1      11.908   9.011  -2.906  0.00  0.00     0.002 A 
ENDBRANCH   2   9
BRANCH   6  18
ATOM     18  C   UNL d   1       7.192   4.627 -11.501  0.00  0.00     0.283 C 
BRANCH  18  19
ATOM     19  C   UNL d   1       7.352   4.191 -12.970  0.00  0.00     0.184 C 
BRANCH  19  20
ATOM     20  O   UNL d   1       6.154   3.544 -13.370  0.00  0.00    -0.327 OA
BRANCH  20  21
ATOM     21  C   UNL d   1       6.256   2.243 -13.784  0.00  0.00     0.113 A 
ATOM     22  C   UNL d   1       5.382   1.299 -13.234  0.00  0.00     0.123 A 
ATOM     23  N   UNL d   1       5.357  -0.005 -13.572  0.00  0.00    -0.240 NA
ATOM     24  C   UNL d   1       6.250  -0.425 -14.493  0.00  0.00     0.099 A 
ATOM     25  C   UNL d   1       7.180   0.431 -15.110  0.00  0.00     0.023 A 
ATOM     26  C   UNL d   1       7.189   1.795 -14.756  0.00  0.00     0.027 A 
ENDBRANCH  20  21
ENDBRANCH  19  20
ENDBRANCH  18  19
ENDBRANCH   6  18
TORSDOF 5
