REMARK  6 active torsions:
REMARK  status: ('A' for Active; 'I' for Inactive)
REMARK    1  A    between atoms: S_2  and  C_4 
REMARK    2  A    between atoms: S_2  and  N_14 
REMARK    3  A    between atoms: C_17  and  C_18 
REMARK    4  A    between atoms: C_18  and  C_19 
REMARK    5  A    between atoms: C_19  and  N_20 
REMARK    6  A    between atoms: N_23  and  C_24 
ROOT
ATOM      1  N   UNL d   1       7.182   2.903 -13.898  0.00  0.00    -0.275 N 
ATOM      2  C   UNL d   1       6.400   3.860 -13.079  0.00  0.00     0.113 C 
ATOM      3  C   UNL d   1       7.225   4.397 -11.897  0.00  0.00     0.025 C 
ATOM      4  C   UNL d   1       8.598   4.919 -12.330  0.00  0.00     0.006 C 
ATOM      5  C   UNL d   1       9.358   3.800 -13.047  0.00  0.00     0.025 C 
ATOM      6  C   UNL d   1       8.570   3.296 -14.222  0.00  0.00     0.113 C 
ENDROOT
BRANCH   4   7
ATOM      7  C   UNL d   1       9.456   5.402 -11.170  0.00  0.00     0.035 C 
BRANCH   7   8
ATOM      8  C   UNL d   1       8.892   6.582 -10.390  0.00  0.00     0.250 C 
BRANCH   8   9
ATOM      9  N   UNL d   1       9.925   7.297  -9.634  0.00  0.00     0.141 N 
ATOM     10  C   UNL d   1      10.593   6.426  -8.672  0.00  0.00     0.274 C 
ATOM     11  C   UNL d   1      11.695   7.193  -7.939  0.00  0.00     0.137 C 
ATOM     12  N   UNL d   1      11.096   8.297  -7.234  0.00  0.00    -0.344 N 
ATOM     13  C   UNL d   1      10.324   9.182  -8.081  0.00  0.00     0.137 C 
ATOM     14  C   UNL d   1       9.290   8.368  -8.861  0.00  0.00     0.274 C 
BRANCH  12  15
ATOM     15  C   UNL d   1      11.259   8.484  -5.838  0.00  0.00     0.057 A 
ATOM     16  C   UNL d   1      11.649   7.425  -4.974  0.00  0.00     0.028 A 
ATOM     17  C   UNL d   1      11.899   7.662  -3.599  0.00  0.00     0.059 A 
ATOM     18  C   UNL d   1      11.714   8.944  -3.084  0.00  0.00     0.011 A 
ATOM     19 CL   UNL d   1      12.350   6.405  -2.539  0.00  0.00    -0.082 Cl
ATOM     20  C   UNL d   1      11.286   9.967  -3.919  0.00  0.00     0.002 A 
ATOM     21  C   UNL d   1      11.074   9.770  -5.298  0.00  0.00     0.017 A 
ENDBRANCH  12  15
ENDBRANCH   8   9
ENDBRANCH   7   8
ENDBRANCH   4   7
BRANCH   1  22
ATOM     22  S   UNL d   1       6.626   1.265 -14.195  0.00  0.00     0.266 S 
ATOM     23  O   UNL d   1       5.264   1.171 -13.646  0.00  0.00    -0.200 OA
ATOM     24  O   UNL d   1       7.658   0.336 -13.709  0.00  0.00    -0.200 OA
BRANCH  22  25
ATOM     25  C   UNL d   1       6.596   1.115 -15.999  0.00  0.00     0.122 A 
ATOM     26  C   UNL d   1       5.770   0.154 -16.656  0.00  0.00     0.015 A 
ATOM     27  C   UNL d   1       5.811   0.109 -18.082  0.00  0.00     0.020 A 
ATOM     28  C   UNL d   1       4.897  -0.750 -15.988  0.00  0.00     0.001 A 
ATOM     29  C   UNL d   1       6.670   0.980 -18.772  0.00  0.00     0.099 A 
ATOM     30  C   UNL d   1       5.020  -0.779 -18.820  0.00  0.00     0.002 A 
ATOM     31  N   UNL d   1       7.460   1.878 -18.151  0.00  0.00    -0.242 NA
ATOM     32  C   UNL d   1       7.414   1.957 -16.804  0.00  0.00     0.112 A 
ATOM     33  C   UNL d   1       4.164  -1.657 -18.145  0.00  0.00     0.000 A 
ATOM     34  C   UNL d   1       4.101  -1.640 -16.739  0.00  0.00     0.000 A 
ENDBRANCH  22  25
ENDBRANCH   1  22
TORSDOF 6
