REMARK  7 active torsions:
REMARK  status: ('A' for Active; 'I' for Inactive)
REMARK    1  A    between atoms: C_4  and  C_5 
REMARK    2  A    between atoms: N_13  and  C_14 
REMARK    3  A    between atoms: C_14  and  C_15 
REMARK    4  A    between atoms: C_15  and  C_16 
REMARK    5  A    between atoms: C_16  and  S_17 
REMARK    6  A    between atoms: S_17  and  C_18 
REMARK    7  A    between atoms: C_21  and  C_22 
ROOT
ATOM      1  C   UNL d   1      12.426  -0.574 -20.831  0.00  0.00     0.067 C 
ENDROOT
BRANCH   1   2
ATOM      2  C   UNL d   1      13.548  -0.780 -19.782  0.00  0.00     0.047 C 
BRANCH   2   3
ATOM      3  C   UNL d   1      14.954  -0.378 -20.284  0.00  0.00     0.251 C 
BRANCH   3   4
ATOM      4  N   UNL d   1      14.983   1.008 -20.762  0.00  0.00     0.138 N 
ATOM      5  C   UNL d   1      14.972   1.952 -19.642  0.00  0.00     0.255 C 
ATOM      6  C   UNL d   1      14.613   3.388 -20.064  0.00  0.00     0.061 C 
ATOM      7  C   UNL d   1      15.778   4.174 -20.632  0.00  0.00    -0.024 A 
ATOM      8  C   UNL d   1      16.442   3.739 -21.797  0.00  0.00    -0.024 A 
ATOM      9  C   UNL d   1      16.216   5.336 -19.962  0.00  0.00    -0.003 A 
ATOM     10  C   UNL d   1      17.547   4.472 -22.276  0.00  0.00    -0.004 A 
ATOM     11  C   UNL d   1      16.002   2.480 -22.529  0.00  0.00     0.061 C 
ATOM     12  C   UNL d   1      17.988   5.624 -21.598  0.00  0.00     0.001 A 
ATOM     13  C   UNL d   1      17.332   6.068 -20.429  0.00  0.00     0.020 A 
ATOM     14  C   UNL d   1      16.113   1.195 -21.684  0.00  0.00     0.255 C 
BRANCH  13  15
ATOM     15  C   UNL d   1      17.814   7.263 -19.719  0.00  0.00     0.110 A 
ATOM     16  C   UNL d   1      18.802   8.201 -20.135  0.00  0.00     0.044 A 
ATOM     17  C   UNL d   1      18.857   9.103 -19.112  0.00  0.00     0.105 A 
ATOM     18  C   UNL d   1      19.664  10.333 -18.886  0.00  0.00     0.061 C 
ATOM     19  O   UNL d   1      17.983   8.758 -18.135  0.00  0.00    -0.215 OA
ATOM     20  N   UNL d   1      17.330   7.585 -18.526  0.00  0.00    -0.127 NA
ENDBRANCH  13  15
ENDBRANCH   3   4
ENDBRANCH   2   3
ENDBRANCH   1   2
BRANCH   1  21
ATOM     21  S   UNL d   1      10.767  -0.414 -20.089  0.00  0.00    -0.075 SA
BRANCH  21  22
ATOM     22  C   UNL d   1      11.063   0.978 -19.036  0.00  0.00     0.193 A 
ATOM     23  N   UNL d   1      10.458   1.120 -17.834  0.00  0.00    -0.289 N 
ATOM     24  C   UNL d   1      11.032   2.253 -17.363  0.00  0.00     0.167 A 
ATOM     25  C   UNL d   1       9.457   0.257 -17.225  0.00  0.00     0.134 C 
ATOM     26  N   UNL d   1      11.913   2.787 -18.216  0.00  0.00    -0.128 NA
ATOM     27  N   UNL d   1      11.949   1.953 -19.315  0.00  0.00    -0.122 NA
BRANCH  24  28
ATOM     28  C   UNL d   1      10.737   2.892 -16.087  0.00  0.00     0.038 A 
ATOM     29  C   UNL d   1       9.403   3.002 -15.649  0.00  0.00     0.024 A 
ATOM     30  C   UNL d   1       9.077   3.623 -14.431  0.00  0.00     0.099 A 
ATOM     31  C   UNL d   1      10.125   4.175 -13.633  0.00  0.00     0.099 A 
ATOM     32  N   UNL d   1       7.786   3.686 -14.037  0.00  0.00    -0.247 NA
ATOM     33  C   UNL d   1      11.461   4.075 -14.082  0.00  0.00     0.021 A 
ATOM     34  N   UNL d   1       9.843   4.784 -12.461  0.00  0.00    -0.247 NA
ATOM     35  C   UNL d   1      11.768   3.445 -15.303  0.00  0.00     0.005 A 
ATOM     36  C   UNL d   1       8.555   4.842 -12.068  0.00  0.00     0.073 A 
ATOM     37  C   UNL d   1       8.296   5.516 -10.738  0.00  0.00     0.053 C 
ATOM     38  C   UNL d   1       7.522   4.295 -12.856  0.00  0.00     0.073 A 
ATOM     39  C   UNL d   1       6.068   4.346 -12.437  0.00  0.00     0.053 C 
ENDBRANCH  24  28
ENDBRANCH  21  22
ENDBRANCH   1  21
TORSDOF 7
