REMARK  6 active torsions:
REMARK  status: ('A' for Active; 'I' for Inactive)
REMARK    1  A    between atoms: S_2  and  C_4 
REMARK    2  A    between atoms: S_2  and  N_14 
REMARK    3  A    between atoms: C_17  and  C_18 
REMARK    4  A    between atoms: C_18  and  C_19 
REMARK    5  A    between atoms: C_19  and  N_20 
REMARK    6  A    between atoms: N_23  and  C_24 
ROOT
ATOM      1  N   UNL d   1      10.668   3.485 -15.979  0.00  0.00    -0.275 N 
ATOM      2  C   UNL d   1      11.555   3.425 -14.814  0.00  0.00     0.113 C 
ATOM      3  C   UNL d   1      11.057   4.406 -13.737  0.00  0.00     0.025 C 
ATOM      4  C   UNL d   1       9.566   4.198 -13.377  0.00  0.00     0.006 C 
ATOM      5  C   UNL d   1       8.748   4.320 -14.652  0.00  0.00     0.025 C 
ATOM      6  C   UNL d   1       9.223   3.347 -15.708  0.00  0.00     0.113 C 
ENDROOT
BRANCH   4   7
ATOM      7  C   UNL d   1       9.049   5.216 -12.358  0.00  0.00     0.035 C 
BRANCH   7   8
ATOM      8  C   UNL d   1       9.274   4.770 -10.905  0.00  0.00     0.250 C 
BRANCH   8   9
ATOM      9  N   UNL d   1       9.104   5.876  -9.962  0.00  0.00     0.141 N 
ATOM     10  C   UNL d   1      10.237   6.804 -10.050  0.00  0.00     0.274 C 
ATOM     11  C   UNL d   1      10.062   7.984  -9.089  0.00  0.00     0.137 C 
ATOM     12  N   UNL d   1       9.874   7.493  -7.727  0.00  0.00    -0.344 N 
ATOM     13  C   UNL d   1       8.822   6.484  -7.588  0.00  0.00     0.137 C 
ATOM     14  C   UNL d   1       9.035   5.342  -8.599  0.00  0.00     0.274 C 
BRANCH  12  15
ATOM     15  C   UNL d   1      10.671   7.929  -6.655  0.00  0.00     0.056 A 
ATOM     16  C   UNL d   1      11.335   9.178  -6.697  0.00  0.00     0.019 A 
ATOM     17  C   UNL d   1      12.129   9.602  -5.615  0.00  0.00     0.031 A 
ATOM     18  C   UNL d   1      12.259   8.796  -4.470  0.00  0.00     0.140 A 
ATOM     19  C   UNL d   1      11.618   7.552  -4.423  0.00  0.00     0.031 A 
ATOM     20  F   UNL d   1      13.018   9.199  -3.430  0.00  0.00    -0.204 F 
ATOM     21  C   UNL d   1      10.836   7.122  -5.508  0.00  0.00     0.019 A 
ENDBRANCH  12  15
ENDBRANCH   8   9
ENDBRANCH   7   8
ENDBRANCH   4   7
BRANCH   1  22
ATOM     22  S   UNL d   1      11.262   3.797 -17.593  0.00  0.00     0.264 S 
ATOM     23  O   UNL d   1      12.496   4.595 -17.444  0.00  0.00    -0.200 OA
ATOM     24  O   UNL d   1      10.154   4.319 -18.399  0.00  0.00    -0.200 OA
BRANCH  22  25
ATOM     25  C   UNL d   1      11.714   2.173 -18.256  0.00  0.00     0.105 A 
ATOM     26  C   UNL d   1      10.799   1.086 -18.343  0.00  0.00     0.030 A 
ATOM     27  C   UNL d   1      11.231  -0.165 -18.847  0.00  0.00     0.082 A 
ATOM     28  C   UNL d   1       9.436   1.215 -17.965  0.00  0.00     0.004 A 
ATOM     29  C   UNL d   1      12.560  -0.306 -19.297  0.00  0.00     0.019 A 
ATOM     30  N   UNL d   1      10.396  -1.209 -18.934  0.00  0.00    -0.244 NA
ATOM     31  C   UNL d   1      13.460   0.777 -19.245  0.00  0.00     0.002 A 
ATOM     32  C   UNL d   1      13.041   2.015 -18.721  0.00  0.00     0.013 A 
ATOM     33  C   UNL d   1       9.123  -1.123 -18.502  0.00  0.00     0.099 A 
ATOM     34  C   UNL d   1       8.604   0.081 -18.002  0.00  0.00     0.021 A 
ENDBRANCH  22  25
ENDBRANCH   1  22
TORSDOF 6
