REMARK  10 active torsions:
REMARK  status: ('A' for Active; 'I' for Inactive)
REMARK    1  A    between atoms: C_6  and  C_7 
REMARK    2  A    between atoms: C_7  and  N_8 
REMARK       I    between atoms: N_8  and  C_9 
REMARK    3  A    between atoms: C_9  and  C_11 
REMARK    4  A    between atoms: C_11  and  C_12 
REMARK    5  A    between atoms: C_12  and  C_13 
REMARK    6  A    between atoms: C_13  and  C_14 
REMARK    7  A    between atoms: C_14  and  C_15 
REMARK    8  A    between atoms: C_15  and  N_16 
REMARK    9  A    between atoms: N_19  and  C_20 
REMARK   10  A    between atoms: C_26  and  C_27 
ROOT
ATOM      1  N   UNL d   1      12.644   6.787  -2.070  0.00  0.00    -0.191 NA
ATOM      2  C   UNL d   1      12.225   7.190  -3.066  0.00  0.00     0.101 C 
ATOM      3  C   UNL d   1      11.694   7.687  -4.316  0.00  0.00     0.068 A 
ATOM      4  C   UNL d   1      11.870   9.034  -4.685  0.00  0.00     0.010 A 
ATOM      5  C   UNL d   1      11.341   9.507  -5.901  0.00  0.00    -0.002 A 
ATOM      6  C   UNL d   1      10.621   8.634  -6.744  0.00  0.00     0.002 A 
ATOM      7  C   UNL d   1      10.430   7.291  -6.344  0.00  0.00    -0.002 A 
ATOM      8  C   UNL d   1      10.978   6.816  -5.150  0.00  0.00     0.010 A 
ENDROOT
BRANCH   6   9
ATOM      9  C   UNL d   1      10.068   9.156  -8.063  0.00  0.00     0.155 C 
BRANCH   9  10
ATOM     10  N   UNL d   1       9.367   8.173  -8.860  0.00  0.00    -0.233 NA
ATOM     11  C   UNL d   1       9.857   7.115  -9.479  0.00  0.00     0.252 C 
ATOM     12  O   UNL d   1      11.040   6.817  -9.376  0.00  0.00    -0.271 OA
BRANCH  11  13
ATOM     13  C   UNL d   1       8.934   6.229 -10.296  0.00  0.00     0.090 C 
BRANCH  13  14
ATOM     14  C   UNL d   1       9.678   5.307 -11.275  0.00  0.00     0.010 C 
BRANCH  14  15
ATOM     15  C   UNL d   1       8.774   4.598 -12.286  0.00  0.00     0.003 C 
BRANCH  15  16
ATOM     16  C   UNL d   1       9.588   3.840 -13.331  0.00  0.00     0.035 C 
BRANCH  16  17
ATOM     17  C   UNL d   1       8.730   2.906 -14.176  0.00  0.00     0.250 C 
BRANCH  17  18
ATOM     18  N   UNL d   1       9.578   2.145 -15.099  0.00  0.00     0.141 N 
ATOM     19  C   UNL d   1       8.820   0.928 -15.399  0.00  0.00     0.274 C 
ATOM     20  C   UNL d   1       9.566   0.079 -16.503  0.00  0.00     0.137 C 
ATOM     21  N   UNL d   1       9.880   0.885 -17.694  0.00  0.00    -0.344 N 
ATOM     22  C   UNL d   1      10.523   2.162 -17.403  0.00  0.00     0.137 C 
ATOM     23  C   UNL d   1       9.700   2.940 -16.346  0.00  0.00     0.274 C 
BRANCH  21  24
ATOM     24  C   UNL d   1       9.544   0.500 -19.018  0.00  0.00     0.056 A 
ATOM     25  C   UNL d   1       8.265  -0.039 -19.344  0.00  0.00     0.018 A 
ATOM     26  C   UNL d   1       8.034  -0.429 -20.681  0.00  0.00     0.031 A 
ATOM     27  C   UNL d   1       8.988  -0.226 -21.697  0.00  0.00     0.140 A 
ATOM     28  C   UNL d   1      10.230   0.349 -21.379  0.00  0.00     0.031 A 
ATOM     29  F   UNL d   1       8.697  -0.580 -22.980  0.00  0.00    -0.204 F 
ATOM     30  C   UNL d   1      10.506   0.715 -20.044  0.00  0.00     0.019 A 
BRANCH  25  31
ATOM     31  C   UNL d   1       7.178  -0.263 -18.404  0.00  0.00     0.002 A 
ATOM     32  C   UNL d   1       6.471  -1.464 -18.323  0.00  0.00     0.001 A 
ATOM     33  C   UNL d   1       5.506  -1.684 -17.312  0.00  0.00     0.010 A 
ATOM     34  C   UNL d   1       5.226  -0.680 -16.361  0.00  0.00     0.068 A 
ATOM     35  C   UNL d   1       5.921   0.516 -16.447  0.00  0.00     0.010 A 
ATOM     36  C   UNL d   1       4.260  -0.868 -15.310  0.00  0.00     0.101 C 
ATOM     37  C   UNL d   1       6.832   0.747 -17.498  0.00  0.00     0.001 A 
ATOM     38  N   UNL d   1       3.478  -1.026 -14.460  0.00  0.00    -0.191 NA
ENDBRANCH  25  31
ENDBRANCH  21  24
ENDBRANCH  17  18
ENDBRANCH  16  17
ENDBRANCH  15  16
ENDBRANCH  14  15
ENDBRANCH  13  14
ENDBRANCH  11  13
ENDBRANCH   9  10
ENDBRANCH   6   9
TORSDOF 10
