REMARK  7 active torsions:
REMARK  status: ('A' for Active; 'I' for Inactive)
REMARK    1  A    between atoms: N_11  and  C_12 
REMARK    2  A    between atoms: C_12  and  C_13 
REMARK    3  A    between atoms: C_13  and  C_14 
REMARK    4  A    between atoms: C_14  and  C_15 
REMARK    5  A    between atoms: C_15  and  N_16 
REMARK       I    between atoms: N_16  and  C_17 
REMARK    6  A    between atoms: C_17  and  C_19 
REMARK    7  A    between atoms: C_22  and  C_23 
ROOT
ATOM      1  N   UNL d   1      13.038   7.988 -16.036  0.00  0.00    -0.191 NA
ATOM      2  C   UNL d   1      12.923   6.922 -16.472  0.00  0.00     0.101 C 
ATOM      3  C   UNL d   1      12.784   5.581 -17.023  0.00  0.00     0.068 A 
ATOM      4  C   UNL d   1      13.369   5.272 -18.268  0.00  0.00     0.012 A 
ATOM      5  C   UNL d   1      13.259   3.973 -18.808  0.00  0.00     0.025 A 
ATOM      6  C   UNL d   1      12.575   2.961 -18.105  0.00  0.00     0.090 A 
ATOM      7  C   UNL d   1      11.989   3.277 -16.853  0.00  0.00     0.003 A 
ATOM      8  C   UNL d   1      12.084   4.583 -16.317  0.00  0.00     0.008 A 
ATOM      9  C   UNL d   1      11.314   2.153 -16.122  0.00  0.00     0.062 C 
ATOM     10  C   UNL d   1      10.064   2.480 -15.325  0.00  0.00     0.255 C 
ATOM     11  N   UNL d   1       9.525   1.132 -15.077  0.00  0.00     0.137 N 
ATOM     12  C   UNL d   1       9.903   0.243 -16.179  0.00  0.00     0.253 C 
ATOM     13  C   UNL d   1      10.732   1.163 -17.089  0.00  0.00     0.070 C 
ATOM     14  C   UNL d   1      11.896   0.629 -17.921  0.00  0.00     0.151 C 
ATOM     15  O   UNL d   1      12.482   1.700 -18.683  0.00  0.00    -0.331 OA
ENDROOT
BRANCH  11  16
ATOM     16  C   UNL d   1       8.122   1.025 -14.620  0.00  0.00     0.250 C 
BRANCH  16  17
ATOM     17  C   UNL d   1       7.337   2.349 -14.498  0.00  0.00     0.037 C 
BRANCH  17  18
ATOM     18  C   UNL d   1       8.003   3.382 -13.574  0.00  0.00     0.029 C 
BRANCH  18  19
ATOM     19  C   UNL d   1       7.030   4.273 -12.764  0.00  0.00     0.129 C 
BRANCH  19  20
ATOM     20  N   UNL d   1       7.718   4.962 -11.674  0.00  0.00    -0.234 NA
ATOM     21  C   UNL d   1       8.838   5.692 -11.752  0.00  0.00     0.275 C 
ATOM     22  O   UNL d   1       9.438   5.939 -12.798  0.00  0.00    -0.266 OA
BRANCH  21  23
ATOM     23  C   UNL d   1       9.330   6.252 -10.451  0.00  0.00     0.058 A 
ATOM     24  C   UNL d   1      10.055   7.461 -10.441  0.00  0.00     0.005 A 
ATOM     25  C   UNL d   1      10.523   8.003  -9.221  0.00  0.00     0.000 A 
ATOM     26  C   UNL d   1      10.271   7.349  -7.994  0.00  0.00     0.000 A 
ATOM     27  C   UNL d   1       9.551   6.135  -8.026  0.00  0.00     0.000 A 
ATOM     28  C   UNL d   1       9.100   5.574  -9.234  0.00  0.00     0.005 A 
BRANCH  26  29
ATOM     29  C   UNL d   1      10.745   7.919  -6.715  0.00  0.00     0.000 A 
ATOM     30  C   UNL d   1      11.054   7.089  -5.614  0.00  0.00     0.001 A 
ATOM     31  C   UNL d   1      11.489   7.635  -4.392  0.00  0.00     0.014 A 
ATOM     32  C   UNL d   1      11.620   9.027  -4.248  0.00  0.00     0.070 A 
ATOM     33  C   UNL d   1      11.333   9.869  -5.335  0.00  0.00     0.014 A 
ATOM     34  N   UNL d   1      12.008   9.568  -3.023  0.00  0.00    -0.101 NA
ATOM     35  C   UNL d   1      10.896   9.315  -6.553  0.00  0.00     0.001 A 
ENDBRANCH  26  29
ENDBRANCH  21  23
ENDBRANCH  19  20
ENDBRANCH  18  19
ENDBRANCH  17  18
ENDBRANCH  16  17
ENDBRANCH  11  16
TORSDOF 7
