REMARK  8 active torsions:
REMARK  status: ('A' for Active; 'I' for Inactive)
REMARK    1  A    between atoms: C_2  and  C_3 
REMARK    2  A    between atoms: C_8  and  N_9 
REMARK    3  A    between atoms: N_12  and  C_13 
REMARK    4  A    between atoms: C_13  and  C_14 
REMARK    5  A    between atoms: C_14  and  C_16 
REMARK    6  A    between atoms: C_16  and  C_17 
REMARK    7  A    between atoms: C_17  and  N_18 
REMARK       I    between atoms: N_18  and  C_19 
REMARK    8  A    between atoms: C_19  and  C_21 
ROOT
ATOM      1  N   UNL d   1       8.137   3.518 -13.780  0.00  0.00    -0.344 N 
ATOM      2  C   UNL d   1       9.232   3.352 -12.857  0.00  0.00     0.137 C 
ATOM      3  C   UNL d   1       9.040   4.259 -11.643  0.00  0.00     0.274 C 
ATOM      4  N   UNL d   1       9.028   5.632 -12.078  0.00  0.00     0.144 N 
ATOM      5  C   UNL d   1       7.875   5.800 -12.982  0.00  0.00     0.274 C 
ATOM      6  C   UNL d   1       7.983   4.875 -14.195  0.00  0.00     0.137 C 
ENDROOT
BRANCH   4   7
ATOM      7  C   UNL d   1       8.890   6.512 -10.941  0.00  0.00     0.283 C 
BRANCH   7   8
ATOM      8  C   UNL d   1       9.814   7.740 -10.997  0.00  0.00     0.188 C 
ATOM      9  O   UNL d   1       9.656   8.318 -12.265  0.00  0.00    -0.221 OA
BRANCH   8  10
ATOM     10  C   UNL d   1       9.482   8.852  -9.997  0.00  0.00     0.061 C 
BRANCH  10  11
ATOM     11  C   UNL d   1      10.722   9.429  -9.286  0.00  0.00     0.132 C 
BRANCH  11  12
ATOM     12  N   UNL d   1      10.683   9.392  -7.808  0.00  0.00    -0.233 NA
ATOM     13  C   UNL d   1      10.134   8.474  -6.993  0.00  0.00     0.298 C 
ATOM     14  O   UNL d   1       9.218   7.702  -7.262  0.00  0.00    -0.263 OA
BRANCH  13  15
ATOM     15  C   UNL d   1      10.814   8.272  -5.741  0.00  0.00     0.157 A 
ATOM     16  O   UNL d   1      11.248   9.337  -5.007  0.00  0.00    -0.302 OA
ATOM     17  C   UNL d   1      11.742   8.804  -3.864  0.00  0.00     0.100 A 
ATOM     18  C   UNL d   1      11.645   7.390  -3.897  0.00  0.00     0.025 A 
ATOM     19  C   UNL d   1      12.256   9.508  -2.794  0.00  0.00     0.025 A 
ATOM     20  C   UNL d   1      11.047   7.067  -5.138  0.00  0.00     0.032 A 
ATOM     21  C   UNL d   1      12.096   6.682  -2.777  0.00  0.00     0.002 A 
ATOM     22  C   UNL d   1      12.646   7.375  -1.695  0.00  0.00     0.000 A 
ATOM     23  C   UNL d   1      12.712   8.774  -1.691  0.00  0.00     0.002 A 
ENDBRANCH  13  15
ENDBRANCH  11  12
ENDBRANCH  10  11
ENDBRANCH   8  10
ENDBRANCH   7   8
ENDBRANCH   4   7
BRANCH   1  24
ATOM     24  C   UNL d   1       7.303   2.484 -14.276  0.00  0.00     0.054 A 
ATOM     25  C   UNL d   1       7.564   1.864 -15.532  0.00  0.00    -0.005 A 
ATOM     26  C   UNL d   1       6.734   0.816 -16.009  0.00  0.00     0.024 A 
ATOM     27  C   UNL d   1       5.670   0.377 -15.208  0.00  0.00     0.119 A 
ATOM     28  O   UNL d   1       4.698  -0.525 -15.489  0.00  0.00    -0.300 OA
ATOM     29  C   UNL d   1       5.430   0.967 -13.986  0.00  0.00     0.120 A 
ATOM     30  C   UNL d   1       3.827  -0.513 -14.387  0.00  0.00     0.304 A 
ATOM     31  O   UNL d   1       4.313   0.409 -13.447  0.00  0.00    -0.299 OA
ATOM     32  C   UNL d   1       6.191   2.050 -13.516  0.00  0.00     0.043 A 
BRANCH  25  33
ATOM     33  C   UNL d   1       8.745   2.289 -16.389  0.00  0.00     0.028 C 
ATOM     34  C   UNL d   1      10.030   1.550 -16.002  0.00  0.00     0.005 C 
ENDBRANCH  25  33
ENDBRANCH   1  24
TORSDOF 8
