REMARK  5 active torsions:
REMARK  status: ('A' for Active; 'I' for Inactive)
REMARK       I    between atoms: N_2  and  C_3 
REMARK       I    between atoms: C_3  and  N_15 
REMARK    1  A    between atoms: N_4  and  C_5 
REMARK    2  A    between atoms: C_5  and  C_6 
REMARK    3  A    between atoms: C_6  and  S_7 
REMARK    4  A    between atoms: S_7  and  C_8 
REMARK    5  A    between atoms: C_8  and  C_9 
ROOT
ATOM      1  C   UNL d   1       5.960   7.764 -12.938  0.00  0.00     0.172 C 
ATOM      2  N   UNL d   1       6.478   6.752 -12.051  0.00  0.00    -0.083 NA
ATOM      3  C   UNL d   1       6.891   5.471 -12.374  0.00  0.00     0.751 C 
ATOM      4  N   UNL d   1       7.951   4.897 -11.910  0.00  0.00    -0.085 NA
ATOM      5  N   UNL d   1       6.021   4.801 -13.218  0.00  0.00     0.018 NA
ATOM      6  C   UNL d   1       6.183   3.529 -13.636  0.00  0.00     0.223 C 
ATOM      7  N   UNL d   1       6.275   2.448 -14.037  0.00  0.00    -0.169 NA
ENDROOT
BRANCH   4   8
ATOM      8  C   UNL d   1       8.837   5.595 -10.986  0.00  0.00     0.157 C 
BRANCH   8   9
ATOM      9  C   UNL d   1       8.400   5.358  -9.531  0.00  0.00     0.085 C 
BRANCH   9  10
ATOM     10  S   UNL d   1       9.691   5.869  -8.371  0.00  0.00    -0.132 SA
BRANCH  10  11
ATOM     11  C   UNL d   1       9.246   7.601  -8.098  0.00  0.00     0.104 C 
BRANCH  11  12
ATOM     12  C   UNL d   1      10.367   8.302  -7.384  0.00  0.00     0.085 A 
ATOM     13  C   UNL d   1      11.633   8.579  -7.851  0.00  0.00     0.076 A 
ATOM     14  N   UNL d   1      12.257   9.274  -6.832  0.00  0.00    -0.227 NA
ATOM     15  C   UNL d   1      12.302   8.269  -9.149  0.00  0.00     0.053 C 
ATOM     16  C   UNL d   1      11.385   9.384  -5.830  0.00  0.00     0.199 A 
ATOM     17  N   UNL d   1      10.222   8.809  -6.090  0.00  0.00    -0.227 NA
ENDBRANCH  11  12
ENDBRANCH  10  11
ENDBRANCH   9  10
ENDBRANCH   8   9
ENDBRANCH   4   8
TORSDOF 5
