REMARK  3 active torsions:
REMARK  status: ('A' for Active; 'I' for Inactive)
REMARK    1  A    between atoms: C_2  and  N_3 
REMARK    2  A    between atoms: C_7  and  C_8 
REMARK    3  A    between atoms: C_14  and  C_15 
ROOT
ATOM      1  C   UNL d   1      11.548   8.557  -5.771  0.00  0.00     0.038 A 
ATOM      2  C   UNL d   1      11.766   9.902  -5.970  0.00  0.00     0.100 A 
ATOM      3  N   UNL d   1      11.451  10.215  -7.247  0.00  0.00    -0.244 NA
ATOM      4  C   UNL d   1      10.920   9.176  -7.933  0.00  0.00     0.082 A 
ATOM      5  C   UNL d   1      10.406   9.111  -9.227  0.00  0.00     0.019 A 
ATOM      6  C   UNL d   1       9.857   7.923  -9.692  0.00  0.00     0.006 A 
ATOM      7  C   UNL d   1       9.884   6.792  -8.865  0.00  0.00     0.059 A 
ATOM      8  C   UNL d   1      10.443   6.863  -7.563  0.00  0.00     0.006 A 
ATOM      9  C   UNL d   1      10.963   8.081  -7.025  0.00  0.00     0.021 A 
ENDROOT
BRANCH   1  10
ATOM     10  C   UNL d   1      11.816   7.761  -4.599  0.00  0.00     0.082 A 
ATOM     11  N   UNL d   1      12.481   8.211  -3.465  0.00  0.00    -0.309 N 
ATOM     12  C   UNL d   1      12.593   7.169  -2.658  0.00  0.00     0.179 A 
ATOM     13  N   UNL d   1      12.190   6.022  -3.198  0.00  0.00    -0.223 NA
ATOM     14  C   UNL d   1      11.652   6.406  -4.413  0.00  0.00     0.118 A 
BRANCH  11  15
ATOM     15  C   UNL d   1      13.002   9.497  -3.141  0.00  0.00     0.108 C 
ATOM     16  C   UNL d   1      11.865  10.312  -2.545  0.00  0.00     0.027 C 
ENDBRANCH  11  15
ENDBRANCH   1  10
BRANCH   7  17
ATOM     17  C   UNL d   1       9.330   5.502  -9.355  0.00  0.00     0.297 C 
ATOM     18  N   UNL d   1       8.277   5.590 -10.161  0.00  0.00    -0.102 N 
ATOM     19  O   UNL d   1       9.777   4.437  -8.955  0.00  0.00    -0.264 OA
ENDBRANCH   7  17
TORSDOF 3
