REMARK  1 active torsions:
REMARK  status: ('A' for Active; 'I' for Inactive)
REMARK    1  A    between atoms: N_5  and  C_6 
ROOT
ATOM      1  C   UNL d   1       7.036   2.331 -14.175  0.00  0.00     0.074 C 
ATOM      2  C   UNL d   1       6.635   3.244 -13.246  0.00  0.00     0.098 C 
ATOM      3  N   UNL d   1       7.230   4.498 -13.032  0.00  0.00    -0.297 N 
ATOM      4  C   UNL d   1       6.526   5.588 -12.582  0.00  0.00     0.081 A 
ATOM      5  C   UNL d   1       7.449   6.592 -12.437  0.00  0.00     0.021 A 
ATOM      6  C   UNL d   1       8.755   6.057 -12.689  0.00  0.00     0.026 A 
ATOM      7  C   UNL d   1       8.573   4.744 -13.025  0.00  0.00     0.094 A 
ATOM      8  S   UNL d   1       9.858   3.605 -13.325  0.00  0.00    -0.069 SA
ATOM      9  C   UNL d   1       9.385   3.121 -14.944  0.00  0.00     0.032 A 
ATOM     10  C   UNL d   1      10.312   3.324 -15.988  0.00  0.00     0.007 A 
ATOM     11  C   UNL d   1       9.976   2.993 -17.310  0.00  0.00     0.001 A 
ATOM     12  C   UNL d   1       8.705   2.463 -17.595  0.00  0.00     0.000 A 
ATOM     13  C   UNL d   1       7.776   2.280 -16.546  0.00  0.00     0.002 A 
ATOM     14  C   UNL d   1       8.098   2.576 -15.209  0.00  0.00     0.023 A 
ENDROOT
BRANCH   1  15
ATOM     15  N   UNL d   1       6.479   1.043 -14.175  0.00  0.00    -0.343 N 
ATOM     16  C   UNL d   1       7.047  -0.153 -14.818  0.00  0.00     0.137 C 
ATOM     17  C   UNL d   1       6.025  -0.759 -15.807  0.00  0.00     0.274 C 
ATOM     18  N   UNL d   1       4.849  -1.179 -15.065  0.00  0.00     0.143 N 
ATOM     19  C   UNL d   1       3.885  -1.743 -16.004  0.00  0.00     0.286 C 
ATOM     20  C   UNL d   1       4.255  -0.004 -14.454  0.00  0.00     0.274 C 
ATOM     21  C   UNL d   1       5.239   0.657 -13.483  0.00  0.00     0.137 C 
ENDBRANCH   1  15
TORSDOF 1
