REMARK  6 active torsions:
REMARK  status: ('A' for Active; 'I' for Inactive)
REMARK    1  A    between atoms: C_2  and  C_3 
REMARK    2  A    between atoms: C_2  and  C_20 
REMARK    3  A    between atoms: C_3  and  C_4 
REMARK    4  A    between atoms: C_4  and  C_5 
REMARK    5  A    between atoms: C_5  and  N_6 
REMARK    6  A    between atoms: C_9  and  C_11 
ROOT
ATOM      1  N   UNL d   1      10.025   6.331  -9.656  0.00  0.00     0.137 N 
ATOM      2  C   UNL d   1       8.961   6.138  -8.674  0.00  0.00     0.253 C 
ATOM      3  C   UNL d   1       9.503   6.415  -7.266  0.00  0.00     0.070 C 
ATOM      4  C   UNL d   1      10.113   7.828  -7.124  0.00  0.00     0.149 C 
ATOM      5  O   UNL d   1       9.059   8.759  -7.317  0.00  0.00    -0.221 OA
ATOM      6  C   UNL d   1      11.112   8.059  -8.261  0.00  0.00     0.070 C 
ATOM      7  C   UNL d   1      10.503   7.711  -9.639  0.00  0.00     0.253 C 
ENDROOT
BRANCH   1   8
ATOM      8  C   UNL d   1       9.516   6.033 -11.002  0.00  0.00     0.251 C 
BRANCH   8   9
ATOM      9  C   UNL d   1       9.318   4.521 -11.193  0.00  0.00     0.043 C 
BRANCH   9  10
ATOM     10  C   UNL d   1       9.782   4.010 -12.570  0.00  0.00     0.071 C 
BRANCH  10  11
ATOM     11  C   UNL d   1       8.690   4.058 -13.635  0.00  0.00     0.174 C 
ATOM     12  O   UNL d   1       8.261   5.146 -14.014  0.00  0.00    -0.291 OA
BRANCH  11  13
ATOM     13  C   UNL d   1       8.169   2.755 -14.114  0.00  0.00     0.045 A 
ATOM     14  C   UNL d   1       9.017   1.761 -14.670  0.00  0.00     0.060 A 
ATOM     15  C   UNL d   1       8.478   0.529 -15.087  0.00  0.00     0.011 A 
ATOM     16 CL   UNL d   1      10.715   2.012 -14.891  0.00  0.00    -0.082 Cl
ATOM     17  C   UNL d   1       7.100   0.282 -14.977  0.00  0.00     0.001 A 
ATOM     18  C   UNL d   1       6.249   1.276 -14.449  0.00  0.00     0.000 A 
ATOM     19  C   UNL d   1       6.778   2.516 -14.046  0.00  0.00     0.004 A 
ENDBRANCH  11  13
ENDBRANCH  10  11
ENDBRANCH   9  10
ENDBRANCH   8   9
ENDBRANCH   1   8
BRANCH   4  20
ATOM     20  C   UNL d   1      10.799   8.064  -5.757  0.00  0.00     0.005 A 
ATOM     21  C   UNL d   1      10.896   9.367  -5.236  0.00  0.00    -0.001 A 
ATOM     22  C   UNL d   1      11.463   9.587  -3.964  0.00  0.00     0.011 A 
ATOM     23  C   UNL d   1      11.972   8.512  -3.215  0.00  0.00     0.058 A 
ATOM     24  C   UNL d   1      11.898   7.213  -3.731  0.00  0.00     0.011 A 
ATOM     25 CL   UNL d   1      12.656   8.784  -1.652  0.00  0.00    -0.082 Cl
ATOM     26  C   UNL d   1      11.328   6.989  -4.994  0.00  0.00    -0.001 A 
ENDBRANCH   4  20
TORSDOF 6
