REMARK  10 active torsions:
REMARK  status: ('A' for Active; 'I' for Inactive)
REMARK    1  A    between atoms: C_3  and  C_4 
REMARK    2  A    between atoms: C_5  and  C_6 
REMARK    3  A    between atoms: C_9  and  C_10 
REMARK    4  A    between atoms: C_10  and  N_11 
REMARK    5  A    between atoms: C_14  and  C_15 
REMARK    6  A    between atoms: C_22  and  C_23 
REMARK    7  A    between atoms: N_28  and  C_29 
REMARK    8  A    between atoms: C_29  and  C_30 
REMARK    9  A    between atoms: C_29  and  C_38 
REMARK       I    between atoms: C_30  and  N_32 
REMARK   10  A    between atoms: N_32  and  C_33 
ROOT
ATOM      1  C   UNL d   1      10.714   1.851 -14.574  0.00  0.00     0.033 C 
ATOM      2  C   UNL d   1      10.541   2.755 -15.787  0.00  0.00     0.005 A 
ATOM      3  C   UNL d   1      10.191   4.125 -15.629  0.00  0.00     0.039 A 
ATOM      4  C   UNL d   1      10.021   4.943 -16.777  0.00  0.00     0.009 A 
ATOM      5  C   UNL d   1      10.200   4.424 -18.081  0.00  0.00     0.047 A 
ATOM      6  C   UNL d   1      10.540   3.069 -18.206  0.00  0.00     0.039 A 
ATOM      7  C   UNL d   1      10.768   2.285 -19.333  0.00  0.00     0.097 A 
ATOM      8  N   UNL d   1      11.081   1.017 -18.846  0.00  0.00    -0.237 N 
ATOM      9  N   UNL d   1      11.044   0.990 -17.462  0.00  0.00    -0.169 NA
ATOM     10  C   UNL d   1      10.714   2.246 -17.104  0.00  0.00     0.099 A 
ENDROOT
BRANCH   8  11
ATOM     11  C   UNL d   1      11.414  -0.185 -19.603  0.00  0.00     0.226 C 
BRANCH  11  12
ATOM     12  C   UNL d   1      12.649   0.101 -20.483  0.00  0.00     0.286 C 
ATOM     13  O   UNL d   1      12.512   0.505 -21.633  0.00  0.00    -0.268 OA
ATOM     14  N   UNL d   1      13.854  -0.034 -19.887  0.00  0.00    -0.184 NA
BRANCH  14  15
ATOM     15  C   UNL d   1      15.112   0.336 -20.432  0.00  0.00     0.197 A 
ATOM     16  S   UNL d   1      16.630  -0.009 -19.627  0.00  0.00    -0.046 SA
ATOM     17  C   UNL d   1      17.466   0.809 -20.911  0.00  0.00     0.059 A 
ATOM     18  C   UNL d   1      16.608   1.282 -21.868  0.00  0.00     0.108 A 
ATOM     19  N   UNL d   1      15.270   1.029 -21.564  0.00  0.00    -0.219 NA
ENDBRANCH  14  15
ENDBRANCH  11  12
BRANCH  11  20
ATOM     20  C   UNL d   1      10.183  -0.736 -20.320  0.00  0.00     0.104 A 
ATOM     21  C   UNL d   1       8.999  -1.174 -19.767  0.00  0.00     0.054 A 
ATOM     22  N   UNL d   1       8.209  -1.606 -20.776  0.00  0.00    -0.317 N 
ATOM     23  C   UNL d   1       8.316  -1.350 -18.453  0.00  0.00     0.047 A 
ATOM     24  C   UNL d   1       8.860  -1.439 -21.915  0.00  0.00     0.178 A 
ATOM     25  C   UNL d   1       6.937  -2.114 -20.358  0.00  0.00     0.070 A 
ATOM     26  N   UNL d   1      10.077  -0.917 -21.709  0.00  0.00    -0.226 NA
ATOM     27  C   UNL d   1       6.928  -1.970 -18.830  0.00  0.00     0.027 A 
ATOM     28  C   UNL d   1       5.770  -1.893 -21.290  0.00  0.00     0.023 A 
ATOM     29  C   UNL d   1       6.369  -3.270 -21.145  0.00  0.00     0.023 A 
ENDBRANCH  11  20
ENDBRANCH   8  11
BRANCH   5  30
ATOM     30  C   UNL d   1      10.023   5.320 -19.296  0.00  0.00     0.341 C 
ATOM     31  F   UNL d   1      11.145   5.358 -20.012  0.00  0.00    -0.193 F 
ATOM     32  F   UNL d   1       9.024   4.878 -20.056  0.00  0.00    -0.193 F 
ENDBRANCH   5  30
BRANCH   3  33
ATOM     33  C   UNL d   1       9.966   4.729 -14.309  0.00  0.00    -0.060 C 
ATOM     34  C   UNL d   1       9.702   5.249 -13.228  0.00  0.00    -0.059 C 
BRANCH  34  35
ATOM     35  C   UNL d   1       9.428   5.782 -11.899  0.00  0.00     0.042 A 
ATOM     36  C   UNL d   1       9.071   4.921 -10.861  0.00  0.00     0.008 A 
ATOM     37  C   UNL d   1       8.908   5.375  -9.536  0.00  0.00    -0.002 A 
ATOM     38  C   UNL d   1       9.145   6.744  -9.251  0.00  0.00     0.011 A 
ATOM     39  C   UNL d   1       9.524   7.614 -10.284  0.00  0.00    -0.002 A 
ATOM     40  C   UNL d   1       9.600   7.155 -11.617  0.00  0.00     0.008 A 
BRANCH  38  41
ATOM     41  C   UNL d   1       8.827   7.337  -7.897  0.00  0.00     0.277 C 
BRANCH  41  42
ATOM     42  N   UNL d   1      10.035   7.614  -7.130  0.00  0.00     0.141 N 
ATOM     43  C   UNL d   1       9.985   8.969  -6.605  0.00  0.00     0.251 C 
ATOM     44  C   UNL d   1      11.301   9.266  -5.871  0.00  0.00     0.038 C 
ATOM     45  C   UNL d   1      11.540   8.259  -4.744  0.00  0.00     0.037 C 
ATOM     46  C   UNL d   1      11.419   6.819  -5.266  0.00  0.00     0.038 C 
ATOM     47  C   UNL d   1      10.115   6.640  -6.056  0.00  0.00     0.251 C 
BRANCH  45  48
ATOM     48  C   UNL d   1      12.864   8.504  -4.008  0.00  0.00     0.182 C 
ATOM     49  O   UNL d   1      12.634   8.889  -2.678  0.00  0.00    -0.221 OA
ENDBRANCH  45  48
ENDBRANCH  41  42
ENDBRANCH  38  41
ENDBRANCH  34  35
ENDBRANCH   3  33
TORSDOF 10
