REMARK  8 active torsions:
REMARK  status: ('A' for Active; 'I' for Inactive)
REMARK    1  A    between atoms: O_2  and  C_3 
REMARK    2  A    between atoms: C_9  and  N_10 
REMARK    3  A    between atoms: N_13  and  C_14 
REMARK    4  A    between atoms: C_14  and  C_15 
REMARK    5  A    between atoms: C_15  and  C_17 
REMARK    6  A    between atoms: C_17  and  C_18 
REMARK    7  A    between atoms: C_18  and  N_19 
REMARK       I    between atoms: N_19  and  C_20 
REMARK    8  A    between atoms: C_20  and  C_22 
ROOT
ATOM      1  C   UNL d   1       8.689   5.561 -11.656  0.00  0.00     0.188 C 
ATOM      2  O   UNL d   1       8.543   6.934 -11.979  0.00  0.00    -0.221 OA
ENDROOT
BRANCH   1   3
ATOM      3  C   UNL d   1       9.434   4.890 -12.831  0.00  0.00     0.283 C 
BRANCH   3   4
ATOM      4  N   UNL d   1       8.878   3.614 -13.242  0.00  0.00     0.144 N 
ATOM      5  C   UNL d   1       9.762   2.939 -14.197  0.00  0.00     0.274 C 
ATOM      6  C   UNL d   1       9.204   1.580 -14.654  0.00  0.00     0.137 C 
ATOM      7  N   UNL d   1       7.853   1.751 -15.163  0.00  0.00    -0.343 N 
ATOM      8  C   UNL d   1       6.921   2.474 -14.313  0.00  0.00     0.137 C 
ATOM      9  C   UNL d   1       7.565   3.797 -13.867  0.00  0.00     0.274 C 
BRANCH   7  10
ATOM     10  C   UNL d   1       7.462   1.242 -16.424  0.00  0.00     0.080 A 
ATOM     11  C   UNL d   1       6.260   0.517 -16.579  0.00  0.00     0.120 A 
ATOM     12  C   UNL d   1       5.878   0.053 -17.859  0.00  0.00     0.081 A 
ATOM     13 CL   UNL d   1       4.404  -0.817 -18.078  0.00  0.00    -0.080 Cl
ATOM     14  C   UNL d   1       6.703   0.294 -18.972  0.00  0.00     0.013 A 
ATOM     15  C   UNL d   1       7.909   0.998 -18.816  0.00  0.00     0.003 A 
ATOM     16  C   UNL d   1       8.289   1.470 -17.543  0.00  0.00     0.019 A 
BRANCH  11  17
ATOM     17  O   UNL d   1       5.445   0.257 -15.504  0.00  0.00    -0.326 OA
ATOM     18  C   UNL d   1       5.790  -0.929 -14.810  0.00  0.00     0.181 C 
ENDBRANCH  11  17
ENDBRANCH   7  10
ENDBRANCH   3   4
ENDBRANCH   1   3
BRANCH   1  19
ATOM     19  C   UNL d   1       9.509   5.424 -10.367  0.00  0.00     0.061 C 
BRANCH  19  20
ATOM     20  C   UNL d   1       8.691   5.711  -9.098  0.00  0.00     0.132 C 
BRANCH  20  21
ATOM     21  N   UNL d   1       9.472   6.248  -7.992  0.00  0.00    -0.234 NA
ATOM     22  C   UNL d   1      10.175   7.393  -8.024  0.00  0.00     0.276 C 
ATOM     23  O   UNL d   1      10.396   8.050  -9.037  0.00  0.00    -0.266 OA
BRANCH  22  24
ATOM     24  C   UNL d   1      10.618   7.913  -6.695  0.00  0.00     0.077 A 
ATOM     25  C   UNL d   1      11.053   7.054  -5.670  0.00  0.00     0.008 A 
ATOM     26  C   UNL d   1      11.470   7.625  -4.458  0.00  0.00     0.018 A 
ATOM     27  C   UNL d   1      11.458   9.042  -4.319  0.00  0.00     0.081 A 
ATOM     28  C   UNL d   1      11.884   6.793  -3.402  0.00  0.00     0.002 A 
ATOM     29  N   UNL d   1      11.066   9.863  -5.311  0.00  0.00    -0.244 NA
ATOM     30  C   UNL d   1      11.861   9.587  -3.092  0.00  0.00     0.019 A 
ATOM     31  C   UNL d   1      10.664   9.301  -6.469  0.00  0.00     0.104 A 
ATOM     32  C   UNL d   1      12.286   8.766  -2.043  0.00  0.00     0.002 A 
ATOM     33  C   UNL d   1      12.295   7.367  -2.192  0.00  0.00     0.000 A 
ENDBRANCH  22  24
ENDBRANCH  20  21
ENDBRANCH  19  20
ENDBRANCH   1  19
TORSDOF 8
