REMARK  4 active torsions:
REMARK  status: ('A' for Active; 'I' for Inactive)
REMARK    1  A    between atoms: C_4  and  C_5 
REMARK    2  A    between atoms: C_5  and  N_6 
REMARK    3  A    between atoms: C_9  and  C_10 
REMARK    4  A    between atoms: C_10  and  C_12 
ROOT
ATOM      1  N   UNL d   1       9.283   5.762 -12.085  0.00  0.00     0.137 N 
ATOM      2  C   UNL d   1       9.554   5.230 -10.750  0.00  0.00     0.251 C 
ATOM      3  C   UNL d   1      10.416   6.213  -9.941  0.00  0.00     0.043 C 
ATOM      4  C   UNL d   1       9.679   7.554  -9.743  0.00  0.00     0.066 C 
ATOM      5  C   UNL d   1       9.272   8.064 -11.152  0.00  0.00     0.043 C 
ATOM      6  C   UNL d   1       8.492   6.987 -11.937  0.00  0.00     0.251 C 
ENDROOT
BRANCH   1   7
ATOM      7  C   UNL d   1       8.543   4.778 -12.873  0.00  0.00     0.251 C 
BRANCH   7   8
ATOM      8  C   UNL d   1       9.486   3.767 -13.566  0.00  0.00     0.047 C 
ATOM      9  C   UNL d   1      10.531   4.488 -14.477  0.00  0.00     0.072 C 
ATOM     10  C   UNL d   1      11.463   3.543 -15.245  0.00  0.00     0.176 C 
ATOM     11  O   UNL d   1      12.631   3.854 -15.480  0.00  0.00    -0.291 OA
ATOM     12  C   UNL d   1      10.805   2.294 -15.679  0.00  0.00     0.071 A 
ATOM     13  C   UNL d   1       9.561   1.937 -15.264  0.00  0.00     0.085 A 
ATOM     14  C   UNL d   1      11.263   1.247 -16.517  0.00  0.00     0.126 A 
ATOM     15  C   UNL d   1       8.675   2.699 -14.338  0.00  0.00     0.050 C 
ATOM     16  N   UNL d   1       9.296   0.735 -15.889  0.00  0.00    -0.152 NA
ATOM     17  N   UNL d   1      10.336   0.302 -16.641  0.00  0.00    -0.147 NA
ENDBRANCH   7   8
ENDBRANCH   1   7
BRANCH   4  18
ATOM     18  C   UNL d   1      10.534   8.588  -8.985  0.00  0.00     0.173 C 
ATOM     19  O   UNL d   1      10.975   9.563  -9.588  0.00  0.00    -0.291 OA
BRANCH  18  20
ATOM     20  C   UNL d   1      10.804   8.379  -7.527  0.00  0.00     0.035 A 
ATOM     21  C   UNL d   1      10.588   7.140  -6.873  0.00  0.00     0.005 A 
ATOM     22  C   UNL d   1      10.967   6.979  -5.526  0.00  0.00     0.030 A 
ATOM     23  C   UNL d   1      11.476   8.063  -4.788  0.00  0.00     0.140 A 
ATOM     24  C   UNL d   1      11.644   9.317  -5.412  0.00  0.00     0.030 A 
ATOM     25  F   UNL d   1      11.804   7.912  -3.476  0.00  0.00    -0.204 F 
ATOM     26  C   UNL d   1      11.332   9.467  -6.784  0.00  0.00     0.005 A 
ENDBRANCH  18  20
ENDBRANCH   4  18
TORSDOF 4
