REMARK  2 active torsions:
REMARK  status: ('A' for Active; 'I' for Inactive)
REMARK    1  A    between atoms: C_7  and  N_8 
REMARK    2  A    between atoms: C_13  and  S_14 
ROOT
ATOM      1  N   UNL d   1       8.667   5.629 -11.585  0.00  0.00    -0.278 N 
ATOM      2  C   UNL d   1       9.285   4.994 -12.620  0.00  0.00     0.264 C 
ATOM      3  O   UNL d   1      10.453   5.170 -12.945  0.00  0.00    -0.267 OA
ATOM      4  C   UNL d   1       8.438   4.013 -13.390  0.00  0.00     0.074 A 
ATOM      5  C   UNL d   1       8.930   3.433 -14.575  0.00  0.00     0.020 A 
ATOM      6  C   UNL d   1       8.175   2.451 -15.250  0.00  0.00     0.117 A 
ATOM      7  C   UNL d   1       6.934   2.027 -14.729  0.00  0.00     0.071 A 
ATOM      8 CL   UNL d   1       6.078   0.689 -15.405  0.00  0.00    -0.082 Cl
ATOM      9  C   UNL d   1       6.412   2.662 -13.580  0.00  0.00     0.031 A 
ATOM     10  C   UNL d   1       7.156   3.655 -12.909  0.00  0.00     0.084 A 
ATOM     11  N   UNL d   1       6.734   4.175 -11.670  0.00  0.00    -0.249 NA
ATOM     12  C   UNL d   1       7.212   5.530 -11.380  0.00  0.00     0.193 C 
ATOM     13  C   UNL d   1       6.432   6.559 -12.190  0.00  0.00     0.052 C 
ENDROOT
BRANCH   1  14
ATOM     14  C   UNL d   1       9.387   6.511 -10.718  0.00  0.00     0.060 A 
ATOM     15  C   UNL d   1       9.584   6.213  -9.341  0.00  0.00    -0.006 A 
ATOM     16  C   UNL d   1       9.088   4.915  -8.728  0.00  0.00     0.033 C 
ATOM     17  C   UNL d   1      10.266   7.134  -8.511  0.00  0.00    -0.003 A 
ATOM     18  C   UNL d   1      10.753   8.345  -9.035  0.00  0.00    -0.000 A 
ATOM     19  C   UNL d   1      10.549   8.645 -10.390  0.00  0.00     0.002 A 
ATOM     20  C   UNL d   1       9.853   7.745 -11.222  0.00  0.00     0.017 A 
ENDBRANCH   1  14
BRANCH   6  21
ATOM     21  S   UNL d   1       8.827   1.804 -16.780  0.00  0.00     0.303 S 
ATOM     22  N   UNL d   1       8.975   0.134 -16.439  0.00  0.00    -0.043 N 
ATOM     23  O   UNL d   1       7.778   1.972 -17.799  0.00  0.00    -0.197 OA
ATOM     24  O   UNL d   1      10.181   2.330 -17.002  0.00  0.00    -0.197 OA
ENDBRANCH   6  21
TORSDOF 2
