REMARK  0 active torsions:
REMARK  status: ('A' for Active; 'I' for Inactive)
ROOT
ATOM      1  C   UNL d   1      10.745   5.202 -15.883  0.00  0.00     0.009 C 
ATOM      2  C   UNL d   1      10.428   4.018 -14.962  0.00  0.00     0.044 A 
ATOM      3  C   UNL d   1       9.430   4.384 -13.862  0.00  0.00    -0.019 A 
ATOM      4  C   UNL d   1       9.381   5.364 -12.853  0.00  0.00    -0.004 A 
ATOM      5  C   UNL d   1       8.225   5.451 -12.035  0.00  0.00    -0.001 A 
ATOM      6  C   UNL d   1       7.117   4.583 -12.235  0.00  0.00    -0.004 A 
ATOM      7  C   UNL d   1       7.160   3.605 -13.252  0.00  0.00    -0.020 A 
ATOM      8  C   UNL d   1       8.338   3.534 -13.996  0.00  0.00    -0.008 A 
ATOM      9  C   UNL d   1       8.572   2.595 -15.057  0.00  0.00    -0.007 A 
ATOM     10  C   UNL d   1       9.768   2.861 -15.710  0.00  0.00    -0.019 A 
ATOM     11  C   UNL d   1      10.119   2.060 -16.823  0.00  0.00    -0.004 A 
ATOM     12  C   UNL d   1       9.245   1.014 -17.242  0.00  0.00    -0.005 A 
ATOM     13  C   UNL d   1       8.040   0.734 -16.540  0.00  0.00    -0.022 A 
ATOM     14  C   UNL d   1       7.740   1.549 -15.438  0.00  0.00     0.005 A 
ATOM     15  C   UNL d   1       6.606   1.324 -14.426  0.00  0.00     0.246 C 
ATOM     16  C   UNL d   1       6.086   2.629 -13.729  0.00  0.00     0.064 C 
ATOM     17  N   UNL d   1       5.525   0.517 -15.015  0.00  0.00     0.142 N 
ATOM     18  C   UNL d   1       4.535   0.106 -14.029  0.00  0.00     0.286 C 
ATOM     19  C   UNL d   1       6.096  -0.682 -15.622  0.00  0.00     0.255 C 
ATOM     20  C   UNL d   1       6.977  -0.313 -16.833  0.00  0.00     0.061 C 
ENDROOT
TORSDOF 0
