REMARK  9 active torsions:
REMARK  status: ('A' for Active; 'I' for Inactive)
REMARK    1  A    between atoms: O_2  and  C_3 
REMARK    2  A    between atoms: C_8  and  N_9 
REMARK    3  A    between atoms: N_12  and  C_13 
REMARK    4  A    between atoms: C_13  and  C_14 
REMARK    5  A    between atoms: C_14  and  C_15 
REMARK    6  A    between atoms: C_15  and  C_16 
REMARK    7  A    between atoms: C_16  and  O_17 
REMARK    8  A    between atoms: O_17  and  C_18 
REMARK    9  A    between atoms: C_24  and  C_25 
ROOT
ATOM      1  C   UNL d   1       8.637   5.772  -9.194  0.00  0.00     0.251 C 
ENDROOT
BRANCH   1   2
ATOM      2  N   UNL d   1       9.625   6.667  -8.594  0.00  0.00     0.141 N 
ATOM      3  C   UNL d   1      10.568   5.873  -7.820  0.00  0.00     0.274 C 
ATOM      4  C   UNL d   1      11.655   6.745  -7.184  0.00  0.00     0.137 C 
ATOM      5  N   UNL d   1      11.030   7.761  -6.364  0.00  0.00    -0.343 N 
ATOM      6  C   UNL d   1       9.981   8.528  -7.032  0.00  0.00     0.137 C 
ATOM      7  C   UNL d   1       8.958   7.595  -7.672  0.00  0.00     0.274 C 
BRANCH   5   8
ATOM      8  C   UNL d   1      11.429   7.968  -5.024  0.00  0.00     0.079 A 
ATOM      9  C   UNL d   1      11.508   9.260  -4.460  0.00  0.00     0.110 A 
ATOM     10  C   UNL d   1      11.861   9.395  -3.090  0.00  0.00     0.026 A 
ATOM     11  C   UNL d   1      12.185   8.268  -2.311  0.00  0.00     0.002 A 
ATOM     12  C   UNL d   1      12.117   6.988  -2.876  0.00  0.00     0.002 A 
ATOM     13  C   UNL d   1      11.731   6.841  -4.224  0.00  0.00     0.019 A 
BRANCH   9  14
ATOM     14  O   UNL d   1      11.211  10.406  -5.166  0.00  0.00    -0.327 OA
ATOM     15  C   UNL d   1      12.051  10.701  -6.280  0.00  0.00     0.181 C 
ENDBRANCH   9  14
ENDBRANCH   5   8
ENDBRANCH   1   2
BRANCH   1  16
ATOM     16  C   UNL d   1       8.403   6.122 -10.671  0.00  0.00     0.038 C 
BRANCH  16  17
ATOM     17  C   UNL d   1       9.208   5.233 -11.621  0.00  0.00     0.035 C 
BRANCH  17  18
ATOM     18  C   UNL d   1       9.050   5.659 -13.087  0.00  0.00     0.149 C 
BRANCH  18  19
ATOM     19  O   UNL d   1      10.228   5.281 -13.795  0.00  0.00    -0.331 OA
BRANCH  19  20
ATOM     20  C   UNL d   1      10.306   4.062 -14.430  0.00  0.00     0.097 A 
ATOM     21  C   UNL d   1       9.282   3.136 -14.431  0.00  0.00     0.044 A 
ATOM     22  C   UNL d   1       9.434   1.922 -15.147  0.00  0.00     0.090 A 
ATOM     23  N   UNL d   1      10.654   1.698 -15.824  0.00  0.00    -0.228 N 
ATOM     24  C   UNL d   1       8.664   0.816 -15.392  0.00  0.00     0.081 A 
ATOM     25  C   UNL d   1      11.673   2.598 -15.825  0.00  0.00     0.102 A 
ATOM     26  N   UNL d   1      10.659   0.482 -16.465  0.00  0.00    -0.164 NA
ATOM     27  C   UNL d   1      11.510   3.776 -15.132  0.00  0.00     0.045 A 
ATOM     28  C   UNL d   1       9.470  -0.013 -16.205  0.00  0.00     0.125 A 
BRANCH  24  29
ATOM     29  C   UNL d   1       7.309   0.614 -14.899  0.00  0.00     0.237 C 
ATOM     30  O   UNL d   1       6.639   1.419 -14.254  0.00  0.00    -0.283 OA
ENDBRANCH  24  29
ENDBRANCH  19  20
ENDBRANCH  18  19
ENDBRANCH  17  18
ENDBRANCH  16  17
ENDBRANCH   1  16
TORSDOF 9
