REMARK  2 active torsions:
REMARK  status: ('A' for Active; 'I' for Inactive)
REMARK    1  A    between atoms: O_2  and  C_3 
REMARK    2  A    between atoms: C_9  and  C_10 
ROOT
ATOM      1  C   UNL d   1      10.189   2.219 -18.638  0.00  0.00     0.094 A 
ATOM      2  C   UNL d   1      11.362   2.378 -17.872  0.00  0.00     0.026 A 
ATOM      3  C   UNL d   1      11.287   2.377 -16.471  0.00  0.00     0.021 A 
ATOM      4  C   UNL d   1      10.059   2.178 -15.819  0.00  0.00     0.083 A 
ATOM      5  C   UNL d   1       8.882   1.892 -16.562  0.00  0.00     0.037 A 
ATOM      6  C   UNL d   1       8.964   1.966 -17.975  0.00  0.00     0.027 A 
ATOM      7  C   UNL d   1       7.584   1.456 -15.943  0.00  0.00     0.079 C 
ATOM      8  N   UNL d   1       7.084   2.032 -14.918  0.00  0.00    -0.244 NA
ATOM      9  C   UNL d   1       7.661   3.046 -14.148  0.00  0.00     0.099 A 
ATOM     10  C   UNL d   1       6.767   3.964 -13.569  0.00  0.00     0.016 A 
ATOM     11  C   UNL d   1       7.224   4.958 -12.687  0.00  0.00    -0.020 A 
ATOM     12  C   UNL d   1       6.247   5.942 -12.086  0.00  0.00     0.031 C 
ATOM     13  C   UNL d   1       8.595   5.021 -12.360  0.00  0.00    -0.003 A 
ATOM     14  C   UNL d   1       9.498   4.106 -12.933  0.00  0.00     0.020 A 
ATOM     15  C   UNL d   1       9.043   3.133 -13.842  0.00  0.00     0.099 A 
ATOM     16  N   UNL d   1       9.998   2.313 -14.436  0.00  0.00    -0.244 NA
ENDROOT
BRANCH   7  17
ATOM     17  C   UNL d   1       6.788   0.333 -16.532  0.00  0.00    -0.005 C 
ATOM     18  C   UNL d   1       5.418  -0.000 -15.952  0.00  0.00     0.063 C 
ATOM     19  C   UNL d   1       4.929  -1.421 -16.323  0.00  0.00     0.255 C 
ATOM     20  N   UNL d   1       5.082  -1.630 -17.760  0.00  0.00     0.141 N 
ATOM     21  C   UNL d   1       6.496  -1.642 -18.131  0.00  0.00     0.241 C 
ATOM     22  C   UNL d   1       4.443  -2.897 -18.118  0.00  0.00     0.286 C 
ATOM     23  C   UNL d   1       7.273  -0.498 -17.481  0.00  0.00     0.004 C 
ATOM     24  C   UNL d   1       6.689  -1.566 -19.661  0.00  0.00     0.040 C 
ENDBRANCH   7  17
BRANCH   1  25
ATOM     25  O   UNL d   1      10.298   2.279 -20.011  0.00  0.00    -0.328 OA
ATOM     26  C   UNL d   1       9.218   2.887 -20.703  0.00  0.00     0.181 C 
ENDBRANCH   1  25
TORSDOF 2
