REMARK  4 active torsions:
REMARK  status: ('A' for Active; 'I' for Inactive)
REMARK    1  A    between atoms: C_8  and  C_9 
REMARK    2  A    between atoms: C_9  and  C_10 
REMARK    3  A    between atoms: C_10  and  N_11 
REMARK    4  A    between atoms: N_14  and  C_15 
ROOT
ATOM      1  N   UNL d   1      10.177   6.385  -9.876  0.00  0.00     0.141 N 
ATOM      2  C   UNL d   1       9.707   6.075  -8.528  0.00  0.00     0.274 C 
ATOM      3  C   UNL d   1      10.798   6.363  -7.520  0.00  0.00     0.138 C 
ATOM      4  N   UNL d   1      11.293   7.711  -7.640  0.00  0.00    -0.329 N 
ATOM      5  C   UNL d   1      11.621   8.150  -8.991  0.00  0.00     0.138 C 
ATOM      6  C   UNL d   1      10.481   7.809  -9.970  0.00  0.00     0.274 C 
ENDROOT
BRANCH   1   7
ATOM      7  C   UNL d   1       9.159   6.095 -10.856  0.00  0.00     0.255 C 
BRANCH   7   8
ATOM      8  C   UNL d   1       8.821   4.619 -10.844  0.00  0.00     0.063 C 
BRANCH   8   9
ATOM      9  C   UNL d   1       8.098   4.199 -12.099  0.00  0.00    -0.001 A 
ATOM     10  C   UNL d   1       8.838   3.839 -13.250  0.00  0.00     0.076 A 
ATOM     11  N   UNL d   1      10.243   3.973 -13.265  0.00  0.00    -0.212 NA
ATOM     12  C   UNL d   1       8.166   3.346 -14.401  0.00  0.00    -0.002 A 
ATOM     13  C   UNL d   1      11.054   3.517 -14.236  0.00  0.00     0.256 C 
ATOM     14  C   UNL d   1      10.416   2.638 -15.335  0.00  0.00     0.094 C 
ATOM     15  O   UNL d   1      12.247   3.781 -14.256  0.00  0.00    -0.270 OA
ATOM     16  C   UNL d   1       8.977   3.054 -15.677  0.00  0.00     0.033 C 
ATOM     17  C   UNL d   1       8.339   2.063 -16.689  0.00  0.00     0.005 C 
ATOM     18  C   UNL d   1       6.769   3.181 -14.337  0.00  0.00     0.027 A 
ATOM     19  C   UNL d   1       6.039   3.568 -13.197  0.00  0.00     0.140 A 
ATOM     20  C   UNL d   1       6.706   4.030 -12.054  0.00  0.00     0.027 A 
ATOM     21  F   UNL d   1       4.691   3.462 -13.127  0.00  0.00    -0.204 F 
ENDBRANCH   8   9
ENDBRANCH   7   8
ENDBRANCH   1   7
BRANCH   4  22
ATOM     22  C   UNL d   1      11.274   8.578  -6.513  0.00  0.00     0.148 A 
ATOM     23  C   UNL d   1      11.527   8.124  -5.141  0.00  0.00     0.042 A 
ATOM     24  C   UNL d   1      11.488   9.249  -4.285  0.00  0.00     0.050 A 
ATOM     25  C   UNL d   1      11.856   6.877  -4.541  0.00  0.00     0.004 A 
ATOM     26  S   UNL d   1      11.024  10.620  -5.244  0.00  0.00     0.015 SA
ATOM     27  C   UNL d   1      11.750   9.162  -2.907  0.00  0.00     0.008 A 
ATOM     28  N   UNL d   1      11.075   9.855  -6.700  0.00  0.00    -0.192 NA
ATOM     29  C   UNL d   1      12.035   7.918  -2.332  0.00  0.00     0.001 A 
ATOM     30  C   UNL d   1      12.091   6.783  -3.151  0.00  0.00     0.000 A 
ENDBRANCH   4  22
TORSDOF 4
