REMARK  3 active torsions:
REMARK  status: ('A' for Active; 'I' for Inactive)
REMARK    1  A    between atoms: C_2  and  C_3 
REMARK    2  A    between atoms: N_13  and  C_14 
REMARK    3  A    between atoms: C_14  and  C_15 
ROOT
ATOM      1  O   UNL d   1      10.677  10.066  -6.842  0.00  0.00    -0.221 OA
ATOM      2  C   UNL d   1      11.032   8.768  -6.539  0.00  0.00     0.149 C 
ATOM      3  C   UNL d   1       9.724   7.967  -6.800  0.00  0.00     0.052 C 
ATOM      4  C   UNL d   1       9.372   7.962  -8.280  0.00  0.00     0.080 C 
ATOM      5  N   UNL d   1      10.494   7.408  -9.036  0.00  0.00    -0.252 NA
ATOM      6  C   UNL d   1      11.651   8.325  -8.996  0.00  0.00     0.080 C 
ATOM      7  C   UNL d   1      12.174   8.398  -7.548  0.00  0.00     0.052 C 
ENDROOT
BRANCH   5   8
ATOM      8  C   UNL d   1      10.092   7.224 -10.427  0.00  0.00     0.049 C 
BRANCH   8   9
ATOM      9  C   UNL d   1       9.196   6.095 -10.891  0.00  0.00     0.032 A 
ATOM     10  C   UNL d   1       9.135   5.455 -12.197  0.00  0.00     0.020 A 
ATOM     11  C   UNL d   1       8.074   4.499 -12.168  0.00  0.00     0.082 A 
ATOM     12  C   UNL d   1       9.814   5.564 -13.449  0.00  0.00     0.002 A 
ATOM     13  N   UNL d   1       7.558   4.568 -10.900  0.00  0.00    -0.244 NA
ATOM     14  C   UNL d   1       7.717   3.709 -13.273  0.00  0.00     0.019 A 
ATOM     15  C   UNL d   1       8.254   5.456 -10.118  0.00  0.00     0.100 A 
ATOM     16  C   UNL d   1       8.479   3.781 -14.448  0.00  0.00     0.002 A 
ATOM     17  C   UNL d   1       9.519   4.722 -14.534  0.00  0.00     0.000 A 
ENDBRANCH   8   9
ENDBRANCH   5   8
BRANCH   2  18
ATOM     18  C   UNL d   1      11.461   8.718  -5.066  0.00  0.00     0.017 A 
ATOM     19  C   UNL d   1      11.859   7.536  -4.428  0.00  0.00     0.067 A 
ATOM     20  C   UNL d   1      12.247   7.511  -3.062  0.00  0.00     0.068 A 
ATOM     21 CL   UNL d   1      11.864   6.104  -5.333  0.00  0.00    -0.082 Cl
ATOM     22  C   UNL d   1      12.261   8.694  -2.312  0.00  0.00     0.012 A 
ATOM     23 CL   UNL d   1      12.660   6.046  -2.269  0.00  0.00    -0.082 Cl
ATOM     24  C   UNL d   1      11.858   9.881  -2.939  0.00  0.00     0.001 A 
ATOM     25  C   UNL d   1      11.433   9.881  -4.274  0.00  0.00    -0.001 A 
ENDBRANCH   2  18
TORSDOF 3
