REMARK  7 active torsions:
REMARK  status: ('A' for Active; 'I' for Inactive)
REMARK    1  A    between atoms: N_17  and  C_18 
REMARK    2  A    between atoms: C_18  and  C_19 
REMARK    3  A    between atoms: C_19  and  C_20 
REMARK    4  A    between atoms: C_20  and  C_21 
REMARK    5  A    between atoms: C_21  and  C_22 
REMARK    6  A    between atoms: C_22  and  N_23 
REMARK    7  A    between atoms: N_26  and  C_27 
ROOT
ATOM      1  C   UNL d   1       6.895   3.554 -13.680  0.00  0.00     0.124 C 
ENDROOT
BRANCH   1   2
ATOM      2  N   UNL d   1       7.293   2.322 -14.349  0.00  0.00    -0.165 N 
ATOM      3  C   UNL d   1       6.766   1.013 -14.317  0.00  0.00     0.073 A 
ATOM      4  C   UNL d   1       5.581   0.612 -13.508  0.00  0.00     0.052 C 
ATOM      5  C   UNL d   1       7.587   0.270 -15.140  0.00  0.00     0.112 A 
ATOM      6  N   UNL d   1       8.562   1.053 -15.655  0.00  0.00    -0.132 N 
ATOM      7  C   UNL d   1       8.365   2.319 -15.184  0.00  0.00     0.718 A 
ATOM      8  C   UNL d   1       9.684   1.127 -16.458  0.00  0.00     0.172 A 
ATOM      9  N   UNL d   1       9.229   3.209 -15.617  0.00  0.00    -0.043 NA
ATOM     10  C   UNL d   1      10.068   2.421 -16.407  0.00  0.00     0.187 A 
ATOM     11  N   UNL d   1      11.225   2.785 -17.144  0.00  0.00    -0.263 N 
ATOM     12  C   UNL d   1      11.918   1.857 -17.886  0.00  0.00     0.335 A 
ATOM     13  C   UNL d   1      11.678   4.181 -17.121  0.00  0.00     0.137 C 
ATOM     14  N   UNL d   1      11.456   0.549 -17.902  0.00  0.00    -0.246 N 
ATOM     15  O   UNL d   1      12.922   2.195 -18.518  0.00  0.00    -0.246 OA
ATOM     16  C   UNL d   1      10.361   0.093 -17.224  0.00  0.00     0.284 A 
ATOM     17  C   UNL d   1      12.177  -0.457 -18.701  0.00  0.00     0.139 C 
ATOM     18  O   UNL d   1       9.951  -1.070 -17.238  0.00  0.00    -0.265 OA
ENDBRANCH   1   2
BRANCH   1  19
ATOM     19  C   UNL d   1       7.980   4.088 -12.723  0.00  0.00     0.025 C 
BRANCH  19  20
ATOM     20  C   UNL d   1       7.897   5.605 -12.558  0.00  0.00     0.004 C 
BRANCH  20  21
ATOM     21  C   UNL d   1       9.011   6.115 -11.651  0.00  0.00     0.035 C 
BRANCH  21  22
ATOM     22  C   UNL d   1       8.728   5.831 -10.165  0.00  0.00     0.250 C 
BRANCH  22  23
ATOM     23  N   UNL d   1       9.868   6.181  -9.335  0.00  0.00     0.141 N 
ATOM     24  C   UNL d   1      10.121   7.632  -9.320  0.00  0.00     0.274 C 
ATOM     25  C   UNL d   1      11.327   7.961  -8.425  0.00  0.00     0.137 C 
ATOM     26  N   UNL d   1      11.130   7.426  -7.081  0.00  0.00    -0.343 N 
ATOM     27  C   UNL d   1      10.706   6.037  -7.043  0.00  0.00     0.137 C 
ATOM     28  C   UNL d   1       9.530   5.772  -7.977  0.00  0.00     0.274 C 
BRANCH  26  29
ATOM     29  C   UNL d   1      11.236   8.207  -5.913  0.00  0.00     0.082 A 
ATOM     30  C   UNL d   1      11.713   7.706  -4.658  0.00  0.00     0.146 A 
ATOM     31  C   UNL d   1      11.861   8.525  -3.545  0.00  0.00     0.029 A 
ATOM     32  O   UNL d   1      12.070   6.400  -4.489  0.00  0.00    -0.189 OA
ATOM     33  C   UNL d   1      11.460   9.857  -3.624  0.00  0.00     0.002 A 
ATOM     34  C   UNL d   1      10.966  10.375  -4.823  0.00  0.00     0.002 A 
ATOM     35  C   UNL d   1      10.858   9.573  -5.963  0.00  0.00     0.019 A 
ENDBRANCH  26  29
ENDBRANCH  22  23
ENDBRANCH  21  22
ENDBRANCH  20  21
ENDBRANCH  19  20
ENDBRANCH   1  19
TORSDOF 7
