REMARK  7 active torsions:
REMARK  status: ('A' for Active; 'I' for Inactive)
REMARK    1  A    between atoms: N_10  and  C_11 
REMARK    2  A    between atoms: C_11  and  C_12 
REMARK    3  A    between atoms: C_12  and  C_13 
REMARK    4  A    between atoms: C_13  and  C_14 
REMARK    5  A    between atoms: C_14  and  N_15 
REMARK    6  A    between atoms: N_18  and  C_19 
REMARK    7  A    between atoms: C_23  and  C_24 
ROOT
ATOM      1  N   UNL d   1       9.861   6.377  -9.786  0.00  0.00     0.141 N 
ATOM      2  C   UNL d   1       9.467   5.908  -8.449  0.00  0.00     0.274 C 
ATOM      3  C   UNL d   1      10.615   6.087  -7.439  0.00  0.00     0.137 C 
ATOM      4  N   UNL d   1      11.064   7.464  -7.424  0.00  0.00    -0.344 N 
ATOM      5  C   UNL d   1      11.364   8.044  -8.727  0.00  0.00     0.137 C 
ATOM      6  C   UNL d   1      10.182   7.806  -9.690  0.00  0.00     0.274 C 
ENDROOT
BRANCH   1   7
ATOM      7  C   UNL d   1       8.743   6.197 -10.707  0.00  0.00     0.251 C 
BRANCH   7   8
ATOM      8  C   UNL d   1       8.721   4.777 -11.305  0.00  0.00     0.037 C 
BRANCH   8   9
ATOM      9  C   UNL d   1       9.335   4.758 -12.708  0.00  0.00     0.027 C 
BRANCH   9  10
ATOM     10  C   UNL d   1       9.615   3.333 -13.215  0.00  0.00     0.109 C 
BRANCH  10  11
ATOM     11  N   UNL d   1      10.250   3.326 -14.531  0.00  0.00    -0.299 N 
ATOM     12  C   UNL d   1      11.466   3.828 -14.835  0.00  0.00     0.242 A 
ATOM     13  O   UNL d   1      12.252   4.373 -14.055  0.00  0.00    -0.272 OA
ATOM     14  C   UNL d   1      11.782   3.642 -16.325  0.00  0.00     0.116 A 
ATOM     15  C   UNL d   1      10.517   2.949 -16.761  0.00  0.00     0.003 A 
ATOM     16  C   UNL d   1       9.657   2.776 -15.684  0.00  0.00     0.059 A 
ATOM     17  C   UNL d   1      10.168   2.517 -18.052  0.00  0.00    -0.002 A 
ATOM     18  C   UNL d   1       8.403   2.147 -15.840  0.00  0.00     0.017 A 
ATOM     19  C   UNL d   1       8.039   1.704 -17.131  0.00  0.00     0.002 A 
ATOM     20  C   UNL d   1       8.914   1.889 -18.228  0.00  0.00    -0.000 A 
ENDBRANCH  10  11
ENDBRANCH   9  10
ENDBRANCH   8   9
ENDBRANCH   7   8
ENDBRANCH   1   7
BRANCH   4  21
ATOM     21  C   UNL d   1      11.171   8.170  -6.209  0.00  0.00     0.056 A 
ATOM     22  C   UNL d   1      11.522   7.506  -5.012  0.00  0.00     0.021 A 
ATOM     23  C   UNL d   1      11.696   8.220  -3.808  0.00  0.00     0.073 A 
ATOM     24  C   UNL d   1      11.456   9.606  -3.787  0.00  0.00     0.004 A 
ATOM     25  C   UNL d   1      11.058  10.262  -4.961  0.00  0.00     0.001 A 
ATOM     26  C   UNL d   1      10.945   9.559  -6.173  0.00  0.00     0.017 A 
BRANCH  23  27
ATOM     27  C   UNL d   1      12.104   7.480  -2.542  0.00  0.00     0.419 C 
ATOM     28  F   UNL d   1      13.054   6.612  -2.826  0.00  0.00    -0.166 F 
ATOM     29  F   UNL d   1      12.576   8.313  -1.612  0.00  0.00    -0.166 F 
ATOM     30  F   UNL d   1      11.059   6.810  -2.056  0.00  0.00    -0.166 F 
ENDBRANCH  23  27
ENDBRANCH   4  21
TORSDOF 7
