REMARK  8 active torsions:
REMARK  status: ('A' for Active; 'I' for Inactive)
REMARK       I    between atoms: N_2  and  C_4 
REMARK    1  A    between atoms: C_4  and  C_6 
REMARK    2  A    between atoms: C_6  and  C_7 
REMARK    3  A    between atoms: C_7  and  C_8 
REMARK       I    between atoms: C_8  and  N_10 
REMARK    4  A    between atoms: N_10  and  C_11 
REMARK    5  A    between atoms: C_14  and  C_15 
REMARK    6  A    between atoms: C_15  and  C_16 
REMARK    7  A    between atoms: C_16  and  N_17 
REMARK    8  A    between atoms: N_20  and  C_21 
ROOT
ATOM      1  C   UNL d   1       7.369   1.899 -16.022  0.00  0.00     0.035 C 
ENDROOT
BRANCH   1   2
ATOM      2  C   UNL d   1       7.567   2.390 -14.576  0.00  0.00     0.002 C 
ATOM      3  C   UNL d   1       8.825   3.281 -14.438  0.00  0.00     0.002 C 
ATOM      4  C   UNL d   1       8.983   3.835 -13.025  0.00  0.00     0.024 C 
ATOM      5  C   UNL d   1       7.713   4.591 -12.554  0.00  0.00     0.106 C 
ATOM      6  C   UNL d   1       6.446   3.720 -12.688  0.00  0.00     0.024 C 
ATOM      7  C   UNL d   1       6.311   3.136 -14.095  0.00  0.00     0.002 C 
BRANCH   5   8
ATOM      8  N   UNL d   1       7.853   5.020 -11.169  0.00  0.00    -0.240 NA
ATOM      9  C   UNL d   1       8.740   5.930 -10.743  0.00  0.00     0.252 C 
ATOM     10  O   UNL d   1       9.460   6.563 -11.508  0.00  0.00    -0.271 OA
BRANCH   9  11
ATOM     11  C   UNL d   1       8.847   6.114  -9.226  0.00  0.00     0.099 C 
BRANCH  11  12
ATOM     12  C   UNL d   1       9.861   7.202  -8.828  0.00  0.00     0.098 C 
BRANCH  12  13
ATOM     13  C   UNL d   1      10.078   7.366  -7.318  0.00  0.00     0.234 C 
ATOM     14  N   UNL d   1      11.095   8.150  -6.890  0.00  0.00    -0.316 N 
ATOM     15  C   UNL d   1      11.334   8.373  -5.463  0.00  0.00     0.128 C 
ATOM     16  C   UNL d   1      12.040   8.800  -7.802  0.00  0.00     0.128 C 
ATOM     17  O   UNL d   1       9.331   6.791  -6.524  0.00  0.00    -0.272 OA
ENDBRANCH  12  13
ENDBRANCH  11  12
ENDBRANCH   9  11
ENDBRANCH   5   8
ENDBRANCH   1   2
BRANCH   1  18
ATOM     18  C   UNL d   1       8.352   0.775 -16.370  0.00  0.00     0.250 C 
BRANCH  18  19
ATOM     19  N   UNL d   1       8.392   0.505 -17.805  0.00  0.00     0.141 N 
ATOM     20  C   UNL d   1       9.089  -0.756 -18.094  0.00  0.00     0.274 C 
ATOM     21  C   UNL d   1      10.582  -0.676 -17.665  0.00  0.00     0.138 C 
ATOM     22  N   UNL d   1      11.222   0.498 -18.289  0.00  0.00    -0.330 N 
ATOM     23  C   UNL d   1      10.511   1.776 -18.230  0.00  0.00     0.138 C 
ATOM     24  C   UNL d   1       9.029   1.575 -18.593  0.00  0.00     0.274 C 
BRANCH  22  25
ATOM     25  C   UNL d   1      12.434   0.389 -18.969  0.00  0.00     0.138 A 
ATOM     26  C   UNL d   1      13.362   1.459 -19.040  0.00  0.00     0.036 A 
ATOM     27  C   UNL d   1      14.556   1.310 -19.729  0.00  0.00     0.095 A 
ATOM     28  C   UNL d   1      13.341   2.813 -18.409  0.00  0.00     0.064 C 
ATOM     29  C   UNL d   1      14.830   0.103 -20.387  0.00  0.00     0.045 A 
ATOM     30  O   UNL d   1      15.368   2.401 -19.635  0.00  0.00    -0.331 OA
ATOM     31  C   UNL d   1      13.868  -0.925 -20.278  0.00  0.00     0.103 A 
ATOM     32  N   UNL d   1      12.714  -0.790 -19.579  0.00  0.00    -0.228 NA
ATOM     33  C   UNL d   1      14.755   3.334 -18.722  0.00  0.00     0.154 C 
ENDBRANCH  22  25
ENDBRANCH  18  19
ENDBRANCH   1  18
TORSDOF 8
