REMARK  10 active torsions:
REMARK  status: ('A' for Active; 'I' for Inactive)
REMARK    1  A    between atoms: O_2  and  C_3 
REMARK    2  A    between atoms: C_6  and  C_7 
REMARK    3  A    between atoms: C_9  and  C_10 
REMARK    4  A    between atoms: C_10  and  C_11 
REMARK    5  A    between atoms: C_11  and  C_12 
REMARK    6  A    between atoms: C_12  and  C_13 
REMARK    7  A    between atoms: C_13  and  N_14 
REMARK    8  A    between atoms: N_17  and  C_18 
REMARK    9  A    between atoms: C_23  and  O_24 
REMARK   10  A    between atoms: C_30  and  O_31 
ROOT
ATOM      1  C   UNL d   1       9.500   5.941 -12.627  0.00  0.00     0.009 C 
ENDROOT
BRANCH   1   2
ATOM      2  C   UNL d   1       8.684   5.030 -13.542  0.00  0.00     0.054 C 
BRANCH   2   3
ATOM      3  C   UNL d   1       9.509   4.349 -14.572  0.00  0.00     0.104 A 
ATOM      4  C   UNL d   1       9.368   3.154 -15.209  0.00  0.00     0.044 A 
ATOM      5  C   UNL d   1      10.454   3.115 -16.126  0.00  0.00     0.112 A 
ATOM      6  N   UNL d   1      11.181   4.226 -16.038  0.00  0.00    -0.127 NA
ATOM      7  O   UNL d   1      10.579   5.022 -15.066  0.00  0.00    -0.215 OA
BRANCH   5   8
ATOM      8  C   UNL d   1      10.834   2.084 -17.105  0.00  0.00     0.042 A 
ATOM      9  C   UNL d   1      12.178   2.042 -17.503  0.00  0.00     0.006 A 
ATOM     10  C   UNL d   1      12.640   1.112 -18.432  0.00  0.00     0.024 A 
ATOM     11  C   UNL d   1      11.743   0.155 -18.991  0.00  0.00     0.096 A 
ATOM     12  C   UNL d   1      10.398   0.185 -18.585  0.00  0.00     0.048 A 
ATOM     13  C   UNL d   1       9.918   1.133 -17.641  0.00  0.00     0.098 A 
BRANCH  11  14
ATOM     14  O   UNL d   1      12.085  -0.798 -19.925  0.00  0.00    -0.328 OA
ATOM     15  C   UNL d   1      13.469  -0.889 -20.294  0.00  0.00     0.181 C 
ENDBRANCH  11  14
BRANCH  13  16
ATOM     16  O   UNL d   1       8.597   1.237 -17.223  0.00  0.00    -0.328 OA
ATOM     17  C   UNL d   1       7.636   0.310 -17.697  0.00  0.00     0.181 C 
ENDBRANCH  13  16
ENDBRANCH   5   8
ENDBRANCH   2   3
ENDBRANCH   1   2
BRANCH   1  18
ATOM     18  C   UNL d   1       8.638   6.754 -11.667  0.00  0.00     0.036 C 
BRANCH  18  19
ATOM     19  C   UNL d   1       9.468   7.844 -10.944  0.00  0.00     0.250 C 
BRANCH  19  20
ATOM     20  N   UNL d   1      10.301   7.324  -9.855  0.00  0.00     0.141 N 
ATOM     21  C   UNL d   1       9.489   6.842  -8.734  0.00  0.00     0.274 C 
ATOM     22  C   UNL d   1      10.391   6.267  -7.638  0.00  0.00     0.137 C 
ATOM     23  N   UNL d   1      11.357   7.266  -7.209  0.00  0.00    -0.343 N 
ATOM     24  C   UNL d   1      12.108   7.927  -8.272  0.00  0.00     0.137 C 
ATOM     25  C   UNL d   1      11.142   8.424  -9.373  0.00  0.00     0.274 C 
BRANCH  23  26
ATOM     26  C   UNL d   1      11.421   7.660  -5.858  0.00  0.00     0.079 A 
ATOM     27  C   UNL d   1      11.476   9.025  -5.480  0.00  0.00     0.110 A 
ATOM     28  C   UNL d   1      11.656   9.355  -4.100  0.00  0.00     0.026 A 
ATOM     29  C   UNL d   1      11.800   8.363  -3.127  0.00  0.00     0.002 A 
ATOM     30  C   UNL d   1      11.692   7.010  -3.495  0.00  0.00     0.002 A 
ATOM     31  C   UNL d   1      11.496   6.679  -4.856  0.00  0.00     0.019 A 
BRANCH  27  32
ATOM     32  O   UNL d   1      11.273   9.954  -6.467  0.00  0.00    -0.327 OA
ATOM     33  C   UNL d   1      11.914  11.169  -6.271  0.00  0.00     0.181 C 
ENDBRANCH  27  32
ENDBRANCH  23  26
ENDBRANCH  19  20
ENDBRANCH  18  19
ENDBRANCH   1  18
TORSDOF 10
