REMARK  6 active torsions:
REMARK  status: ('A' for Active; 'I' for Inactive)
REMARK    1  A    between atoms: C_2  and  C_3 
REMARK    2  A    between atoms: C_8  and  O_9 
REMARK    3  A    between atoms: C_11  and  C_12 
REMARK       I    between atoms: C_12  and  N_14 
REMARK    4  A    between atoms: N_14  and  C_15 
REMARK    5  A    between atoms: C_15  and  C_16 
REMARK    6  A    between atoms: N_20  and  C_21 
ROOT
ATOM      1  C   UNL d   1       7.482   3.202 -13.797  0.00  0.00    -0.015 A 
ATOM      2  C   UNL d   1       7.153   2.038 -14.509  0.00  0.00    -0.002 A 
ATOM      3  C   UNL d   1       8.157   1.221 -15.062  0.00  0.00     0.029 A 
ATOM      4  C   UNL d   1       9.505   1.568 -14.918  0.00  0.00     0.153 A 
ATOM      5  O   UNL d   1      10.454   0.736 -15.437  0.00  0.00    -0.188 OA
ATOM      6  C   UNL d   1       9.871   2.745 -14.216  0.00  0.00     0.124 A 
ATOM      7  C   UNL d   1       8.864   3.549 -13.627  0.00  0.00     0.078 A 
ENDROOT
BRANCH   7   8
ATOM      8  C   UNL d   1       9.263   4.782 -12.859  0.00  0.00     0.277 C 
ATOM      9  O   UNL d   1      10.060   5.585 -13.330  0.00  0.00    -0.266 OA
ATOM     10  N   UNL d   1       8.684   4.918 -11.663  0.00  0.00    -0.232 NA
BRANCH  10  11
ATOM     11  C   UNL d   1       8.621   6.146 -10.893  0.00  0.00     0.162 C 
BRANCH  11  12
ATOM     12  C   UNL d   1       9.823   6.248  -9.934  0.00  0.00     0.243 C 
ATOM     13  N   UNL d   1       9.919   7.530  -9.233  0.00  0.00     0.137 N 
ATOM     14  C   UNL d   1      10.811   7.273  -8.103  0.00  0.00     0.250 C 
ATOM     15  C   UNL d   1      10.395   5.903  -7.608  0.00  0.00     0.037 C 
ATOM     16  C   UNL d   1       9.752   5.210  -8.805  0.00  0.00     0.037 C 
BRANCH  13  17
ATOM     17  C   UNL d   1      10.322   8.639 -10.085  0.00  0.00     0.250 C 
ATOM     18  C   UNL d   1      11.848   8.881 -10.157  0.00  0.00     0.037 C 
ENDBRANCH  13  17
ENDBRANCH  11  12
ENDBRANCH  10  11
ENDBRANCH   7   8
BRANCH   1  19
ATOM     19  C   UNL d   1       6.321   4.024 -13.238  0.00  0.00     0.027 C 
ATOM     20  C   UNL d   1       5.856   3.523 -11.861  0.00  0.00     0.005 C 
ENDBRANCH   1  19
BRANCH   6  21
ATOM     21  O   UNL d   1      11.199   3.082 -14.048  0.00  0.00    -0.326 OA
ATOM     22  C   UNL d   1      11.944   3.306 -15.239  0.00  0.00     0.181 C 
ENDBRANCH   6  21
TORSDOF 6
