REMARK  5 active torsions:
REMARK  status: ('A' for Active; 'I' for Inactive)
REMARK       I    between atoms: N_10  and  C_11 
REMARK    1  A    between atoms: C_11  and  C_13 
REMARK    2  A    between atoms: C_13  and  C_14 
REMARK    3  A    between atoms: N_17  and  C_18 
REMARK    4  A    between atoms: C_18  and  C_19 
REMARK    5  A    between atoms: C_22  and  N_23 
ROOT
ATOM      1  C   UNL d   1       6.905   3.452 -13.994  0.00  0.00     0.013 C 
ATOM      2  C   UNL d   1       8.413   3.723 -14.229  0.00  0.00     0.036 C 
ATOM      3  C   UNL d   1       8.790   5.147 -13.923  0.00  0.00     0.251 C 
ATOM      4  N   UNL d   1       8.509   5.427 -12.532  0.00  0.00     0.141 N 
ATOM      5  C   UNL d   1       7.072   5.333 -12.264  0.00  0.00     0.251 C 
ATOM      6  C   UNL d   1       6.556   3.911 -12.553  0.00  0.00     0.036 C 
ENDROOT
BRANCH   1   7
ATOM      7  C   UNL d   1       6.487   1.988 -14.243  0.00  0.00     0.088 C 
BRANCH   7   8
ATOM      8  C   UNL d   1       6.764   1.390 -15.636  0.00  0.00     0.237 C 
ATOM      9  N   UNL d   1       6.069   0.333 -16.072  0.00  0.00    -0.301 N 
ATOM     10  C   UNL d   1       4.969  -0.327 -15.338  0.00  0.00     0.093 C 
ATOM     11  C   UNL d   1       6.176  -0.243 -17.371  0.00  0.00     0.058 A 
ATOM     12  C   UNL d   1       5.513  -1.136 -14.151  0.00  0.00     0.025 C 
ATOM     13  C   UNL d   1       4.244  -1.241 -16.362  0.00  0.00     0.051 C 
ATOM     14  C   UNL d   1       5.133  -1.129 -17.576  0.00  0.00    -0.004 A 
ATOM     15  C   UNL d   1       4.983  -1.832 -18.786  0.00  0.00    -0.003 A 
ATOM     16  C   UNL d   1       5.943  -1.621 -19.802  0.00  0.00    -0.000 A 
ATOM     17  C   UNL d   1       7.021  -0.733 -19.601  0.00  0.00     0.002 A 
ATOM     18  C   UNL d   1       7.151  -0.040 -18.387  0.00  0.00     0.017 A 
ATOM     19  O   UNL d   1       7.666   1.910 -16.331  0.00  0.00    -0.272 OA
ENDBRANCH   7   8
ENDBRANCH   1   7
BRANCH   4  20
ATOM     20  C   UNL d   1       9.014   6.756 -12.204  0.00  0.00     0.277 C 
BRANCH  20  21
ATOM     21  C   UNL d   1       9.458   6.898 -10.760  0.00  0.00     0.011 A 
ATOM     22  C   UNL d   1       9.876   8.168 -10.309  0.00  0.00    -0.001 A 
ATOM     23  C   UNL d   1      10.280   8.346  -8.975  0.00  0.00     0.023 A 
ATOM     24  C   UNL d   1      10.277   7.261  -8.074  0.00  0.00     0.127 A 
ATOM     25  C   UNL d   1       9.859   5.991  -8.528  0.00  0.00     0.023 A 
ATOM     26  C   UNL d   1       9.461   5.807  -9.862  0.00  0.00    -0.001 A 
BRANCH  24  27
ATOM     27  N   UNL d   1      10.715   7.443  -6.684  0.00  0.00    -0.114 N 
ATOM     28  O   UNL d   1      11.095   6.455  -6.067  0.00  0.00    -0.532 OA
ATOM     29  O   UNL d   1      10.701   8.577  -6.212  0.00  0.00    -0.532 OA
ENDBRANCH  24  27
ENDBRANCH  20  21
ENDBRANCH   4  20
TORSDOF 5
