REMARK  7 active torsions:
REMARK  status: ('A' for Active; 'I' for Inactive)
REMARK    1  A    between atoms: C_4  and  N_5 
REMARK    2  A    between atoms: N_5  and  S_6 
REMARK    3  A    between atoms: S_6  and  C_9 
REMARK    4  A    between atoms: N_21  and  C_22 
REMARK    5  A    between atoms: C_22  and  C_23 
REMARK    6  A    between atoms: C_23  and  C_24 
REMARK    7  A    between atoms: C_24  and  C_25 
ROOT
ATOM      1  C   UNL d   1       4.803   2.002 -12.818  0.00  0.00     0.035 C 
ATOM      2  C   UNL d   1       5.610   3.267 -13.202  0.00  0.00     0.221 C 
ATOM      3  C   UNL d   1       5.816   4.158 -11.970  0.00  0.00     0.060 C 
ATOM      4  C   UNL d   1       7.255   4.618 -12.126  0.00  0.00     0.151 C 
ATOM      5  C   UNL d   1       7.745   4.089 -13.474  0.00  0.00     0.275 C 
ATOM      6  N   UNL d   1       6.960   2.883 -13.632  0.00  0.00     0.137 N 
ENDROOT
BRANCH   4   7
ATOM      7  N   UNL d   1       7.380   6.080 -12.040  0.00  0.00    -0.185 NA
BRANCH   7   8
ATOM      8  S   UNL d   1       8.917   6.857 -12.002  0.00  0.00     0.281 S 
ATOM      9  O   UNL d   1       9.824   5.982 -12.763  0.00  0.00    -0.199 OA
ATOM     10  O   UNL d   1       8.727   8.232 -12.417  0.00  0.00    -0.199 OA
BRANCH   8  11
ATOM     11  C   UNL d   1       9.457   6.840 -10.279  0.00  0.00     0.105 A 
ATOM     12  C   UNL d   1       9.982   8.035  -9.706  0.00  0.00     0.013 A 
ATOM     13  C   UNL d   1      10.382   8.027  -8.352  0.00  0.00     0.001 A 
ATOM     14  C   UNL d   1      10.204   6.867  -7.560  0.00  0.00     0.001 A 
ATOM     15  C   UNL d   1      10.998   9.157  -7.752  0.00  0.00     0.001 A 
ATOM     16  C   UNL d   1       9.629   5.718  -8.132  0.00  0.00     0.001 A 
ATOM     17  C   UNL d   1      10.646   6.824  -6.233  0.00  0.00     0.011 A 
ATOM     18  C   UNL d   1       9.288   5.678  -9.483  0.00  0.00     0.013 A 
ATOM     19  C   UNL d   1      11.283   7.936  -5.645  0.00  0.00     0.058 A 
ATOM     20 CL   UNL d   1      11.861   7.802  -4.004  0.00  0.00    -0.082 Cl
ATOM     21  C   UNL d   1      11.457   9.103  -6.418  0.00  0.00     0.011 A 
ENDBRANCH   8  11
ENDBRANCH   7   8
ENDBRANCH   4   7
BRANCH   6  22
ATOM     22  C   UNL d   1       7.056   2.224 -14.923  0.00  0.00     0.251 C 
BRANCH  22  23
ATOM     23  C   UNL d   1       8.532   1.893 -15.257  0.00  0.00     0.042 C 
BRANCH  23  24
ATOM     24  C   UNL d   1       8.629   1.418 -16.698  0.00  0.00     0.050 C 
BRANCH  24  25
ATOM     25  C   UNL d   1      10.047   1.347 -17.171  0.00  0.00     0.088 A 
ATOM     26  C   UNL d   1      10.921   2.374 -17.595  0.00  0.00     0.041 A 
ATOM     27  C   UNL d   1      12.146   1.803 -17.936  0.00  0.00     0.129 A 
ATOM     28  C   UNL d   1      10.750   3.773 -17.701  0.00  0.00     0.006 A 
ATOM     29  O   UNL d   1      11.989   0.446 -17.701  0.00  0.00    -0.211 OA
ATOM     30  C   UNL d   1      13.237   2.557 -18.393  0.00  0.00     0.057 A 
ATOM     31  N   UNL d   1      10.681   0.180 -17.212  0.00  0.00    -0.131 NA
ATOM     32  C   UNL d   1      13.074   3.955 -18.499  0.00  0.00     0.142 A 
ATOM     33  F   UNL d   1      14.106   4.721 -18.924  0.00  0.00    -0.204 F 
ATOM     34  C   UNL d   1      11.838   4.557 -18.155  0.00  0.00     0.030 A 
ENDBRANCH  24  25
ENDBRANCH  23  24
ENDBRANCH  22  23
ENDBRANCH   6  22
TORSDOF 7
