REMARK  0 active torsions:
REMARK  status: ('A' for Active; 'I' for Inactive)
ROOT
ATOM      1  C   UNL d   1      10.969   3.480 -18.893  0.00  0.00     0.052 C 
ATOM      2  C   UNL d   1      10.094   3.110 -17.721  0.00  0.00     0.059 A 
ATOM      3  C   UNL d   1       9.216   2.011 -17.788  0.00  0.00     0.014 A 
ATOM      4  C   UNL d   1       8.429   1.708 -16.665  0.00  0.00    -0.002 A 
ATOM      5  C   UNL d   1       8.560   2.512 -15.508  0.00  0.00    -0.001 A 
ATOM      6  C   UNL d   1       9.454   3.608 -15.559  0.00  0.00     0.091 A 
ATOM      7  N   UNL d   1      10.207   3.901 -16.634  0.00  0.00    -0.252 NA
ATOM      8  C   UNL d   1       9.514   4.626 -14.415  0.00  0.00     0.335 C 
ATOM      9  N   UNL d   1       8.716   4.328 -13.227  0.00  0.00     0.344 N 
ATOM     10  C   UNL d   1       7.465   3.697 -13.598  0.00  0.00     0.265 C 
ATOM     11  C   UNL d   1       6.431   3.734 -12.447  0.00  0.00     0.041 C 
ATOM     12  C   UNL d   1       5.173   3.039 -12.973  0.00  0.00     0.028 C 
ATOM     13  C   UNL d   1       5.439   1.683 -13.589  0.00  0.00    -0.024 C 
ATOM     14  C   UNL d   1       4.369   0.787 -13.621  0.00  0.00     0.025 C 
ATOM     15  C   UNL d   1       4.452  -0.452 -14.185  0.00  0.00     0.156 C 
ATOM     16  O   UNL d   1       3.336  -1.227 -14.262  0.00  0.00    -0.188 OA
ATOM     17  C   UNL d   1       5.697  -0.901 -14.626  0.00  0.00     0.156 C 
ATOM     18  O   UNL d   1       5.797  -2.160 -15.091  0.00  0.00    -0.188 OA
ATOM     19  C   UNL d   1       6.811  -0.033 -14.592  0.00  0.00     0.025 C 
ATOM     20  C   UNL d   1       6.676   1.293 -14.162  0.00  0.00    -0.018 C 
ATOM     21  C   UNL d   1       7.819   2.296 -14.188  0.00  0.00     0.079 C 
ENDROOT
TORSDOF 0
