REMARK  7 active torsions:
REMARK  status: ('A' for Active; 'I' for Inactive)
REMARK    1  A    between atoms: C_6  and  C_7 
REMARK    2  A    between atoms: C_10  and  S_11 
REMARK    3  A    between atoms: S_11  and  C_12 
REMARK    4  A    between atoms: C_12  and  C_13 
REMARK    5  A    between atoms: C_13  and  C_14 
REMARK    6  A    between atoms: C_14  and  N_15 
REMARK    7  A    between atoms: C_19  and  C_20 
ROOT
ATOM      1  C   UNL d   1      10.432   3.973 -15.624  0.00  0.00     0.047 C 
ENDROOT
BRANCH   1   2
ATOM      2  C   UNL d   1      11.226   2.921 -16.418  0.00  0.00     0.067 C 
BRANCH   2   3
ATOM      3  S   UNL d   1      11.680   3.496 -18.074  0.00  0.00    -0.075 SA
BRANCH   3   4
ATOM      4  C   UNL d   1      12.683   4.891 -17.704  0.00  0.00     0.193 A 
ATOM      5  N   UNL d   1      13.223   5.166 -16.520  0.00  0.00    -0.122 NA
ATOM      6  N   UNL d   1      13.855   6.365 -16.671  0.00  0.00    -0.126 NA
ATOM      7  C   UNL d   1      13.718   6.699 -17.955  0.00  0.00     0.191 A 
ATOM      8  N   UNL d   1      12.984   5.800 -18.649  0.00  0.00    -0.287 N 
ATOM      9  C   UNL d   1      12.667   5.764 -20.071  0.00  0.00     0.134 C 
BRANCH   7  10
ATOM     10  C   UNL d   1      14.364   7.905 -18.489  0.00  0.00     0.151 A 
ATOM     11  C   UNL d   1      15.132   8.187 -19.601  0.00  0.00     0.087 A 
ATOM     12  C   UNL d   1      15.587   7.325 -20.741  0.00  0.00     0.054 C 
ATOM     13  N   UNL d   1      15.495   9.523 -19.552  0.00  0.00    -0.221 NA
ATOM     14  C   UNL d   1      14.941   9.991 -18.443  0.00  0.00     0.225 A 
ATOM     15  O   UNL d   1      14.264   9.043 -17.734  0.00  0.00    -0.282 OA
ENDBRANCH   7  10
ENDBRANCH   3   4
ENDBRANCH   2   3
ENDBRANCH   1   2
BRANCH   1  16
ATOM     16  C   UNL d   1      10.058   3.460 -14.233  0.00  0.00     0.251 C 
BRANCH  16  17
ATOM     17  N   UNL d   1       9.664   4.586 -13.388  0.00  0.00     0.137 N 
ATOM     18  C   UNL d   1       9.365   4.149 -12.023  0.00  0.00     0.254 C 
ATOM     19  C   UNL d   1       8.512   5.264 -11.461  0.00  0.00     0.052 A 
ATOM     20  C   UNL d   1       7.907   5.945 -12.652  0.00  0.00     0.039 A 
ATOM     21  C   UNL d   1       7.006   5.298 -11.639  0.00  0.00     0.008 A 
ATOM     22  C   UNL d   1       8.427   5.217 -13.863  0.00  0.00     0.251 C 
BRANCH  19  23
ATOM     23  C   UNL d   1       9.169   6.064 -10.382  0.00  0.00    -0.019 A 
ATOM     24  C   UNL d   1       9.856   7.259 -10.688  0.00  0.00     0.025 A 
ATOM     25  C   UNL d   1      10.444   8.036  -9.673  0.00  0.00     0.140 A 
ATOM     26  C   UNL d   1      10.346   7.628  -8.332  0.00  0.00     0.030 A 
ATOM     27  F   UNL d   1      11.101   9.182  -9.987  0.00  0.00    -0.204 F 
ATOM     28  C   UNL d   1       9.659   6.441  -8.012  0.00  0.00     0.002 A 
ATOM     29  C   UNL d   1       9.074   5.662  -9.033  0.00  0.00    -0.004 A 
ENDBRANCH  19  23
ENDBRANCH  16  17
ENDBRANCH   1  16
TORSDOF 7
