REMARK  10 active torsions:
REMARK  status: ('A' for Active; 'I' for Inactive)
REMARK    1  A    between atoms: C_7  and  C_8 
REMARK    2  A    between atoms: C_8  and  C_9 
REMARK    3  A    between atoms: C_9  and  C_10 
REMARK    4  A    between atoms: C_10  and  N_11 
REMARK       I    between atoms: N_11  and  C_12 
REMARK       I    between atoms: N_14  and  C_15 
REMARK       I    between atoms: C_15  and  N_17 
REMARK    5  A    between atoms: N_17  and  C_18 
REMARK    6  A    between atoms: C_18  and  C_19 
REMARK    7  A    between atoms: C_19  and  C_21 
REMARK    8  A    between atoms: C_21  and  C_22 
REMARK    9  A    between atoms: C_22  and  C_23 
REMARK   10  A    between atoms: C_23  and  C_24 
ROOT
ATOM      1  N   UNL d   1      10.378   2.912 -15.268  0.00  0.00    -0.241 NA
ATOM      2  C   UNL d   1      10.142   4.071 -14.541  0.00  0.00     0.237 C 
ATOM      3  N   UNL d   1      10.732   5.175 -15.133  0.00  0.00    -0.060 NA
ATOM      4  N   UNL d   1       9.439   4.040 -13.448  0.00  0.00    -0.159 NA
ATOM      5  C   UNL d   1       9.187   5.163 -12.677  0.00  0.00     0.367 C 
ATOM      6  O   UNL d   1       9.485   6.338 -12.892  0.00  0.00    -0.243 OA
ATOM      7  N   UNL d   1       8.561   4.827 -11.553  0.00  0.00    -0.217 NA
ENDROOT
BRANCH   7   8
ATOM      8  C   UNL d   1       8.307   5.801 -10.495  0.00  0.00     0.131 C 
BRANCH   8   9
ATOM      9  C   UNL d   1       9.521   6.002  -9.575  0.00  0.00     0.025 C 
ATOM     10  C   UNL d   1       9.827   4.691  -8.832  0.00  0.00     0.002 C 
BRANCH   9  11
ATOM     11  C   UNL d   1       9.296   7.211  -8.636  0.00  0.00     0.002 C 
BRANCH  11  12
ATOM     12  C   UNL d   1      10.430   7.405  -7.615  0.00  0.00     0.005 C 
BRANCH  12  13
ATOM     13  C   UNL d   1      10.215   8.580  -6.651  0.00  0.00     0.026 C 
BRANCH  13  14
ATOM     14  C   UNL d   1      10.970   8.446  -5.328  0.00  0.00    -0.022 A 
ATOM     15  C   UNL d   1      11.222   9.612  -4.568  0.00  0.00    -0.004 A 
ATOM     16  C   UNL d   1      11.870   9.529  -3.313  0.00  0.00    -0.000 A 
ATOM     17  C   UNL d   1      12.278   8.275  -2.810  0.00  0.00    -0.000 A 
ATOM     18  C   UNL d   1      12.016   7.110  -3.557  0.00  0.00    -0.000 A 
ATOM     19  C   UNL d   1      11.364   7.189  -4.800  0.00  0.00    -0.004 A 
ENDBRANCH  13  14
ENDBRANCH  12  13
ENDBRANCH  11  12
ENDBRANCH   9  11
ENDBRANCH   8   9
ENDBRANCH   7   8
BRANCH   1  20
ATOM     20  C   UNL d   1       9.935   1.584 -14.869  0.00  0.00     0.129 C 
BRANCH  20  21
ATOM     21  C   UNL d   1       8.422   1.394 -15.065  0.00  0.00     0.032 C 
BRANCH  21  22
ATOM     22  C   UNL d   1       7.914   0.099 -14.437  0.00  0.00     0.036 C 
BRANCH  22  23
ATOM     23  C   UNL d   1       6.440  -0.081 -14.582  0.00  0.00     0.024 C 
ATOM     24  C   UNL d   1       5.430   0.406 -13.780  0.00  0.00     0.064 C 
ATOM     25  C   UNL d   1       5.565   1.344 -12.631  0.00  0.00     0.052 C 
ATOM     26  N   UNL d   1       4.162  -0.065 -14.116  0.00  0.00    -0.224 NA
ATOM     27  C   UNL d   1       4.192  -0.755 -15.247  0.00  0.00     0.214 C 
ATOM     28  N   UNL d   1       3.083  -1.215 -15.898  0.00  0.00    -0.120 N 
ATOM     29  S   UNL d   1       5.784  -0.935 -15.947  0.00  0.00    -0.050 SA
ENDBRANCH  22  23
ENDBRANCH  21  22
ENDBRANCH  20  21
ENDBRANCH   1  20
TORSDOF 10
