REMARK  4 active torsions:
REMARK  status: ('A' for Active; 'I' for Inactive)
REMARK    1  A    between atoms: C_7  and  C_8 
REMARK       I    between atoms: N_12  and  C_13 
REMARK       I    between atoms: C_13  and  N_15 
REMARK    2  A    between atoms: N_15  and  C_16 
REMARK    3  A    between atoms: C_19  and  O_20 
REMARK    4  A    between atoms: O_20  and  C_21 
ROOT
ATOM      1  C   UNL d   1       9.010   1.466 -16.587  0.00  0.00     0.031 C 
ATOM      2  C   UNL d   1       8.586   2.351 -15.433  0.00  0.00    -0.018 A 
ATOM      3  C   UNL d   1       7.233   2.327 -15.010  0.00  0.00    -0.007 A 
ATOM      4  C   UNL d   1       6.847   3.175 -13.963  0.00  0.00    -0.005 A 
ATOM      5  C   UNL d   1       7.752   4.026 -13.349  0.00  0.00     0.060 A 
ATOM      6  C   UNL d   1       9.101   4.043 -13.737  0.00  0.00     0.021 A 
ATOM      7  C   UNL d   1       9.528   3.207 -14.786  0.00  0.00     0.069 A 
ATOM      8  N   UNL d   1       7.130   4.747 -12.316  0.00  0.00    -0.280 N 
ATOM      9  C   UNL d   1       7.867   5.125 -11.268  0.00  0.00     0.350 C 
ATOM     10  O   UNL d   1       7.889   4.465 -10.229  0.00  0.00    -0.244 OA
ATOM     11  N   UNL d   1       8.615   6.217 -11.490  0.00  0.00    -0.191 NA
ATOM     12  C   UNL d   1       5.745   4.280 -12.163  0.00  0.00     0.115 A 
ATOM     13  C   UNL d   1       5.497   3.303 -13.323  0.00  0.00     0.052 A 
ENDROOT
BRANCH  11  14
ATOM     14  C   UNL d   1       9.469   6.852 -10.539  0.00  0.00     0.105 A 
ATOM     15  C   UNL d   1       9.900   8.194 -10.664  0.00  0.00     0.120 A 
ATOM     16  N   UNL d   1      10.711   8.815  -9.764  0.00  0.00    -0.219 NA
ATOM     17  C   UNL d   1      11.081   8.114  -8.659  0.00  0.00     0.183 A 
ATOM     18  C   UNL d   1      10.658   6.782  -8.444  0.00  0.00     0.046 A 
ATOM     19  C   UNL d   1       9.872   6.163  -9.386  0.00  0.00     0.025 A 
BRANCH  17  20
ATOM     20  O   UNL d   1      11.919   8.742  -7.767  0.00  0.00    -0.288 OA
BRANCH  20  21
ATOM     21  C   UNL d   1      11.749   8.524  -6.404  0.00  0.00     0.115 A 
ATOM     22  C   UNL d   1      11.592   9.616  -5.526  0.00  0.00     0.082 A 
ATOM     23  N   UNL d   1      11.460   9.497  -4.183  0.00  0.00    -0.246 NA
ATOM     24  C   UNL d   1      11.634  11.022  -6.045  0.00  0.00     0.054 C 
ATOM     25  C   UNL d   1      11.461   8.254  -3.652  0.00  0.00     0.099 A 
ATOM     26  C   UNL d   1      11.607   7.089  -4.425  0.00  0.00     0.023 A 
ATOM     27  C   UNL d   1      11.816   7.244  -5.794  0.00  0.00     0.028 A 
ENDBRANCH  20  21
ENDBRANCH  17  20
ENDBRANCH  11  14
BRANCH   7  28
ATOM     28  C   UNL d   1      10.990   3.250 -15.208  0.00  0.00     0.418 C 
ATOM     29  F   UNL d   1      11.732   4.010 -14.392  0.00  0.00    -0.166 F 
ATOM     30  F   UNL d   1      11.495   2.019 -15.188  0.00  0.00    -0.166 F 
ATOM     31  F   UNL d   1      11.072   3.748 -16.444  0.00  0.00    -0.166 F 
ENDBRANCH   7  28
TORSDOF 4
