REMARK  6 active torsions:
REMARK  status: ('A' for Active; 'I' for Inactive)
REMARK    1  A    between atoms: C_2  and  C_3 
REMARK    2  A    between atoms: C_2  and  C_18 
REMARK    3  A    between atoms: C_3  and  C_4 
REMARK    4  A    between atoms: C_4  and  C_5 
REMARK    5  A    between atoms: C_5  and  N_6 
REMARK    6  A    between atoms: N_9  and  C_10 
ROOT
ATOM      1  N   UNL d   1       7.931   4.933 -11.854  0.00  0.00     0.141 N 
ATOM      2  C   UNL d   1       8.960   4.140 -12.538  0.00  0.00     0.274 C 
ATOM      3  C   UNL d   1       8.551   3.859 -13.990  0.00  0.00     0.138 C 
ATOM      4  N   UNL d   1       7.239   3.225 -14.028  0.00  0.00    -0.330 N 
ATOM      5  C   UNL d   1       6.192   3.914 -13.277  0.00  0.00     0.138 C 
ATOM      6  C   UNL d   1       6.658   4.202 -11.839  0.00  0.00     0.274 C 
ENDROOT
BRANCH   1   7
ATOM      7  C   UNL d   1       8.326   5.241 -10.480  0.00  0.00     0.251 C 
BRANCH   7   8
ATOM      8  C   UNL d   1       9.367   6.369 -10.425  0.00  0.00     0.038 C 
BRANCH   8   9
ATOM      9  C   UNL d   1       9.805   6.622  -8.977  0.00  0.00     0.040 C 
BRANCH   9  10
ATOM     10  C   UNL d   1      10.688   7.874  -8.786  0.00  0.00     0.174 C 
ATOM     11  O   UNL d   1      11.856   7.756  -9.573  0.00  0.00    -0.219 OA
BRANCH  10  12
ATOM     12  C   UNL d   1      11.028   8.152  -7.320  0.00  0.00     0.008 A 
ATOM     13  C   UNL d   1      11.112   7.109  -6.366  0.00  0.00     0.001 A 
ATOM     14  C   UNL d   1      11.435   7.401  -5.023  0.00  0.00     0.029 A 
ATOM     15  C   UNL d   1      11.671   8.732  -4.619  0.00  0.00     0.140 A 
ATOM     16  C   UNL d   1      11.589   9.771  -5.565  0.00  0.00     0.029 A 
ATOM     17  F   UNL d   1      11.976   9.011  -3.326  0.00  0.00    -0.204 F 
ATOM     18  C   UNL d   1      11.279   9.480  -6.908  0.00  0.00     0.001 A 
ENDBRANCH  10  12
ENDBRANCH   9  10
ENDBRANCH   8   9
ENDBRANCH   7   8
ENDBRANCH   1   7
BRANCH   4  19
ATOM     19  C   UNL d   1       7.008   2.009 -14.695  0.00  0.00     0.140 A 
ATOM     20  N   UNL d   1       6.024   1.216 -14.219  0.00  0.00    -0.227 NA
ATOM     21  C   UNL d   1       5.740   0.070 -14.874  0.00  0.00     0.101 A 
ATOM     22  C   UNL d   1       6.429  -0.348 -16.023  0.00  0.00     0.021 A 
ATOM     23  C   UNL d   1       7.468   0.459 -16.510  0.00  0.00     0.005 A 
ATOM     24  C   UNL d   1       7.761   1.665 -15.844  0.00  0.00     0.037 A 
ENDBRANCH   4  19
TORSDOF 6
