REMARK  6 active torsions:
REMARK  status: ('A' for Active; 'I' for Inactive)
REMARK    1  A    between atoms: C_2  and  C_3 
REMARK    2  A    between atoms: C_2  and  C_22 
REMARK    3  A    between atoms: C_3  and  C_4 
REMARK    4  A    between atoms: C_4  and  C_5 
REMARK    5  A    between atoms: C_5  and  N_6 
REMARK    6  A    between atoms: C_9  and  N_10 
ROOT
ATOM      1  N   UNL d   1      10.075   7.140  -9.714  0.00  0.00     0.142 N 
ATOM      2  C   UNL d   1       9.953   6.200  -8.593  0.00  0.00     0.278 C 
ATOM      3  C   UNL d   1      10.342   6.832  -7.285  0.00  0.00     0.022 C 
ATOM      4  C   UNL d   1      11.038   7.986  -7.225  0.00  0.00     0.045 C 
ATOM      5  C   UNL d   1      11.467   8.725  -8.499  0.00  0.00     0.079 C 
ATOM      6  C   UNL d   1      11.365   7.830  -9.727  0.00  0.00     0.257 C 
ENDROOT
BRANCH   1   7
ATOM      7  C   UNL d   1       9.900   6.454 -10.967  0.00  0.00     0.251 C 
BRANCH   7   8
ATOM      8  C   UNL d   1       8.521   5.895 -11.201  0.00  0.00     0.043 C 
BRANCH   8   9
ATOM      9  C   UNL d   1       8.153   5.774 -12.682  0.00  0.00     0.071 C 
BRANCH   9  10
ATOM     10  C   UNL d   1       9.052   4.793 -13.474  0.00  0.00     0.173 C 
ATOM     11  O   UNL d   1      10.235   5.088 -13.668  0.00  0.00    -0.291 OA
BRANCH  10  12
ATOM     12  C   UNL d   1       8.480   3.505 -13.947  0.00  0.00     0.035 A 
ATOM     13  C   UNL d   1       9.362   2.506 -14.439  0.00  0.00     0.005 A 
ATOM     14  C   UNL d   1       8.859   1.279 -14.924  0.00  0.00     0.030 A 
ATOM     15  C   UNL d   1       7.470   1.042 -14.921  0.00  0.00     0.140 A 
ATOM     16  C   UNL d   1       6.597   2.023 -14.430  0.00  0.00     0.030 A 
ATOM     17  F   UNL d   1       6.966  -0.113 -15.393  0.00  0.00    -0.204 F 
ATOM     18  C   UNL d   1       7.084   3.254 -13.959  0.00  0.00     0.005 A 
ENDBRANCH  10  12
ENDBRANCH   9  10
ENDBRANCH   8   9
ENDBRANCH   7   8
ENDBRANCH   1   7
BRANCH   4  19
ATOM     19  N   UNL d   1      11.355   8.572  -5.984  0.00  0.00    -0.262 N 
ATOM     20  C   UNL d   1      11.641   7.914  -4.787  0.00  0.00     0.086 A 
ATOM     21  C   UNL d   1      11.732   8.848  -3.778  0.00  0.00     0.102 A 
ATOM     22  C   UNL d   1      11.845   6.557  -4.497  0.00  0.00     0.019 A 
ATOM     23  N   UNL d   1      11.437  10.017  -4.374  0.00  0.00    -0.191 NA
ATOM     24  C   UNL d   1      12.136   8.630  -2.459  0.00  0.00     0.021 A 
ATOM     25  C   UNL d   1      11.277   9.861  -5.666  0.00  0.00     0.354 A 
ATOM     26  O   UNL d   1      11.194  10.764  -6.447  0.00  0.00    -0.244 OA
ATOM     27  C   UNL d   1      12.380   7.288  -2.163  0.00  0.00     0.002 A 
ATOM     28  C   UNL d   1      12.272   6.310  -3.163  0.00  0.00     0.002 A 
ENDBRANCH   4  19
TORSDOF 6
