REMARK  6 active torsions:
REMARK  status: ('A' for Active; 'I' for Inactive)
REMARK    1  A    between atoms: C_5  and  C_6 
REMARK    2  A    between atoms: C_6  and  O_7 
REMARK    3  A    between atoms: C_6  and  C_23 
REMARK    4  A    between atoms: O_7  and  C_8 
REMARK    5  A    between atoms: N_15  and  C_16 
REMARK    6  A    between atoms: C_16  and  C_17 
ROOT
ATOM      1  O   UNL d   1       8.342   2.792 -14.106  0.00  0.00    -0.350 OA
ENDROOT
BRANCH   1   2
ATOM      2  C   UNL d   1       8.499   1.460 -14.571  0.00  0.00     0.160 C 
BRANCH   2   3
ATOM      3  C   UNL d   1       7.133   0.788 -14.738  0.00  0.00     0.009 A 
ATOM      4  C   UNL d   1       6.867  -0.045 -15.849  0.00  0.00     0.001 A 
ATOM      5  C   UNL d   1       5.609  -0.650 -16.023  0.00  0.00     0.029 A 
ATOM      6  C   UNL d   1       4.599  -0.445 -15.068  0.00  0.00     0.140 A 
ATOM      7  F   UNL d   1       3.385  -1.024 -15.235  0.00  0.00    -0.204 F 
ATOM      8  C   UNL d   1       4.852   0.369 -13.952  0.00  0.00     0.029 A 
ATOM      9  C   UNL d   1       6.107   0.987 -13.785  0.00  0.00     0.001 A 
ENDBRANCH   2   3
BRANCH   2  10
ATOM     10  C   UNL d   1       9.286   1.452 -15.871  0.00  0.00     0.009 A 
ATOM     11  C   UNL d   1      10.492   0.733 -15.971  0.00  0.00     0.001 A 
ATOM     12  C   UNL d   1      11.203   0.742 -17.185  0.00  0.00     0.029 A 
ATOM     13  C   UNL d   1      10.719   1.475 -18.285  0.00  0.00     0.140 A 
ATOM     14  C   UNL d   1       9.524   2.211 -18.176  0.00  0.00     0.029 A 
ATOM     15  F   UNL d   1      11.404   1.474 -19.451  0.00  0.00    -0.204 F 
ATOM     16  C   UNL d   1       8.818   2.212 -16.964  0.00  0.00     0.001 A 
ENDBRANCH   2  10
ENDBRANCH   1   2
BRANCH   1  17
ATOM     17  C   UNL d   1       9.527   3.570 -13.960  0.00  0.00     0.120 C 
ATOM     18  C   UNL d   1       9.205   4.940 -14.532  0.00  0.00     0.063 C 
ATOM     19  C   UNL d   1       8.437   5.839 -13.530  0.00  0.00     0.222 C 
ATOM     20  C   UNL d   1       7.143   5.218 -12.985  0.00  0.00     0.035 C 
ATOM     21  N   UNL d   1       9.324   5.993 -12.372  0.00  0.00     0.138 N 
ATOM     22  C   UNL d   1       7.584   4.498 -11.728  0.00  0.00     0.035 C 
ATOM     23  C   UNL d   1       9.104   4.726 -11.689  0.00  0.00     0.222 C 
ATOM     24  C   UNL d   1       9.900   3.706 -12.489  0.00  0.00     0.063 C 
BRANCH  21  25
ATOM     25  C   UNL d   1       8.963   7.149 -11.557  0.00  0.00     0.277 C 
BRANCH  25  26
ATOM     26  C   UNL d   1       9.765   7.314 -10.266  0.00  0.00     0.011 A 
ATOM     27  C   UNL d   1      10.792   8.274 -10.186  0.00  0.00    -0.002 A 
ATOM     28  C   UNL d   1      11.560   8.408  -9.013  0.00  0.00    -0.000 A 
ATOM     29  C   UNL d   1      11.289   7.595  -7.898  0.00  0.00    -0.000 A 
ATOM     30  C   UNL d   1      10.242   6.652  -7.956  0.00  0.00    -0.000 A 
ATOM     31  C   UNL d   1       9.458   6.541  -9.119  0.00  0.00    -0.002 A 
ENDBRANCH  25  26
ENDBRANCH  21  25
ENDBRANCH   1  17
TORSDOF 6
