REMARK  3 active torsions:
REMARK  status: ('A' for Active; 'I' for Inactive)
REMARK       I    between atoms: N_4  and  C_5 
REMARK    1  A    between atoms: C_5  and  C_7 
REMARK    2  A    between atoms: C_10  and  C_11 
REMARK       I    between atoms: N_22  and  C_23 
REMARK    3  A    between atoms: C_23  and  C_25 
ROOT
ATOM      1  C   UNL d   1      11.188   5.164 -16.693  0.00  0.00     0.026 C 
ATOM      2  C   UNL d   1      11.842   3.769 -16.572  0.00  0.00     0.106 C 
ATOM      3  C   UNL d   1      11.235   2.928 -15.429  0.00  0.00     0.127 C 
ATOM      4  N   UNL d   1       9.839   2.565 -15.748  0.00  0.00    -0.313 N 
ATOM      5  C   UNL d   1       8.728   2.881 -15.041  0.00  0.00     0.257 C 
ATOM      6  O   UNL d   1       7.611   2.419 -15.277  0.00  0.00    -0.267 OA
ATOM      7  C   UNL d   1       9.745   1.819 -17.009  0.00  0.00     0.129 C 
ATOM      8  C   UNL d   1      10.363   2.618 -18.171  0.00  0.00     0.129 C 
ATOM      9  N   UNL d   1      11.758   3.008 -17.848  0.00  0.00    -0.315 N 
ATOM     10  C   UNL d   1      12.878   2.689 -18.554  0.00  0.00     0.257 C 
ATOM     11  O   UNL d   1      13.991   3.153 -18.299  0.00  0.00    -0.267 OA
ENDROOT
BRANCH   5  12
ATOM     12  C   UNL d   1       8.888   3.848 -13.909  0.00  0.00     0.056 A 
ATOM     13  C   UNL d   1       9.551   3.424 -12.771  0.00  0.00     0.005 A 
ATOM     14  C   UNL d   1       9.705   4.279 -11.674  0.00  0.00     0.000 A 
ATOM     15  C   UNL d   1       9.224   5.606 -11.685  0.00  0.00     0.001 A 
ATOM     16  C   UNL d   1       8.569   6.043 -12.858  0.00  0.00     0.000 A 
ATOM     17  C   UNL d   1       8.407   5.173 -13.958  0.00  0.00     0.005 A 
BRANCH  15  18
ATOM     18  C   UNL d   1       9.449   6.516 -10.541  0.00  0.00     0.011 A 
ATOM     19  C   UNL d   1       9.238   6.134  -9.190  0.00  0.00     0.058 A 
ATOM     20  C   UNL d   1       9.449   7.048  -8.138  0.00  0.00     0.011 A 
ATOM     21 CL   UNL d   1       8.668   4.566  -8.768  0.00  0.00    -0.082 Cl
ATOM     22  C   UNL d   1       9.866   8.360  -8.406  0.00  0.00     0.001 A 
ATOM     23  C   UNL d   1      10.085   8.755  -9.737  0.00  0.00     0.000 A 
ATOM     24  C   UNL d   1       9.863   7.845 -10.790  0.00  0.00     0.001 A 
ENDBRANCH  15  18
ENDBRANCH   5  12
BRANCH  10  25
ATOM     25  C   UNL d   1      12.782   1.651 -19.647  0.00  0.00     0.057 A 
ATOM     26  C   UNL d   1      13.655   0.535 -19.637  0.00  0.00     0.024 A 
ATOM     27  C   UNL d   1      13.554  -0.447 -20.643  0.00  0.00     0.082 A 
ATOM     28  C   UNL d   1      12.584  -0.357 -21.684  0.00  0.00     0.019 A 
ATOM     29  N   UNL d   1      14.251  -1.618 -20.893  0.00  0.00    -0.244 NA
ATOM     30  C   UNL d   1      11.735   0.776 -21.682  0.00  0.00     0.002 A 
ATOM     31  C   UNL d   1      12.725  -1.506 -22.530  0.00  0.00     0.022 A 
ATOM     32  C   UNL d   1      11.870   1.788 -20.715  0.00  0.00     0.005 A 
ATOM     33  C   UNL d   1      13.763  -2.247 -22.031  0.00  0.00     0.099 A 
ENDBRANCH  10  25
TORSDOF 3
