REMARK  4 active torsions:
REMARK  status: ('A' for Active; 'I' for Inactive)
REMARK    1  A    between atoms: C_4  and  C_5 
REMARK    2  A    between atoms: C_5  and  C_6 
REMARK    3  A    between atoms: C_6  and  N_7 
REMARK    4  A    between atoms: C_17  and  C_18 
ROOT
ATOM      1  N   UNL d   1       7.723   4.187 -13.991  0.00  0.00     0.137 N 
ATOM      2  C   UNL d   1       9.091   3.918 -13.561  0.00  0.00     0.251 C 
ATOM      3  C   UNL d   1       9.658   5.144 -12.829  0.00  0.00     0.041 C 
ATOM      4  C   UNL d   1       8.779   5.533 -11.624  0.00  0.00     0.041 A 
ATOM      5  C   UNL d   1       8.861   4.450 -10.499  0.00  0.00     0.011 A 
ATOM      6  C   UNL d   1       9.417   5.073  -9.184  0.00  0.00     0.030 A 
ATOM      7  C   UNL d   1       9.660   6.468  -9.618  0.00  0.00     0.013 A 
ATOM      8  C   UNL d   1       9.324   6.681 -10.896  0.00  0.00     0.077 A 
ATOM      9  N   UNL d   1       9.550   7.994 -11.197  0.00  0.00    -0.153 NA
ATOM     10  N   UNL d   1      10.060   8.641 -10.112  0.00  0.00    -0.149 NA
ATOM     11  C   UNL d   1      10.120   7.723  -9.134  0.00  0.00     0.100 A 
ATOM     12  C   UNL d   1       7.348   5.781 -12.121  0.00  0.00     0.041 C 
ATOM     13  C   UNL d   1       6.830   4.546 -12.887  0.00  0.00     0.251 C 
ENDROOT
BRANCH   1  14
ATOM     14  C   UNL d   1       7.188   3.067 -14.768  0.00  0.00     0.255 C 
BRANCH  14  15
ATOM     15  C   UNL d   1       6.968   1.787 -13.973  0.00  0.00     0.062 C 
BRANCH  15  16
ATOM     16  C   UNL d   1       6.208   0.732 -14.729  0.00  0.00    -0.020 A 
ATOM     17  C   UNL d   1       5.066   0.154 -14.136  0.00  0.00    -0.004 A 
ATOM     18  C   UNL d   1       4.328  -0.824 -14.826  0.00  0.00    -0.000 A 
ATOM     19  C   UNL d   1       4.744  -1.230 -16.109  0.00  0.00    -0.000 A 
ATOM     20  C   UNL d   1       5.883  -0.651 -16.706  0.00  0.00    -0.000 A 
ATOM     21  C   UNL d   1       6.622   0.327 -16.013  0.00  0.00    -0.004 A 
ENDBRANCH  15  16
ENDBRANCH  14  15
ENDBRANCH   1  14
BRANCH  11  22
ATOM     22  C   UNL d   1      10.605   8.076  -7.805  0.00  0.00     0.019 A 
ATOM     23  C   UNL d   1      11.293   9.291  -7.601  0.00  0.00     0.002 A 
ATOM     24  C   UNL d   1      11.773   9.651  -6.328  0.00  0.00     0.000 A 
ATOM     25  C   UNL d   1      11.581   8.787  -5.234  0.00  0.00     0.000 A 
ATOM     26  C   UNL d   1      10.916   7.559  -5.427  0.00  0.00     0.000 A 
ATOM     27  C   UNL d   1      10.420   7.213  -6.701  0.00  0.00     0.002 A 
ENDBRANCH  11  22
TORSDOF 4
