REMARK  8 active torsions:
REMARK  status: ('A' for Active; 'I' for Inactive)
REMARK       I    between atoms: C_2  and  N_3 
REMARK    1  A    between atoms: C_2  and  C_21 
REMARK    2  A    between atoms: N_3  and  C_4 
REMARK    3  A    between atoms: C_4  and  C_5 
REMARK    4  A    between atoms: C_5  and  C_6 
REMARK    5  A    between atoms: C_6  and  C_7 
REMARK    6  A    between atoms: C_7  and  N_8 
REMARK    7  A    between atoms: N_11  and  C_12 
REMARK    8  A    between atoms: C_12  and  C_13 
ROOT
ATOM      1  C   UNL d   1       8.325   7.233 -12.044  0.00  0.00     0.037 C 
ENDROOT
BRANCH   1   2
ATOM      2  C   UNL d   1       9.011   6.718 -10.763  0.00  0.00     0.029 C 
BRANCH   2   3
ATOM      3  C   UNL d   1      10.097   7.684 -10.272  0.00  0.00     0.129 C 
BRANCH   3   4
ATOM      4  N   UNL d   1      10.372   7.494  -8.852  0.00  0.00    -0.233 NA
ATOM      5  C   UNL d   1       9.919   8.303  -7.882  0.00  0.00     0.298 C 
ATOM      6  O   UNL d   1       9.091   9.199  -8.067  0.00  0.00    -0.263 OA
BRANCH   5   7
ATOM      7  C   UNL d   1      10.539   8.124  -6.568  0.00  0.00     0.157 A 
ATOM      8  O   UNL d   1      10.691   9.232  -5.770  0.00  0.00    -0.302 OA
ATOM      9  C   UNL d   1      11.301   8.809  -4.613  0.00  0.00     0.100 A 
ATOM     10  C   UNL d   1      11.485   7.409  -4.663  0.00  0.00     0.025 A 
ATOM     11  C   UNL d   1      11.660   9.589  -3.501  0.00  0.00     0.025 A 
ATOM     12  C   UNL d   1      10.998   6.990  -5.939  0.00  0.00     0.032 A 
ATOM     13  C   UNL d   1      12.058   6.792  -3.531  0.00  0.00     0.002 A 
ATOM     14  C   UNL d   1      12.428   7.555  -2.405  0.00  0.00     0.000 A 
ATOM     15  C   UNL d   1      12.247   8.950  -2.393  0.00  0.00     0.002 A 
ENDBRANCH   5   7
ENDBRANCH   3   4
ENDBRANCH   2   3
ENDBRANCH   1   2
BRANCH   1  16
ATOM     16  C   UNL d   1       7.037   6.469 -12.382  0.00  0.00     0.251 C 
BRANCH  16  17
ATOM     17  N   UNL d   1       7.204   5.036 -12.630  0.00  0.00     0.141 N 
ATOM     18  C   UNL d   1       8.229   4.742 -13.638  0.00  0.00     0.285 C 
ATOM     19  C   UNL d   1       8.378   3.233 -13.856  0.00  0.00     0.286 C 
ATOM     20  N   UNL d   1       7.109   2.603 -14.257  0.00  0.00     0.146 N 
ATOM     21  C   UNL d   1       6.056   2.924 -13.276  0.00  0.00     0.286 C 
ATOM     22  C   UNL d   1       5.935   4.438 -13.046  0.00  0.00     0.285 C 
BRANCH  20  23
ATOM     23  C   UNL d   1       7.284   1.157 -14.476  0.00  0.00     0.277 C 
BRANCH  23  24
ATOM     24  C   UNL d   1       6.006   0.388 -14.765  0.00  0.00     0.011 A 
ATOM     25  C   UNL d   1       5.779  -0.162 -16.045  0.00  0.00    -0.002 A 
ATOM     26  C   UNL d   1       4.576  -0.841 -16.324  0.00  0.00    -0.000 A 
ATOM     27  C   UNL d   1       3.592  -0.968 -15.330  0.00  0.00    -0.000 A 
ATOM     28  C   UNL d   1       3.821  -0.419 -14.046  0.00  0.00    -0.000 A 
ATOM     29  C   UNL d   1       5.038   0.219 -13.751  0.00  0.00    -0.002 A 
ENDBRANCH  23  24
ENDBRANCH  20  23
ENDBRANCH  16  17
ENDBRANCH   1  16
TORSDOF 8
