REMARK  11 active torsions:
REMARK  status: ('A' for Active; 'I' for Inactive)
REMARK    1  A    between atoms: O_2  and  C_3 
REMARK    2  A    between atoms: C_6  and  C_7 
REMARK    3  A    between atoms: C_7  and  N_8 
REMARK    4  A    between atoms: C_11  and  C_12 
REMARK       I    between atoms: C_12  and  N_14 
REMARK    5  A    between atoms: N_14  and  C_15 
REMARK    6  A    between atoms: C_15  and  C_16 
REMARK    7  A    between atoms: C_16  and  C_17 
REMARK    8  A    between atoms: C_17  and  C_18 
REMARK    9  A    between atoms: C_18  and  C_19 
REMARK   10  A    between atoms: C_19  and  N_20 
REMARK   11  A    between atoms: N_23  and  C_24 
ROOT
ATOM      1  C   UNL d   1       5.933   4.227 -12.982  0.00  0.00     0.129 C 
ENDROOT
BRANCH   1   2
ATOM      2  N   UNL d   1       6.225   3.019 -13.750  0.00  0.00    -0.233 NA
ATOM      3  C   UNL d   1       5.862   1.784 -13.375  0.00  0.00     0.296 C 
ATOM      4  O   UNL d   1       5.454   1.503 -12.246  0.00  0.00    -0.264 OA
BRANCH   3   5
ATOM      5  C   UNL d   1       5.883   0.794 -14.473  0.00  0.00     0.175 A 
ATOM      6  N   UNL d   1       6.926   0.708 -15.392  0.00  0.00    -0.124 NA
ATOM      7  N   UNL d   1       6.672  -0.240 -16.232  0.00  0.00    -0.064 NA
ATOM      8  N   UNL d   1       5.470  -0.776 -15.899  0.00  0.00    -0.231 N 
ATOM      9  C   UNL d   1       4.939  -0.161 -14.780  0.00  0.00     0.082 A 
ATOM     10  C   UNL d   1       3.611  -0.531 -14.187  0.00  0.00     0.054 C 
BRANCH   8  11
ATOM     11  C   UNL d   1       4.937  -1.889 -16.681  0.00  0.00     0.155 C 
BRANCH  11  12
ATOM     12  C   UNL d   1       5.258  -1.753 -18.161  0.00  0.00     0.002 A 
ATOM     13  C   UNL d   1       4.583  -0.799 -18.947  0.00  0.00    -0.000 A 
ATOM     14  C   UNL d   1       4.913  -0.645 -20.307  0.00  0.00     0.024 A 
ATOM     15  C   UNL d   1       5.905  -1.447 -20.908  0.00  0.00     0.094 A 
ATOM     16  C   UNL d   1       6.580  -2.406 -20.112  0.00  0.00     0.024 A 
ATOM     17  C   UNL d   1       6.258  -2.555 -18.749  0.00  0.00    -0.000 A 
BRANCH  15  18
ATOM     18  O   UNL d   1       6.152  -1.240 -22.248  0.00  0.00    -0.328 OA
ATOM     19  C   UNL d   1       7.081  -2.095 -22.897  0.00  0.00     0.181 C 
ENDBRANCH  15  18
ENDBRANCH  11  12
ENDBRANCH   8  11
ENDBRANCH   3   5
ENDBRANCH   1   2
BRANCH   1  20
ATOM     20  C   UNL d   1       7.000   4.516 -11.933  0.00  0.00     0.026 C 
BRANCH  20  21
ATOM     21  C   UNL d   1       8.338   5.011 -12.526  0.00  0.00     0.004 C 
BRANCH  21  22
ATOM     22  C   UNL d   1       9.405   5.278 -11.457  0.00  0.00     0.035 C 
BRANCH  22  23
ATOM     23  C   UNL d   1       9.062   6.448 -10.527  0.00  0.00     0.250 C 
BRANCH  23  24
ATOM     24  N   UNL d   1       9.696   6.313  -9.214  0.00  0.00     0.141 N 
ATOM     25  C   UNL d   1       8.756   6.811  -8.202  0.00  0.00     0.274 C 
ATOM     26  C   UNL d   1       9.309   6.681  -6.787  0.00  0.00     0.137 C 
ATOM     27  N   UNL d   1      10.587   7.350  -6.724  0.00  0.00    -0.344 N 
ATOM     28  C   UNL d   1      11.541   6.978  -7.740  0.00  0.00     0.137 C 
ATOM     29  C   UNL d   1      10.907   7.127  -9.141  0.00  0.00     0.274 C 
BRANCH  27  30
ATOM     30  C   UNL d   1      10.909   8.246  -5.717  0.00  0.00     0.068 A 
ATOM     31  C   UNL d   1      11.518   7.865  -4.508  0.00  0.00     0.084 A 
ATOM     32  C   UNL d   1      11.825   8.764  -3.489  0.00  0.00     0.070 A 
ATOM     33 CL   UNL d   1      11.859   6.265  -4.199  0.00  0.00    -0.080 Cl
ATOM     34  C   UNL d   1      11.459  10.083  -3.654  0.00  0.00     0.012 A 
ATOM     35 CL   UNL d   1      12.578   8.286  -2.014  0.00  0.00    -0.081 Cl
ATOM     36  C   UNL d   1      10.843  10.488  -4.859  0.00  0.00     0.002 A 
ATOM     37  C   UNL d   1      10.597   9.595  -5.911  0.00  0.00     0.018 A 
ENDBRANCH  27  30
ENDBRANCH  23  24
ENDBRANCH  22  23
ENDBRANCH  21  22
ENDBRANCH  20  21
ENDBRANCH   1  20
TORSDOF 11
