REMARK  11 active torsions:
REMARK  status: ('A' for Active; 'I' for Inactive)
REMARK    1  A    between atoms: C_2  and  O_3 
REMARK    2  A    between atoms: O_3  and  C_4 
REMARK    3  A    between atoms: C_9  and  N_10 
REMARK    4  A    between atoms: N_13  and  C_14 
REMARK    5  A    between atoms: C_14  and  C_15 
REMARK    6  A    between atoms: C_15  and  C_16 
REMARK    7  A    between atoms: C_16  and  C_17 
REMARK       I    between atoms: C_17  and  N_19 
REMARK    8  A    between atoms: N_19  and  C_20 
REMARK    9  A    between atoms: C_20  and  C_21 
REMARK   10  A    between atoms: N_32  and  C_33 
REMARK   11  A    between atoms: C_36  and  O_37 
ROOT
ATOM      1  C   UNL d   1       9.545   4.119 -14.175  0.00  0.00     0.252 C 
ATOM      2  O   UNL d   1      10.353   4.139 -13.253  0.00  0.00    -0.271 OA
ATOM      3  N   UNL d   1       9.652   3.235 -15.190  0.00  0.00    -0.230 NA
ENDROOT
BRANCH   3   4
ATOM      4  C   UNL d   1      10.398   1.966 -14.995  0.00  0.00     0.192 C 
BRANCH   4   5
ATOM      5  C   UNL d   1      10.495   1.252 -16.371  0.00  0.00     0.151 A 
ATOM      6  N   UNL d   1       9.344   0.583 -16.909  0.00  0.00    -0.261 N 
ATOM      7  C   UNL d   1       9.411   0.029 -18.173  0.00  0.00     0.267 A 
ATOM      8  C   UNL d   1      10.712   0.160 -18.901  0.00  0.00     0.076 A 
ATOM      9  O   UNL d   1       8.503  -0.563 -18.755  0.00  0.00    -0.267 OA
ATOM     10  C   UNL d   1      11.785   0.795 -18.253  0.00  0.00     0.087 A 
ATOM     11  C   UNL d   1      10.867  -0.356 -20.206  0.00  0.00     0.036 A 
ATOM     12  N   UNL d   1      11.641   1.355 -16.984  0.00  0.00    -0.230 NA
ATOM     13  C   UNL d   1      13.028   0.893 -18.908  0.00  0.00     0.022 A 
ATOM     14  C   UNL d   1      13.188   0.367 -20.201  0.00  0.00     0.031 A 
ATOM     15  C   UNL d   1      12.109  -0.254 -20.853  0.00  0.00     0.140 A 
ATOM     16  F   UNL d   1      12.264  -0.758 -22.100  0.00  0.00    -0.204 F 
BRANCH   6  17
ATOM     17  C   UNL d   1       8.127   0.418 -16.153  0.00  0.00     0.068 A 
ATOM     18  C   UNL d   1       6.847   0.620 -16.733  0.00  0.00     0.020 A 
ATOM     19  C   UNL d   1       5.678   0.359 -15.997  0.00  0.00     0.026 A 
ATOM     20  C   UNL d   1       5.730  -0.046 -14.641  0.00  0.00     0.094 A 
ATOM     21  C   UNL d   1       7.000  -0.200 -14.047  0.00  0.00     0.026 A 
ATOM     22  C   UNL d   1       8.151  -0.007 -14.808  0.00  0.00     0.020 A 
BRANCH  20  23
ATOM     23  O   UNL d   1       4.601  -0.331 -13.898  0.00  0.00    -0.328 OA
ATOM     24  C   UNL d   1       3.544  -0.946 -14.610  0.00  0.00     0.181 C 
ENDBRANCH  20  23
ENDBRANCH   6  17
ENDBRANCH   4   5
ENDBRANCH   3   4
BRANCH   1  25
ATOM     25  C   UNL d   1       8.376   5.098 -14.245  0.00  0.00     0.092 C 
BRANCH  25  26
ATOM     26  C   UNL d   1       7.138   4.591 -13.419  0.00  0.00     0.045 C 
BRANCH  26  27
ATOM     27  C   UNL d   1       7.054   5.120 -11.955  0.00  0.00     0.251 C 
BRANCH  27  28
ATOM     28  N   UNL d   1       8.359   5.292 -11.315  0.00  0.00     0.141 N 
ATOM     29  C   UNL d   1       8.226   5.085  -9.858  0.00  0.00     0.274 C 
ATOM     30  C   UNL d   1       9.597   5.204  -9.150  0.00  0.00     0.137 C 
ATOM     31  N   UNL d   1      10.213   6.463  -9.490  0.00  0.00    -0.343 N 
ATOM     32  C   UNL d   1      10.222   6.790 -10.898  0.00  0.00     0.137 C 
ATOM     33  C   UNL d   1       8.878   6.656 -11.560  0.00  0.00     0.274 C 
BRANCH  31  34
ATOM     34  C   UNL d   1      10.690   7.397  -8.553  0.00  0.00     0.079 A 
ATOM     35  C   UNL d   1      11.965   7.997  -8.719  0.00  0.00     0.109 A 
ATOM     36  C   UNL d   1      12.414   8.851  -7.709  0.00  0.00     0.026 A 
ATOM     37  C   UNL d   1      11.620   9.176  -6.597  0.00  0.00     0.002 A 
ATOM     38  C   UNL d   1      10.351   8.585  -6.467  0.00  0.00     0.002 A 
ATOM     39  C   UNL d   1       9.893   7.692  -7.439  0.00  0.00     0.019 A 
BRANCH  35  40
ATOM     40  O   UNL d   1      12.709   7.687  -9.864  0.00  0.00    -0.329 OA
BRANCH  40  41
ATOM     41  C   UNL d   1      14.109   7.982  -9.924  0.00  0.00     0.149 C 
ATOM     42  C   UNL d   1      14.464   8.426 -11.347  0.00  0.00     0.035 C 
ENDBRANCH  40  41
ENDBRANCH  35  40
ENDBRANCH  31  34
ENDBRANCH  27  28
ENDBRANCH  26  27
ENDBRANCH  25  26
ENDBRANCH   1  25
TORSDOF 11
