REMARK  4 active torsions:
REMARK  status: ('A' for Active; 'I' for Inactive)
REMARK    1  A    between atoms: C_6  and  C_7 
REMARK    2  A    between atoms: N_14  and  C_15 
REMARK    3  A    between atoms: C_15  and  C_16 
REMARK    4  A    between atoms: C_17  and  C_18 
ROOT
ATOM      1  C   UNL d   1       8.219   0.772 -15.942  0.00  0.00     0.051 C 
ATOM      2  C   UNL d   1       9.369  -0.107 -16.541  0.00  0.00     0.007 C 
ATOM      3  C   UNL d   1      10.771   0.542 -16.575  0.00  0.00     0.003 C 
ATOM      4  C   UNL d   1      10.778   2.051 -16.918  0.00  0.00     0.036 C 
ATOM      5  C   UNL d   1       9.591   2.863 -16.331  0.00  0.00     0.250 C 
ATOM      6  C   UNL d   1       8.245   2.163 -16.653  0.00  0.00     0.187 C 
ATOM      7  O   UNL d   1       8.096   2.081 -18.062  0.00  0.00    -0.221 OA
ATOM      8  N   UNL d   1       9.745   3.181 -14.902  0.00  0.00     0.142 N 
ATOM      9  C   UNL d   1       9.668   1.968 -14.089  0.00  0.00     0.251 C 
ATOM     10  C   UNL d   1       8.473   1.054 -14.431  0.00  0.00     0.042 C 
ENDROOT
BRANCH   8  11
ATOM     11  C   UNL d   1       8.866   4.285 -14.474  0.00  0.00     0.277 C 
BRANCH  11  12
ATOM     12  C   UNL d   1       8.967   4.651 -13.009  0.00  0.00     0.009 C 
ATOM     13  C   UNL d   1       9.220   5.877 -12.519  0.00  0.00    -0.003 C 
BRANCH  13  14
ATOM     14  C   UNL d   1       9.321   6.194 -11.086  0.00  0.00    -0.000 A 
ATOM     15  C   UNL d   1       8.933   5.267 -10.085  0.00  0.00    -0.000 A 
ATOM     16  C   UNL d   1       9.065   5.574  -8.720  0.00  0.00    -0.000 A 
ATOM     17  C   UNL d   1       9.588   6.819  -8.330  0.00  0.00    -0.000 A 
ATOM     18  C   UNL d   1       9.987   7.746  -9.312  0.00  0.00    -0.000 A 
ATOM     19  C   UNL d   1       9.858   7.431 -10.678  0.00  0.00    -0.000 A 
ENDBRANCH  13  14
ENDBRANCH  11  12
ENDBRANCH   8  11
BRANCH   1  20
ATOM     20  C   UNL d   1       6.830   0.080 -16.100  0.00  0.00    -0.018 A 
ATOM     21  C   UNL d   1       6.380  -0.390 -17.358  0.00  0.00    -0.004 A 
ATOM     22  C   UNL d   1       5.118  -1.003 -17.513  0.00  0.00     0.002 A 
ATOM     23  C   UNL d   1       4.269  -1.172 -16.400  0.00  0.00     0.027 A 
ATOM     24  C   UNL d   1       4.688  -0.708 -15.140  0.00  0.00     0.131 A 
ATOM     25  O   UNL d   1       3.859  -0.812 -14.052  0.00  0.00    -0.190 OA
ATOM     26  C   UNL d   1       5.955  -0.108 -14.990  0.00  0.00     0.023 A 
ENDBRANCH   1  20
TORSDOF 4
