REMARK  7 active torsions:
REMARK  status: ('A' for Active; 'I' for Inactive)
REMARK    1  A    between atoms: C_8  and  O_9 
REMARK    2  A    between atoms: O_9  and  C_10 
REMARK    3  A    between atoms: C_10  and  C_11 
REMARK    4  A    between atoms: C_11  and  C_12 
REMARK    5  A    between atoms: C_12  and  C_13 
REMARK    6  A    between atoms: C_13  and  N_14 
REMARK    7  A    between atoms: N_17  and  C_18 
ROOT
ATOM      1  N   UNL d   1       7.866   5.214 -12.565  0.00  0.00     0.141 N 
ATOM      2  C   UNL d   1       8.681   3.997 -12.574  0.00  0.00     0.274 C 
ATOM      3  C   UNL d   1       8.440   3.190 -13.847  0.00  0.00     0.137 C 
ATOM      4  N   UNL d   1       7.020   2.936 -14.031  0.00  0.00    -0.344 N 
ATOM      5  C   UNL d   1       6.121   4.044 -13.839  0.00  0.00     0.137 C 
ATOM      6  C   UNL d   1       6.439   4.850 -12.582  0.00  0.00     0.274 C 
ENDROOT
BRANCH   1   7
ATOM      7  C   UNL d   1       8.107   5.933 -11.343  0.00  0.00     0.251 C 
BRANCH   7   8
ATOM      8  C   UNL d   1       9.463   6.668 -11.350  0.00  0.00     0.038 C 
BRANCH   8   9
ATOM      9  C   UNL d   1       9.702   7.490 -10.083  0.00  0.00     0.035 C 
BRANCH   9  10
ATOM     10  C   UNL d   1      11.060   8.216 -10.031  0.00  0.00     0.149 C 
BRANCH  10  11
ATOM     11  O   UNL d   1      11.144   9.056  -8.862  0.00  0.00    -0.329 OA
BRANCH  11  12
ATOM     12  C   UNL d   1      11.271   8.444  -7.633  0.00  0.00     0.121 A 
ATOM     13  C   UNL d   1      11.432   7.031  -7.510  0.00  0.00     0.026 A 
ATOM     14  C   UNL d   1      11.588   6.390  -6.275  0.00  0.00    -0.000 A 
ATOM     15  C   UNL d   1      11.513   7.176  -5.125  0.00  0.00     0.009 A 
ATOM     16  C   UNL d   1      11.720   6.791  -3.683  0.00  0.00     0.156 A 
ATOM     17  C   UNL d   1      11.415   8.558  -5.224  0.00  0.00     0.085 A 
ATOM     18  N   UNL d   1      11.774   8.112  -3.027  0.00  0.00    -0.229 NA
ATOM     19  C   UNL d   1      11.527   9.129  -3.870  0.00  0.00     0.277 A 
ATOM     20  O   UNL d   1      11.357  10.304  -3.580  0.00  0.00    -0.266 OA
ATOM     21  C   UNL d   1      11.285   9.218  -6.454  0.00  0.00     0.167 A 
ATOM     22  F   UNL d   1      11.195  10.580  -6.499  0.00  0.00    -0.202 F 
ENDBRANCH  11  12
ENDBRANCH  10  11
ENDBRANCH   9  10
ENDBRANCH   8   9
ENDBRANCH   7   8
ENDBRANCH   1   7
BRANCH   4  23
ATOM     23  C   UNL d   1       6.492   1.676 -14.375  0.00  0.00     0.058 A 
ATOM     24  C   UNL d   1       6.809   0.948 -15.576  0.00  0.00     0.043 A 
ATOM     25  C   UNL d   1       6.171  -0.313 -15.773  0.00  0.00     0.004 A 
ATOM     26  C   UNL d   1       7.706   1.415 -16.574  0.00  0.00     0.141 C 
ATOM     27  C   UNL d   1       5.265  -0.820 -14.823  0.00  0.00     0.000 A 
ATOM     28  C   UNL d   1       6.413  -1.046 -16.956  0.00  0.00     0.000 C 
ATOM     29  C   UNL d   1       4.912  -0.051 -13.705  0.00  0.00     0.002 A 
ATOM     30  C   UNL d   1       5.543   1.164 -13.468  0.00  0.00     0.017 A 
ATOM     31  C   UNL d   1       7.397  -0.629 -17.878  0.00  0.00     0.002 C 
ATOM     32  C   UNL d   1       8.013   0.617 -17.682  0.00  0.00     0.030 C 
ATOM     33  F   UNL d   1       8.291   2.620 -16.550  0.00  0.00    -0.204 F 
ENDBRANCH   4  23
TORSDOF 7
