REMARK  6 active torsions:
REMARK  status: ('A' for Active; 'I' for Inactive)
REMARK    1  A    between atoms: O_2  and  C_3 
REMARK    2  A    between atoms: C_7  and  C_8 
REMARK       I    between atoms: C_8  and  N_10 
REMARK    3  A    between atoms: N_10  and  C_11 
REMARK    4  A    between atoms: C_11  and  C_12 
REMARK    5  A    between atoms: C_12  and  N_13 
REMARK    6  A    between atoms: N_16  and  C_17 
ROOT
ATOM      1  N   UNL d   1       9.239   6.415  -9.965  0.00  0.00     0.143 N 
ATOM      2  C   UNL d   1       9.646   7.829  -9.881  0.00  0.00     0.274 C 
ATOM      3  C   UNL d   1       9.337   8.405  -8.484  0.00  0.00     0.137 C 
ATOM      4  N   UNL d   1       9.986   7.583  -7.470  0.00  0.00    -0.344 N 
ATOM      5  C   UNL d   1       9.677   6.164  -7.559  0.00  0.00     0.137 C 
ATOM      6  C   UNL d   1       9.989   5.652  -8.966  0.00  0.00     0.274 C 
ENDROOT
BRANCH   1   7
ATOM      7  C   UNL d   1       9.485   5.959 -11.319  0.00  0.00     0.277 C 
BRANCH   7   8
ATOM      8  C   UNL d   1       9.042   4.505 -11.527  0.00  0.00     0.164 C 
BRANCH   8   9
ATOM      9  N   UNL d   1       8.948   4.134 -12.928  0.00  0.00    -0.232 NA
ATOM     10  C   UNL d   1       9.928   4.214 -13.840  0.00  0.00     0.275 C 
ATOM     11  O   UNL d   1      11.012   4.773 -13.651  0.00  0.00    -0.266 OA
BRANCH  10  12
ATOM     12  C   UNL d   1       9.599   3.591 -15.159  0.00  0.00     0.059 A 
ATOM     13  C   UNL d   1      10.086   4.167 -16.347  0.00  0.00     0.005 A 
ATOM     14  C   UNL d   1       9.821   3.554 -17.584  0.00  0.00     0.002 A 
ATOM     15  C   UNL d   1       9.076   2.360 -17.636  0.00  0.00     0.024 A 
ATOM     16  C   UNL d   1       8.587   1.766 -16.446  0.00  0.00     0.094 A 
ATOM     17  C   UNL d   1       8.861   2.387 -15.215  0.00  0.00     0.029 A 
BRANCH  16  18
ATOM     18  O   UNL d   1       7.865   0.594 -16.396  0.00  0.00    -0.328 OA
ATOM     19  C   UNL d   1       7.582  -0.065 -17.617  0.00  0.00     0.181 C 
ENDBRANCH  16  18
ENDBRANCH  10  12
ENDBRANCH   8   9
ENDBRANCH   7   8
ENDBRANCH   1   7
BRANCH   4  20
ATOM     20  C   UNL d   1      10.804   8.109  -6.451  0.00  0.00     0.057 A 
ATOM     21  C   UNL d   1      11.031   7.406  -5.237  0.00  0.00     0.028 A 
ATOM     22  C   UNL d   1      11.857   7.937  -4.235  0.00  0.00     0.059 A 
ATOM     23  C   UNL d   1      12.470   9.188  -4.429  0.00  0.00     0.011 A 
ATOM     24 CL   UNL d   1      12.135   7.059  -2.775  0.00  0.00    -0.082 Cl
ATOM     25  C   UNL d   1      12.262   9.878  -5.630  0.00  0.00     0.002 A 
ATOM     26  C   UNL d   1      11.436   9.358  -6.631  0.00  0.00     0.017 A 
ENDBRANCH   4  20
TORSDOF 6
