REMARK  7 active torsions:
REMARK  status: ('A' for Active; 'I' for Inactive)
REMARK    1  A    between atoms: C_6  and  S_7 
REMARK    2  A    between atoms: S_7  and  N_10 
REMARK    3  A    between atoms: N_10  and  C_11 
REMARK    4  A    between atoms: C_11  and  C_12 
REMARK    5  A    between atoms: C_12  and  C_13 
REMARK    6  A    between atoms: C_13  and  N_14 
REMARK    7  A    between atoms: C_17  and  C_18 
ROOT
ATOM      1  N   UNL d   1       8.354   5.473 -10.613  0.00  0.00     0.142 N 
ATOM      2  C   UNL d   1       9.627   4.827 -10.829  0.00  0.00     0.276 C 
ATOM      3  C   UNL d   1       9.810   4.316 -12.254  0.00  0.00     0.005 C 
ATOM      4  C   UNL d   1       8.814   4.176 -13.133  0.00  0.00    -0.021 C 
ATOM      5  C   UNL d   1       7.428   4.634 -12.728  0.00  0.00     0.061 C 
ATOM      6  C   UNL d   1       7.276   4.707 -11.216  0.00  0.00     0.255 C 
ENDROOT
BRANCH   1   7
ATOM      7  C   UNL d   1       8.175   5.662  -9.191  0.00  0.00     0.253 C 
BRANCH   7   8
ATOM      8  C   UNL d   1       9.036   6.789  -8.622  0.00  0.00     0.062 C 
BRANCH   8   9
ATOM      9  C   UNL d   1       8.841   7.001  -7.113  0.00  0.00     0.141 C 
BRANCH   9  10
ATOM     10  N   UNL d   1       9.383   8.301  -6.736  0.00  0.00    -0.185 NA
BRANCH  10  11
ATOM     11  S   UNL d   1      11.073   8.589  -6.720  0.00  0.00     0.281 S 
ATOM     12  O   UNL d   1      11.288   9.948  -7.217  0.00  0.00    -0.199 OA
ATOM     13  O   UNL d   1      11.785   7.436  -7.302  0.00  0.00    -0.199 OA
BRANCH  11  14
ATOM     14  C   UNL d   1      11.452   8.627  -5.009  0.00  0.00     0.105 A 
ATOM     15  C   UNL d   1      11.451   9.870  -4.362  0.00  0.00     0.013 A 
ATOM     16  C   UNL d   1      11.869   9.931  -3.024  0.00  0.00     0.000 A 
ATOM     17  C   UNL d   1      12.258   8.774  -2.340  0.00  0.00    -0.004 A 
ATOM     18  C   UNL d   1      12.252   7.531  -3.000  0.00  0.00    -0.021 A 
ATOM     19  C   UNL d   1      12.643   6.284  -2.261  0.00  0.00     0.031 C 
ATOM     20  C   UNL d   1      11.845   7.456  -4.346  0.00  0.00     0.009 A 
ENDBRANCH  11  14
ENDBRANCH  10  11
ENDBRANCH   9  10
ENDBRANCH   8   9
ENDBRANCH   7   8
ENDBRANCH   1   7
BRANCH   4  21
ATOM     21  C   UNL d   1       9.105   3.736 -14.495  0.00  0.00     0.017 A 
ATOM     22  C   UNL d   1       8.366   2.756 -15.218  0.00  0.00     0.021 A 
ATOM     23  C   UNL d   1       8.991   2.632 -16.494  0.00  0.00     0.082 A 
ATOM     24  C   UNL d   1       7.219   1.945 -14.974  0.00  0.00     0.031 A 
ATOM     25  N   UNL d   1      10.065   3.518 -16.482  0.00  0.00    -0.244 NA
ATOM     26  C   UNL d   1       8.504   1.762 -17.478  0.00  0.00     0.021 A 
ATOM     27  C   UNL d   1      10.147   4.182 -15.272  0.00  0.00     0.099 A 
ATOM     28  C   UNL d   1       7.361   0.977 -17.205  0.00  0.00     0.031 A 
ATOM     29  C   UNL d   1       6.723   1.078 -15.956  0.00  0.00     0.140 A 
ATOM     30  F   UNL d   1       5.617   0.339 -15.695  0.00  0.00    -0.204 F 
ENDBRANCH   4  21
TORSDOF 7
