REMARK  7 active torsions:
REMARK  status: ('A' for Active; 'I' for Inactive)
REMARK    1  A    between atoms: C_2  and  C_3 
REMARK    2  A    between atoms: N_13  and  C_14 
REMARK    3  A    between atoms: C_14  and  C_15 
REMARK    4  A    between atoms: C_15  and  C_17 
REMARK    5  A    between atoms: C_17  and  N_18 
REMARK    6  A    between atoms: C_21  and  O_22 
REMARK    7  A    between atoms: O_22  and  C_23 
ROOT
ATOM      1  C   UNL d   1       7.020   4.814 -12.859  0.00  0.00     0.208 C 
ATOM      2  O   UNL d   1       5.900   5.527 -12.391  0.00  0.00    -0.219 OA
ENDROOT
BRANCH   1   3
ATOM      3  C   UNL d   1       6.546   3.614 -13.716  0.00  0.00     0.148 C 
BRANCH   3   4
ATOM      4  N   UNL d   1       7.631   2.809 -14.327  0.00  0.00    -0.247 N 
ATOM      5  C   UNL d   1       7.576   1.469 -14.446  0.00  0.00     0.348 A 
ATOM      6  N   UNL d   1       8.733   1.032 -14.954  0.00  0.00    -0.209 NA
ATOM      7  O   UNL d   1       6.640   0.748 -14.107  0.00  0.00    -0.245 OA
ATOM      8  C   UNL d   1       9.637   2.112 -15.308  0.00  0.00     0.179 A 
ATOM      9  C   UNL d   1      10.923   2.029 -14.470  0.00  0.00     0.039 C 
ATOM     10  C   UNL d   1       8.787   3.280 -14.828  0.00  0.00     0.265 A 
ATOM     11  O   UNL d   1       9.155   4.452 -14.890  0.00  0.00    -0.269 OA
BRANCH   8  12
ATOM     12  C   UNL d   1       9.915   2.224 -16.815  0.00  0.00     0.006 A 
ATOM     13  C   UNL d   1       9.275   1.366 -17.746  0.00  0.00     0.000 A 
ATOM     14  C   UNL d   1       9.563   1.462 -19.120  0.00  0.00     0.029 A 
ATOM     15  C   UNL d   1      10.489   2.413 -19.585  0.00  0.00     0.140 A 
ATOM     16  C   UNL d   1      11.116   3.284 -18.676  0.00  0.00     0.029 A 
ATOM     17  F   UNL d   1      10.767   2.497 -20.906  0.00  0.00    -0.204 F 
ATOM     18  C   UNL d   1      10.829   3.188 -17.301  0.00  0.00     0.000 A 
ENDBRANCH   8  12
ENDBRANCH   3   4
ENDBRANCH   1   3
BRANCH   1  19
ATOM     19  C   UNL d   1       7.832   4.383 -11.631  0.00  0.00     0.285 C 
BRANCH  19  20
ATOM     20  N   UNL d   1       8.306   5.488 -10.810  0.00  0.00     0.140 N 
ATOM     21  C   UNL d   1       8.687   5.020  -9.486  0.00  0.00     0.253 C 
ATOM     22  C   UNL d   1       9.058   6.163  -8.541  0.00  0.00     0.066 C 
ATOM     23  C   UNL d   1      10.229   6.978  -9.123  0.00  0.00     0.125 C 
ATOM     24  C   UNL d   1       9.868   7.413 -10.565  0.00  0.00     0.066 C 
ATOM     25  C   UNL d   1       9.418   6.215 -11.419  0.00  0.00     0.253 C 
BRANCH  23  26
ATOM     26  O   UNL d   1      10.513   8.161  -8.377  0.00  0.00    -0.333 OA
BRANCH  26  27
ATOM     27  C   UNL d   1      10.939   8.109  -7.064  0.00  0.00     0.094 A 
ATOM     28  C   UNL d   1      11.111   6.925  -6.298  0.00  0.00     0.025 A 
ATOM     29  C   UNL d   1      11.464   7.007  -4.936  0.00  0.00     0.013 A 
ATOM     30  C   UNL d   1      11.748   8.258  -4.346  0.00  0.00     0.058 A 
ATOM     31  C   UNL d   1      11.629   9.430  -5.112  0.00  0.00     0.013 A 
ATOM     32 CL   UNL d   1      12.257   8.342  -2.696  0.00  0.00    -0.082 Cl
ATOM     33  C   UNL d   1      11.211   9.351  -6.456  0.00  0.00     0.025 A 
ENDBRANCH  26  27
ENDBRANCH  23  26
ENDBRANCH  19  20
ENDBRANCH   1  19
TORSDOF 7
