REMARK  2 active torsions:
REMARK  status: ('A' for Active; 'I' for Inactive)
REMARK    1  A    between atoms: O_2  and  C_3 
REMARK    2  A    between atoms: C_6  and  C_7 
ROOT
ATOM      1  C   UNL d   1      10.918   8.249  -6.118  0.00  0.00     0.064 A 
ATOM      2  C   UNL d   1      11.471   7.132  -5.345  0.00  0.00     0.198 A 
ATOM      3  O   UNL d   1      11.754   6.009  -5.796  0.00  0.00    -0.286 OA
ATOM      4  C   UNL d   1      11.819   7.633  -4.025  0.00  0.00     0.041 A 
ATOM      5  C   UNL d   1      12.387   6.995  -2.897  0.00  0.00     0.003 A 
ATOM      6  C   UNL d   1      12.634   7.795  -1.764  0.00  0.00     0.000 A 
ATOM      7  C   UNL d   1      12.299   9.155  -1.759  0.00  0.00     0.000 A 
ATOM      8  C   UNL d   1      11.798   9.773  -2.921  0.00  0.00     0.002 A 
ATOM      9  C   UNL d   1      11.574   8.991  -4.053  0.00  0.00     0.029 A 
ATOM     10  C   UNL d   1      11.049   9.333  -5.341  0.00  0.00     0.134 A 
ATOM     11  O   UNL d   1      10.810  10.608  -5.659  0.00  0.00    -0.190 OA
ENDROOT
BRANCH   1  12
ATOM     12  C   UNL d   1      10.591   8.180  -7.538  0.00  0.00     0.005 A 
ATOM     13  C   UNL d   1       9.805   7.118  -7.992  0.00  0.00     0.002 A 
ATOM     14  C   UNL d   1       9.460   7.032  -9.348  0.00  0.00     0.024 A 
ATOM     15  C   UNL d   1       9.914   8.011 -10.285  0.00  0.00     0.094 A 
ATOM     16  C   UNL d   1      10.754   9.040  -9.793  0.00  0.00     0.024 A 
ATOM     17  C   UNL d   1      11.063   9.139  -8.429  0.00  0.00     0.002 A 
BRANCH  15  18
ATOM     18  O   UNL d   1       9.553   8.032 -11.624  0.00  0.00    -0.328 OA
ATOM     19  C   UNL d   1       8.819   6.913 -12.124  0.00  0.00     0.181 C 
ENDBRANCH  15  18
ENDBRANCH   1  12
TORSDOF 2
