REMARK  8 active torsions:
REMARK  status: ('A' for Active; 'I' for Inactive)
REMARK    1  A    between atoms: O_2  and  C_3 
REMARK    2  A    between atoms: C_8  and  N_9 
REMARK    3  A    between atoms: N_12  and  C_13 
REMARK    4  A    between atoms: C_13  and  C_14 
REMARK    5  A    between atoms: C_14  and  C_15 
REMARK    6  A    between atoms: C_15  and  C_16 
REMARK    7  A    between atoms: C_16  and  N_17 
REMARK       I    between atoms: N_17  and  C_18 
REMARK    8  A    between atoms: C_18  and  C_20 
ROOT
ATOM      1  C   UNL d   1       9.351   3.394 -13.398  0.00  0.00     0.037 C 
ENDROOT
BRANCH   1   2
ATOM      2  C   UNL d   1      10.578   3.053 -14.289  0.00  0.00     0.251 C 
BRANCH   2   3
ATOM      3  N   UNL d   1      10.519   3.646 -15.630  0.00  0.00     0.141 N 
ATOM      4  C   UNL d   1      11.513   2.992 -16.503  0.00  0.00     0.274 C 
ATOM      5  C   UNL d   1      11.415   3.576 -17.948  0.00  0.00     0.137 C 
ATOM      6  N   UNL d   1      11.498   5.017 -17.938  0.00  0.00    -0.343 N 
ATOM      7  C   UNL d   1      10.636   5.679 -16.984  0.00  0.00     0.137 C 
ATOM      8  C   UNL d   1      10.849   5.059 -15.615  0.00  0.00     0.274 C 
BRANCH   6   9
ATOM      9  C   UNL d   1      12.496   5.751 -18.645  0.00  0.00     0.079 A 
ATOM     10  C   UNL d   1      13.235   6.813 -18.057  0.00  0.00     0.110 A 
ATOM     11  C   UNL d   1      14.162   7.509 -18.845  0.00  0.00     0.026 A 
ATOM     12  C   UNL d   1      14.376   7.152 -20.195  0.00  0.00     0.002 A 
ATOM     13  C   UNL d   1      13.627   6.100 -20.766  0.00  0.00     0.002 A 
ATOM     14  C   UNL d   1      12.697   5.408 -19.990  0.00  0.00     0.019 A 
BRANCH  10  15
ATOM     15  O   UNL d   1      13.098   7.076 -16.698  0.00  0.00    -0.327 OA
ATOM     16  C   UNL d   1      13.245   8.424 -16.284  0.00  0.00     0.181 C 
ENDBRANCH  10  15
ENDBRANCH   6   9
ENDBRANCH   2   3
ENDBRANCH   1   2
BRANCH   1  17
ATOM     17  C   UNL d   1       9.253   4.831 -12.851  0.00  0.00     0.029 C 
BRANCH  17  18
ATOM     18  C   UNL d   1       8.062   5.064 -11.911  0.00  0.00     0.129 C 
BRANCH  18  19
ATOM     19  N   UNL d   1       8.447   5.972 -10.855  0.00  0.00    -0.234 NA
ATOM     20  C   UNL d   1       9.225   5.603  -9.832  0.00  0.00     0.275 C 
ATOM     21  O   UNL d   1       9.459   4.424  -9.569  0.00  0.00    -0.266 OA
BRANCH  20  22
ATOM     22  C   UNL d   1       9.817   6.719  -9.036  0.00  0.00     0.059 A 
ATOM     23  C   UNL d   1      10.107   6.512  -7.676  0.00  0.00     0.025 A 
ATOM     24  C   UNL d   1      10.663   7.530  -6.884  0.00  0.00     0.099 A 
ATOM     25  C   UNL d   1      10.944   8.796  -7.481  0.00  0.00     0.099 A 
ATOM     26  N   UNL d   1      10.918   7.301  -5.572  0.00  0.00    -0.241 NA
ATOM     27  C   UNL d   1      10.697   8.980  -8.854  0.00  0.00     0.021 A 
ATOM     28  N   UNL d   1      11.454   9.813  -6.742  0.00  0.00    -0.241 NA
ATOM     29  C   UNL d   1      10.149   7.953  -9.633  0.00  0.00     0.006 A 
ATOM     30  C   UNL d   1      11.691   9.572  -5.442  0.00  0.00     0.120 A 
ATOM     31  C   UNL d   1      11.436   8.319  -4.855  0.00  0.00     0.120 A 
ENDBRANCH  20  22
ENDBRANCH  18  19
ENDBRANCH  17  18
ENDBRANCH   1  17
TORSDOF 8
