REMARK  6 active torsions:
REMARK  status: ('A' for Active; 'I' for Inactive)
REMARK    1  A    between atoms: N_11  and  C_12 
REMARK    2  A    between atoms: C_12  and  C_13 
REMARK    3  A    between atoms: C_13  and  C_14 
REMARK    4  A    between atoms: C_14  and  N_15 
REMARK    5  A    between atoms: N_18  and  C_19 
REMARK    6  A    between atoms: C_19  and  C_20 
ROOT
ATOM      1  N   UNL d   1       8.892   5.983 -10.097  0.00  0.00     0.141 N 
ATOM      2  C   UNL d   1       9.710   6.896 -10.918  0.00  0.00     0.285 C 
ATOM      3  C   UNL d   1       9.420   6.719 -12.410  0.00  0.00     0.286 C 
ATOM      4  N   UNL d   1       9.687   5.330 -12.802  0.00  0.00     0.146 N 
ATOM      5  C   UNL d   1       8.807   4.457 -12.008  0.00  0.00     0.286 C 
ATOM      6  C   UNL d   1       9.068   4.598 -10.517  0.00  0.00     0.285 C 
ENDROOT
BRANCH   1   7
ATOM      7  C   UNL d   1       9.031   6.157  -8.652  0.00  0.00     0.252 C 
BRANCH   7   8
ATOM      8  C   UNL d   1      10.492   6.172  -8.155  0.00  0.00     0.061 C 
BRANCH   8   9
ATOM      9  C   UNL d   1      10.641   6.361  -6.632  0.00  0.00     0.120 C 
BRANCH   9  10
ATOM     10  N   UNL d   1      11.059   7.674  -6.171  0.00  0.00    -0.257 N 
ATOM     11  S   UNL d   1      10.700   9.082  -7.019  0.00  0.00     0.251 S 
ATOM     12  O   UNL d   1       9.254   9.071  -7.253  0.00  0.00    -0.204 OA
ATOM     13  O   UNL d   1      11.694   9.186  -8.102  0.00  0.00    -0.204 OA
ATOM     14  C   UNL d   1      11.133  10.189  -5.603  0.00  0.00     0.172 A 
ATOM     15  C   UNL d   1      11.524   9.211  -4.503  0.00  0.00     0.012 A 
ATOM     16  C   UNL d   1      11.467   7.846  -4.849  0.00  0.00     0.067 A 
ATOM     17  C   UNL d   1      11.888   9.589  -3.201  0.00  0.00    -0.002 A 
ATOM     18  C   UNL d   1      11.800   6.842  -3.913  0.00  0.00     0.018 A 
ATOM     19  C   UNL d   1      12.201   7.224  -2.615  0.00  0.00     0.002 A 
ATOM     20  C   UNL d   1      12.262   8.600  -2.278  0.00  0.00    -0.000 A 
ENDBRANCH   9  10
ENDBRANCH   8   9
ENDBRANCH   7   8
ENDBRANCH   1   7
BRANCH   4  21
ATOM     21  C   UNL d   1       9.530   5.167 -14.242  0.00  0.00     0.277 C 
BRANCH  21  22
ATOM     22  C   UNL d   1       9.718   3.752 -14.751  0.00  0.00     0.011 A 
ATOM     23  C   UNL d   1      10.976   3.337 -15.237  0.00  0.00    -0.002 A 
ATOM     24  C   UNL d   1      11.137   2.025 -15.710  0.00  0.00     0.011 A 
ATOM     25  C   UNL d   1      10.044   1.144 -15.718  0.00  0.00     0.058 A 
ATOM     26  C   UNL d   1       8.789   1.552 -15.205  0.00  0.00     0.011 A 
ATOM     27 CL   UNL d   1      10.227  -0.423 -16.405  0.00  0.00    -0.082 Cl
ATOM     28  C   UNL d   1       8.616   2.861 -14.749  0.00  0.00    -0.002 A 
ENDBRANCH  21  22
ENDBRANCH   4  21
TORSDOF 6
