REMARK  2 active torsions:
REMARK  status: ('A' for Active; 'I' for Inactive)
REMARK    1  A    between atoms: C_6  and  C_7 
REMARK    2  A    between atoms: C_7  and  N_8 
ROOT
ATOM      1  N   UNL d   1       7.882   2.526 -14.898  0.00  0.00    -0.327 N 
ATOM      2  C   UNL d   1       7.397   3.438 -13.950  0.00  0.00     0.066 A 
ATOM      3  C   UNL d   1       6.039   3.634 -13.957  0.00  0.00     0.018 A 
ATOM      4  C   UNL d   1       5.386   4.456 -13.036  0.00  0.00     0.002 A 
ATOM      5  C   UNL d   1       6.143   5.173 -12.075  0.00  0.00     0.001 A 
ATOM      6  C   UNL d   1       7.537   5.009 -12.066  0.00  0.00     0.008 A 
ATOM      7  C   UNL d   1       8.159   4.159 -13.013  0.00  0.00     0.045 A 
ATOM      8  S   UNL d   1       9.905   3.964 -13.005  0.00  0.00    -0.084 SA
ATOM      9  C   UNL d   1      10.224   3.160 -14.556  0.00  0.00     0.045 A 
ATOM     10  C   UNL d   1      11.556   3.191 -15.009  0.00  0.00     0.008 A 
ATOM     11  C   UNL d   1      11.883   2.635 -16.253  0.00  0.00     0.001 A 
ATOM     12  C   UNL d   1      10.898   2.049 -17.061  0.00  0.00     0.002 A 
ATOM     13  C   UNL d   1       9.561   2.008 -16.606  0.00  0.00     0.018 A 
ATOM     14  C   UNL d   1       9.219   2.555 -15.339  0.00  0.00     0.066 A 
ENDROOT
BRANCH   1  15
ATOM     15  C   UNL d   1       7.111   1.308 -15.168  0.00  0.00     0.108 C 
BRANCH  15  16
ATOM     16  C   UNL d   1       6.845   0.494 -13.871  0.00  0.00     0.056 C 
ATOM     17  C   UNL d   1       6.984  -0.979 -14.068  0.00  0.00     0.006 C 
ATOM     18  C   UNL d   1       5.941  -1.560 -15.042  0.00  0.00     0.035 C 
ATOM     19  C   UNL d   1       4.557  -1.239 -14.585  0.00  0.00     0.250 C 
ATOM     20  N   UNL d   1       4.457   0.159 -14.209  0.00  0.00     0.139 N 
ATOM     21  C   UNL d   1       3.095   0.312 -13.796  0.00  0.00     0.285 C 
ATOM     22  C   UNL d   1       5.449   0.606 -13.224  0.00  0.00     0.252 C 
ENDBRANCH  15  16
ENDBRANCH   1  15
TORSDOF 2
