REMARK  3 active torsions:
REMARK  status: ('A' for Active; 'I' for Inactive)
REMARK    1  A    between atoms: C_4  and  C_5 
REMARK    2  A    between atoms: C_5  and  C_6 
REMARK    3  A    between atoms: C_6  and  N_7 
ROOT
ATOM      1  C   UNL d   1       9.916   6.330  -9.663  0.00  0.00     0.256 C 
ENDROOT
BRANCH   1   2
ATOM      2  C   UNL d   1       9.448   6.878 -11.029  0.00  0.00     0.081 C 
BRANCH   2   3
ATOM      3  C   UNL d   1       8.888   5.804 -11.944  0.00  0.00     0.061 A 
ATOM      4  C   UNL d   1       7.516   5.489 -11.911  0.00  0.00     0.015 A 
ATOM      5  C   UNL d   1       7.029   4.490 -12.771  0.00  0.00     0.003 A 
ATOM      6  C   UNL d   1       7.935   3.847 -13.638  0.00  0.00     0.021 A 
ATOM      7  C   UNL d   1       9.290   4.228 -13.591  0.00  0.00     0.099 A 
ATOM      8  N   UNL d   1       9.766   5.188 -12.767  0.00  0.00    -0.248 NA
ENDBRANCH   2   3
ENDBRANCH   1   2
BRANCH   1   9
ATOM      9  N   UNL d   1      10.556   7.381  -8.860  0.00  0.00     0.133 N 
ATOM     10  C   UNL d   1      11.122   6.966  -7.577  0.00  0.00     0.219 C 
ATOM     11  C   UNL d   1      11.739   8.298  -7.135  0.00  0.00     0.035 C 
ATOM     12  C   UNL d   1       9.901   6.649  -6.707  0.00  0.00     0.035 C 
ATOM     13  C   UNL d   1      10.703   9.303  -7.642  0.00  0.00     0.035 C 
ATOM     14  C   UNL d   1       9.661   8.394  -8.311  0.00  0.00     0.219 C 
ATOM     15  C   UNL d   1       8.869   7.640  -7.230  0.00  0.00     0.035 C 
ENDBRANCH   1   9
TORSDOF 3
