REMARK  3 active torsions:
REMARK  status: ('A' for Active; 'I' for Inactive)
REMARK    1  A    between atoms: C_9  and  C_10 
REMARK    2  A    between atoms: C_10  and  N_11 
REMARK    3  A    between atoms: N_14  and  C_15 
ROOT
ATOM      1  N   UNL d   1      10.917   1.124 -15.609  0.00  0.00    -0.191 NA
ATOM      2  C   UNL d   1      10.100   1.749 -15.085  0.00  0.00     0.101 C 
ATOM      3  C   UNL d   1       9.069   2.533 -14.429  0.00  0.00     0.068 A 
ATOM      4  C   UNL d   1       7.717   2.332 -14.772  0.00  0.00     0.012 A 
ATOM      5  C   UNL d   1       6.712   3.074 -14.126  0.00  0.00     0.020 A 
ATOM      6  C   UNL d   1       7.071   4.016 -13.153  0.00  0.00     0.081 A 
ATOM      7  N   UNL d   1       6.321   4.882 -12.392  0.00  0.00    -0.244 NA
ATOM      8  C   UNL d   1       7.142   5.604 -11.551  0.00  0.00     0.097 A 
ATOM      9  C   UNL d   1       8.447   5.235 -11.742  0.00  0.00     0.032 A 
ATOM     10  C   UNL d   1       8.428   4.239 -12.775  0.00  0.00     0.018 A 
ATOM     11  C   UNL d   1       9.419   3.475 -13.439  0.00  0.00     0.011 A 
ENDROOT
BRANCH   9  12
ATOM     12  C   UNL d   1       9.642   5.801 -11.035  0.00  0.00     0.279 C 
BRANCH  12  13
ATOM     13  N   UNL d   1       9.470   6.719  -9.913  0.00  0.00     0.145 N 
ATOM     14  C   UNL d   1       9.104   5.973  -8.693  0.00  0.00     0.275 C 
ATOM     15  C   UNL d   1       8.905   6.930  -7.498  0.00  0.00     0.137 C 
ATOM     16  N   UNL d   1      10.075   7.778  -7.338  0.00  0.00    -0.344 N 
ATOM     17  C   UNL d   1      10.512   8.488  -8.528  0.00  0.00     0.137 C 
ATOM     18  C   UNL d   1      10.704   7.477  -9.675  0.00  0.00     0.275 C 
BRANCH  16  19
ATOM     19  C   UNL d   1      10.713   7.949  -6.103  0.00  0.00     0.056 A 
ATOM     20  C   UNL d   1      11.003   9.239  -5.619  0.00  0.00     0.019 A 
ATOM     21  C   UNL d   1      11.658   9.396  -4.382  0.00  0.00     0.031 A 
ATOM     22  C   UNL d   1      12.047   8.272  -3.632  0.00  0.00     0.140 A 
ATOM     23  C   UNL d   1      11.768   6.982  -4.114  0.00  0.00     0.031 A 
ATOM     24  F   UNL d   1      12.674   8.427  -2.445  0.00  0.00    -0.204 F 
ATOM     25  C   UNL d   1      11.094   6.828  -5.341  0.00  0.00     0.019 A 
ENDBRANCH  16  19
ENDBRANCH  12  13
ENDBRANCH   9  12
TORSDOF 3
