REMARK  2 active torsions:
REMARK  status: ('A' for Active; 'I' for Inactive)
REMARK    1  A    between atoms: N_6  and  C1*_7 
REMARK    2  A    between atoms: C4*_11  and  C5*_12 
ROOT
ATOM      1  O   UNL d   1      12.625   8.989  -1.347  0.00  0.00    -0.263 OA
ATOM      2  C   UNL d   1      12.275   8.568  -2.438  0.00  0.00     0.312 A 
ATOM      3  N   UNL d   1      11.861   9.452  -3.435  0.00  0.00    -0.151 NA
ATOM      4  C   UNL d   1      11.463   9.084  -4.719  0.00  0.00     0.355 A 
ATOM      5  O   UNL d   1      11.110   9.954  -5.517  0.00  0.00    -0.244 OA
ATOM      6  N   UNL d   1      11.457   7.702  -5.000  0.00  0.00    -0.253 N 
ATOM      7  C   UNL d   1      11.860   6.795  -4.042  0.00  0.00     0.117 A 
ATOM      8  C   UNL d   1      12.266   7.169  -2.811  0.00  0.00     0.215 A 
ATOM      9  F   UNL d   1      12.658   6.242  -1.935  0.00  0.00    -0.198 F 
ENDROOT
BRANCH   6  10
ATOM     10  C1* UNL d   1      10.982   7.165  -6.357  0.00  0.00     0.211 C 
ATOM     11  O4* UNL d   1      11.682   7.808  -7.341  0.00  0.00    -0.333 OA
ATOM     12  C4* UNL d   1      10.953   7.567  -8.543  0.00  0.00     0.181 C 
ATOM     13  C3* UNL d   1       9.488   7.670  -8.091  0.00  0.00     0.186 C 
ATOM     14  C2* UNL d   1       9.499   7.410  -6.594  0.00  0.00     0.090 C 
ATOM     15  O3* UNL d   1       8.734   6.678  -8.745  0.00  0.00    -0.221 OA
BRANCH  12  16
ATOM     16  C5* UNL d   1      11.336   8.583  -9.629  0.00  0.00     0.214 C 
ATOM     17  O5* UNL d   1      12.674   8.350 -10.011  0.00  0.00    -0.218 OA
ENDBRANCH  12  16
ENDBRANCH   6  10
TORSDOF 2
