REMARK  3 active torsions:
REMARK  status: ('A' for Active; 'I' for Inactive)
REMARK    1  A    between atoms: C_2  and  C_3 
REMARK    2  A    between atoms: C_2  and  C_5 
REMARK    3  A    between atoms: C_2  and  C_7 
ROOT
ATOM      1  N   UNL d   1      11.163   6.791  -7.013  0.00  0.00     0.622 N 
ATOM      2  C   UNL d   1      10.758   7.776  -8.047  0.00  0.00     0.359 C 
ENDROOT
BRANCH   2   3
ATOM      3  C   UNL d   1       9.903   6.969  -9.076  0.00  0.00     0.225 C 
ATOM      4  O   UNL d   1       9.459   7.692 -10.209  0.00  0.00    -0.218 OA
ENDBRANCH   2   3
BRANCH   2   5
ATOM      5  C   UNL d   1       9.883   8.833  -7.331  0.00  0.00     0.225 C 
ATOM      6  O   UNL d   1      10.658   9.661  -6.457  0.00  0.00    -0.218 OA
ENDBRANCH   2   5
BRANCH   2   7
ATOM      7  C   UNL d   1      12.046   8.358  -8.687  0.00  0.00     0.225 C 
ATOM      8  O   UNL d   1      11.837   9.207  -9.785  0.00  0.00    -0.218 OA
ENDBRANCH   2   7
TORSDOF 3
