REMARK  6 active torsions:
REMARK  status: ('A' for Active; 'I' for Inactive)
REMARK    1  A    between atoms: O_2  and  C_3 
REMARK    2  A    between atoms: C_6  and  O_7 
REMARK    3  A    between atoms: C_9  and  C_10 
REMARK    4  A    between atoms: C_10  and  N_11 
REMARK    5  A    between atoms: N_14  and  C_15 
REMARK    6  A    between atoms: C_15  and  C_16 
REMARK       I    between atoms: C_16  and  N_18 
ROOT
ATOM      1  N   UNL d   1       9.696   3.699 -15.795  0.00  0.00     0.146 N 
ATOM      2  C   UNL d   1      10.446   2.975 -14.769  0.00  0.00     0.286 C 
ATOM      3  C   UNL d   1       9.762   3.104 -13.410  0.00  0.00     0.286 C 
ATOM      4  N   UNL d   1       9.689   4.492 -12.979  0.00  0.00     0.151 N 
ATOM      5  C   UNL d   1       8.912   5.199 -14.000  0.00  0.00     0.286 C 
ATOM      6  C   UNL d   1       9.570   5.089 -15.384  0.00  0.00     0.286 C 
ENDROOT
BRANCH   4   7
ATOM      7  C   UNL d   1       9.146   4.622 -11.617  0.00  0.00     0.337 C 
BRANCH   7   8
ATOM      8  C   UNL d   1       9.320   6.016 -10.991  0.00  0.00     0.271 C 
ATOM      9  O   UNL d   1       9.034   7.021 -11.665  0.00  0.00    -0.270 OA
ATOM     10  N   UNL d   1       9.872   6.104  -9.766  0.00  0.00    -0.299 N 
ATOM     11  C   UNL d   1       9.659   5.167  -8.641  0.00  0.00     0.093 A 
ATOM     12  C   UNL d   1      10.347   7.309  -9.249  0.00  0.00     0.058 A 
ATOM     13  C   UNL d   1      10.065   5.960  -7.356  0.00  0.00     0.051 A 
ATOM     14  C   UNL d   1       8.170   4.740  -8.566  0.00  0.00     0.025 C 
ATOM     15  C   UNL d   1      10.403   7.291  -7.876  0.00  0.00    -0.004 A 
ATOM     16  C   UNL d   1      10.774   8.397  -7.094  0.00  0.00    -0.003 A 
ATOM     17  C   UNL d   1      11.122   9.568  -7.775  0.00  0.00    -0.000 A 
ATOM     18  C   UNL d   1      11.123   9.546  -9.187  0.00  0.00     0.002 A 
ATOM     19  C   UNL d   1      10.776   8.444  -9.963  0.00  0.00     0.017 A 
ENDBRANCH   7   8
ENDBRANCH   4   7
BRANCH   1  20
ATOM     20  C   UNL d   1      10.282   3.583 -17.117  0.00  0.00     0.279 C 
BRANCH  20  21
ATOM     21  C   UNL d   1      10.517   2.141 -17.557  0.00  0.00     0.035 A 
ATOM     22  C   UNL d   1       9.524   1.147 -17.360  0.00  0.00     0.092 A 
ATOM     23  C   UNL d   1       9.828  -0.191 -17.713  0.00  0.00     0.026 A 
ATOM     24  C   UNL d   1      11.064  -0.535 -18.278  0.00  0.00     0.026 A 
ATOM     25  C   UNL d   1      12.047   0.457 -18.513  0.00  0.00     0.094 A 
ATOM     26  C   UNL d   1      11.761   1.793 -18.140  0.00  0.00     0.024 A 
BRANCH  22  27
ATOM     27  O   UNL d   1       8.309   1.514 -16.816  0.00  0.00    -0.328 OA
ATOM     28  C   UNL d   1       7.406   0.474 -16.472  0.00  0.00     0.181 C 
ENDBRANCH  22  27
BRANCH  25  29
ATOM     29  O   UNL d   1      13.278   0.190 -19.085  0.00  0.00    -0.328 OA
ATOM     30  C   UNL d   1      13.583  -1.163 -19.400  0.00  0.00     0.181 C 
ENDBRANCH  25  29
ENDBRANCH  20  21
ENDBRANCH   1  20
TORSDOF 6
