REMARK  3 active torsions:
REMARK  status: ('A' for Active; 'I' for Inactive)
REMARK    1  A    between atoms: C_7  and  C_8 
REMARK    2  A    between atoms: C_8  and  N_9 
REMARK    3  A    between atoms: N_12  and  C_13 
ROOT
ATOM      1  N   UNL d   1       9.194   6.001 -10.990  0.00  0.00     0.145 N 
ATOM      2  C   UNL d   1       8.743   5.573  -9.660  0.00  0.00     0.275 C 
ATOM      3  C   UNL d   1       9.909   5.580  -8.656  0.00  0.00     0.137 C 
ATOM      4  N   UNL d   1      10.571   6.888  -8.645  0.00  0.00    -0.344 N 
ATOM      5  C   UNL d   1      10.952   7.393  -9.962  0.00  0.00     0.137 C 
ATOM      6  C   UNL d   1       9.741   7.361 -10.900  0.00  0.00     0.275 C 
ENDROOT
BRANCH   1   7
ATOM      7  C   UNL d   1       8.073   5.971 -11.928  0.00  0.00     0.277 C 
BRANCH   7   8
ATOM      8  C   UNL d   1       8.056   4.725 -12.799  0.00  0.00     0.013 A 
ATOM      9  C   UNL d   1       9.267   4.188 -13.292  0.00  0.00     0.023 A 
ATOM     10  C   UNL d   1       9.255   3.060 -14.129  0.00  0.00     0.112 A 
ATOM     11  O   UNL d   1      10.440   2.561 -14.622  0.00  0.00    -0.319 OA
ATOM     12  C   UNL d   1       8.022   2.484 -14.508  0.00  0.00     0.107 A 
ATOM     13  C   UNL d   1      10.444   1.183 -15.018  0.00  0.00     0.238 C 
ATOM     14  C   UNL d   1       9.159   0.766 -15.753  0.00  0.00     0.286 C 
ATOM     15  O   UNL d   1       9.189  -0.111 -16.610  0.00  0.00    -0.267 OA
ATOM     16  N   UNL d   1       8.027   1.391 -15.399  0.00  0.00    -0.208 NA
ATOM     17  C   UNL d   1       6.809   3.024 -14.036  0.00  0.00     0.021 A 
ATOM     18  C   UNL d   1       6.829   4.141 -13.174  0.00  0.00    -0.001 A 
ENDBRANCH   7   8
ENDBRANCH   1   7
BRANCH   4  19
ATOM     19  C   UNL d   1      10.786   7.624  -7.469  0.00  0.00     0.056 A 
ATOM     20  C   UNL d   1      10.834   9.039  -7.484  0.00  0.00     0.018 A 
ATOM     21  C   UNL d   1      11.064   9.760  -6.297  0.00  0.00     0.013 A 
ATOM     22  C   UNL d   1      11.234   9.079  -5.082  0.00  0.00     0.058 A 
ATOM     23  C   UNL d   1      11.179   7.680  -5.050  0.00  0.00     0.013 A 
ATOM     24 CL   UNL d   1      11.461   9.938  -3.617  0.00  0.00    -0.082 Cl
ATOM     25  C   UNL d   1      10.965   6.957  -6.236  0.00  0.00     0.018 A 
ENDBRANCH   4  19
TORSDOF 3
