REMARK  6 active torsions:
REMARK  status: ('A' for Active; 'I' for Inactive)
REMARK    1  A    between atoms: C_6  and  C_7 
REMARK       I    between atoms: C_7  and  N_9 
REMARK    2  A    between atoms: N_9  and  C_10 
REMARK    3  A    between atoms: C_13  and  C_14 
REMARK    4  A    between atoms: C_14  and  C_15 
REMARK    5  A    between atoms: C_15  and  N_16 
REMARK    6  A    between atoms: N_19  and  C_20 
ROOT
ATOM      1  N   UNL d   1      12.834   8.553  -1.282  0.00  0.00    -0.191 NA
ATOM      2  C   UNL d   1      12.410   8.499  -2.347  0.00  0.00     0.101 C 
ATOM      3  C   UNL d   1      11.886   8.422  -3.683  0.00  0.00     0.068 A 
ATOM      4  C   UNL d   1      11.844   7.167  -4.311  0.00  0.00     0.010 A 
ATOM      5  C   UNL d   1      11.343   7.066  -5.617  0.00  0.00     0.005 A 
ATOM      6  C   UNL d   1      10.889   8.221  -6.295  0.00  0.00     0.058 A 
ATOM      7  C   UNL d   1      10.958   9.483  -5.660  0.00  0.00     0.005 A 
ATOM      8  C   UNL d   1      11.439   9.579  -4.340  0.00  0.00     0.010 A 
ENDROOT
BRANCH   6   9
ATOM      9  C   UNL d   1      10.389   8.126  -7.698  0.00  0.00     0.275 C 
ATOM     10  O   UNL d   1      10.450   9.092  -8.460  0.00  0.00    -0.266 OA
ATOM     11  N   UNL d   1       9.826   6.953  -8.012  0.00  0.00    -0.236 NA
BRANCH  11  12
ATOM     12  C   UNL d   1       9.252   6.632  -9.306  0.00  0.00     0.107 C 
ATOM     13  C   UNL d   1       8.375   5.374  -9.186  0.00  0.00     0.024 C 
ATOM     14  C   UNL d   1       7.802   4.964 -10.556  0.00  0.00     0.002 C 
ATOM     15  C   UNL d   1       8.893   4.733 -11.606  0.00  0.00     0.002 C 
ATOM     16  C   UNL d   1       9.793   5.967 -11.685  0.00  0.00     0.002 C 
ATOM     17  C   UNL d   1      10.351   6.408 -10.325  0.00  0.00     0.024 C 
BRANCH  15  18
ATOM     18  C   UNL d   1       8.289   4.376 -12.988  0.00  0.00     0.035 C 
BRANCH  18  19
ATOM     19  C   UNL d   1       9.214   3.490 -13.838  0.00  0.00     0.250 C 
BRANCH  19  20
ATOM     20  N   UNL d   1      10.317   4.261 -14.399  0.00  0.00     0.141 N 
ATOM     21  C   UNL d   1       9.896   4.927 -15.634  0.00  0.00     0.274 C 
ATOM     22  C   UNL d   1      11.028   5.783 -16.192  0.00  0.00     0.138 C 
ATOM     23  N   UNL d   1      12.232   4.990 -16.382  0.00  0.00    -0.330 N 
ATOM     24  C   UNL d   1      12.636   4.209 -15.217  0.00  0.00     0.138 C 
ATOM     25  C   UNL d   1      11.452   3.380 -14.692  0.00  0.00     0.274 C 
BRANCH  23  26
ATOM     26  C   UNL d   1      12.927   4.957 -17.588  0.00  0.00     0.138 A 
ATOM     27  C   UNL d   1      13.069   6.093 -18.432  0.00  0.00     0.036 A 
ATOM     28  C   UNL d   1      13.762   6.012 -19.617  0.00  0.00     0.095 A 
ATOM     29  C   UNL d   1      12.600   7.503 -18.244  0.00  0.00     0.064 C 
ATOM     30  C   UNL d   1      14.323   4.790 -20.025  0.00  0.00     0.045 A 
ATOM     31  O   UNL d   1      13.838   7.208 -20.276  0.00  0.00    -0.331 OA
ATOM     32  C   UNL d   1      14.151   3.697 -19.146  0.00  0.00     0.103 A 
ATOM     33  N   UNL d   1      13.490   3.773 -17.970  0.00  0.00    -0.228 NA
ATOM     34  C   UNL d   1      13.283   8.219 -19.417  0.00  0.00     0.154 C 
ENDBRANCH  23  26
ENDBRANCH  19  20
ENDBRANCH  18  19
ENDBRANCH  15  18
ENDBRANCH  11  12
ENDBRANCH   6   9
TORSDOF 6
