REMARK  6 active torsions:
REMARK  status: ('A' for Active; 'I' for Inactive)
REMARK    1  A    between atoms: C_2  and  C_3 
REMARK    2  A    between atoms: C_2  and  C_20 
REMARK    3  A    between atoms: C_3  and  C_4 
REMARK    4  A    between atoms: C_4  and  C_5 
REMARK    5  A    between atoms: C_5  and  N_6 
REMARK    6  A    between atoms: C_9  and  C_11 
ROOT
ATOM      1  N   UNL d   1      10.104   6.269  -9.654  0.00  0.00     0.137 N 
ATOM      2  C   UNL d   1       9.007   6.146  -8.709  0.00  0.00     0.253 C 
ATOM      3  C   UNL d   1       9.492   6.410  -7.285  0.00  0.00     0.070 C 
ATOM      4  C   UNL d   1      10.185   7.776  -7.125  0.00  0.00     0.149 C 
ATOM      5  O   UNL d   1       9.177   8.755  -7.341  0.00  0.00    -0.221 OA
ATOM      6  C   UNL d   1      11.249   7.937  -8.223  0.00  0.00     0.070 C 
ATOM      7  C   UNL d   1      10.674   7.616  -9.618  0.00  0.00     0.253 C 
ENDROOT
BRANCH   1   8
ATOM      8  C   UNL d   1       9.605   5.990 -11.005  0.00  0.00     0.251 C 
BRANCH   8   9
ATOM      9  C   UNL d   1       9.437   4.473 -11.236  0.00  0.00     0.043 C 
BRANCH   9  10
ATOM     10  C   UNL d   1       9.639   4.030 -12.704  0.00  0.00     0.071 C 
BRANCH  10  11
ATOM     11  C   UNL d   1       8.408   4.281 -13.551  0.00  0.00     0.175 C 
ATOM     12  O   UNL d   1       8.265   5.388 -14.067  0.00  0.00    -0.291 OA
BRANCH  11  13
ATOM     13  C   UNL d   1       7.425   3.200 -13.648  0.00  0.00     0.062 A 
ATOM     14  C   UNL d   1       7.663   2.059 -14.458  0.00  0.00     0.145 A 
ATOM     15  C   UNL d   1       6.720   1.015 -14.496  0.00  0.00     0.059 A 
ATOM     16  F   UNL d   1       8.791   1.982 -15.199  0.00  0.00    -0.204 F 
ATOM     17  C   UNL d   1       5.548   1.099 -13.713  0.00  0.00     0.142 A 
ATOM     18  C   UNL d   1       5.314   2.247 -12.920  0.00  0.00     0.030 A 
ATOM     19  F   UNL d   1       4.631   0.102 -13.756  0.00  0.00    -0.204 F 
ATOM     20  C   UNL d   1       6.244   3.296 -12.902  0.00  0.00     0.007 A 
ENDBRANCH  11  13
ENDBRANCH  10  11
ENDBRANCH   9  10
ENDBRANCH   8   9
ENDBRANCH   1   8
BRANCH   4  21
ATOM     21  C   UNL d   1      10.861   7.960  -5.741  0.00  0.00     0.005 A 
ATOM     22  C   UNL d   1      11.461   6.853  -5.074  0.00  0.00    -0.001 A 
ATOM     23  C   UNL d   1      12.015   7.010  -3.793  0.00  0.00     0.011 A 
ATOM     24  C   UNL d   1      12.007   8.264  -3.193  0.00  0.00     0.058 A 
ATOM     25  C   UNL d   1      11.463   9.381  -3.835  0.00  0.00     0.011 A 
ATOM     26 CL   UNL d   1      12.662   8.427  -1.636  0.00  0.00    -0.082 Cl
ATOM     27  C   UNL d   1      10.892   9.220  -5.112  0.00  0.00    -0.001 A 
ENDBRANCH   4  21
TORSDOF 6
