REMARK  5 active torsions:
REMARK  status: ('A' for Active; 'I' for Inactive)
REMARK    1  A    between atoms: N_11  and  C_12 
REMARK    2  A    between atoms: C_12  and  C_13 
REMARK    3  A    between atoms: C_13  and  C_14 
REMARK    4  A    between atoms: C_14  and  C_15 
REMARK    5  A    between atoms: C_15  and  N_16 
ROOT
ATOM      1  C   UNL d   1       9.271   5.177 -11.377  0.00  0.00     0.027 C 
ENDROOT
BRANCH   1   2
ATOM      2  C   UNL d   1       9.078   5.450 -12.883  0.00  0.00     0.112 C 
BRANCH   2   3
ATOM      3  N   UNL d   1       9.157   4.210 -13.677  0.00  0.00    -0.264 N 
ATOM      4  C   UNL d   1       8.076   3.454 -14.001  0.00  0.00     0.263 A 
ATOM      5  O   UNL d   1       6.893   3.635 -13.721  0.00  0.00    -0.267 OA
ATOM      6  C   UNL d   1       8.602   2.318 -14.796  0.00  0.00     0.061 A 
ATOM      7  C   UNL d   1       9.967   2.464 -14.875  0.00  0.00     0.061 A 
ATOM      8  C   UNL d   1       7.926   1.248 -15.401  0.00  0.00     0.005 A 
ATOM      9  C   UNL d   1      10.778   1.547 -15.563  0.00  0.00     0.005 A 
ATOM     10  C   UNL d   1      10.317   3.701 -14.140  0.00  0.00     0.263 A 
ATOM     11  C   UNL d   1      10.125   0.451 -16.183  0.00  0.00     0.000 A 
ATOM     12  C   UNL d   1       8.715   0.314 -16.108  0.00  0.00     0.000 A 
ATOM     13  O   UNL d   1      11.461   4.162 -14.014  0.00  0.00    -0.267 OA
ENDBRANCH   2   3
ENDBRANCH   1   2
BRANCH   1  14
ATOM     14  C   UNL d   1       9.464   6.467 -10.555  0.00  0.00     0.037 C 
BRANCH  14  15
ATOM     15  C   UNL d   1       9.559   6.138  -9.062  0.00  0.00     0.250 C 
BRANCH  15  16
ATOM     16  N   UNL d   1       9.214   7.286  -8.225  0.00  0.00     0.137 N 
ATOM     17  C   UNL d   1      10.123   8.409  -8.236  0.00  0.00     0.250 C 
ATOM     18  C   UNL d   1      11.428   8.041  -7.494  0.00  0.00     0.033 C 
ATOM     19  C   UNL d   1      11.179   7.571  -6.055  0.00  0.00     0.004 C 
ATOM     20  C   UNL d   1      12.443   9.178  -7.525  0.00  0.00     0.002 C 
ATOM     21  C   UNL d   1      10.089   6.514  -6.083  0.00  0.00     0.035 C 
ATOM     22  C   UNL d   1      10.837   8.743  -5.122  0.00  0.00     0.000 C 
ATOM     23  C   UNL d   1       8.847   6.925  -6.866  0.00  0.00     0.250 C 
ATOM     24  C   UNL d   1      11.869   9.842  -5.141  0.00  0.00     0.000 C 
ATOM     25  C   UNL d   1      12.092  10.337  -6.548  0.00  0.00     0.000 C 
ENDBRANCH  15  16
ENDBRANCH  14  15
ENDBRANCH   1  14
TORSDOF 5
