REMARK  8 active torsions:
REMARK  status: ('A' for Active; 'I' for Inactive)
REMARK    1  A    between atoms: C_3  and  S_4 
REMARK    2  A    between atoms: S_4  and  C_5 
REMARK    3  A    between atoms: C_5  and  C_6 
REMARK    4  A    between atoms: C_6  and  C_7 
REMARK    5  A    between atoms: C_7  and  N_8 
REMARK    6  A    between atoms: N_13  and  C_14 
REMARK    7  A    between atoms: C_17  and  C_18 
REMARK    8  A    between atoms: C_28  and  C_29 
ROOT
ATOM      1  N   UNL d   1       9.283   4.977 -11.754  0.00  0.00     0.139 N 
ATOM      2  C   UNL d   1       8.925   6.094 -12.584  0.00  0.00     0.252 C 
ATOM      3  C   UNL d   1       8.469   7.132 -11.527  0.00  0.00     0.058 C 
ATOM      4  C   UNL d   1       9.020   8.522 -11.732  0.00  0.00     0.028 C 
ATOM      5  C   UNL d   1       9.514   8.978 -10.363  0.00  0.00     0.102 C 
ATOM      6  N   UNL d   1       9.851   7.785  -9.611  0.00  0.00    -0.348 N 
ATOM      7  C   UNL d   1       9.056   6.693 -10.177  0.00  0.00     0.117 C 
ATOM      8  C   UNL d   1       9.972   5.616 -10.630  0.00  0.00     0.272 C 
ENDROOT
BRANCH   1   9
ATOM      9  C   UNL d   1      10.030   3.976 -12.485  0.00  0.00     0.251 C 
BRANCH   9  10
ATOM     10  C   UNL d   1       9.261   3.455 -13.710  0.00  0.00     0.047 C 
BRANCH  10  11
ATOM     11  C   UNL d   1      10.042   2.364 -14.464  0.00  0.00     0.067 C 
BRANCH  11  12
ATOM     12  S   UNL d   1       9.538   2.252 -16.203  0.00  0.00    -0.075 SA
BRANCH  12  13
ATOM     13  C   UNL d   1      10.227   3.762 -16.838  0.00  0.00     0.193 A 
ATOM     14  N   UNL d   1      11.545   4.024 -16.868  0.00  0.00    -0.289 N 
ATOM     15  C   UNL d   1      12.643   3.160 -16.459  0.00  0.00     0.134 C 
ATOM     16  C   UNL d   1      11.585   5.290 -17.376  0.00  0.00     0.170 A 
ATOM     17  N   UNL d   1      10.371   5.738 -17.682  0.00  0.00    -0.128 NA
ATOM     18  N   UNL d   1       9.482   4.749 -17.342  0.00  0.00    -0.122 NA
BRANCH  16  19
ATOM     19  C   UNL d   1      12.787   6.093 -17.588  0.00  0.00     0.074 A 
ATOM     20  C   UNL d   1      13.954   5.984 -16.808  0.00  0.00     0.105 A 
ATOM     21  N   UNL d   1      15.064   6.695 -17.052  0.00  0.00    -0.223 NA
ATOM     22  C   UNL d   1      15.013   7.564 -18.080  0.00  0.00     0.199 A 
ATOM     23  N   UNL d   1      13.968   7.778 -18.872  0.00  0.00    -0.223 NA
ATOM     24  C   UNL d   1      12.852   7.065 -18.633  0.00  0.00     0.105 A 
ENDBRANCH  16  19
ENDBRANCH  12  13
ENDBRANCH  11  12
ENDBRANCH  10  11
ENDBRANCH   9  10
ENDBRANCH   1   9
BRANCH   6  25
ATOM     25  C   UNL d   1      10.290   7.905  -8.286  0.00  0.00     0.056 A 
ATOM     26  C   UNL d   1      10.997   9.053  -7.798  0.00  0.00     0.017 A 
ATOM     27  C   UNL d   1      11.391   9.162  -6.453  0.00  0.00     0.005 A 
ATOM     28  C   UNL d   1      11.143   8.107  -5.545  0.00  0.00     0.072 A 
ATOM     29  C   UNL d   1      10.413   6.988  -6.007  0.00  0.00     0.005 A 
ATOM     30  C   UNL d   1      10.024   6.873  -7.347  0.00  0.00     0.017 A 
BRANCH  28  31
ATOM     31  C   UNL d   1      11.698   8.198  -4.123  0.00  0.00     0.419 C 
ATOM     32  F   UNL d   1      11.119   9.225  -3.506  0.00  0.00    -0.166 F 
ATOM     33  F   UNL d   1      11.433   7.108  -3.414  0.00  0.00    -0.166 F 
ATOM     34  F   UNL d   1      13.033   8.335  -4.106  0.00  0.00    -0.166 F 
ENDBRANCH  28  31
ENDBRANCH   6  25
TORSDOF 8
