REMARK  8 active torsions:
REMARK  status: ('A' for Active; 'I' for Inactive)
REMARK    1  A    between atoms: C_3  and  S_4 
REMARK    2  A    between atoms: S_4  and  C_5 
REMARK    3  A    between atoms: C_5  and  C_6 
REMARK    4  A    between atoms: C_6  and  C_7 
REMARK    5  A    between atoms: C_7  and  N_8 
REMARK    6  A    between atoms: N_13  and  C_14 
REMARK    7  A    between atoms: C_17  and  C_18 
REMARK    8  A    between atoms: C_28  and  C_29 
ROOT
ATOM      1  N   UNL d   1       9.674   3.208 -13.778  0.00  0.00     0.139 N 
ATOM      2  C   UNL d   1       8.754   3.987 -14.593  0.00  0.00     0.252 C 
ATOM      3  C   UNL d   1       8.131   4.956 -13.593  0.00  0.00     0.058 C 
ATOM      4  C   UNL d   1       6.964   4.406 -12.778  0.00  0.00     0.028 C 
ATOM      5  C   UNL d   1       7.205   4.974 -11.387  0.00  0.00     0.102 C 
ATOM      6  N   UNL d   1       8.643   5.118 -11.252  0.00  0.00    -0.348 N 
ATOM      7  C   UNL d   1       9.227   5.221 -12.579  0.00  0.00     0.117 C 
ATOM      8  C   UNL d   1      10.285   4.145 -12.842  0.00  0.00     0.272 C 
ENDROOT
BRANCH   1   9
ATOM      9  C   UNL d   1      10.662   2.479 -14.565  0.00  0.00     0.251 C 
BRANCH   9  10
ATOM     10  C   UNL d   1      10.038   1.234 -15.226  0.00  0.00     0.047 C 
BRANCH  10  11
ATOM     11  C   UNL d   1      10.896   0.652 -16.355  0.00  0.00     0.067 C 
BRANCH  11  12
ATOM     12  S   UNL d   1      10.899   1.713 -17.828  0.00  0.00    -0.075 SA
BRANCH  12  13
ATOM     13  C   UNL d   1      12.118   0.866 -18.781  0.00  0.00     0.193 A 
ATOM     14  N   UNL d   1      13.034   1.516 -19.528  0.00  0.00    -0.289 N 
ATOM     15  C   UNL d   1      13.166   2.960 -19.679  0.00  0.00     0.134 C 
ATOM     16  C   UNL d   1      13.714   0.493 -20.101  0.00  0.00     0.168 A 
ATOM     17  N   UNL d   1      13.244  -0.702 -19.732  0.00  0.00    -0.128 NA
ATOM     18  N   UNL d   1      12.210  -0.460 -18.861  0.00  0.00    -0.122 NA
BRANCH  16  19
ATOM     19  C   UNL d   1      14.828   0.615 -21.046  0.00  0.00     0.055 A 
ATOM     20  C   UNL d   1      14.869  -0.168 -22.221  0.00  0.00     0.102 A 
ATOM     21  N   UNL d   1      15.853  -0.074 -23.144  0.00  0.00    -0.242 NA
ATOM     22  C   UNL d   1      16.846   0.814 -22.931  0.00  0.00     0.099 A 
ATOM     23  C   UNL d   1      16.910   1.625 -21.786  0.00  0.00     0.021 A 
ATOM     24  C   UNL d   1      15.893   1.506 -20.820  0.00  0.00     0.006 A 
ENDBRANCH  16  19
ENDBRANCH  12  13
ENDBRANCH  11  12
ENDBRANCH  10  11
ENDBRANCH   9  10
ENDBRANCH   1   9
BRANCH   6  25
ATOM     25  C   UNL d   1       9.164   5.792 -10.124  0.00  0.00     0.056 A 
ATOM     26  C   UNL d   1       8.671   5.544  -8.821  0.00  0.00     0.017 A 
ATOM     27  C   UNL d   1       9.210   6.206  -7.694  0.00  0.00     0.005 A 
ATOM     28  C   UNL d   1      10.274   7.122  -7.851  0.00  0.00     0.072 A 
ATOM     29  C   UNL d   1      10.774   7.371  -9.141  0.00  0.00     0.005 A 
ATOM     30  C   UNL d   1      10.223   6.723 -10.258  0.00  0.00     0.017 A 
BRANCH  28  31
ATOM     31  C   UNL d   1      10.876   7.818  -6.639  0.00  0.00     0.419 C 
ATOM     32  F   UNL d   1      11.862   8.650  -6.977  0.00  0.00    -0.166 F 
ATOM     33  F   UNL d   1       9.935   8.529  -6.027  0.00  0.00    -0.166 F 
ATOM     34  F   UNL d   1      11.361   6.911  -5.790  0.00  0.00    -0.166 F 
ENDBRANCH  28  31
ENDBRANCH   6  25
TORSDOF 8
