REMARK  1 active torsions:
REMARK  status: ('A' for Active; 'I' for Inactive)
REMARK    1  A    between atoms: C_2  and  C_3 
ROOT
ATOM      1  C   UNL d   1      10.734   0.542 -19.806  0.00  0.00     0.022 C 
ATOM      2  C   UNL d   1       9.885   0.993 -18.577  0.00  0.00     0.147 C 
ATOM      3  C   UNL d   1      10.638   0.569 -17.281  0.00  0.00     0.266 C 
ATOM      4  O   UNL d   1      11.857   0.458 -17.279  0.00  0.00    -0.269 OA
ATOM      5  N   UNL d   1       9.935   0.381 -16.152  0.00  0.00    -0.211 NA
ATOM      6  C   UNL d   1       8.518   0.383 -16.096  0.00  0.00     0.089 A 
ATOM      7  C   UNL d   1       7.879   0.412 -14.840  0.00  0.00     0.031 A 
ATOM      8  C   UNL d   1       6.473   0.342 -14.770  0.00  0.00     0.060 A 
ATOM      9 CL   UNL d   1       5.670   0.396 -13.241  0.00  0.00    -0.082 Cl
ATOM     10  C   UNL d   1       5.720   0.236 -15.951  0.00  0.00     0.023 A 
ATOM     11  C   UNL d   1       6.343   0.225 -17.211  0.00  0.00     0.063 A 
ATOM     12 CL   UNL d   1       5.330   0.123 -18.611  0.00  0.00    -0.082 Cl
ATOM     13  C   UNL d   1       7.761   0.309 -17.292  0.00  0.00     0.064 A 
ATOM     14  C   UNL d   1       8.519   0.254 -18.579  0.00  0.00     0.187 C 
ATOM     15  O   UNL d   1       8.120  -0.321 -19.594  0.00  0.00    -0.290 OA
ENDROOT
BRANCH   2  16
ATOM     16  C   UNL d   1       9.656   2.532 -18.616  0.00  0.00    -0.007 A 
ATOM     17  C   UNL d   1       9.239   3.148 -19.824  0.00  0.00    -0.001 A 
ATOM     18  C   UNL d   1       9.058   4.544 -19.914  0.00  0.00     0.027 A 
ATOM     19  C   UNL d   1       9.264   5.357 -18.785  0.00  0.00     0.131 A 
ATOM     20  C   UNL d   1       9.659   4.771 -17.572  0.00  0.00     0.027 A 
ATOM     21  O   UNL d   1       9.063   6.705 -18.850  0.00  0.00    -0.190 OA
ATOM     22  C   UNL d   1       9.849   3.377 -17.483  0.00  0.00    -0.001 A 
ENDBRANCH   2  16
TORSDOF 1
