REMARK  9 active torsions:
REMARK  status: ('A' for Active; 'I' for Inactive)
REMARK    1  A    between atoms: C_2  and  C_4 
REMARK    2  A    between atoms: C_9  and  N_10 
REMARK    3  A    between atoms: N_13  and  C_14 
REMARK    4  A    between atoms: C_14  and  C_15 
REMARK    5  A    between atoms: C_15  and  C_16 
REMARK    6  A    between atoms: C_16  and  C_17 
REMARK    7  A    between atoms: C_17  and  C_18 
REMARK    8  A    between atoms: C_18  and  C_19 
REMARK       I    between atoms: C_19  and  N_21 
REMARK    9  A    between atoms: N_21  and  C_22 
ROOT
ATOM      1  C   UNL d   1       9.448   6.673 -11.549  0.00  0.00     0.035 C 
ENDROOT
BRANCH   1   2
ATOM      2  C   UNL d   1       8.057   6.015 -11.415  0.00  0.00     0.250 C 
BRANCH   2   3
ATOM      3  N   UNL d   1       7.656   5.298 -12.612  0.00  0.00     0.141 N 
ATOM      4  C   UNL d   1       8.575   4.187 -12.848  0.00  0.00     0.274 C 
ATOM      5  C   UNL d   1       8.172   3.476 -14.106  0.00  0.00     0.137 C 
ATOM      6  N   UNL d   1       6.794   3.011 -14.046  0.00  0.00    -0.344 N 
ATOM      7  C   UNL d   1       5.814   4.023 -13.654  0.00  0.00     0.137 C 
ATOM      8  C   UNL d   1       6.295   4.770 -12.406  0.00  0.00     0.274 C 
BRANCH   6   9
ATOM      9  C   UNL d   1       6.416   1.687 -14.348  0.00  0.00     0.052 A 
ATOM     10  C   UNL d   1       7.008   0.912 -15.394  0.00  0.00    -0.007 A 
ATOM     11  C   UNL d   1       6.532  -0.396 -15.615  0.00  0.00    -0.003 A 
ATOM     12  C   UNL d   1       5.491  -0.958 -14.848  0.00  0.00    -0.000 A 
ATOM     13  C   UNL d   1       4.892  -0.180 -13.850  0.00  0.00     0.002 A 
ATOM     14  C   UNL d   1       5.374   1.111 -13.589  0.00  0.00     0.017 A 
BRANCH  10  15
ATOM     15  C   UNL d   1       8.147   1.431 -16.295  0.00  0.00     0.024 C 
ATOM     16  C   UNL d   1       7.779   1.341 -17.789  0.00  0.00     0.005 C 
ATOM     17  C   UNL d   1       9.464   0.689 -15.975  0.00  0.00     0.005 C 
ENDBRANCH  10  15
ENDBRANCH   6   9
ENDBRANCH   2   3
ENDBRANCH   1   2
BRANCH   1  18
ATOM     18  C   UNL d   1       9.667   7.755 -10.490  0.00  0.00     0.003 C 
BRANCH  18  19
ATOM     19  C   UNL d   1      11.058   8.376 -10.496  0.00  0.00     0.010 C 
BRANCH  19  20
ATOM     20  C   UNL d   1      11.254   9.570  -9.556  0.00  0.00     0.090 C 
BRANCH  20  21
ATOM     21  C   UNL d   1      11.235   9.133  -8.124  0.00  0.00     0.252 C 
ATOM     22  O   UNL d   1      12.288   8.739  -7.625  0.00  0.00    -0.271 OA
ATOM     23  N   UNL d   1      10.030   9.186  -7.523  0.00  0.00    -0.235 NA
BRANCH  23  24
ATOM     24  C   UNL d   1       9.642   8.411  -6.350  0.00  0.00     0.128 C 
ATOM     25  C   UNL d   1      10.672   8.601  -5.240  0.00  0.00    -0.004 A 
ATOM     26  C   UNL d   1      11.550   7.562  -4.920  0.00  0.00    -0.024 A 
ATOM     27  C   UNL d   1      10.704   9.823  -4.552  0.00  0.00    -0.003 A 
ATOM     28  C   UNL d   1      11.503   6.226  -5.623  0.00  0.00     0.026 C 
ATOM     29  C   UNL d   1      12.446   7.740  -3.858  0.00  0.00    -0.004 A 
ATOM     30  C   UNL d   1      10.683   6.196  -6.940  0.00  0.00     0.007 C 
ATOM     31  C   UNL d   1       9.366   6.952  -6.752  0.00  0.00     0.029 C 
ATOM     32  C   UNL d   1      12.496   8.947  -3.159  0.00  0.00    -0.000 A 
ATOM     33  C   UNL d   1      11.609   9.955  -3.498  0.00  0.00    -0.000 A 
ENDBRANCH  23  24
ENDBRANCH  20  21
ENDBRANCH  19  20
ENDBRANCH  18  19
ENDBRANCH   1  18
TORSDOF 9
