REMARK  6 active torsions:
REMARK  status: ('A' for Active; 'I' for Inactive)
REMARK    1  A    between atoms: C_8  and  N_9 
REMARK    2  A    between atoms: N_12  and  C_13 
REMARK    3  A    between atoms: C_13  and  C_14 
REMARK    4  A    between atoms: C_14  and  C_15 
REMARK    5  A    between atoms: C_15  and  N_16 
REMARK    6  A    between atoms: N_19  and  C_20 
ROOT
ATOM      1  N   UNL d   1       5.091   1.132 -20.281  0.00  0.00    -0.191 NA
ATOM      2  C   UNL d   1       5.495   0.064 -20.099  0.00  0.00     0.104 C 
ATOM      3  C   UNL d   1       6.022  -1.273 -19.859  0.00  0.00     0.102 A 
ATOM      4  C   UNL d   1       5.410  -2.360 -20.526  0.00  0.00     0.015 A 
ATOM      5  C   UNL d   1       5.937  -3.644 -20.344  0.00  0.00     0.021 A 
ATOM      6  C   UNL d   1       7.053  -3.814 -19.509  0.00  0.00     0.101 A 
ATOM      7  N   UNL d   1       7.662  -2.784 -18.881  0.00  0.00    -0.227 NA
ATOM      8  C   UNL d   1       7.152  -1.539 -19.025  0.00  0.00     0.150 A 
ENDROOT
BRANCH   8   9
ATOM      9  N   UNL d   1       7.789  -0.540 -18.303  0.00  0.00    -0.329 N 
ATOM     10  C   UNL d   1       9.248  -0.372 -18.384  0.00  0.00     0.138 C 
ATOM     11  C   UNL d   1       9.852  -0.262 -16.963  0.00  0.00     0.274 C 
ATOM     12  N   UNL d   1       9.155   0.757 -16.166  0.00  0.00     0.141 N 
ATOM     13  C   UNL d   1       7.735   0.371 -16.020  0.00  0.00     0.274 C 
ATOM     14  C   UNL d   1       7.035   0.316 -17.388  0.00  0.00     0.138 C 
BRANCH  12  15
ATOM     15  C   UNL d   1       9.385   2.090 -16.727  0.00  0.00     0.253 C 
BRANCH  15  16
ATOM     16  C   UNL d   1       8.877   3.199 -15.823  0.00  0.00     0.071 C 
BRANCH  16  17
ATOM     17  C   UNL d   1       9.862   3.493 -14.717  0.00  0.00     0.253 C 
BRANCH  17  18
ATOM     18  N   UNL d   1       9.158   4.140 -13.618  0.00  0.00     0.141 N 
ATOM     19  C   UNL d   1       9.114   5.584 -13.789  0.00  0.00     0.274 C 
ATOM     20  C   UNL d   1       8.439   6.269 -12.584  0.00  0.00     0.137 C 
ATOM     21  N   UNL d   1       9.121   5.877 -11.348  0.00  0.00    -0.344 N 
ATOM     22  C   UNL d   1       9.264   4.440 -11.195  0.00  0.00     0.137 C 
ATOM     23  C   UNL d   1       9.920   3.854 -12.426  0.00  0.00     0.274 C 
BRANCH  21  24
ATOM     24  C   UNL d   1       9.527   6.805 -10.377  0.00  0.00     0.068 A 
ATOM     25  C   UNL d   1       9.416   6.596  -8.972  0.00  0.00     0.084 A 
ATOM     26  C   UNL d   1       9.867   7.576  -8.052  0.00  0.00     0.070 A 
ATOM     27 CL   UNL d   1       8.651   5.190  -8.361  0.00  0.00    -0.080 Cl
ATOM     28  C   UNL d   1      10.457   8.753  -8.508  0.00  0.00     0.012 A 
ATOM     29 CL   UNL d   1       9.710   7.343  -6.362  0.00  0.00    -0.081 Cl
ATOM     30  C   UNL d   1      10.601   8.967  -9.877  0.00  0.00     0.002 A 
ATOM     31  C   UNL d   1      10.104   8.024 -10.805  0.00  0.00     0.018 A 
ENDBRANCH  21  24
ENDBRANCH  17  18
ENDBRANCH  16  17
ENDBRANCH  15  16
ENDBRANCH  12  15
ENDBRANCH   8   9
TORSDOF 6
