REMARK  13 active torsions:
REMARK  status: ('A' for Active; 'I' for Inactive)
REMARK    1  A    between atoms: C_2  and  C_3 
REMARK    2  A    between atoms: C_2  and  C_20 
REMARK    3  A    between atoms: C_3  and  C_4 
REMARK    4  A    between atoms: C_4  and  C_5 
REMARK    5  A    between atoms: C_5  and  N_6 
REMARK    6  A    between atoms: C_9  and  C_11 
REMARK    7  A    between atoms: C_23  and  O_24 
REMARK    8  A    between atoms: O_24  and  C_25 
REMARK    9  A    between atoms: C_25  and  C_26 
REMARK   10  A    between atoms: C_26  and  S_27 
REMARK   11  A    between atoms: S_27  and  S_28 
REMARK   12  A    between atoms: S_28  and  C_29 
REMARK   13  A    between atoms: C_29  and  C_30 
ROOT
ATOM      1  C   UNL d   1       7.174   3.998 -13.833  0.00  0.00     0.071 C 
ENDROOT
BRANCH   1   2
ATOM      2  C   UNL d   1       7.056   4.263 -12.339  0.00  0.00     0.173 C 
ATOM      3  O   UNL d   1       6.227   3.591 -11.709  0.00  0.00    -0.291 OA
BRANCH   2   4
ATOM      4  C   UNL d   1       7.996   5.234 -11.721  0.00  0.00     0.035 A 
ATOM      5  C   UNL d   1       8.594   6.278 -12.467  0.00  0.00     0.005 A 
ATOM      6  C   UNL d   1       9.444   7.199 -11.835  0.00  0.00     0.024 A 
ATOM      7  C   UNL d   1       9.710   7.118 -10.450  0.00  0.00     0.094 A 
ATOM      8  C   UNL d   1       9.095   6.086  -9.711  0.00  0.00     0.024 A 
ATOM      9  C   UNL d   1       8.259   5.149 -10.341  0.00  0.00     0.005 A 
BRANCH   7  10
ATOM     10  O   UNL d   1      10.539   8.075  -9.916  0.00  0.00    -0.330 OA
BRANCH  10  11
ATOM     11  C   UNL d   1      10.407   8.393  -8.541  0.00  0.00     0.161 C 
BRANCH  11  12
ATOM     12  C   UNL d   1      11.220   7.452  -7.632  0.00  0.00     0.101 C 
BRANCH  12  13
ATOM     13  S   UNL d   1      10.767   7.698  -5.904  0.00  0.00    -0.079 SA
BRANCH  13  14
ATOM     14  S   UNL d   1      11.575   9.505  -5.400  0.00  0.00    -0.079 SA
BRANCH  14  15
ATOM     15  C   UNL d   1      11.679   9.467  -3.589  0.00  0.00     0.104 C 
BRANCH  15  16
ATOM     16  C   UNL d   1      12.444   8.249  -3.048  0.00  0.00     0.195 C 
ATOM     17  O   UNL d   1      12.659   8.416  -1.661  0.00  0.00    -0.220 OA
ENDBRANCH  15  16
ENDBRANCH  14  15
ENDBRANCH  13  14
ENDBRANCH  12  13
ENDBRANCH  11  12
ENDBRANCH  10  11
ENDBRANCH   7  10
ENDBRANCH   2   4
ENDBRANCH   1   2
BRANCH   1  18
ATOM     18  C   UNL d   1       8.463   3.243 -14.213  0.00  0.00     0.043 C 
BRANCH  18  19
ATOM     19  C   UNL d   1       8.144   1.931 -14.950  0.00  0.00     0.251 C 
BRANCH  19  20
ATOM     20  N   UNL d   1       9.227   1.539 -15.875  0.00  0.00     0.137 N 
ATOM     21  C   UNL d   1       8.980   0.160 -16.296  0.00  0.00     0.253 C 
ATOM     22  C   UNL d   1      10.111  -0.323 -17.241  0.00  0.00     0.070 C 
ATOM     23  C   UNL d   1      10.240   0.588 -18.469  0.00  0.00     0.149 C 
ATOM     24  C   UNL d   1      10.363   2.043 -18.005  0.00  0.00     0.070 C 
ATOM     25  O   UNL d   1       9.038   0.515 -19.210  0.00  0.00    -0.221 OA
ATOM     26  C   UNL d   1       9.207   2.417 -17.051  0.00  0.00     0.253 C 
BRANCH  23  27
ATOM     27  C   UNL d   1      11.452   0.169 -19.337  0.00  0.00     0.005 A 
ATOM     28  C   UNL d   1      12.778   0.374 -18.860  0.00  0.00    -0.001 A 
ATOM     29  C   UNL d   1      13.884   0.008 -19.649  0.00  0.00     0.011 A 
ATOM     30  C   UNL d   1      13.692  -0.574 -20.913  0.00  0.00     0.058 A 
ATOM     31  C   UNL d   1      12.387  -0.783 -21.392  0.00  0.00     0.011 A 
ATOM     32 CL   UNL d   1      15.050  -1.036 -21.870  0.00  0.00    -0.082 Cl
ATOM     33  C   UNL d   1      11.272  -0.409 -20.605  0.00  0.00    -0.001 A 
ENDBRANCH  23  27
ENDBRANCH  19  20
ENDBRANCH  18  19
ENDBRANCH   1  18
TORSDOF 13
