REMARK  4 active torsions:
REMARK  status: ('A' for Active; 'I' for Inactive)
REMARK       I    between atoms: N_8  and  C_9 
REMARK    1  A    between atoms: C_9  and  C_11 
REMARK    2  A    between atoms: C_11  and  N_12 
REMARK    3  A    between atoms: N_15  and  C_16 
REMARK    4  A    between atoms: C_16  and  C_17 
ROOT
ATOM      1  C   UNL d   1       9.074   7.213 -12.191  0.00  0.00     0.031 C 
ATOM      2  C   UNL d   1       8.271   5.982 -12.550  0.00  0.00    -0.020 A 
ATOM      3  C   UNL d   1       6.947   5.823 -12.122  0.00  0.00    -0.004 A 
ATOM      4  C   UNL d   1       6.272   4.638 -12.488  0.00  0.00    -0.003 A 
ATOM      5  C   UNL d   1       6.902   3.598 -13.239  0.00  0.00    -0.007 A 
ATOM      6  C   UNL d   1       8.244   3.785 -13.656  0.00  0.00     0.058 A 
ATOM      7  C   UNL d   1       8.897   5.004 -13.324  0.00  0.00     0.013 A 
ATOM      8  N   UNL d   1       8.940   2.787 -14.430  0.00  0.00    -0.301 N 
ATOM      9  C   UNL d   1      10.292   2.949 -14.610  0.00  0.00     0.271 C 
ATOM     10  O   UNL d   1      11.069   3.031 -13.671  0.00  0.00    -0.270 OA
ATOM     11  C   UNL d   1       8.215   1.596 -15.021  0.00  0.00     0.071 C 
ATOM     12  C   UNL d   1       7.525   1.919 -16.357  0.00  0.00     0.023 C 
ATOM     13  C   UNL d   1       9.158   0.378 -15.167  0.00  0.00     0.023 C 
ATOM     14  C   UNL d   1       7.066   1.121 -14.071  0.00  0.00     0.025 C 
ATOM     15  C   UNL d   1       6.163   2.308 -13.595  0.00  0.00     0.026 C 
ATOM     16  C   UNL d   1       5.246   1.866 -12.453  0.00  0.00     0.005 C 
ENDROOT
BRANCH   9  17
ATOM     17  C   UNL d   1      10.846   3.013 -16.031  0.00  0.00     0.337 C 
BRANCH  17  18
ATOM     18  N   UNL d   1      11.439   4.320 -16.327  0.00  0.00     0.151 N 
ATOM     19  C   UNL d   1      12.822   4.372 -15.892  0.00  0.00     0.286 C 
ATOM     20  C   UNL d   1      13.458   5.711 -16.205  0.00  0.00     0.286 C 
ATOM     21  N   UNL d   1      13.462   5.995 -17.640  0.00  0.00     0.146 N 
ATOM     22  C   UNL d   1      12.071   5.992 -18.085  0.00  0.00     0.286 C 
ATOM     23  C   UNL d   1      11.383   4.645 -17.758  0.00  0.00     0.286 C 
BRANCH  21  24
ATOM     24  C   UNL d   1      14.149   7.250 -17.971  0.00  0.00     0.277 C 
BRANCH  24  25
ATOM     25  C   UNL d   1      15.652   7.108 -18.192  0.00  0.00     0.011 A 
ATOM     26  C   UNL d   1      16.245   7.649 -19.352  0.00  0.00    -0.002 A 
ATOM     27  C   UNL d   1      17.646   7.558 -19.538  0.00  0.00     0.011 A 
ATOM     28  C   UNL d   1      18.462   6.925 -18.578  0.00  0.00     0.058 A 
ATOM     29  C   UNL d   1      17.880   6.392 -17.421  0.00  0.00     0.011 A 
ATOM     30 CL   UNL d   1      20.171   6.822 -18.811  0.00  0.00    -0.082 Cl
ATOM     31  C   UNL d   1      16.493   6.475 -17.240  0.00  0.00    -0.002 A 
ENDBRANCH  24  25
ENDBRANCH  21  24
ENDBRANCH  17  18
ENDBRANCH   9  17
TORSDOF 4
