REMARK  9 active torsions:
REMARK  status: ('A' for Active; 'I' for Inactive)
REMARK    1  A    between atoms: O_2  and  C_3 
REMARK    2  A    between atoms: C_8  and  C_9 
REMARK    3  A    between atoms: C_11  and  C_12 
REMARK    4  A    between atoms: C_12  and  N_13 
REMARK    5  A    between atoms: N_13  and  C_14 
REMARK    6  A    between atoms: C_14  and  C_15 
REMARK    7  A    between atoms: C_16  and  C_17 
REMARK    8  A    between atoms: C_17  and  O_18 
REMARK    9  A    between atoms: O_18  and  C_19 
ROOT
ATOM      1  C   UNL d   1       7.397   2.976 -14.041  0.00  0.00     0.009 C 
ATOM      2  C   UNL d   1       8.339   3.921 -14.253  0.00  0.00     0.004 C 
ENDROOT
BRANCH   1   3
ATOM      3  C   UNL d   1       7.202   1.743 -14.880  0.00  0.00     0.316 C 
BRANCH   3   4
ATOM      4  N   UNL d   1       8.342   0.829 -14.845  0.00  0.00     0.344 N 
BRANCH   4   5
ATOM      5  C   UNL d   1       9.462   1.401 -15.580  0.00  0.00     0.291 C 
BRANCH   5   6
ATOM      6  C   UNL d   1      10.451   0.331 -15.999  0.00  0.00     0.041 A 
ATOM      7  C   UNL d   1      11.221   0.526 -17.288  0.00  0.00     0.026 A 
ATOM      8  C   UNL d   1      10.191  -0.594 -17.165  0.00  0.00     0.007 A 
BRANCH   7   9
ATOM      9  C   UNL d   1      10.984   1.730 -18.163  0.00  0.00    -0.000 A 
ATOM     10  C   UNL d   1      11.587   2.980 -17.875  0.00  0.00     0.090 A 
ATOM     11  C   UNL d   1      11.281   4.103 -18.686  0.00  0.00     0.024 A 
ATOM     12  C   UNL d   1      10.370   3.989 -19.754  0.00  0.00     0.002 A 
ATOM     13  C   UNL d   1       9.781   2.746 -20.041  0.00  0.00    -0.000 A 
ATOM     14  C   UNL d   1      10.093   1.628 -19.259  0.00  0.00    -0.002 A 
BRANCH  10  15
ATOM     15  O   UNL d   1      12.435   3.051 -16.784  0.00  0.00    -0.328 OA
ATOM     16  C   UNL d   1      13.256   4.205 -16.643  0.00  0.00     0.181 C 
ENDBRANCH  10  15
ENDBRANCH   7   9
ENDBRANCH   5   6
ENDBRANCH   4   5
ENDBRANCH   3   4
ENDBRANCH   1   3
BRANCH   2  17
ATOM     17  C   UNL d   1       8.571   5.096 -13.343  0.00  0.00     0.175 C 
BRANCH  17  18
ATOM     18  O   UNL d   1       7.882   4.936 -12.110  0.00  0.00    -0.326 OA
BRANCH  18  19
ATOM     19  C   UNL d   1       8.560   5.303 -10.982  0.00  0.00     0.096 A 
ATOM     20  C   UNL d   1       9.513   6.339 -10.931  0.00  0.00     0.043 A 
ATOM     21  C   UNL d   1      10.170   6.616  -9.727  0.00  0.00     0.087 A 
ATOM     22  C   UNL d   1       9.905   5.868  -8.563  0.00  0.00     0.018 A 
ATOM     23  N   UNL d   1      11.126   7.631  -9.682  0.00  0.00    -0.208 NA
ATOM     24  C   UNL d   1       8.954   4.835  -8.611  0.00  0.00     0.004 A 
ATOM     25  C   UNL d   1      10.636   6.205  -7.363  0.00  0.00     0.006 A 
ATOM     26  C   UNL d   1       8.265   4.600  -9.802  0.00  0.00     0.024 A 
ATOM     27  C   UNL d   1      11.539   7.194  -7.371  0.00  0.00     0.063 A 
ATOM     28  C   UNL d   1      11.842   7.978  -8.581  0.00  0.00     0.279 A 
ATOM     29  O   UNL d   1      12.712   8.790  -8.618  0.00  0.00    -0.265 OA
ENDBRANCH  18  19
ENDBRANCH  17  18
ENDBRANCH   2  17
TORSDOF 9
