REMARK  7 active torsions:
REMARK  status: ('A' for Active; 'I' for Inactive)
REMARK    1  A    between atoms: O_2  and  C_3 
REMARK    2  A    between atoms: C_3  and  C_5 
REMARK    3  A    between atoms: C_16  and  C_17 
REMARK    4  A    between atoms: C_17  and  N_18 
REMARK    5  A    between atoms: C_21  and  N_22 
REMARK    6  A    between atoms: C_21  and  C_29 
REMARK    7  A    between atoms: N_22  and  C_23 
ROOT
ATOM      1  C   UNL d   1       6.026   0.447 -15.205  0.00  0.00     0.144 A 
ATOM      2  C   UNL d   1       6.601   1.138 -14.154  0.00  0.00     0.028 A 
ATOM      3  C   UNL d   1       7.613   2.014 -14.713  0.00  0.00     0.044 A 
ATOM      4  C   UNL d   1       8.546   2.986 -14.278  0.00  0.00     0.118 A 
ATOM      5  C   UNL d   1       9.430   3.610 -15.239  0.00  0.00     0.116 A 
ATOM      6  C   UNL d   1       9.354   3.332 -16.602  0.00  0.00     0.028 A 
ATOM      7  C   UNL d   1       8.437   2.406 -17.047  0.00  0.00     0.021 A 
ATOM      8  C   UNL d   1       7.592   1.769 -16.121  0.00  0.00     0.084 A 
ATOM      9  N   UNL d   1       6.625   0.861 -16.372  0.00  0.00    -0.240 NA
ATOM     10  O   UNL d   1      10.364   4.543 -14.886  0.00  0.00    -0.326 OA
ATOM     11  C   UNL d   1      10.698   4.527 -13.524  0.00  0.00     0.181 C 
ATOM     12  C   UNL d   1       9.408   4.566 -12.705  0.00  0.00     0.185 C 
ATOM     13  O   UNL d   1       8.652   3.383 -12.957  0.00  0.00    -0.327 OA
ENDROOT
BRANCH  12  14
ATOM     14  C   UNL d   1       9.770   4.606 -11.238  0.00  0.00     0.283 C 
BRANCH  14  15
ATOM     15  N   UNL d   1       8.672   4.841 -10.346  0.00  0.00     0.140 N 
ATOM     16  C   UNL d   1       9.037   4.486  -8.964  0.00  0.00     0.253 C 
ATOM     17  C   UNL d   1      10.143   5.444  -8.412  0.00  0.00     0.067 C 
ATOM     18  C   UNL d   1       9.813   6.916  -8.439  0.00  0.00     0.162 C 
ATOM     19  C   UNL d   1       9.373   7.257  -9.880  0.00  0.00     0.067 C 
ATOM     20  C   UNL d   1       8.277   6.247 -10.400  0.00  0.00     0.253 C 
BRANCH  18  21
ATOM     21  N   UNL d   1      11.030   7.677  -8.143  0.00  0.00    -0.265 NA
BRANCH  21  22
ATOM     22  C   UNL d   1      11.425   7.973  -6.816  0.00  0.00     0.076 A 
ATOM     23  C   UNL d   1      12.111   9.178  -6.607  0.00  0.00     0.019 A 
ATOM     24  C   UNL d   1      12.534   9.542  -5.321  0.00  0.00     0.002 A 
ATOM     25  C   UNL d   1      12.255   8.737  -4.207  0.00  0.00     0.000 A 
ATOM     26  C   UNL d   1      11.526   7.555  -4.388  0.00  0.00     0.002 A 
ATOM     27  C   UNL d   1      11.107   7.189  -5.670  0.00  0.00     0.019 A 
ENDBRANCH  21  22
ENDBRANCH  18  21
BRANCH  18  28
ATOM     28  C   UNL d   1       8.683   7.187  -7.387  0.00  0.00     0.293 C 
ATOM     29  N   UNL d   1       8.472   8.449  -7.185  0.00  0.00    -0.105 N 
ATOM     30  O   UNL d   1       8.125   6.337  -6.767  0.00  0.00    -0.267 OA
ENDBRANCH  18  28
ENDBRANCH  14  15
ENDBRANCH  12  14
BRANCH   1  31
ATOM     31  C   UNL d   1       4.952  -0.584 -15.335  0.00  0.00     0.314 C 
ATOM     32  O   UNL d   1       4.456  -1.130 -14.348  0.00  0.00    -0.257 OA
BRANCH  31  33
ATOM     33  O   UNL d   1       4.601  -0.813 -16.620  0.00  0.00    -0.295 OA
ATOM     34  C   UNL d   1       3.611  -1.771 -16.934  0.00  0.00     0.185 C 
ENDBRANCH  31  33
ENDBRANCH   1  31
TORSDOF 7
