REMARK  9 active torsions:
REMARK  status: ('A' for Active; 'I' for Inactive)
REMARK    1  A    between atoms: C_2  and  N_3 
REMARK    2  A    between atoms: N_3  and  C_4 
REMARK    3  A    between atoms: N_3  and  C_17 
REMARK    4  A    between atoms: C_4  and  C_5 
REMARK    5  A    between atoms: C_5  and  C_6 
REMARK    6  A    between atoms: C_11  and  O_12 
REMARK    7  A    between atoms: O_12  and  C_13 
REMARK    8  A    between atoms: C_17  and  C_18 
REMARK    9  A    between atoms: C_18  and  N_19 
ROOT
ATOM      1  C   UNL d   1       8.783   3.997 -14.151  0.00  0.00     0.064 C 
ENDROOT
BRANCH   1   2
ATOM      2  C   UNL d   1       9.191   4.020 -12.643  0.00  0.00     0.255 C 
BRANCH   2   3
ATOM      3  N   UNL d   1       8.466   4.991 -11.799  0.00  0.00     0.139 N 
BRANCH   3   4
ATOM      4  C   UNL d   1       7.057   4.682 -11.566  0.00  0.00     0.250 C 
ATOM      5  C   UNL d   1       6.159   4.405 -12.766  0.00  0.00     0.037 C 
ENDBRANCH   3   4
BRANCH   3   6
ATOM      6  C   UNL d   1       9.112   5.096 -10.478  0.00  0.00     0.285 C 
BRANCH   6   7
ATOM      7  C   UNL d   1       8.659   6.216  -9.531  0.00  0.00     0.285 C 
BRANCH   7   8
ATOM      8  N   UNL d   1       9.444   6.346  -8.299  0.00  0.00     0.139 N 
ATOM      9  C   UNL d   1       8.722   7.077  -7.271  0.00  0.00     0.250 C 
ATOM     10  C   UNL d   1       9.771   7.450  -6.224  0.00  0.00     0.037 C 
ATOM     11  C   UNL d   1      11.085   7.488  -7.019  0.00  0.00     0.037 C 
ATOM     12  C   UNL d   1      10.657   7.134  -8.447  0.00  0.00     0.250 C 
ENDBRANCH   7   8
ENDBRANCH   6   7
ENDBRANCH   3   6
ENDBRANCH   2   3
ENDBRANCH   1   2
BRANCH   1  13
ATOM     13  C   UNL d   1       9.278   2.749 -14.830  0.00  0.00     0.002 A 
ATOM     14  C   UNL d   1       8.457   1.593 -14.980  0.00  0.00     0.098 A 
ATOM     15  C   UNL d   1       8.968   0.478 -15.688  0.00  0.00     0.024 A 
ATOM     16  C   UNL d   1      10.263   0.510 -16.217  0.00  0.00     0.002 A 
ATOM     17  C   UNL d   1      11.079   1.648 -16.058  0.00  0.00    -0.000 A 
ATOM     18  C   UNL d   1      10.589   2.764 -15.353  0.00  0.00    -0.002 A 
BRANCH  14  19
ATOM     19  O   UNL d   1       7.169   1.624 -14.467  0.00  0.00    -0.254 OA
BRANCH  19  20
ATOM     20  C   UNL d   1       6.408   0.490 -14.360  0.00  0.00     0.530 C 
ATOM     21  F   UNL d   1       7.022  -0.450 -13.628  0.00  0.00    -0.144 F 
ATOM     22  F   UNL d   1       5.237   0.775 -13.720  0.00  0.00    -0.144 F 
ATOM     23  F   UNL d   1       6.071  -0.023 -15.570  0.00  0.00    -0.144 F 
ENDBRANCH  19  20
ENDBRANCH  14  19
ENDBRANCH   1  13
TORSDOF 9
