REMARK  6 active torsions:
REMARK  status: ('A' for Active; 'I' for Inactive)
REMARK       I    between atoms: C_2  and  N_3 
REMARK    1  A    between atoms: C_2  and  C_27 
REMARK    2  A    between atoms: N_3  and  C_4 
REMARK    3  A    between atoms: C_7  and  C_8 
REMARK    4  A    between atoms: C_8  and  C_9 
REMARK    5  A    between atoms: C_9  and  N_10 
REMARK    6  A    between atoms: N_13  and  C_14 
ROOT
ATOM      1  C   UNL d   1       8.464   5.620 -12.293  0.00  0.00     0.035 C 
ENDROOT
BRANCH   1   2
ATOM      2  C   UNL d   1       9.150   5.833 -10.943  0.00  0.00     0.002 C 
ATOM      3  C   UNL d   1       9.594   7.291 -10.803  0.00  0.00     0.002 C 
ATOM      4  C   UNL d   1      10.279   7.523  -9.459  0.00  0.00     0.024 C 
ATOM      5  C   UNL d   1       9.337   7.148  -8.293  0.00  0.00     0.107 C 
ATOM      6  C   UNL d   1       8.869   5.685  -8.425  0.00  0.00     0.024 C 
ATOM      7  C   UNL d   1       8.225   5.430  -9.798  0.00  0.00     0.002 C 
BRANCH   5   8
ATOM      8  N   UNL d   1       9.973   7.328  -7.000  0.00  0.00    -0.236 NA
ATOM      9  C   UNL d   1      10.472   8.473  -6.517  0.00  0.00     0.276 C 
ATOM     10  O   UNL d   1      10.392   9.559  -7.094  0.00  0.00    -0.266 OA
BRANCH   9  11
ATOM     11  C   UNL d   1      11.089   8.396  -5.159  0.00  0.00     0.077 A 
ATOM     12  C   UNL d   1      11.334   9.577  -4.431  0.00  0.00     0.104 A 
ATOM     13  N   UNL d   1      11.887   9.585  -3.204  0.00  0.00    -0.242 NA
ATOM     14  C   UNL d   1      12.260   8.403  -2.670  0.00  0.00     0.099 A 
ATOM     15  C   UNL d   1      12.078   7.168  -3.318  0.00  0.00     0.021 A 
ATOM     16  C   UNL d   1      11.486   7.160  -4.590  0.00  0.00     0.008 A 
ENDBRANCH   9  11
ENDBRANCH   5   8
ENDBRANCH   1   2
BRANCH   1  17
ATOM     17  C   UNL d   1       9.453   5.551 -13.453  0.00  0.00     0.250 C 
BRANCH  17  18
ATOM     18  N   UNL d   1      10.450   4.497 -13.318  0.00  0.00     0.141 N 
ATOM     19  C   UNL d   1       9.871   3.159 -13.175  0.00  0.00     0.274 C 
ATOM     20  C   UNL d   1       9.091   2.761 -14.428  0.00  0.00     0.137 C 
ATOM     21  N   UNL d   1       9.958   2.882 -15.604  0.00  0.00    -0.343 N 
ATOM     22  C   UNL d   1      10.722   4.134 -15.755  0.00  0.00     0.137 C 
ATOM     23  C   UNL d   1      11.417   4.481 -14.426  0.00  0.00     0.274 C 
BRANCH  21  24
ATOM     24  C   UNL d   1      10.082   1.840 -16.514  0.00  0.00     0.081 A 
ATOM     25  C   UNL d   1       9.001   0.978 -16.794  0.00  0.00     0.135 A 
ATOM     26  C   UNL d   1       9.105  -0.064 -17.697  0.00  0.00     0.121 A 
ATOM     27  O   UNL d   1       7.730   1.017 -16.308  0.00  0.00    -0.298 OA
ATOM     28  C   UNL d   1      10.301  -0.320 -18.382  0.00  0.00     0.026 A 
ATOM     29  O   UNL d   1       7.915  -0.705 -17.780  0.00  0.00    -0.299 OA
ATOM     30  C   UNL d   1      11.408   0.517 -18.131  0.00  0.00     0.004 A 
ATOM     31  C   UNL d   1      11.297   1.588 -17.203  0.00  0.00     0.019 A 
ATOM     32  C   UNL d   1       7.051  -0.058 -16.884  0.00  0.00     0.304 A 
ENDBRANCH  21  24
ENDBRANCH  17  18
ENDBRANCH   1  17
TORSDOF 6
