REMARK  2 active torsions:
REMARK  status: ('A' for Active; 'I' for Inactive)
REMARK    1  A    between atoms: C_2  and  C_3 
REMARK    2  A    between atoms: C_3  and  N_4 
ROOT
ATOM      1  N   UNL d   1       9.367   6.182 -10.799  0.00  0.00     0.140 N 
ATOM      2  C   UNL d   1       9.184   4.926 -10.060  0.00  0.00     0.251 C 
ATOM      3  C   UNL d   1       9.864   5.135  -8.696  0.00  0.00     0.042 C 
ATOM      4  C   UNL d   1      10.526   6.495  -8.822  0.00  0.00     0.055 C 
ATOM      5  C   UNL d   1      10.803   7.287  -7.550  0.00  0.00    -0.022 A 
ATOM      6  C   UNL d   1      11.163   6.644  -6.356  0.00  0.00    -0.004 A 
ATOM      7  C   UNL d   1      11.454   7.370  -5.192  0.00  0.00     0.002 A 
ATOM      8  C   UNL d   1      11.441   8.771  -5.224  0.00  0.00     0.027 A 
ATOM      9  C   UNL d   1      11.098   9.426  -6.417  0.00  0.00     0.127 A 
ATOM     10  O   UNL d   1      11.122  10.786  -6.404  0.00  0.00    -0.191 OA
ATOM     11  C   UNL d   1      10.758   8.693  -7.588  0.00  0.00    -0.001 A 
ATOM     12  C   UNL d   1      10.336   9.406  -8.879  0.00  0.00     0.030 C 
ATOM     13  C   UNL d   1      10.130   8.542 -10.133  0.00  0.00     0.038 C 
ATOM     14  C   UNL d   1       9.554   7.181  -9.737  0.00  0.00     0.224 C 
ENDROOT
BRANCH   1  15
ATOM     15  C   UNL d   1       8.215   6.453 -11.664  0.00  0.00     0.276 C 
BRANCH  15  16
ATOM     16  C   UNL d   1       8.137   5.520 -12.858  0.00  0.00     0.009 C 
ATOM     17  C   UNL d   1       7.061   4.789 -13.182  0.00  0.00    -0.003 C 
ENDBRANCH  15  16
ENDBRANCH   1  15
TORSDOF 2
