REMARK  7 active torsions:
REMARK  status: ('A' for Active; 'I' for Inactive)
REMARK    1  A    between atoms: C_6  and  C_7 
REMARK    2  A    between atoms: C_10  and  S_11 
REMARK    3  A    between atoms: S_11  and  C_12 
REMARK    4  A    between atoms: C_12  and  C_13 
REMARK    5  A    between atoms: C_13  and  C_14 
REMARK    6  A    between atoms: C_14  and  N_15 
REMARK    7  A    between atoms: C_22  and  C_23 
ROOT
ATOM      1  C   UNL d   1       9.176   4.714 -14.512  0.00  0.00     0.047 C 
ENDROOT
BRANCH   1   2
ATOM      2  C   UNL d   1       9.762   3.558 -15.340  0.00  0.00     0.067 C 
BRANCH   2   3
ATOM      3  S   UNL d   1       9.252   1.909 -14.772  0.00  0.00    -0.075 SA
BRANCH   3   4
ATOM      4  C   UNL d   1       8.373   1.380 -16.197  0.00  0.00     0.193 A 
ATOM      5  N   UNL d   1       7.300   1.986 -16.702  0.00  0.00    -0.122 NA
ATOM      6  N   UNL d   1       6.945   1.239 -17.804  0.00  0.00    -0.128 NA
ATOM      7  C   UNL d   1       7.846   0.252 -17.875  0.00  0.00     0.167 A 
ATOM      8  N   UNL d   1       8.763   0.300 -16.888  0.00  0.00    -0.289 N 
ATOM      9  C   UNL d   1       9.894  -0.568 -16.614  0.00  0.00     0.134 C 
BRANCH   7  10
ATOM     10  C   UNL d   1       7.825  -0.750 -18.926  0.00  0.00     0.037 A 
ATOM     11  C   UNL d   1       6.875  -1.807 -18.928  0.00  0.00     0.021 A 
ATOM     12  C   UNL d   1       5.915  -1.950 -17.901  0.00  0.00     0.003 A 
ATOM     13  C   UNL d   1       6.881  -2.761 -19.985  0.00  0.00     0.081 A 
ATOM     14  C   UNL d   1       5.003  -3.016 -17.966  0.00  0.00     0.015 A 
ATOM     15  C   UNL d   1       5.082  -3.903 -19.051  0.00  0.00     0.059 A 
ATOM     16  C   UNL d   1       4.112  -5.058 -19.171  0.00  0.00     0.052 C 
ATOM     17  N   UNL d   1       6.000  -3.784 -20.033  0.00  0.00    -0.250 NA
ATOM     18  C   UNL d   1       7.841  -2.630 -21.007  0.00  0.00     0.019 A 
ATOM     19  C   UNL d   1       8.788  -1.589 -20.998  0.00  0.00     0.002 A 
ATOM     20  C   UNL d   1       8.780  -0.652 -19.951  0.00  0.00     0.003 A 
ENDBRANCH   7  10
ENDBRANCH   3   4
ENDBRANCH   2   3
ENDBRANCH   1   2
BRANCH   1  21
ATOM     21  C   UNL d   1       8.879   4.369 -13.036  0.00  0.00     0.251 C 
BRANCH  21  22
ATOM     22  N   UNL d   1       8.527   5.535 -12.224  0.00  0.00     0.138 N 
ATOM     23  C   UNL d   1       9.699   6.403 -12.078  0.00  0.00     0.257 C 
ATOM     24  C   UNL d   1       9.631   7.523 -11.030  0.00  0.00     0.081 C 
ATOM     25  C   UNL d   1       9.781   7.018  -9.632  0.00  0.00     0.058 A 
ATOM     26  C   UNL d   1       9.450   5.792  -9.132  0.00  0.00     0.075 A 
ATOM     27  N   UNL d   1      10.246   7.760  -8.557  0.00  0.00    -0.293 N 
ATOM     28  C   UNL d   1       8.848   4.641  -9.859  0.00  0.00     0.082 C 
ATOM     29  N   UNL d   1       9.722   5.715  -7.781  0.00  0.00    -0.231 NA
ATOM     30  C   UNL d   1       7.885   5.107 -10.974  0.00  0.00     0.257 C 
ATOM     31  C   UNL d   1      10.203   6.899  -7.434  0.00  0.00     0.147 A 
ATOM     32  C   UNL d   1      10.660   7.401  -6.188  0.00  0.00     0.041 A 
ATOM     33  C   UNL d   1      11.109   8.700  -6.092  0.00  0.00     0.076 A 
ATOM     34  C   UNL d   1      11.112   9.524  -7.246  0.00  0.00     0.023 A 
ATOM     35  C   UNL d   1      10.692   9.041  -8.467  0.00  0.00     0.081 A 
BRANCH  33  36
ATOM     36  C   UNL d   1      11.608   9.265  -4.771  0.00  0.00     0.419 C 
ATOM     37  F   UNL d   1      10.907  10.363  -4.484  0.00  0.00    -0.166 F 
ATOM     38  F   UNL d   1      11.487   8.406  -3.760  0.00  0.00    -0.166 F 
ATOM     39  F   UNL d   1      12.897   9.582  -4.882  0.00  0.00    -0.166 F 
ENDBRANCH  33  36
ENDBRANCH  21  22
ENDBRANCH   1  21
TORSDOF 7
