REMARK  7 active torsions:
REMARK  status: ('A' for Active; 'I' for Inactive)
REMARK    1  A    between atoms: O_2  and  C_3 
REMARK    2  A    between atoms: N_11  and  C_12 
REMARK    3  A    between atoms: C_12  and  C_13 
REMARK    4  A    between atoms: C_18  and  C_19 
REMARK    5  A    between atoms: C_19  and  N_20 
REMARK       I    between atoms: N_20  and  C_21 
REMARK    6  A    between atoms: C_21  and  C_23 
REMARK    7  A    between atoms: C_28  and  O_29 
ROOT
ATOM      1  C   UNL d   1       8.433   5.652 -12.371  0.00  0.00     0.009 A 
ATOM      2  C   UNL d   1       7.163   6.257 -12.367  0.00  0.00    -0.003 A 
ATOM      3  C   UNL d   1       6.015   5.550 -12.755  0.00  0.00    -0.000 A 
ATOM      4  C   UNL d   1       6.130   4.234 -13.243  0.00  0.00    -0.000 A 
ATOM      5  C   UNL d   1       7.399   3.631 -13.289  0.00  0.00    -0.003 A 
ATOM      6  C   UNL d   1       8.557   4.317 -12.850  0.00  0.00     0.000 A 
ENDROOT
BRANCH   1   7
ATOM      7  C   UNL d   1       9.607   6.465 -11.829  0.00  0.00     0.277 C 
BRANCH   7   8
ATOM      8  N   UNL d   1       9.512   6.788 -10.414  0.00  0.00     0.146 N 
ATOM      9  C   UNL d   1      10.739   7.483 -10.002  0.00  0.00     0.277 C 
ATOM     10  C   UNL d   1      10.820   7.785  -8.516  0.00  0.00     0.009 A 
ATOM     11  C   UNL d   1      10.025   7.064  -7.607  0.00  0.00    -0.020 A 
ATOM     12  C   UNL d   1      11.733   8.736  -8.034  0.00  0.00     0.027 A 
ATOM     13  C   UNL d   1      10.124   7.317  -6.223  0.00  0.00     0.022 A 
ATOM     14  C   UNL d   1       9.053   6.038  -8.149  0.00  0.00     0.061 C 
ATOM     15  C   UNL d   1      11.030   8.284  -5.742  0.00  0.00     0.119 A 
ATOM     16  C   UNL d   1      11.827   9.009  -6.655  0.00  0.00     0.153 A 
ATOM     17  O   UNL d   1      12.654   9.986  -6.196  0.00  0.00    -0.188 OA
ATOM     18  C   UNL d   1       9.359   5.598  -9.582  0.00  0.00     0.256 C 
BRANCH  15  19
ATOM     19  O   UNL d   1      11.061   8.547  -4.394  0.00  0.00    -0.326 OA
ATOM     20  C   UNL d   1      12.280   8.204  -3.728  0.00  0.00     0.181 C 
ENDBRANCH  15  19
ENDBRANCH   7   8
ENDBRANCH   1   7
BRANCH   6  21
ATOM     21  C   UNL d   1       9.876   3.550 -12.857  0.00  0.00     0.155 C 
BRANCH  21  22
ATOM     22  N   UNL d   1      10.150   2.868 -14.111  0.00  0.00    -0.229 NA
ATOM     23  C   UNL d   1      10.791   3.426 -15.150  0.00  0.00     0.275 C 
ATOM     24  O   UNL d   1      11.130   4.612 -15.181  0.00  0.00    -0.266 OA
BRANCH  23  25
ATOM     25  C   UNL d   1      11.188   2.464 -16.238  0.00  0.00     0.059 A 
ATOM     26  C   UNL d   1      12.246   2.789 -17.122  0.00  0.00     0.029 A 
ATOM     27  C   UNL d   1      12.639   1.889 -18.148  0.00  0.00     0.100 A 
ATOM     28  C   UNL d   1      11.953   0.662 -18.276  0.00  0.00     0.052 A 
ATOM     29  C   UNL d   1      10.897   0.337 -17.409  0.00  0.00     0.008 A 
ATOM     30  I   UNL d   1      12.521  -0.723 -19.739  0.00  0.00    -0.041 I 
ATOM     31  C   UNL d   1      10.510   1.232 -16.402  0.00  0.00     0.005 A 
BRANCH  27  32
ATOM     32  O   UNL d   1      13.665   2.130 -19.037  0.00  0.00    -0.328 OA
ATOM     33  C   UNL d   1      14.371   3.357 -18.943  0.00  0.00     0.181 C 
ENDBRANCH  27  32
ENDBRANCH  23  25
ENDBRANCH  21  22
ENDBRANCH   6  21
TORSDOF 7
