REMARK  4 active torsions:
REMARK  status: ('A' for Active; 'I' for Inactive)
REMARK    1  A    between atoms: C_11  and  C_12 
REMARK    2  A    between atoms: C_12  and  C_13 
REMARK    3  A    between atoms: C_13  and  N_14 
REMARK    4  A    between atoms: N_18  and  C_19 
ROOT
ATOM      1  N   UNL d   1      10.476   7.945  -9.501  0.00  0.00     0.139 N 
ATOM      2  C   UNL d   1      10.490   8.786 -10.706  0.00  0.00     0.252 C 
ATOM      3  C   UNL d   1       9.123   8.963 -11.388  0.00  0.00     0.059 C 
ATOM      4  C   UNL d   1       8.685   7.815 -12.301  0.00  0.00     0.103 C 
ATOM      5  N   UNL d   1       8.896   6.441 -11.827  0.00  0.00    -0.346 N 
ATOM      6  C   UNL d   1       8.946   6.161 -10.393  0.00  0.00     0.137 C 
ATOM      7  C   UNL d   1      10.291   6.521  -9.786  0.00  0.00     0.274 C 
ENDROOT
BRANCH   1   8
ATOM      8  C   UNL d   1      11.783   8.111  -8.857  0.00  0.00     0.251 C 
BRANCH   8   9
ATOM      9  C   UNL d   1      11.691   9.136  -7.721  0.00  0.00     0.043 C 
BRANCH   9  10
ATOM     10  C   UNL d   1      10.913   8.656  -6.481  0.00  0.00     0.068 A 
ATOM     11  C   UNL d   1      11.115   9.598  -5.272  0.00  0.00     0.173 A 
ATOM     12  O   UNL d   1      10.869  10.788  -5.263  0.00  0.00    -0.291 OA
ATOM     13  C   UNL d   1      11.617   8.819  -4.159  0.00  0.00     0.031 A 
ATOM     14  C   UNL d   1      11.722   7.497  -4.549  0.00  0.00    -0.017 A 
ATOM     15  C   UNL d   1      11.966   9.242  -2.863  0.00  0.00     0.005 A 
ATOM     16  C   UNL d   1      12.202   6.539  -3.683  0.00  0.00     0.025 A 
ATOM     17  C   UNL d   1      11.335   7.251  -5.966  0.00  0.00     0.034 A 
ATOM     18  C   UNL d   1      12.537   6.916  -2.374  0.00  0.00     0.140 A 
ATOM     19  C   UNL d   1      12.441   8.271  -1.964  0.00  0.00     0.030 A 
ATOM     20  F   UNL d   1      12.970   5.964  -1.543  0.00  0.00    -0.204 F 
ENDBRANCH   9  10
ENDBRANCH   8   9
ENDBRANCH   1   8
BRANCH   5  21
ATOM     21  C   UNL d   1       9.121   5.407 -12.730  0.00  0.00     0.056 A 
ATOM     22  C   UNL d   1      10.093   5.523 -13.758  0.00  0.00     0.018 A 
ATOM     23  C   UNL d   1      10.321   4.523 -14.714  0.00  0.00     0.013 A 
ATOM     24  C   UNL d   1       9.576   3.345 -14.652  0.00  0.00     0.058 A 
ATOM     25  C   UNL d   1       8.602   3.190 -13.654  0.00  0.00     0.013 A 
ATOM     26 CL   UNL d   1       9.846   2.101 -15.805  0.00  0.00    -0.082 Cl
ATOM     27  C   UNL d   1       8.378   4.200 -12.691  0.00  0.00     0.018 A 
ENDBRANCH   5  21
TORSDOF 4
