REMARK  9 active torsions:
REMARK  status: ('A' for Active; 'I' for Inactive)
REMARK    1  A    between atoms: O_2  and  C_3 
REMARK    2  A    between atoms: C_8  and  N_9 
REMARK    3  A    between atoms: N_12  and  C_13 
REMARK    4  A    between atoms: C_13  and  C_14 
REMARK    5  A    between atoms: N_16  and  C_17 
REMARK    6  A    between atoms: C_17  and  C_18 
REMARK    7  A    between atoms: C_18  and  O_19 
REMARK    8  A    between atoms: O_19  and  C_20 
REMARK    9  A    between atoms: C_20  and  C_21 
ROOT
ATOM      1  N   UNL d   1      10.164   2.622 -15.145  0.00  0.00    -0.343 N 
ATOM      2  C   UNL d   1      10.808   3.842 -15.615  0.00  0.00     0.137 C 
ATOM      3  C   UNL d   1      10.126   5.072 -14.964  0.00  0.00     0.275 C 
ATOM      4  N   UNL d   1      10.101   4.961 -13.493  0.00  0.00     0.147 N 
ATOM      5  C   UNL d   1       9.358   3.753 -13.143  0.00  0.00     0.275 C 
ATOM      6  C   UNL d   1      10.035   2.514 -13.708  0.00  0.00     0.137 C 
ENDROOT
BRANCH   4   7
ATOM      7  C   UNL d   1       9.444   6.134 -12.889  0.00  0.00     0.299 C 
BRANCH   7   8
ATOM      8  C   UNL d   1       9.389   6.335 -11.406  0.00  0.00     0.134 A 
ATOM      9  N   UNL d   1       9.863   7.534 -10.887  0.00  0.00    -0.131 NA
ATOM     10  N   UNL d   1       9.828   7.469  -9.601  0.00  0.00    -0.064 NA
ATOM     11  N   UNL d   1       9.313   6.260  -9.279  0.00  0.00    -0.228 N 
ATOM     12  C   UNL d   1       8.986   5.523 -10.387  0.00  0.00     0.115 A 
BRANCH  11  13
ATOM     13  C   UNL d   1       9.063   5.877  -7.907  0.00  0.00     0.161 C 
BRANCH  13  14
ATOM     14  C   UNL d   1      10.124   6.352  -6.899  0.00  0.00     0.169 C 
BRANCH  14  15
ATOM     15  O   UNL d   1      10.207   7.766  -6.864  0.00  0.00    -0.349 OA
BRANCH  15  16
ATOM     16  C   UNL d   1      11.488   8.212  -6.474  0.00  0.00     0.180 C 
BRANCH  16  17
ATOM     17  C   UNL d   1      11.454   9.734  -6.313  0.00  0.00     0.225 C 
ATOM     18  F   UNL d   1      10.675  10.072  -5.286  0.00  0.00    -0.232 F 
ENDBRANCH  16  17
ENDBRANCH  15  16
ENDBRANCH  14  15
ENDBRANCH  13  14
ENDBRANCH  11  13
ENDBRANCH   7   8
ENDBRANCH   4   7
BRANCH   1  19
ATOM     19  C   UNL d   1       9.629   1.666 -16.006  0.00  0.00     0.079 A 
ATOM     20  C   UNL d   1       8.322   1.107 -15.820  0.00  0.00     0.110 A 
ATOM     21  C   UNL d   1       7.860   0.118 -16.712  0.00  0.00     0.026 A 
ATOM     22  C   UNL d   1       8.661  -0.313 -17.790  0.00  0.00     0.002 A 
ATOM     23  C   UNL d   1       9.942   0.236 -17.980  0.00  0.00     0.002 A 
ATOM     24  C   UNL d   1      10.418   1.214 -17.093  0.00  0.00     0.019 A 
BRANCH  20  25
ATOM     25  O   UNL d   1       7.545   1.604 -14.787  0.00  0.00    -0.327 OA
ATOM     26  C   UNL d   1       6.346   0.937 -14.447  0.00  0.00     0.181 C 
ENDBRANCH  20  25
ENDBRANCH   1  19
TORSDOF 9
