REMARK  5 active torsions:
REMARK  status: ('A' for Active; 'I' for Inactive)
REMARK    1  A    between atoms: C_2  and  N_5 
REMARK       I    between atoms: N_5  and  C_6 
REMARK       I    between atoms: C_6  and  N_8 
REMARK    2  A    between atoms: N_8  and  C_9 
REMARK    3  A    between atoms: C_12  and  C_13 
REMARK    4  A    between atoms: C_13  and  C_14 
REMARK    5  A    between atoms: C_14  and  N_15 
ROOT
ATOM      1  C   UNL d   1       9.893   6.713  -9.063  0.00  0.00     0.108 C 
ATOM      2  C   UNL d   1       8.722   5.735  -8.949  0.00  0.00     0.025 C 
ATOM      3  C   UNL d   1       8.615   4.801 -10.159  0.00  0.00     0.002 C 
ATOM      4  C   UNL d   1       8.540   5.592 -11.478  0.00  0.00     0.002 C 
ATOM      5  C   UNL d   1       9.736   6.563 -11.580  0.00  0.00     0.002 C 
ATOM      6  C   UNL d   1       9.869   7.511 -10.380  0.00  0.00     0.025 C 
ENDROOT
BRANCH   4   7
ATOM      7  C   UNL d   1       8.415   4.658 -12.699  0.00  0.00     0.035 C 
BRANCH   7   8
ATOM      8  C   UNL d   1       9.578   3.655 -12.883  0.00  0.00     0.251 C 
BRANCH   8   9
ATOM      9  N   UNL d   1       9.624   3.138 -14.246  0.00  0.00     0.142 N 
ATOM     10  C   UNL d   1       8.572   2.137 -14.421  0.00  0.00     0.276 C 
ATOM     11  C   UNL d   1       8.602   1.452 -15.772  0.00  0.00     0.007 A 
ATOM     12  C   UNL d   1       9.794   1.433 -16.527  0.00  0.00    -0.022 A 
ATOM     13  C   UNL d   1       7.450   0.792 -16.247  0.00  0.00    -0.003 A 
ATOM     14  C   UNL d   1      11.020   2.169 -16.009  0.00  0.00     0.061 C 
ATOM     15  C   UNL d   1       9.829   0.761 -17.766  0.00  0.00    -0.004 A 
ATOM     16  C   UNL d   1      10.920   2.512 -14.510  0.00  0.00     0.255 C 
ATOM     17  C   UNL d   1       8.676   0.105 -18.240  0.00  0.00    -0.000 A 
ATOM     18  C   UNL d   1       7.490   0.120 -17.485  0.00  0.00    -0.000 A 
ENDBRANCH   8   9
ENDBRANCH   7   8
ENDBRANCH   4   7
BRANCH   1  19
ATOM     19  N   UNL d   1       9.829   7.646  -7.937  0.00  0.00    -0.220 NA
ATOM     20  C   UNL d   1      10.792   7.765  -7.022  0.00  0.00     0.360 C 
ATOM     21  N   UNL d   1      10.543   8.731  -6.117  0.00  0.00    -0.221 NA
ATOM     22  O   UNL d   1      11.813   7.087  -7.049  0.00  0.00    -0.243 OA
BRANCH  21  23
ATOM     23  C   UNL d   1      11.467   9.251  -5.101  0.00  0.00     0.089 C 
ATOM     24  C   UNL d   1      11.939   8.152  -4.125  0.00  0.00     0.025 C 
ATOM     25  C   UNL d   1      10.768  10.354  -4.300  0.00  0.00     0.025 C 
ATOM     26  C   UNL d   1      12.656   9.901  -5.803  0.00  0.00     0.025 C 
ENDBRANCH  21  23
ENDBRANCH   1  19
TORSDOF 5
