REMARK  9 active torsions:
REMARK  status: ('A' for Active; 'I' for Inactive)
REMARK    1  A    between atoms: O_2  and  C_3 
REMARK    2  A    between atoms: C_9  and  C_10 
REMARK    3  A    between atoms: C_12  and  C_13 
REMARK    4  A    between atoms: C_13  and  N_14 
REMARK    5  A    between atoms: N_14  and  C_15 
REMARK    6  A    between atoms: C_15  and  C_16 
REMARK    7  A    between atoms: C_16  and  C_17 
REMARK    8  A    between atoms: C_17  and  O_18 
REMARK    9  A    between atoms: O_18  and  C_19 
ROOT
ATOM      1  C   UNL d   1       8.179   6.227 -12.487  0.00  0.00     0.293 C 
ENDROOT
BRANCH   1   2
ATOM      2  N   UNL d   1       8.655   6.778 -11.235  0.00  0.00     0.339 N 
BRANCH   2   3
ATOM      3  C   UNL d   1       8.748   5.785 -10.182  0.00  0.00     0.290 C 
BRANCH   3   4
ATOM      4  C   UNL d   1       8.827   6.423  -8.824  0.00  0.00     0.041 A 
ATOM      5  C   UNL d   1       9.948   6.023  -7.900  0.00  0.00     0.026 A 
ATOM      6  C   UNL d   1       8.531   5.605  -7.639  0.00  0.00     0.007 A 
BRANCH   5   7
ATOM      7  C   UNL d   1      10.646   7.053  -7.083  0.00  0.00     0.001 A 
ATOM      8  C   UNL d   1      11.012   8.296  -7.653  0.00  0.00     0.090 A 
ATOM      9  C   UNL d   1      11.582   9.296  -6.839  0.00  0.00     0.025 A 
ATOM     10  C   UNL d   1      11.824   9.060  -5.470  0.00  0.00     0.013 A 
ATOM     11  C   UNL d   1      11.502   7.810  -4.912  0.00  0.00     0.058 A 
ATOM     12 CL   UNL d   1      11.860   7.480  -3.258  0.00  0.00    -0.082 Cl
ATOM     13  C   UNL d   1      10.923   6.821  -5.714  0.00  0.00     0.009 A 
BRANCH   8  14
ATOM     14  O   UNL d   1      10.711   8.480  -8.986  0.00  0.00    -0.328 OA
ATOM     15  C   UNL d   1      11.527   9.320  -9.760  0.00  0.00     0.181 C 
ENDBRANCH   8  14
ENDBRANCH   5   7
ENDBRANCH   3   4
ENDBRANCH   2   3
ENDBRANCH   1   2
BRANCH   1  16
ATOM     16  C   UNL d   1       9.295   5.532 -13.281  0.00  0.00     0.071 C 
BRANCH  16  17
ATOM     17  C   UNL d   1       9.740   4.186 -12.661  0.00  0.00     0.151 C 
BRANCH  17  18
ATOM     18  O   UNL d   1      10.639   3.547 -13.566  0.00  0.00    -0.331 OA
BRANCH  18  19
ATOM     19  C   UNL d   1      10.115   2.661 -14.469  0.00  0.00     0.096 A 
ATOM     20  C   UNL d   1      11.036   2.109 -15.383  0.00  0.00     0.043 A 
ATOM     21  C   UNL d   1      10.568   1.208 -16.355  0.00  0.00     0.082 A 
ATOM     22  C   UNL d   1       9.204   0.860 -16.399  0.00  0.00    -0.004 A 
ATOM     23  N   UNL d   1      11.461   0.670 -17.310  0.00  0.00    -0.212 NA
ATOM     24  C   UNL d   1       8.298   1.397 -15.467  0.00  0.00    -0.001 A 
ATOM     25  C   UNL d   1       8.701  -0.054 -17.477  0.00  0.00     0.038 C 
ATOM     26  C   UNL d   1       8.749   2.296 -14.510  0.00  0.00     0.024 A 
ATOM     27  C   UNL d   1       9.794  -1.042 -17.909  0.00  0.00     0.095 C 
ATOM     28  C   UNL d   1      11.155  -0.363 -18.104  0.00  0.00     0.256 C 
ATOM     29  O   UNL d   1      11.950  -0.797 -18.944  0.00  0.00    -0.270 OA
ENDBRANCH  18  19
ENDBRANCH  17  18
ENDBRANCH  16  17
ENDBRANCH   1  16
TORSDOF 9
