REMARK  0 active torsions:
REMARK  status: ('A' for Active; 'I' for Inactive)
ROOT
ATOM      1  O   UNL d   1       5.566   0.896 -13.145  0.00  0.00    -0.272 OA
ATOM      2  C   UNL d   1       5.823   0.567 -14.302  0.00  0.00     0.240 C 
ATOM      3  C   UNL d   1       4.769  -0.265 -15.075  0.00  0.00     0.118 C 
ATOM      4  C   UNL d   1       5.096  -0.635 -16.552  0.00  0.00     0.127 C 
ATOM      5  O   UNL d   1       5.456  -2.012 -16.555  0.00  0.00    -0.351 OA
ATOM      6  C   UNL d   1       5.499  -2.631 -17.832  0.00  0.00     0.168 C 
ATOM      7  C   UNL d   1       6.839  -2.412 -18.504  0.00  0.00    -0.001 C 
ATOM      8  C   UNL d   1       7.345  -1.215 -18.841  0.00  0.00    -0.013 C 
ATOM      9  C   UNL d   1       8.741  -1.054 -19.433  0.00  0.00     0.272 C 
ATOM     10  N   UNL d   1       9.568  -0.124 -18.648  0.00  0.00     0.139 N 
ATOM     11  C   UNL d   1      10.104  -0.809 -17.470  0.00  0.00     0.251 C 
ATOM     12  C   UNL d   1       9.969   0.161 -16.305  0.00  0.00     0.043 C 
ATOM     13  C   UNL d   1       8.711   0.958 -16.639  0.00  0.00     0.071 C 
ATOM     14  C   UNL d   1       8.671   2.217 -15.800  0.00  0.00    -0.003 A 
ATOM     15  C   UNL d   1       9.513   3.342 -15.901  0.00  0.00    -0.003 A 
ATOM     16  C   UNL d   1       9.367   4.383 -14.960  0.00  0.00    -0.000 A 
ATOM     17  C   UNL d   1       8.383   4.297 -13.944  0.00  0.00     0.002 A 
ATOM     18  C   UNL d   1       7.531   3.172 -13.865  0.00  0.00     0.017 A 
ATOM     19  C   UNL d   1       7.704   2.123 -14.795  0.00  0.00     0.058 A 
ATOM     20  N   UNL d   1       6.965   0.919 -14.947  0.00  0.00    -0.301 N 
ATOM     21  C   UNL d   1       7.400   0.236 -16.166  0.00  0.00     0.096 C 
ATOM     22  C   UNL d   1       6.201   0.279 -17.130  0.00  0.00     0.053 C 
ATOM     23  C   UNL d   1       6.607   0.096 -18.598  0.00  0.00     0.026 C 
ATOM     24  C   UNL d   1       7.533   1.281 -18.927  0.00  0.00     0.038 C 
ATOM     25  C   UNL d   1       8.865   1.094 -18.180  0.00  0.00     0.225 C 
ENDROOT
TORSDOF 0
