REMARK  7 active torsions:
REMARK  status: ('A' for Active; 'I' for Inactive)
REMARK    1  A    between atoms: C_3  and  S_4 
REMARK    2  A    between atoms: S_4  and  C_5 
REMARK    3  A    between atoms: C_5  and  C_6 
REMARK    4  A    between atoms: C_6  and  C_7 
REMARK    5  A    between atoms: C_7  and  N_8 
REMARK    6  A    between atoms: N_13  and  C_14 
REMARK    7  A    between atoms: C_25  and  C_26 
ROOT
ATOM      1  C   UNL d   1       8.926   4.860  -9.157  0.00  0.00     0.251 C 
ENDROOT
BRANCH   1   2
ATOM      2  C   UNL d   1       8.266   4.912 -10.552  0.00  0.00     0.047 C 
BRANCH   2   3
ATOM      3  C   UNL d   1       9.317   4.995 -11.679  0.00  0.00     0.067 C 
BRANCH   3   4
ATOM      4  S   UNL d   1       8.584   5.542 -13.231  0.00  0.00    -0.075 SA
BRANCH   4   5
ATOM      5  C   UNL d   1       8.213   3.957 -13.875  0.00  0.00     0.193 A 
ATOM      6  N   UNL d   1       7.005   3.374 -13.762  0.00  0.00    -0.287 N 
ATOM      7  C   UNL d   1       5.800   3.924 -13.136  0.00  0.00     0.134 C 
ATOM      8  C   UNL d   1       7.214   2.191 -14.389  0.00  0.00     0.186 A 
ATOM      9  N   UNL d   1       8.466   2.073 -14.862  0.00  0.00    -0.127 NA
ATOM     10  N   UNL d   1       9.118   3.222 -14.514  0.00  0.00    -0.122 NA
BRANCH   8  11
ATOM     11  C   UNL d   1       6.256   1.100 -14.549  0.00  0.00     0.136 A 
ATOM     12  N   UNL d   1       6.290   0.399 -15.705  0.00  0.00    -0.238 NA
ATOM     13  C   UNL d   1       5.394  -0.601 -15.852  0.00  0.00     0.120 A 
ATOM     14  C   UNL d   1       4.443  -0.893 -14.851  0.00  0.00     0.120 A 
ATOM     15  N   UNL d   1       4.400  -0.203 -13.691  0.00  0.00    -0.239 NA
ATOM     16  C   UNL d   1       5.311   0.784 -13.533  0.00  0.00     0.121 A 
ENDBRANCH   8  11
ENDBRANCH   4   5
ENDBRANCH   3   4
ENDBRANCH   2   3
ENDBRANCH   1   2
BRANCH   1  17
ATOM     17  N   UNL d   1       9.049   6.190  -8.559  0.00  0.00     0.138 N 
ATOM     18  C   UNL d   1       9.967   6.238  -7.431  0.00  0.00     0.266 C 
ATOM     19  C   UNL d   1      10.109   7.739  -7.174  0.00  0.00     0.097 C 
ATOM     20  C   UNL d   1       9.896   8.384  -8.537  0.00  0.00     0.052 C 
ATOM     21  N   UNL d   1      11.441   8.116  -6.725  0.00  0.00    -0.252 NA
ATOM     22  C   UNL d   1       9.575   7.210  -9.457  0.00  0.00     0.252 C 
ATOM     23  C   UNL d   1      11.213   9.074  -8.882  0.00  0.00     0.021 C 
ATOM     24  C   UNL d   1      11.834   9.270  -7.505  0.00  0.00     0.077 C 
BRANCH  21  25
ATOM     25  C   UNL d   1      11.590   8.182  -5.330  0.00  0.00     0.037 A 
ATOM     26  C   UNL d   1      11.612   9.430  -4.675  0.00  0.00     0.013 A 
ATOM     27  C   UNL d   1      11.858   9.485  -3.284  0.00  0.00     0.031 A 
ATOM     28  C   UNL d   1      12.079   8.292  -2.565  0.00  0.00     0.140 A 
ATOM     29  C   UNL d   1      12.032   7.040  -3.212  0.00  0.00     0.031 A 
ATOM     30  F   UNL d   1      12.337   8.341  -1.242  0.00  0.00    -0.204 F 
ATOM     31  C   UNL d   1      11.784   6.996  -4.597  0.00  0.00     0.013 A 
ENDBRANCH  21  25
ENDBRANCH   1  17
TORSDOF 7
