REMARK  5 active torsions:
REMARK  status: ('A' for Active; 'I' for Inactive)
REMARK       I    between atoms: C_2  and  N_3 
REMARK    1  A    between atoms: C_2  and  C_16 
REMARK    2  A    between atoms: N_3  and  C_4 
REMARK    3  A    between atoms: N_7  and  C_8 
REMARK    4  A    between atoms: C_8  and  C_9 
REMARK    5  A    between atoms: C_20  and  C_21 
ROOT
ATOM      1  O   UNL d   1       9.185   4.769  -8.466  0.00  0.00    -0.266 OA
ATOM      2  C   UNL d   1       9.316   5.843  -9.039  0.00  0.00     0.275 C 
ATOM      3  N   UNL d   1       9.041   6.021 -10.332  0.00  0.00    -0.234 NA
ENDROOT
BRANCH   2   4
ATOM      4  C   UNL d   1       9.975   7.029  -8.366  0.00  0.00     0.058 A 
ATOM      5  C   UNL d   1      10.324   6.971  -6.991  0.00  0.00     0.005 A 
ATOM      6  C   UNL d   1      11.066   8.018  -6.363  0.00  0.00     0.001 A 
ATOM      7  C   UNL d   1      11.473   9.115  -7.151  0.00  0.00     0.000 A 
ATOM      8  C   UNL d   1      11.131   9.174  -8.511  0.00  0.00     0.000 A 
ATOM      9  C   UNL d   1      10.384   8.155  -9.111  0.00  0.00     0.005 A 
BRANCH   6  10
ATOM     10  C   UNL d   1      11.456   7.944  -4.936  0.00  0.00     0.007 A 
ATOM     11  C   UNL d   1      11.891   8.986  -4.144  0.00  0.00     0.035 A 
ATOM     12  S   UNL d   1      12.259   8.499  -2.509  0.00  0.00    -0.086 SA
ATOM     13  C   UNL d   1      11.855   6.847  -2.890  0.00  0.00     0.035 A 
ATOM     14  C   UNL d   1      11.468   6.719  -4.197  0.00  0.00     0.007 A 
ENDBRANCH   6  10
ENDBRANCH   2   4
BRANCH   3  15
ATOM     15  C   UNL d   1       9.024   4.939 -11.283  0.00  0.00     0.142 C 
ATOM     16  C   UNL d   1       7.606   4.456 -11.574  0.00  0.00     0.275 C 
ATOM     17  N   UNL d   1       7.728   4.005 -12.958  0.00  0.00     0.143 N 
ATOM     18  C   UNL d   1       8.465   5.082 -13.601  0.00  0.00     0.253 C 
ATOM     19  C   UNL d   1       9.585   5.368 -12.628  0.00  0.00     0.062 C 
BRANCH  17  20
ATOM     20  C   UNL d   1       6.424   3.764 -13.544  0.00  0.00     0.277 C 
BRANCH  20  21
ATOM     21  C   UNL d   1       6.236   2.318 -13.902  0.00  0.00     0.011 A 
ATOM     22  C   UNL d   1       5.288   1.565 -13.202  0.00  0.00    -0.002 A 
ATOM     23  C   UNL d   1       4.983   0.261 -13.625  0.00  0.00    -0.000 A 
ATOM     24  C   UNL d   1       5.680  -0.320 -14.705  0.00  0.00    -0.000 A 
ATOM     25  C   UNL d   1       6.641   0.437 -15.401  0.00  0.00    -0.000 A 
ATOM     26  C   UNL d   1       6.913   1.760 -15.001  0.00  0.00    -0.002 A 
ENDBRANCH  20  21
ENDBRANCH  17  20
ENDBRANCH   3  15
TORSDOF 5
