REMARK  4 active torsions:
REMARK  status: ('A' for Active; 'I' for Inactive)
REMARK    1  A    between atoms: C_4  and  C_5 
REMARK    2  A    between atoms: C_9  and  C_10 
REMARK    3  A    between atoms: C_10  and  N_11 
REMARK    4  A    between atoms: N_14  and  C_15 
ROOT
ATOM      1  N   UNL d   1      10.121   2.578 -15.400  0.00  0.00     0.145 N 
ATOM      2  C   UNL d   1      11.335   3.114 -14.780  0.00  0.00     0.275 C 
ATOM      3  C   UNL d   1      12.324   3.592 -15.846  0.00  0.00     0.137 C 
ATOM      4  N   UNL d   1      11.671   4.556 -16.711  0.00  0.00    -0.343 N 
ATOM      5  C   UNL d   1      10.434   4.114 -17.333  0.00  0.00     0.137 C 
ATOM      6  C   UNL d   1       9.474   3.592 -16.254  0.00  0.00     0.275 C 
ENDROOT
BRANCH   1   7
ATOM      7  C   UNL d   1       9.180   2.082 -14.390  0.00  0.00     0.277 C 
BRANCH   7   8
ATOM      8  C   UNL d   1       8.400   3.166 -13.647  0.00  0.00     0.011 A 
ATOM      9  C   UNL d   1       7.040   3.378 -13.958  0.00  0.00    -0.002 A 
ATOM     10  C   UNL d   1       6.309   4.391 -13.307  0.00  0.00    -0.000 A 
ATOM     11  C   UNL d   1       6.947   5.220 -12.361  0.00  0.00    -0.000 A 
ATOM     12  C   UNL d   1       8.300   5.004 -12.028  0.00  0.00    -0.000 A 
ATOM     13  C   UNL d   1       9.013   3.966 -12.657  0.00  0.00    -0.002 A 
BRANCH  12  14
ATOM     14  C   UNL d   1       8.985   5.846 -11.043  0.00  0.00    -0.000 A 
ATOM     15  C   UNL d   1       9.200   5.371  -9.737  0.00  0.00    -0.000 A 
ATOM     16  C   UNL d   1       9.857   6.167  -8.779  0.00  0.00    -0.000 A 
ATOM     17  C   UNL d   1      10.308   7.456  -9.131  0.00  0.00     0.000 A 
ATOM     18  C   UNL d   1      10.109   7.939 -10.438  0.00  0.00    -0.000 A 
ATOM     19  C   UNL d   1       9.451   7.135 -11.391  0.00  0.00    -0.000 A 
ENDBRANCH  12  14
ENDBRANCH   7   8
ENDBRANCH   1   7
BRANCH   4  20
ATOM     20  C   UNL d   1      12.217   5.823 -16.948  0.00  0.00     0.079 A 
ATOM     21  C   UNL d   1      12.370   6.314 -18.259  0.00  0.00     0.115 A 
ATOM     22  C   UNL d   1      12.939   7.578 -18.556  0.00  0.00     0.026 A 
ATOM     23  O   UNL d   1      12.020   5.680 -19.436  0.00  0.00    -0.304 OA
ATOM     24  C   UNL d   1      13.357   8.365 -17.459  0.00  0.00     0.002 A 
ATOM     25  C   UNL d   1      12.915   7.699 -19.985  0.00  0.00     0.029 A 
ATOM     26  C   UNL d   1      13.177   7.916 -16.133  0.00  0.00     0.002 A 
ATOM     27  C   UNL d   1      12.636   6.640 -15.880  0.00  0.00     0.019 A 
ATOM     28  C   UNL d   1      12.364   6.528 -20.452  0.00  0.00     0.123 A 
ENDBRANCH   4  20
TORSDOF 4
