REMARK  5 active torsions:
REMARK  status: ('A' for Active; 'I' for Inactive)
REMARK    1  A    between atoms: C_5  and  N_6 
REMARK    2  A    between atoms: N_10  and  C_11 
REMARK    3  A    between atoms: C_11  and  C_12 
REMARK    4  A    between atoms: C_12  and  C_13 
REMARK    5  A    between atoms: C_13  and  C_14 
ROOT
ATOM      1  N   UNL d   1       9.913   6.919 -10.208  0.00  0.00    -0.346 N 
ATOM      2  C   UNL d   1       9.570   7.737 -11.343  0.00  0.00     0.103 C 
ATOM      3  C   UNL d   1       8.824   6.962 -12.480  0.00  0.00     0.059 C 
ATOM      4  C   UNL d   1       7.503   6.245 -12.058  0.00  0.00     0.252 C 
ATOM      5  N   UNL d   1       7.778   4.900 -11.567  0.00  0.00     0.139 N 
ATOM      6  C   UNL d   1       8.330   5.034 -10.206  0.00  0.00     0.274 C 
ATOM      7  C   UNL d   1       9.782   5.482 -10.290  0.00  0.00     0.137 C 
ENDROOT
BRANCH   5   8
ATOM      8  C   UNL d   1       6.486   4.248 -11.487  0.00  0.00     0.251 C 
BRANCH   8   9
ATOM      9  C   UNL d   1       6.143   3.453 -12.748  0.00  0.00     0.042 C 
BRANCH   9  10
ATOM     10  C   UNL d   1       5.394   2.154 -12.407  0.00  0.00     0.054 C 
BRANCH  10  11
ATOM     11  C   UNL d   1       5.300   1.150 -13.507  0.00  0.00     0.078 A 
ATOM     12  O   UNL d   1       6.325   1.173 -14.417  0.00  0.00    -0.311 OA
ATOM     13  C   UNL d   1       6.002   0.247 -15.374  0.00  0.00     0.100 A 
ATOM     14  C   UNL d   1       4.811  -0.426 -15.019  0.00  0.00     0.024 A 
ATOM     15  C   UNL d   1       6.725  -0.013 -16.553  0.00  0.00     0.025 A 
ATOM     16  C   UNL d   1       4.385   0.177 -13.785  0.00  0.00     0.022 A 
ATOM     17  C   UNL d   1       4.356  -1.433 -15.893  0.00  0.00     0.002 A 
ATOM     18  C   UNL d   1       5.074  -1.732 -17.072  0.00  0.00     0.000 A 
ATOM     19  C   UNL d   1       6.246  -1.023 -17.406  0.00  0.00     0.002 A 
ENDBRANCH  10  11
ENDBRANCH   9  10
ENDBRANCH   8   9
ENDBRANCH   5   8
BRANCH   1  20
ATOM     20  C   UNL d   1      10.059   7.540  -8.947  0.00  0.00     0.056 A 
ATOM     21  C   UNL d   1      10.797   8.729  -8.866  0.00  0.00     0.018 A 
ATOM     22  C   UNL d   1      11.002   9.346  -7.622  0.00  0.00     0.013 A 
ATOM     23  C   UNL d   1      10.475   8.801  -6.447  0.00  0.00     0.058 A 
ATOM     24 CL   UNL d   1      10.774   9.623  -4.972  0.00  0.00    -0.082 Cl
ATOM     25  C   UNL d   1       9.692   7.632  -6.514  0.00  0.00     0.013 A 
ATOM     26  C   UNL d   1       9.492   7.000  -7.755  0.00  0.00     0.018 A 
ENDBRANCH   1  20
TORSDOF 5
