REMARK  8 active torsions:
REMARK  status: ('A' for Active; 'I' for Inactive)
REMARK    1  A    between atoms: O_2  and  C_3 
REMARK    2  A    between atoms: C_8  and  N_9 
REMARK    3  A    between atoms: N_15  and  C_16 
REMARK    4  A    between atoms: C_16  and  C_17 
REMARK    5  A    between atoms: C_17  and  C_18 
REMARK    6  A    between atoms: C_18  and  S_19 
REMARK    7  A    between atoms: S_19  and  C_20 
REMARK    8  A    between atoms: C_23  and  C_24 
ROOT
ATOM      1  N   UNL d   1      11.018   7.298  -6.303  0.00  0.00    -0.347 N 
ATOM      2  C   UNL d   1      11.911   7.654  -7.399  0.00  0.00     0.102 C 
ATOM      3  C   UNL d   1      11.104   8.127  -8.595  0.00  0.00     0.024 C 
ATOM      4  C   UNL d   1       9.970   7.120  -8.976  0.00  0.00     0.008 C 
ATOM      5  C   UNL d   1      10.580   5.814  -9.418  0.00  0.00     0.035 C 
ATOM      6  C   UNL d   1       9.603   4.839 -10.145  0.00  0.00     0.250 C 
ATOM      7  N   UNL d   1       9.018   5.474 -11.310  0.00  0.00     0.137 N 
ATOM      8  C   UNL d   1       8.278   6.681 -10.863  0.00  0.00     0.250 C 
ATOM      9  C   UNL d   1       9.328   7.678 -10.229  0.00  0.00     0.035 C 
ATOM     10  C   UNL d   1       9.037   6.904  -7.735  0.00  0.00     0.024 C 
ATOM     11  C   UNL d   1       9.869   6.431  -6.531  0.00  0.00     0.102 C 
ENDROOT
BRANCH   7  12
ATOM     12  C   UNL d   1       8.044   4.521 -11.853  0.00  0.00     0.251 C 
BRANCH  12  13
ATOM     13  C   UNL d   1       7.289   5.078 -13.070  0.00  0.00     0.047 C 
BRANCH  13  14
ATOM     14  C   UNL d   1       6.564   3.994 -13.868  0.00  0.00     0.067 C 
BRANCH  14  15
ATOM     15  S   UNL d   1       5.656   2.783 -12.867  0.00  0.00    -0.074 SA
BRANCH  15  16
ATOM     16  C   UNL d   1       5.737   1.271 -13.788  0.00  0.00     0.212 A 
ATOM     17  N   UNL d   1       5.021   0.234 -13.381  0.00  0.00    -0.120 NA
ATOM     18  N   UNL d   1       5.155  -0.582 -14.448  0.00  0.00    -0.127 NA
ATOM     19  C   UNL d   1       5.903   0.002 -15.399  0.00  0.00     0.186 A 
ATOM     20  N   UNL d   1       6.335   1.205 -15.006  0.00  0.00    -0.199 NA
BRANCH  19  21
ATOM     21  C   UNL d   1       6.213  -0.610 -16.689  0.00  0.00     0.038 A 
ATOM     22  C   UNL d   1       7.300  -0.131 -17.455  0.00  0.00     0.003 A 
ATOM     23  C   UNL d   1       7.651  -0.761 -18.664  0.00  0.00     0.000 A 
ATOM     24  C   UNL d   1       6.915  -1.872 -19.116  0.00  0.00     0.000 A 
ATOM     25  C   UNL d   1       5.825  -2.351 -18.362  0.00  0.00     0.000 A 
ATOM     26  C   UNL d   1       5.470  -1.720 -17.154  0.00  0.00     0.003 A 
ENDBRANCH  19  21
ENDBRANCH  15  16
ENDBRANCH  14  15
ENDBRANCH  13  14
ENDBRANCH  12  13
ENDBRANCH   7  12
BRANCH   1  27
ATOM     27  C   UNL d   1      11.320   7.763  -5.055  0.00  0.00     0.079 A 
ATOM     28  C   UNL d   1      11.290   9.165  -4.866  0.00  0.00     0.110 A 
ATOM     29  C   UNL d   1      11.515   9.699  -3.604  0.00  0.00     0.026 A 
ATOM     30  C   UNL d   1      11.783   8.859  -2.502  0.00  0.00     0.002 A 
ATOM     31  C   UNL d   1      11.743   7.440  -2.673  0.00  0.00     0.002 A 
ATOM     32  C   UNL d   1      11.510   6.914  -3.943  0.00  0.00     0.019 A 
BRANCH  28  33
ATOM     33  O   UNL d   1      10.930   9.928  -5.940  0.00  0.00    -0.327 OA
ATOM     34  C   UNL d   1      11.695  11.102  -6.053  0.00  0.00     0.181 C 
ENDBRANCH  28  33
ENDBRANCH   1  27
TORSDOF 8
