REMARK  7 active torsions:
REMARK  status: ('A' for Active; 'I' for Inactive)
REMARK    1  A    between atoms: O_2  and  C_3 
REMARK    2  A    between atoms: C_9  and  C_10 
REMARK    3  A    between atoms: C_12  and  N_13 
REMARK    4  A    between atoms: N_13  and  C_14 
REMARK    5  A    between atoms: C_14  and  C_15 
REMARK    6  A    between atoms: N_22  and  S_23 
REMARK    7  A    between atoms: S_23  and  C_26 
ROOT
ATOM      1  C   UNL d   1       5.483   0.431 -14.549  0.00  0.00     0.094 C 
ATOM      2  C   UNL d   1       5.475  -0.442 -15.660  0.00  0.00     0.026 C 
ATOM      3  C   UNL d   1       6.539  -0.487 -16.553  0.00  0.00     0.020 C 
ATOM      4  C   UNL d   1       7.577   0.454 -16.454  0.00  0.00     0.075 A 
ATOM      5  C   UNL d   1       7.642   1.391 -15.373  0.00  0.00     0.022 A 
ATOM      6  C   UNL d   1       6.582   1.327 -14.417  0.00  0.00     0.026 C 
ATOM      7  C   UNL d   1       8.857   2.161 -15.528  0.00  0.00     0.039 A 
ATOM      8  C   UNL d   1       9.438   1.707 -16.691  0.00  0.00     0.093 A 
ATOM      9  N   UNL d   1       8.679   0.704 -17.255  0.00  0.00    -0.231 N 
ENDROOT
BRANCH   7  10
ATOM     10  C   UNL d   1       9.398   3.195 -14.653  0.00  0.00     0.115 A 
ATOM     11  C   UNL d   1      10.611   3.852 -14.601  0.00  0.00     0.096 A 
ATOM     12  N   UNL d   1      10.591   4.801 -13.569  0.00  0.00    -0.062 NA
ATOM     13  C   UNL d   1      11.822   3.676 -15.454  0.00  0.00     0.054 C 
ATOM     14  C   UNL d   1       9.386   4.660 -13.025  0.00  0.00     0.746 A 
ATOM     15  N   UNL d   1       8.654   3.727 -13.627  0.00  0.00    -0.058 NA
BRANCH  14  16
ATOM     16  N   UNL d   1       8.865   5.376 -11.961  0.00  0.00    -0.080 NA
BRANCH  16  17
ATOM     17  C   UNL d   1       7.584   5.323 -11.269  0.00  0.00     0.217 C 
BRANCH  17  18
ATOM     18  C   UNL d   1       6.399   5.699 -12.180  0.00  0.00     0.343 C 
ATOM     19  F   UNL d   1       6.571   6.912 -12.705  0.00  0.00    -0.196 F 
ATOM     20  F   UNL d   1       6.194   4.813 -13.157  0.00  0.00    -0.196 F 
ENDBRANCH  17  18
ENDBRANCH  16  17
ENDBRANCH  14  16
ENDBRANCH   7  10
BRANCH   9  21
ATOM     21  S   UNL d   1       9.062  -0.107 -18.739  0.00  0.00     0.271 S 
ATOM     22  O   UNL d   1      10.354   0.465 -19.165  0.00  0.00    -0.200 OA
ATOM     23  O   UNL d   1       8.944  -1.541 -18.448  0.00  0.00    -0.200 OA
BRANCH  21  24
ATOM     24  C   UNL d   1       7.770   0.403 -19.893  0.00  0.00     0.104 A 
ATOM     25  C   UNL d   1       6.436  -0.083 -19.695  0.00  0.00     0.013 A 
ATOM     26  C   UNL d   1       5.405   0.373 -20.552  0.00  0.00     0.001 A 
ATOM     27  C   UNL d   1       5.695   1.218 -21.645  0.00  0.00     0.000 A 
ATOM     28  C   UNL d   1       7.028   1.641 -21.853  0.00  0.00     0.001 A 
ATOM     29  C   UNL d   1       8.077   1.260 -20.983  0.00  0.00     0.013 A 
ENDBRANCH  21  24
ENDBRANCH   9  21
BRANCH   1  30
ATOM     30  O   UNL d   1       4.482   0.393 -13.607  0.00  0.00    -0.328 OA
ATOM     31  C   UNL d   1       3.382  -0.473 -13.884  0.00  0.00     0.181 C 
ENDBRANCH   1  30
TORSDOF 7
