REMARK  2 active torsions:
REMARK  status: ('A' for Active; 'I' for Inactive)
REMARK    1  A    between atoms: C_9  and  C_10 
REMARK    2  A    between atoms: C_10  and  C_11 
ROOT
ATOM      1  F   UNL d   1      12.175   9.986  -4.090  0.00  0.00    -0.204 F 
ATOM      2  C   UNL d   1      11.693   9.078  -4.964  0.00  0.00     0.140 A 
ATOM      3  C   UNL d   1      11.475   7.769  -4.503  0.00  0.00     0.029 A 
ATOM      4  C   UNL d   1      10.929   6.800  -5.365  0.00  0.00    -0.002 A 
ATOM      5  C   UNL d   1      10.617   7.172  -6.684  0.00  0.00    -0.026 A 
ATOM      6  C   UNL d   1      10.854   8.461  -7.142  0.00  0.00    -0.024 A 
ATOM      7  C   UNL d   1      11.403   9.443  -6.298  0.00  0.00     0.025 A 
ATOM      8  C   UNL d   1      10.444   8.618  -8.575  0.00  0.00     0.026 C 
ATOM      9  C   UNL d   1       9.722   7.285  -8.912  0.00  0.00     0.011 C 
ATOM     10  C   UNL d   1      10.012   6.303  -7.750  0.00  0.00     0.026 C 
ENDROOT
BRANCH   9  11
ATOM     11  C   UNL d   1      10.107   6.731 -10.299  0.00  0.00     0.027 C 
BRANCH  11  12
ATOM     12  C   UNL d   1       9.226   5.547 -10.757  0.00  0.00     0.129 C 
ATOM     13  N   UNL d   1       7.883   5.965 -11.059  0.00  0.00    -0.251 NA
ATOM     14  C   UNL d   1       7.718   5.863 -12.411  0.00  0.00     0.190 C 
ATOM     15  N   UNL d   1       8.648   5.273 -13.064  0.00  0.00    -0.249 NA
ATOM     16  C   UNL d   1       9.681   4.924 -12.100  0.00  0.00     0.152 C 
ENDBRANCH  11  12
ENDBRANCH   9  11
TORSDOF 2
