REMARK  8 active torsions:
REMARK  status: ('A' for Active; 'I' for Inactive)
REMARK    1  A    between atoms: C_3  and  S_4 
REMARK    2  A    between atoms: S_4  and  C_5 
REMARK    3  A    between atoms: C_5  and  C_6 
REMARK    4  A    between atoms: C_6  and  C_7 
REMARK    5  A    between atoms: C_7  and  N_8 
REMARK    6  A    between atoms: C_13  and  C_14 
REMARK    7  A    between atoms: C_17  and  C_18 
REMARK    8  A    between atoms: C_27  and  C_28 
ROOT
ATOM      1  N   UNL d   1       9.781   2.547 -15.472  0.00  0.00     0.137 N 
ATOM      2  C   UNL d   1      11.199   2.513 -15.158  0.00  0.00     0.250 C 
ATOM      3  C   UNL d   1      11.739   1.482 -16.139  0.00  0.00     0.038 C 
ATOM      4  C   UNL d   1      10.793   1.529 -17.313  0.00  0.00     0.037 A 
ATOM      5  C   UNL d   1      11.300   1.402 -18.733  0.00  0.00     0.007 A 
ATOM      6  C   UNL d   1      10.448   0.308 -18.143  0.00  0.00     0.024 A 
ATOM      7  C   UNL d   1       9.748   2.551 -16.927  0.00  0.00     0.251 C 
ENDROOT
BRANCH   1   8
ATOM      8  C   UNL d   1       9.091   3.717 -14.949  0.00  0.00     0.251 C 
BRANCH   8   9
ATOM      9  C   UNL d   1       9.209   3.843 -13.426  0.00  0.00     0.047 C 
BRANCH   9  10
ATOM     10  C   UNL d   1       8.396   5.026 -12.889  0.00  0.00     0.067 C 
BRANCH  10  11
ATOM     11  S   UNL d   1       8.172   4.875 -11.093  0.00  0.00    -0.075 SA
BRANCH  11  12
ATOM     12  C   UNL d   1       9.097   6.243 -10.471  0.00  0.00     0.193 A 
ATOM     13  N   UNL d   1       9.351   6.394  -9.154  0.00  0.00    -0.288 N 
ATOM     14  C   UNL d   1       8.953   5.552  -8.039  0.00  0.00     0.134 C 
ATOM     15  C   UNL d   1      10.045   7.555  -9.135  0.00  0.00     0.173 A 
ATOM     16  N   UNL d   1      10.256   8.058 -10.352  0.00  0.00    -0.128 NA
ATOM     17  N   UNL d   1       9.607   7.218 -11.220  0.00  0.00    -0.122 NA
BRANCH  15  18
ATOM     18  C   UNL d   1      10.572   8.207  -7.944  0.00  0.00     0.065 A 
ATOM     19  S   UNL d   1       9.556   8.387  -6.543  0.00  0.00    -0.083 SA
ATOM     20  C   UNL d   1      10.818   9.224  -5.686  0.00  0.00     0.035 A 
ATOM     21  C   UNL d   1      11.941   9.363  -6.457  0.00  0.00     0.008 A 
ATOM     22  C   UNL d   1      11.801   8.782  -7.751  0.00  0.00     0.010 A 
ENDBRANCH  15  18
ENDBRANCH  11  12
ENDBRANCH  10  11
ENDBRANCH   9  10
ENDBRANCH   8   9
ENDBRANCH   1   8
BRANCH   6  23
ATOM     23  C   UNL d   1       9.031   0.097 -18.595  0.00  0.00    -0.022 A 
ATOM     24  C   UNL d   1       8.032  -0.271 -17.668  0.00  0.00    -0.004 A 
ATOM     25  C   UNL d   1       6.692  -0.396 -18.080  0.00  0.00     0.004 A 
ATOM     26  C   UNL d   1       6.334  -0.149 -19.421  0.00  0.00     0.071 A 
ATOM     27  C   UNL d   1       7.332   0.217 -20.346  0.00  0.00     0.004 A 
ATOM     28  C   UNL d   1       8.673   0.338 -19.935  0.00  0.00    -0.004 A 
BRANCH  26  29
ATOM     29  C   UNL d   1       4.892  -0.283 -19.879  0.00  0.00     0.419 C 
ATOM     30  F   UNL d   1       4.617   0.656 -20.785  0.00  0.00    -0.166 F 
ATOM     31  F   UNL d   1       4.724  -1.485 -20.427  0.00  0.00    -0.166 F 
ATOM     32  F   UNL d   1       4.041  -0.151 -18.862  0.00  0.00    -0.166 F 
ENDBRANCH  26  29
ENDBRANCH   6  23
TORSDOF 8
