REMARK  6 active torsions:
REMARK  status: ('A' for Active; 'I' for Inactive)
REMARK    1  A    between atoms: N_2  and  C_3 
REMARK    2  A    between atoms: C_5  and  O_6 
REMARK    3  A    between atoms: C_8  and  C_9 
REMARK       I    between atoms: C_9  and  N_11 
REMARK    4  A    between atoms: N_11  and  C_12 
REMARK    5  A    between atoms: N_14  and  C_15 
REMARK    6  A    between atoms: C_15  and  C_16 
ROOT
ATOM      1  C   UNL d   1      10.280   0.803 -15.900  0.00  0.00     0.277 C 
ATOM      2  O   UNL d   1      11.024   0.402 -15.013  0.00  0.00    -0.266 OA
ATOM      3  N   UNL d   1       9.187   1.544 -15.691  0.00  0.00    -0.234 NA
ENDROOT
BRANCH   3   4
ATOM      4  C   UNL d   1       8.577   1.833 -14.400  0.00  0.00     0.142 C 
ATOM      5  C   UNL d   1       7.049   1.671 -14.399  0.00  0.00     0.058 C 
ATOM      6  C   UNL d   1       6.521   3.037 -13.971  0.00  0.00     0.253 C 
ATOM      7  C   UNL d   1       6.411   1.175 -15.698  0.00  0.00     0.004 C 
ATOM      8  N   UNL d   1       7.623   3.617 -13.220  0.00  0.00     0.143 N 
ATOM      9  C   UNL d   1       8.820   3.285 -13.978  0.00  0.00     0.275 C 
BRANCH   8  10
ATOM     10  C   UNL d   1       7.473   5.052 -12.999  0.00  0.00     0.277 C 
BRANCH  10  11
ATOM     11  C   UNL d   1       8.309   5.568 -11.846  0.00  0.00     0.011 A 
ATOM     12  C   UNL d   1       9.065   6.747 -11.986  0.00  0.00    -0.002 A 
ATOM     13  C   UNL d   1       9.813   7.247 -10.899  0.00  0.00    -0.000 A 
ATOM     14  C   UNL d   1       9.805   6.578  -9.662  0.00  0.00    -0.000 A 
ATOM     15  C   UNL d   1       9.030   5.409  -9.511  0.00  0.00    -0.000 A 
ATOM     16  C   UNL d   1       8.280   4.915 -10.597  0.00  0.00    -0.002 A 
ENDBRANCH  10  11
ENDBRANCH   8  10
ENDBRANCH   3   4
BRANCH   1  17
ATOM     17  C   UNL d   1      10.562   0.493 -17.341  0.00  0.00     0.081 A 
ATOM     18  C   UNL d   1       9.570  -0.051 -18.200  0.00  0.00     0.100 A 
ATOM     19  C   UNL d   1       9.913  -0.341 -19.544  0.00  0.00     0.044 A 
ATOM     20  C   UNL d   1      11.221  -0.120 -20.030  0.00  0.00     0.089 A 
ATOM     21  C   UNL d   1      12.204   0.402 -19.152  0.00  0.00     0.075 A 
ATOM     22  C   UNL d   1      11.865   0.701 -17.824  0.00  0.00     0.020 A 
ATOM     23 CL   UNL d   1      13.826   0.691 -19.686  0.00  0.00    -0.081 Cl
BRANCH  18  24
ATOM     24  O   UNL d   1       8.309  -0.285 -17.692  0.00  0.00    -0.328 OA
ATOM     25  C   UNL d   1       7.316  -0.865 -18.529  0.00  0.00     0.181 C 
ENDBRANCH  18  24
BRANCH  20  26
ATOM     26  N   UNL d   1      11.583  -0.411 -21.353  0.00  0.00    -0.268 NA
ATOM     27  C   UNL d   1      10.644  -1.052 -22.267  0.00  0.00     0.152 C 
ENDBRANCH  20  26
ENDBRANCH   1  17
TORSDOF 6
