REMARK  7 active torsions:
REMARK  status: ('A' for Active; 'I' for Inactive)
REMARK    1  A    between atoms: S_2  and  N_4 
REMARK    2  A    between atoms: S_2  and  C_24 
REMARK    3  A    between atoms: N_4  and  C_5 
REMARK    4  A    between atoms: C_5  and  C_6 
REMARK    5  A    between atoms: C_6  and  C_7 
REMARK    6  A    between atoms: C_7  and  N_8 
REMARK    7  A    between atoms: C_11  and  C_12 
ROOT
ATOM      1  C   UNL d   1       8.338   5.907 -10.367  0.00  0.00     0.252 C 
ENDROOT
BRANCH   1   2
ATOM      2  C   UNL d   1       8.931   5.371  -9.052  0.00  0.00     0.062 C 
BRANCH   2   3
ATOM      3  C   UNL d   1       8.877   6.435  -7.928  0.00  0.00     0.141 C 
BRANCH   3   4
ATOM      4  N   UNL d   1       9.835   7.525  -8.178  0.00  0.00    -0.185 NA
BRANCH   4   5
ATOM      5  S   UNL d   1      11.382   7.383  -7.480  0.00  0.00     0.281 S 
ATOM      6  O   UNL d   1      11.526   5.959  -7.164  0.00  0.00    -0.199 OA
ATOM      7  O   UNL d   1      12.325   8.075  -8.362  0.00  0.00    -0.199 OA
BRANCH   5   8
ATOM      8  C   UNL d   1      11.269   8.292  -5.956  0.00  0.00     0.105 A 
ATOM      9  C   UNL d   1      11.678   7.869  -4.651  0.00  0.00     0.012 A 
ATOM     10  C   UNL d   1      11.589   8.793  -3.572  0.00  0.00     0.001 A 
ATOM     11  C   UNL d   1      12.196   6.611  -4.340  0.00  0.00     0.001 A 
ATOM     12  C   UNL d   1      11.080  10.059  -3.792  0.00  0.00     0.000 A 
ATOM     13  C   UNL d   1      11.997   8.494  -2.252  0.00  0.00     0.000 A 
ATOM     14  C   UNL d   1      10.656  10.443  -5.063  0.00  0.00     0.001 A 
ATOM     15  C   UNL d   1      10.768   9.576  -6.152  0.00  0.00     0.013 A 
ATOM     16  C   UNL d   1      12.506   7.229  -1.996  0.00  0.00     0.000 A 
ATOM     17  C   UNL d   1      12.601   6.313  -3.027  0.00  0.00     0.000 A 
ENDBRANCH   5   8
ENDBRANCH   4   5
ENDBRANCH   3   4
ENDBRANCH   2   3
ENDBRANCH   1   2
BRANCH   1  18
ATOM     18  N   UNL d   1       8.193   4.873 -11.375  0.00  0.00     0.137 N 
ATOM     19  C   UNL d   1       7.061   5.209 -12.233  0.00  0.00     0.251 C 
ATOM     20  C   UNL d   1       6.884   4.038 -13.188  0.00  0.00     0.041 C 
ATOM     21  C   UNL d   1       8.118   3.754 -14.073  0.00  0.00     0.047 C 
ATOM     22  C   UNL d   1       9.349   3.640 -13.171  0.00  0.00     0.041 C 
ATOM     23  C   UNL d   1       9.416   4.793 -12.164  0.00  0.00     0.251 C 
BRANCH  21  24
ATOM     24  C   UNL d   1       7.952   2.501 -14.916  0.00  0.00     0.087 A 
ATOM     25  C   UNL d   1       6.989   1.452 -14.921  0.00  0.00     0.041 A 
ATOM     26  C   UNL d   1       7.288   0.575 -15.973  0.00  0.00     0.129 A 
ATOM     27  C   UNL d   1       5.839   1.174 -14.133  0.00  0.00     0.006 A 
ATOM     28  O   UNL d   1       8.436   1.080 -16.560  0.00  0.00    -0.211 OA
ATOM     29  C   UNL d   1       6.504  -0.552 -16.288  0.00  0.00     0.057 A 
ATOM     30  N   UNL d   1       8.819   2.279 -15.901  0.00  0.00    -0.131 NA
ATOM     31  C   UNL d   1       5.393  -0.836 -15.469  0.00  0.00     0.142 A 
ATOM     32  F   UNL d   1       4.651  -1.951 -15.693  0.00  0.00    -0.204 F 
ATOM     33  C   UNL d   1       5.056   0.034 -14.407  0.00  0.00     0.030 A 
ENDBRANCH  21  24
ENDBRANCH   1  18
TORSDOF 7
