REMARK  9 active torsions:
REMARK  status: ('A' for Active; 'I' for Inactive)
REMARK    1  A    between atoms: C_2  and  O_4 
REMARK    2  A    between atoms: O_4  and  C_5 
REMARK    3  A    between atoms: C_10  and  N_11 
REMARK    4  A    between atoms: N_16  and  C_17 
REMARK    5  A    between atoms: C_17  and  C_18 
REMARK    6  A    between atoms: C_18  and  C_19 
REMARK    7  A    between atoms: C_19  and  S_20 
REMARK    8  A    between atoms: S_20  and  C_21 
REMARK    9  A    between atoms: C_24  and  C_25 
ROOT
ATOM      1  N   UNL d   1       9.880   3.227 -15.185  0.00  0.00    -0.250 NA
ATOM      2  C   UNL d   1      10.965   2.315 -14.872  0.00  0.00     0.077 C 
ATOM      3  C   UNL d   1      12.089   2.757 -15.811  0.00  0.00     0.021 C 
ATOM      4  C   UNL d   1      11.344   3.161 -17.084  0.00  0.00     0.052 C 
ATOM      5  C   UNL d   1      11.817   4.440 -17.779  0.00  0.00     0.252 C 
ATOM      6  N   UNL d   1      10.572   5.092 -18.179  0.00  0.00     0.138 N 
ATOM      7  C   UNL d   1       9.721   4.939 -17.006  0.00  0.00     0.266 C 
ATOM      8  C   UNL d   1       9.930   3.473 -16.622  0.00  0.00     0.097 C 
ENDROOT
BRANCH   6   9
ATOM      9  C   UNL d   1      10.742   6.501 -18.523  0.00  0.00     0.251 C 
BRANCH   9  10
ATOM     10  C   UNL d   1      11.572   6.681 -19.807  0.00  0.00     0.047 C 
BRANCH  10  11
ATOM     11  C   UNL d   1      11.710   8.151 -20.227  0.00  0.00     0.067 C 
BRANCH  11  12
ATOM     12  S   UNL d   1      12.742   8.353 -21.709  0.00  0.00    -0.075 SA
BRANCH  12  13
ATOM     13  C   UNL d   1      14.313   7.917 -21.032  0.00  0.00     0.193 A 
ATOM     14  N   UNL d   1      15.035   8.723 -20.226  0.00  0.00    -0.287 N 
ATOM     15  C   UNL d   1      16.142   7.970 -19.977  0.00  0.00     0.186 A 
ATOM     16  C   UNL d   1      14.696  10.063 -19.763  0.00  0.00     0.134 C 
ATOM     17  N   UNL d   1      16.088   6.786 -20.600  0.00  0.00    -0.127 NA
ATOM     18  N   UNL d   1      14.905   6.753 -21.291  0.00  0.00    -0.122 NA
BRANCH  15  19
ATOM     19  C   UNL d   1      17.298   8.339 -19.137  0.00  0.00     0.136 A 
ATOM     20  N   UNL d   1      17.297   9.535 -18.498  0.00  0.00    -0.238 NA
ATOM     21  C   UNL d   1      18.370   9.835 -17.746  0.00  0.00     0.120 A 
ATOM     22  C   UNL d   1      19.449   8.951 -17.604  0.00  0.00     0.120 A 
ATOM     23  N   UNL d   1      19.469   7.747 -18.220  0.00  0.00    -0.239 NA
ATOM     24  C   UNL d   1      18.398   7.450 -18.993  0.00  0.00     0.121 A 
ENDBRANCH  15  19
ENDBRANCH  12  13
ENDBRANCH  11  12
ENDBRANCH  10  11
ENDBRANCH   9  10
ENDBRANCH   6   9
BRANCH   1  25
ATOM     25  C   UNL d   1       8.612   2.917 -14.665  0.00  0.00     0.059 C 
ATOM     26  C   UNL d   1       7.977   3.841 -13.779  0.00  0.00     0.104 C 
ATOM     27  C   UNL d   1       6.635   3.594 -13.371  0.00  0.00     0.025 C 
ATOM     28  C   UNL d   1       6.020   2.386 -13.678  0.00  0.00     0.002 C 
ATOM     29  C   UNL d   1       6.630   1.456 -14.583  0.00  0.00     0.001 C 
ATOM     30  C   UNL d   1       7.909   1.756 -15.086  0.00  0.00     0.013 C 
BRANCH  26  31
ATOM     31  O   UNL d   1       8.734   4.929 -13.380  0.00  0.00    -0.332 OA
BRANCH  31  32
ATOM     32  C   UNL d   1       8.229   5.880 -12.432  0.00  0.00     0.122 C 
ATOM     33  C   UNL d   1       9.397   6.839 -12.130  0.00  0.00     0.033 C 
ATOM     34  C   UNL d   1       7.744   5.227 -11.082  0.00  0.00     0.033 C 
ENDBRANCH  31  32
ENDBRANCH  26  31
ENDBRANCH   1  25
TORSDOF 9
