REMARK  0 active torsions:
REMARK  status: ('A' for Active; 'I' for Inactive)
ROOT
ATOM      1  C   UNL d   1       5.020  -2.419 -16.541  0.00  0.00     0.286 C 
ATOM      2  N   UNL d   1       5.439  -1.409 -15.598  0.00  0.00     0.144 N 
ATOM      3  C   UNL d   1       4.305  -0.621 -15.109  0.00  0.00     0.257 C 
ATOM      4  C   UNL d   1       4.763   0.327 -13.954  0.00  0.00     0.079 C 
ATOM      5  C   UNL d   1       5.995   1.062 -14.378  0.00  0.00     0.037 A 
ATOM      6  C   UNL d   1       6.807   0.634 -15.403  0.00  0.00     0.024 A 
ATOM      7  C   UNL d   1       7.889   1.545 -15.392  0.00  0.00     0.015 A 
ATOM      8  C   UNL d   1       8.991   1.506 -16.226  0.00  0.00     0.001 A 
ATOM      9  C   UNL d   1       9.970   2.509 -16.085  0.00  0.00     0.000 A 
ATOM     10  C   UNL d   1       9.811   3.490 -15.103  0.00  0.00     0.001 A 
ATOM     11  C   UNL d   1       8.682   3.516 -14.219  0.00  0.00     0.015 A 
ATOM     12  C   UNL d   1       7.705   2.503 -14.433  0.00  0.00     0.059 A 
ATOM     13  N   UNL d   1       6.521   2.240 -13.834  0.00  0.00    -0.331 N 
ATOM     14  C   UNL d   1       5.950   3.057 -12.774  0.00  0.00     0.111 C 
ATOM     15  C   UNL d   1       6.050   4.541 -13.065  0.00  0.00     0.051 C 
ATOM     16  C   UNL d   1       7.402   5.048 -12.650  0.00  0.00    -0.020 A 
ATOM     17  C   UNL d   1       7.434   6.037 -11.670  0.00  0.00    -0.004 A 
ATOM     18  C   UNL d   1       8.638   6.528 -11.201  0.00  0.00    -0.000 A 
ATOM     19  C   UNL d   1       9.849   6.002 -11.633  0.00  0.00    -0.000 A 
ATOM     20  C   UNL d   1       9.848   5.012 -12.626  0.00  0.00    -0.000 A 
ATOM     21  C   UNL d   1       8.642   4.529 -13.169  0.00  0.00    -0.003 A 
ATOM     22  C   UNL d   1       6.424  -0.533 -16.237  0.00  0.00     0.278 C 
ENDROOT
TORSDOF 0
