REMARK  3 active torsions:
REMARK  status: ('A' for Active; 'I' for Inactive)
REMARK    1  A    between atoms: N_5  and  C_6 
REMARK    2  A    between atoms: N_15  and  N_16 
REMARK       I    between atoms: N_16  and  C_17 
REMARK    3  A    between atoms: C_17  and  C_19 
ROOT
ATOM      1  C   UNL d   1       9.869   1.892 -16.591  0.00  0.00     0.142 C 
ATOM      2  N   UNL d   1       9.407   0.720 -16.948  0.00  0.00    -0.227 NA
ATOM      3  C   UNL d   1       9.457   0.181 -18.241  0.00  0.00     0.101 A 
ATOM      4  C   UNL d   1       8.380  -0.674 -18.592  0.00  0.00     0.032 A 
ATOM      5  C   UNL d   1       8.354  -1.353 -19.824  0.00  0.00     0.059 A 
ATOM      6 CL   UNL d   1       7.043  -2.401 -20.237  0.00  0.00    -0.082 Cl
ATOM      7  C   UNL d   1       9.419  -1.198 -20.724  0.00  0.00     0.013 A 
ATOM      8  C   UNL d   1      10.500  -0.373 -20.391  0.00  0.00     0.022 A 
ATOM      9  C   UNL d   1      10.537   0.337 -19.167  0.00  0.00     0.101 A 
ATOM     10  N   UNL d   1      11.604   1.229 -18.928  0.00  0.00    -0.226 N 
ATOM     11  C   UNL d   1      11.369   2.572 -18.573  0.00  0.00     0.086 A 
ATOM     12  C   UNL d   1      11.981   3.619 -19.305  0.00  0.00     0.019 A 
ATOM     13  C   UNL d   1      11.695   4.968 -19.045  0.00  0.00     0.002 A 
ATOM     14  C   UNL d   1      10.773   5.302 -18.044  0.00  0.00     0.000 A 
ATOM     15  C   UNL d   1      10.149   4.280 -17.309  0.00  0.00     0.004 A 
ATOM     16  C   UNL d   1      10.463   2.910 -17.536  0.00  0.00     0.051 A 
ENDROOT
BRANCH   1  17
ATOM     17  N   UNL d   1       9.867   2.299 -15.264  0.00  0.00    -0.330 N 
ATOM     18  C   UNL d   1      11.052   2.789 -14.562  0.00  0.00     0.138 C 
ATOM     19  C   UNL d   1      10.757   4.136 -13.882  0.00  0.00     0.274 C 
ATOM     20  N   UNL d   1       9.630   3.998 -12.962  0.00  0.00     0.143 N 
ATOM     21  C   UNL d   1       9.361   5.271 -12.325  0.00  0.00     0.286 C 
ATOM     22  C   UNL d   1       8.446   3.563 -13.707  0.00  0.00     0.274 C 
ATOM     23  C   UNL d   1       8.707   2.197 -14.383  0.00  0.00     0.138 C 
ENDBRANCH   1  17
BRANCH  10  24
ATOM     24  N   UNL d   1      12.938   0.784 -19.104  0.00  0.00    -0.120 NA
ATOM     25  C   UNL d   1      13.625   0.867 -20.271  0.00  0.00     0.367 C 
ATOM     26  O   UNL d   1      13.152   1.337 -21.299  0.00  0.00    -0.259 OA
BRANCH  25  27
ATOM     27  C   UNL d   1      15.071   0.352 -20.265  0.00  0.00     0.476 C 
ATOM     28  F   UNL d   1      15.846   1.238 -19.642  0.00  0.00    -0.162 F 
ATOM     29  F   UNL d   1      15.127  -0.811 -19.632  0.00  0.00    -0.162 F 
ATOM     30  F   UNL d   1      15.508   0.187 -21.513  0.00  0.00    -0.162 F 
ENDBRANCH  25  27
ENDBRANCH  10  24
TORSDOF 3
