REMARK  7 active torsions:
REMARK  status: ('A' for Active; 'I' for Inactive)
REMARK    1  A    between atoms: C_6  and  C_7 
REMARK    2  A    between atoms: C_10  and  S_11 
REMARK    3  A    between atoms: S_11  and  C_12 
REMARK    4  A    between atoms: C_12  and  C_13 
REMARK    5  A    between atoms: C_13  and  C_14 
REMARK    6  A    between atoms: C_14  and  N_15 
REMARK    7  A    between atoms: C_22  and  C_23 
ROOT
ATOM      1  C   UNL d   1      12.026  -0.354 -20.029  0.00  0.00     0.047 C 
ENDROOT
BRANCH   1   2
ATOM      2  C   UNL d   1      10.592  -0.690 -20.491  0.00  0.00     0.067 C 
BRANCH   2   3
ATOM      3  S   UNL d   1       9.383   0.640 -20.197  0.00  0.00    -0.075 SA
BRANCH   3   4
ATOM      4  C   UNL d   1       9.543   0.796 -18.445  0.00  0.00     0.193 A 
ATOM      5  N   UNL d   1       9.737  -0.225 -17.614  0.00  0.00    -0.122 NA
ATOM      6  N   UNL d   1       9.980   0.338 -16.382  0.00  0.00    -0.128 NA
ATOM      7  C   UNL d   1       9.846   1.654 -16.568  0.00  0.00     0.167 A 
ATOM      8  N   UNL d   1       9.564   2.001 -17.842  0.00  0.00    -0.289 N 
ATOM      9  C   UNL d   1       9.356   3.321 -18.410  0.00  0.00     0.134 C 
BRANCH   7  10
ATOM     10  C   UNL d   1       9.968   2.604 -15.477  0.00  0.00     0.037 A 
ATOM     11  C   UNL d   1       8.851   2.921 -14.668  0.00  0.00     0.021 A 
ATOM     12  C   UNL d   1       7.583   2.334 -14.883  0.00  0.00     0.003 A 
ATOM     13  C   UNL d   1       8.986   3.853 -13.601  0.00  0.00     0.081 A 
ATOM     14  C   UNL d   1       6.510   2.696 -14.050  0.00  0.00     0.015 A 
ATOM     15  C   UNL d   1       6.734   3.652 -13.046  0.00  0.00     0.059 A 
ATOM     16  C   UNL d   1       5.629   4.053 -12.104  0.00  0.00     0.052 C 
ATOM     17  N   UNL d   1       7.935   4.213 -12.829  0.00  0.00    -0.250 NA
ATOM     18  C   UNL d   1      10.246   4.428 -13.362  0.00  0.00     0.019 A 
ATOM     19  C   UNL d   1      11.363   4.109 -14.163  0.00  0.00     0.002 A 
ATOM     20  C   UNL d   1      11.219   3.199 -15.226  0.00  0.00     0.003 A 
ENDBRANCH   7  10
ENDBRANCH   3   4
ENDBRANCH   2   3
ENDBRANCH   1   2
BRANCH   1  21
ATOM     21  C   UNL d   1      12.686   0.727 -20.889  0.00  0.00     0.251 C 
BRANCH  21  22
ATOM     22  N   UNL d   1      14.082   0.945 -20.508  0.00  0.00     0.138 N 
ATOM     23  C   UNL d   1      14.319   1.384 -19.128  0.00  0.00     0.255 C 
ATOM     24  C   UNL d   1      13.766   2.771 -18.759  0.00  0.00     0.061 C 
ATOM     25  C   UNL d   1      14.646   3.916 -19.230  0.00  0.00    -0.022 A 
ATOM     26  C   UNL d   1      14.940   4.106 -20.606  0.00  0.00    -0.022 A 
ATOM     27  C   UNL d   1      15.194   4.797 -18.269  0.00  0.00     0.022 A 
ATOM     28  C   UNL d   1      14.377   3.177 -21.671  0.00  0.00     0.061 C 
ATOM     29  C   UNL d   1      15.772   5.175 -21.016  0.00  0.00     0.017 A 
ATOM     30  C   UNL d   1      14.817   1.704 -21.515  0.00  0.00     0.255 C 
ATOM     31  C   UNL d   1      16.320   6.060 -20.066  0.00  0.00     0.106 A 
ATOM     32  C   UNL d   1      16.022   5.841 -18.707  0.00  0.00     0.119 A 
ATOM     33  N   UNL d   1      17.155   7.151 -20.187  0.00  0.00    -0.217 NA
ATOM     34  O   UNL d   1      16.703   6.787 -17.961  0.00  0.00    -0.285 OA
ATOM     35  C   UNL d   1      17.357   7.526 -18.912  0.00  0.00     0.256 A 
BRANCH  35  36
ATOM     36  C   UNL d   1      18.177   8.704 -18.461  0.00  0.00     0.458 C 
ATOM     37  F   UNL d   1      17.416   9.795 -18.407  0.00  0.00    -0.163 F 
ATOM     38  F   UNL d   1      18.689   8.489 -17.247  0.00  0.00    -0.163 F 
ATOM     39  F   UNL d   1      19.185   8.932 -19.304  0.00  0.00    -0.163 F 
ENDBRANCH  35  36
ENDBRANCH  21  22
ENDBRANCH   1  21
TORSDOF 7
