REMARK  3 active torsions:
REMARK  status: ('A' for Active; 'I' for Inactive)
REMARK    1  A    between atoms: N_2  and  C_4 
REMARK    2  A    between atoms: C_4  and  C_5 
REMARK    3  A    between atoms: C_5  and  N_6 
ROOT
ATOM      1  N   UNL d   1       8.672   0.583 -16.099  0.00  0.00    -0.292 N 
ATOM      2  C   UNL d   1       8.976   1.496 -15.138  0.00  0.00     0.262 C 
ATOM      3  O   UNL d   1      10.164   1.742 -14.870  0.00  0.00    -0.267 OA
ATOM      4  C   UNL d   1       7.933   2.348 -14.441  0.00  0.00     0.072 A 
ATOM      5  C   UNL d   1       8.316   3.646 -14.034  0.00  0.00     0.006 A 
ATOM      6  C   UNL d   1       7.494   4.473 -13.248  0.00  0.00     0.000 A 
ATOM      7  C   UNL d   1       6.244   3.980 -12.846  0.00  0.00     0.002 A 
ATOM      8  C   UNL d   1       5.841   2.693 -13.239  0.00  0.00     0.017 A 
ATOM      9  C   UNL d   1       6.658   1.848 -14.042  0.00  0.00     0.065 A 
ATOM     10  N   UNL d   1       6.195   0.573 -14.418  0.00  0.00    -0.324 N 
ATOM     11  C   UNL d   1       5.066   0.079 -13.607  0.00  0.00     0.131 C 
ATOM     12  C   UNL d   1       6.210   0.091 -15.752  0.00  0.00     0.076 A 
ATOM     13  C   UNL d   1       5.025  -0.483 -16.296  0.00  0.00     0.019 A 
ATOM     14  C   UNL d   1       4.961  -0.959 -17.617  0.00  0.00     0.002 A 
ATOM     15  C   UNL d   1       6.092  -0.868 -18.433  0.00  0.00     0.002 A 
ATOM     16  C   UNL d   1       7.278  -0.311 -17.918  0.00  0.00     0.019 A 
ATOM     17  C   UNL d   1       7.372   0.161 -16.577  0.00  0.00     0.078 A 
ENDROOT
BRANCH   1  18
ATOM     18  C   UNL d   1       9.852   0.032 -16.809  0.00  0.00     0.145 C 
BRANCH  18  19
ATOM     19  C   UNL d   1      10.330   0.973 -17.949  0.00  0.00     0.275 C 
BRANCH  19  20
ATOM     20  N   UNL d   1      11.538   0.478 -18.604  0.00  0.00     0.143 N 
ATOM     21  C   UNL d   1      12.009   1.481 -19.555  0.00  0.00     0.286 C 
ATOM     22  C   UNL d   1      11.289  -0.763 -19.330  0.00  0.00     0.286 C 
ENDBRANCH  19  20
ENDBRANCH  18  19
ENDBRANCH   1  18
TORSDOF 3
