REMARK  6 active torsions:
REMARK  status: ('A' for Active; 'I' for Inactive)
REMARK    1  A    between atoms: C_5  and  O_6 
REMARK    2  A    between atoms: O_6  and  C_7 
REMARK    3  A    between atoms: C_7  and  C_8 
REMARK    4  A    between atoms: C_8  and  N_9 
REMARK    5  A    between atoms: N_9  and  C_10 
REMARK    6  A    between atoms: C_10  and  C_11 
ROOT
ATOM      1  O   UNL d   1       9.377   5.979 -10.276  0.00  0.00    -0.327 OA
ENDROOT
BRANCH   1   2
ATOM      2  C   UNL d   1       9.703   6.633  -9.098  0.00  0.00     0.113 A 
ATOM      3  C   UNL d   1      10.918   7.359  -9.065  0.00  0.00     0.125 A 
ATOM      4  N   UNL d   1      11.856   7.554 -10.038  0.00  0.00    -0.200 NA
ATOM      5  C   UNL d   1      11.340   7.995  -7.860  0.00  0.00     0.105 A 
ATOM      6  C   UNL d   1      12.842   8.126  -9.413  0.00  0.00     0.301 A 
ATOM      7  O   UNL d   1      14.067   8.381  -9.928  0.00  0.00    -0.147 OA
ATOM      8  N   UNL d   1      12.616   8.439  -8.136  0.00  0.00    -0.202 NA
ATOM      9  C   UNL d   1      10.515   8.065  -6.729  0.00  0.00     0.021 A 
ATOM     10  C   UNL d   1       9.271   7.416  -6.814  0.00  0.00     0.004 A 
ATOM     11  C   UNL d   1       8.897   6.660  -7.934  0.00  0.00     0.026 A 
ENDBRANCH   1   2
BRANCH   1  12
ATOM     12  C   UNL d   1       8.102   5.356 -10.379  0.00  0.00     0.187 C 
BRANCH  12  13
ATOM     13  C   UNL d   1       7.721   5.167 -11.850  0.00  0.00     0.323 C 
BRANCH  13  14
ATOM     14  N   UNL d   1       6.407   4.541 -11.947  0.00  0.00     0.347 N 
BRANCH  14  15
ATOM     15  C   UNL d   1       6.025   4.231 -13.300  0.00  0.00     0.317 C 
BRANCH  15  16
ATOM     16  C   UNL d   1       6.323   2.792 -13.670  0.00  0.00     0.014 A 
ATOM     17  C   UNL d   1       7.450   2.478 -14.454  0.00  0.00    -0.002 A 
ATOM     18  C   UNL d   1       7.705   1.145 -14.825  0.00  0.00    -0.000 A 
ATOM     19  C   UNL d   1       6.838   0.120 -14.396  0.00  0.00    -0.000 A 
ATOM     20  C   UNL d   1       5.719   0.431 -13.598  0.00  0.00    -0.000 A 
ATOM     21  C   UNL d   1       5.467   1.767 -13.233  0.00  0.00    -0.002 A 
ENDBRANCH  15  16
ENDBRANCH  14  15
ENDBRANCH  13  14
ENDBRANCH  12  13
ENDBRANCH   1  12
TORSDOF 6
