REMARK  5 active torsions:
REMARK  status: ('A' for Active; 'I' for Inactive)
REMARK    1  A    between atoms: C_2  and  C_4 
REMARK    2  A    between atoms: C_7  and  S_8 
REMARK    3  A    between atoms: S_8  and  N_11 
REMARK    4  A    between atoms: N_11  and  C_12 
REMARK    5  A    between atoms: C_15  and  C_16 
ROOT
ATOM      1  N   UNL d   1       8.424   5.393 -10.792  0.00  0.00    -0.158 NA
ENDROOT
BRANCH   1   2
ATOM      2  S   UNL d   1       8.525   5.638 -12.507  0.00  0.00     0.285 S 
ATOM      3  O   UNL d   1       9.946   5.551 -12.875  0.00  0.00    -0.198 OA
ATOM      4  O   UNL d   1       7.718   6.821 -12.831  0.00  0.00    -0.198 OA
BRANCH   2   5
ATOM      5  C   UNL d   1       7.708   4.204 -13.139  0.00  0.00     0.105 A 
ATOM      6  C   UNL d   1       6.378   3.942 -12.765  0.00  0.00     0.013 A 
ATOM      7  C   UNL d   1       5.763   2.764 -13.238  0.00  0.00    -0.004 A 
ATOM      8  C   UNL d   1       6.462   1.879 -14.089  0.00  0.00    -0.022 A 
ATOM      9  C   UNL d   1       7.803   2.162 -14.446  0.00  0.00    -0.004 A 
ATOM     10  C   UNL d   1       8.425   3.328 -13.968  0.00  0.00     0.013 A 
BRANCH   8  11
ATOM     11  C   UNL d   1       5.780   0.616 -14.605  0.00  0.00     0.022 C 
ATOM     12  C   UNL d   1       6.089  -0.591 -13.710  0.00  0.00     0.005 C 
ATOM     13  C   UNL d   1       6.109   0.324 -16.080  0.00  0.00     0.005 C 
ENDBRANCH   8  11
ENDBRANCH   2   5
ENDBRANCH   1   2
BRANCH   1  14
ATOM     14  C   UNL d   1       9.128   6.053  -9.778  0.00  0.00     0.094 A 
ATOM     15  C   UNL d   1      10.236   6.879 -10.050  0.00  0.00     0.020 A 
ATOM     16  C   UNL d   1      10.965   7.481  -9.011  0.00  0.00    -0.003 A 
ATOM     17  C   UNL d   1      10.573   7.316  -7.660  0.00  0.00    -0.021 A 
ATOM     18  C   UNL d   1       9.442   6.498  -7.399  0.00  0.00    -0.003 A 
ATOM     19  C   UNL d   1       8.726   5.873  -8.440  0.00  0.00     0.020 A 
BRANCH  17  20
ATOM     20  C   UNL d   1      11.326   7.964  -6.514  0.00  0.00     0.055 A 
ATOM     21  C   UNL d   1      10.607   8.267  -5.245  0.00  0.00     0.042 A 
ATOM     22  C   UNL d   1      10.920   9.703  -4.873  0.00  0.00     0.290 C 
ATOM     23  C   UNL d   1      11.640   7.171  -5.255  0.00  0.00     0.009 A 
ATOM     24  N   UNL d   1      11.334  10.300  -6.135  0.00  0.00     0.339 N 
ATOM     25  C   UNL d   1      12.061   9.254  -6.849  0.00  0.00     0.294 C 
ENDBRANCH  17  20
ENDBRANCH   1  14
TORSDOF 5
