REMARK  3 active torsions:
REMARK  status: ('A' for Active; 'I' for Inactive)
REMARK    1  A    between atoms: C_2  and  C_3 
REMARK    2  A    between atoms: C_3  and  N_4 
REMARK    3  A    between atoms: C_8  and  C_9 
ROOT
ATOM      1  N   UNL d   1      10.033   6.731  -8.883  0.00  0.00     0.137 N 
ATOM      2  C   UNL d   1       9.824   8.085  -9.416  0.00  0.00     0.250 C 
ATOM      3  C   UNL d   1      11.052   8.954  -9.169  0.00  0.00     0.036 C 
ATOM      4  C   UNL d   1      11.291   9.068  -7.678  0.00  0.00     0.008 C 
ATOM      5  C   UNL d   1      11.341   7.688  -6.990  0.00  0.00     0.056 C 
ATOM      6  C   UNL d   1      10.139   6.821  -7.423  0.00  0.00     0.255 C 
ENDROOT
BRANCH   5   7
ATOM      7  C   UNL d   1      11.461   7.771  -5.465  0.00  0.00    -0.018 A 
ATOM      8  C   UNL d   1      11.617   9.005  -4.792  0.00  0.00     0.023 A 
ATOM      9  C   UNL d   1      11.822   9.039  -3.407  0.00  0.00     0.131 A 
ATOM     10  C   UNL d   1      11.916   7.863  -2.652  0.00  0.00     0.027 A 
ATOM     11  O   UNL d   1      11.861  10.245  -2.810  0.00  0.00    -0.190 OA
ATOM     12  C   UNL d   1      11.811   6.626  -3.311  0.00  0.00     0.002 A 
ATOM     13  C   UNL d   1      11.601   6.588  -4.708  0.00  0.00    -0.004 A 
ENDBRANCH   5   7
BRANCH   1  14
ATOM     14  C   UNL d   1       8.890   5.878  -9.182  0.00  0.00     0.250 C 
BRANCH  14  15
ATOM     15  C   UNL d   1       8.878   5.438 -10.658  0.00  0.00     0.035 C 
ATOM     16  C   UNL d   1       7.531   4.856 -11.082  0.00  0.00     0.002 C 
ENDBRANCH  14  15
ENDBRANCH   1  14
TORSDOF 3
