REMARK  2 active torsions:
REMARK  status: ('A' for Active; 'I' for Inactive)
REMARK    1  A    between atoms: C_2  and  C_3 
REMARK    2  A    between atoms: C_3  and  N_4 
ROOT
ATOM      1  N   UNL d   1       9.263   4.478 -13.537  0.00  0.00     0.143 N 
ATOM      2  C   UNL d   1       7.862   4.259 -13.894  0.00  0.00     0.277 C 
ATOM      3  C   UNL d   1       7.501   2.788 -14.089  0.00  0.00     0.007 A 
ATOM      4  C   UNL d   1       6.192   2.349 -13.819  0.00  0.00    -0.003 A 
ATOM      5  C   UNL d   1       5.866   0.979 -13.884  0.00  0.00    -0.000 A 
ATOM      6  C   UNL d   1       6.869   0.040 -14.183  0.00  0.00    -0.000 A 
ATOM      7  C   UNL d   1       8.179   0.477 -14.462  0.00  0.00    -0.004 A 
ATOM      8  C   UNL d   1       8.496   1.857 -14.478  0.00  0.00    -0.018 A 
ATOM      9  C   UNL d   1       9.928   2.349 -14.728  0.00  0.00     0.080 C 
ATOM     10  C   UNL d   1      10.642   1.957 -16.029  0.00  0.00     0.008 A 
ATOM     11  C   UNL d   1      10.216   0.893 -16.860  0.00  0.00     0.028 A 
ATOM     12  C   UNL d   1      10.928   0.563 -18.025  0.00  0.00     0.156 A 
ATOM     13  O   UNL d   1      10.519  -0.469 -18.813  0.00  0.00    -0.188 OA
ATOM     14  C   UNL d   1      12.065   1.300 -18.393  0.00  0.00     0.158 A 
ATOM     15  O   UNL d   1      12.750   0.966 -19.526  0.00  0.00    -0.188 OA
ATOM     16  C   UNL d   1      12.480   2.382 -17.599  0.00  0.00     0.053 A 
ATOM     17  C   UNL d   1      11.780   2.718 -16.426  0.00  0.00     0.093 A 
ATOM     18  O   UNL d   1      12.229   3.832 -15.744  0.00  0.00    -0.329 OA
ATOM     19  C   UNL d   1      11.555   4.226 -14.553  0.00  0.00     0.183 C 
ATOM     20  C   UNL d   1      10.060   3.882 -14.619  0.00  0.00     0.257 C 
ENDROOT
BRANCH   1  21
ATOM     21  C   UNL d   1       9.592   3.999 -12.193  0.00  0.00     0.251 C 
BRANCH  21  22
ATOM     22  C   UNL d   1       8.892   4.821 -11.088  0.00  0.00     0.035 C 
ATOM     23  C   UNL d   1       9.324   6.295 -11.075  0.00  0.00     0.002 C 
ENDBRANCH  21  22
ENDBRANCH   1  21
TORSDOF 2
