REMARK  3 active torsions:
REMARK  status: ('A' for Active; 'I' for Inactive)
REMARK    1  A    between atoms: C_3  and  C_4 
REMARK    2  A    between atoms: C_20  and  C_21 
REMARK    3  A    between atoms: C_24  and  N_25 
ROOT
ATOM      1  C   UNL d   1       9.280   4.771 -20.478  0.00  0.00     0.090 C 
ATOM      2  C   UNL d   1      10.173   4.706 -19.311  0.00  0.00    -0.087 C 
ATOM      3  C   UNL d   1      10.921   4.667 -18.351  0.00  0.00    -0.062 C 
ENDROOT
BRANCH   3   4
ATOM      4  C   UNL d   1      11.803   4.611 -17.156  0.00  0.00     0.179 C 
ATOM      5  C   UNL d   1      11.094   4.227 -15.816  0.00  0.00     0.037 C 
ATOM      6  C   UNL d   1      10.880   2.738 -15.972  0.00  0.00     0.007 C 
ATOM      7  C   UNL d   1       9.694   4.795 -15.645  0.00  0.00     0.012 C 
ATOM      8  C   UNL d   1      12.003   4.647 -14.611  0.00  0.00     0.004 C 
ATOM      9  C   UNL d   1      12.216   2.265 -16.516  0.00  0.00     0.004 C 
ATOM     10  C   UNL d   1      10.277   2.105 -14.701  0.00  0.00     0.019 C 
ATOM     11  C   UNL d   1      12.809   3.450 -17.303  0.00  0.00     0.043 C 
ATOM     12  C   UNL d   1       8.879   2.720 -14.466  0.00  0.00    -0.045 C 
ATOM     13  C   UNL d   1      10.286   0.572 -14.757  0.00  0.00     0.009 C 
ATOM     14  C   UNL d   1       7.744   1.985 -14.412  0.00  0.00    -0.033 C 
ATOM     15  C   UNL d   1       8.881   4.244 -14.418  0.00  0.00     0.040 C 
ATOM     16  C   UNL d   1       7.791   0.560 -14.732  0.00  0.00    -0.024 C 
ATOM     17  C   UNL d   1       6.392   2.586 -14.037  0.00  0.00     0.034 C 
ATOM     18  C   UNL d   1       9.045   0.043 -15.428  0.00  0.00     0.026 C 
ATOM     19  C   UNL d   1       6.718  -0.242 -14.489  0.00  0.00     0.033 C 
ATOM     20  C   UNL d   1       5.483   0.247 -13.855  0.00  0.00     0.173 C 
ATOM     21  O   UNL d   1       4.451  -0.415 -13.782  0.00  0.00    -0.291 OA
ATOM     22  C   UNL d   1       5.501   1.624 -13.238  0.00  0.00     0.074 C 
ATOM     23  O   UNL d   1      12.511   5.838 -17.064  0.00  0.00    -0.213 OA
BRANCH  15  24
ATOM     24  C   UNL d   1       9.092   4.851 -13.022  0.00  0.00    -0.019 C 
ATOM     25  C   UNL d   1       9.371   4.068 -11.898  0.00  0.00    -0.003 C 
ATOM     26  C   UNL d   1       9.457   4.643 -10.620  0.00  0.00     0.017 C 
ATOM     27  C   UNL d   1       9.402   6.038 -10.414  0.00  0.00     0.056 C 
ATOM     28  C   UNL d   1       9.082   6.833 -11.541  0.00  0.00     0.017 C 
ATOM     29  C   UNL d   1       8.871   6.231 -12.794  0.00  0.00    -0.003 C 
BRANCH  27  30
ATOM     30  N   UNL d   1       9.781   6.622  -9.183  0.00  0.00    -0.344 N 
ATOM     31  C   UNL d   1       9.776   5.803  -7.976  0.00  0.00     0.126 C 
ATOM     32  C   UNL d   1       9.915   8.067  -9.035  0.00  0.00     0.126 C 
ENDBRANCH  27  30
ENDBRANCH  15  24
ENDBRANCH   3   4
TORSDOF 3
