REMARK  8 active torsions:
REMARK  status: ('A' for Active; 'I' for Inactive)
REMARK    1  A    between atoms: C_2  and  C_3 
REMARK    2  A    between atoms: N_16  and  C_17 
REMARK    3  A    between atoms: C_17  and  C_18 
REMARK    4  A    between atoms: C_18  and  C_20 
REMARK    5  A    between atoms: C_20  and  N_21 
REMARK    6  A    between atoms: N_24  and  C_25 
REMARK    7  A    between atoms: C_25  and  C_26 
REMARK    8  A    between atoms: C_25  and  C_32 
ROOT
ATOM      1  C   UNL d   1      11.956   0.814 -18.507  0.00  0.00     0.208 C 
ATOM      2  O   UNL d   1      12.393  -0.486 -18.831  0.00  0.00    -0.219 OA
ENDROOT
BRANCH   1   3
ATOM      3  C   UNL d   1      11.257   0.723 -17.142  0.00  0.00     0.148 C 
BRANCH   3   4
ATOM      4  N   UNL d   1       9.815   0.496 -17.279  0.00  0.00    -0.247 N 
ATOM      5  C   UNL d   1       9.205  -0.548 -17.866  0.00  0.00     0.348 C 
ATOM      6  N   UNL d   1       7.889  -0.298 -17.897  0.00  0.00    -0.209 NA
ATOM      7  O   UNL d   1       9.735  -1.552 -18.344  0.00  0.00    -0.245 OA
ATOM      8  C   UNL d   1       7.508   0.903 -17.165  0.00  0.00     0.179 C 
ATOM      9  C   UNL d   1       6.716   1.821 -18.095  0.00  0.00     0.039 C 
ATOM     10  C   UNL d   1       8.941   1.449 -16.967  0.00  0.00     0.265 C 
ATOM     11  O   UNL d   1       9.256   2.615 -16.714  0.00  0.00    -0.269 OA
BRANCH   8  12
ATOM     12  C   UNL d   1       6.693   0.580 -15.870  0.00  0.00     0.006 A 
ATOM     13  C   UNL d   1       6.471   1.496 -14.784  0.00  0.00    -0.002 A 
ATOM     14  C   UNL d   1       5.668   1.137 -13.668  0.00  0.00    -0.000 A 
ATOM     15  C   UNL d   1       6.991   2.780 -14.758  0.00  0.00    -0.000 A 
ATOM     16  C   UNL d   1       5.055  -0.127 -13.639  0.00  0.00    -0.000 A 
ATOM     17  C   UNL d   1       5.446   2.041 -12.595  0.00  0.00    -0.000 A 
ATOM     18  C   UNL d   1       5.257  -1.035 -14.687  0.00  0.00    -0.000 A 
ATOM     19  C   UNL d   1       6.045  -0.682 -15.795  0.00  0.00    -0.002 A 
ATOM     20  C   UNL d   1       6.004   3.336 -12.606  0.00  0.00    -0.000 A 
ATOM     21  C   UNL d   1       6.797   3.694 -13.701  0.00  0.00    -0.000 A 
ENDBRANCH   8  12
ENDBRANCH   3   4
ENDBRANCH   1   3
BRANCH   1  22
ATOM     22  C   UNL d   1      13.184   1.748 -18.484  0.00  0.00     0.285 C 
BRANCH  22  23
ATOM     23  N   UNL d   1      12.915   3.181 -18.481  0.00  0.00     0.144 N 
ATOM     24  C   UNL d   1      12.222   3.608 -19.690  0.00  0.00     0.286 C 
ATOM     25  C   UNL d   1      11.940   5.109 -19.669  0.00  0.00     0.286 C 
ATOM     26  N   UNL d   1      13.173   5.899 -19.594  0.00  0.00     0.147 N 
ATOM     27  C   UNL d   1      13.894   5.470 -18.385  0.00  0.00     0.286 C 
ATOM     28  C   UNL d   1      14.160   3.950 -18.372  0.00  0.00     0.286 C 
BRANCH  26  29
ATOM     29  C   UNL d   1      12.902   7.346 -19.591  0.00  0.00     0.264 C 
BRANCH  29  30
ATOM     30  C   UNL d   1      11.973   7.781 -20.729  0.00  0.00     0.013 A 
ATOM     31  C   UNL d   1      12.309   7.541 -22.081  0.00  0.00    -0.002 A 
ATOM     32  C   UNL d   1      11.460   7.951 -23.120  0.00  0.00    -0.000 A 
ATOM     33  C   UNL d   1      10.237   8.574 -22.819  0.00  0.00    -0.000 A 
ATOM     34  C   UNL d   1       9.870   8.786 -21.474  0.00  0.00    -0.000 A 
ATOM     35  C   UNL d   1      10.735   8.390 -20.433  0.00  0.00    -0.002 A 
ENDBRANCH  29  30
BRANCH  29  36
ATOM     36  C   UNL d   1      14.187   8.177 -19.620  0.00  0.00     0.013 A 
ATOM     37  C   UNL d   1      14.409   9.150 -18.625  0.00  0.00    -0.002 A 
ATOM     38  C   UNL d   1      15.565   9.954 -18.663  0.00  0.00    -0.000 A 
ATOM     39  C   UNL d   1      16.509   9.789 -19.696  0.00  0.00    -0.000 A 
ATOM     40  C   UNL d   1      16.297   8.820 -20.691  0.00  0.00    -0.000 A 
ATOM     41  C   UNL d   1      15.156   8.005 -20.639  0.00  0.00    -0.002 A 
ENDBRANCH  29  36
ENDBRANCH  26  29
ENDBRANCH  22  23
ENDBRANCH   1  22
TORSDOF 8
