REMARK  9 active torsions:
REMARK  status: ('A' for Active; 'I' for Inactive)
REMARK    1  A    between atoms: O_2  and  C_3 
REMARK    2  A    between atoms: C_8  and  N_9 
REMARK    3  A    between atoms: N_12  and  C_13 
REMARK    4  A    between atoms: C_13  and  C_14 
REMARK    5  A    between atoms: C_14  and  C_15 
REMARK    6  A    between atoms: C_15  and  C_16 
REMARK    7  A    between atoms: C_16  and  N_17 
REMARK       I    between atoms: N_17  and  C_18 
REMARK    8  A    between atoms: C_18  and  C_20 
REMARK    9  A    between atoms: C_21  and  C_22 
ROOT
ATOM      1  N   UNL d   1       7.336   3.038 -14.447  0.00  0.00    -0.343 N 
ATOM      2  C   UNL d   1       6.350   3.905 -13.809  0.00  0.00     0.137 C 
ATOM      3  C   UNL d   1       6.871   4.322 -12.427  0.00  0.00     0.274 C 
ATOM      4  N   UNL d   1       8.182   4.968 -12.564  0.00  0.00     0.141 N 
ATOM      5  C   UNL d   1       9.143   4.029 -13.175  0.00  0.00     0.274 C 
ATOM      6  C   UNL d   1       8.666   3.605 -14.571  0.00  0.00     0.137 C 
ENDROOT
BRANCH   4   7
ATOM      7  C   UNL d   1       8.631   5.361 -11.231  0.00  0.00     0.251 C 
BRANCH   7   8
ATOM      8  C   UNL d   1       9.748   6.411 -11.321  0.00  0.00     0.037 C 
BRANCH   8   9
ATOM      9  C   UNL d   1      10.346   6.744  -9.957  0.00  0.00     0.029 C 
BRANCH   9  10
ATOM     10  C   UNL d   1       9.405   7.547  -9.043  0.00  0.00     0.129 C 
BRANCH  10  11
ATOM     11  N   UNL d   1       9.987   7.940  -7.773  0.00  0.00    -0.234 NA
ATOM     12  C   UNL d   1      10.699   7.156  -6.960  0.00  0.00     0.275 C 
ATOM     13  O   UNL d   1      11.008   6.000  -7.232  0.00  0.00    -0.266 OA
BRANCH  12  14
ATOM     14  C   UNL d   1      11.042   7.836  -5.729  0.00  0.00     0.064 C 
ATOM     15  C   UNL d   1      11.609   7.124  -4.739  0.00  0.00     0.030 C 
BRANCH  15  16
ATOM     16  C   UNL d   1      12.014   7.602  -3.471  0.00  0.00     0.100 A 
ATOM     17  O   UNL d   1      11.830   8.930  -3.246  0.00  0.00    -0.305 OA
ATOM     18  C   UNL d   1      12.259   9.158  -1.994  0.00  0.00     0.123 A 
ATOM     19  C   UNL d   1      12.722   8.013  -1.419  0.00  0.00     0.029 A 
ATOM     20  C   UNL d   1      12.571   6.989  -2.390  0.00  0.00     0.027 A 
ENDBRANCH  15  16
ENDBRANCH  12  14
ENDBRANCH  10  11
ENDBRANCH   9  10
ENDBRANCH   8   9
ENDBRANCH   7   8
ENDBRANCH   4   7
BRANCH   1  21
ATOM     21  C   UNL d   1       6.989   1.810 -15.030  0.00  0.00     0.079 A 
ATOM     22  C   UNL d   1       6.209   0.898 -14.283  0.00  0.00     0.110 A 
ATOM     23  C   UNL d   1       5.835  -0.344 -14.853  0.00  0.00     0.026 A 
ATOM     24  C   UNL d   1       6.227  -0.666 -16.163  0.00  0.00     0.002 A 
ATOM     25  C   UNL d   1       7.013   0.234 -16.905  0.00  0.00     0.002 A 
ATOM     26  C   UNL d   1       7.395   1.469 -16.339  0.00  0.00     0.019 A 
BRANCH  22  27
ATOM     27  O   UNL d   1       5.861   1.301 -13.016  0.00  0.00    -0.327 OA
ATOM     28  C   UNL d   1       5.461   0.332 -12.098  0.00  0.00     0.181 C 
ENDBRANCH  22  27
ENDBRANCH   1  21
TORSDOF 9
