REMARK  7 active torsions:
REMARK  status: ('A' for Active; 'I' for Inactive)
REMARK    1  A    between atoms: C_2  and  C_3 
REMARK       I    between atoms: C_2  and  N_8 
REMARK    2  A    between atoms: C_3  and  C_4 
REMARK    3  A    between atoms: N_8  and  C_9 
REMARK    4  A    between atoms: C_12  and  C_13 
REMARK    5  A    between atoms: C_13  and  C_14 
REMARK    6  A    between atoms: C_14  and  N_15 
REMARK    7  A    between atoms: C_18  and  C_19 
ROOT
ATOM      1  C   UNL d   1       8.717   5.464 -10.464  0.00  0.00     0.250 C 
ENDROOT
BRANCH   1   2
ATOM      2  C   UNL d   1       9.412   5.706 -11.822  0.00  0.00     0.035 C 
BRANCH   2   3
ATOM      3  C   UNL d   1       9.529   4.436 -12.681  0.00  0.00     0.002 C 
ATOM      4  C   UNL d   1       8.180   4.109 -13.329  0.00  0.00     0.002 C 
ATOM      5  C   UNL d   1       8.285   2.895 -14.249  0.00  0.00     0.024 C 
ATOM      6  C   UNL d   1       9.389   3.084 -15.314  0.00  0.00     0.106 C 
ATOM      7  C   UNL d   1      10.741   3.385 -14.654  0.00  0.00     0.024 C 
ATOM      8  C   UNL d   1      10.634   4.603 -13.739  0.00  0.00     0.002 C 
BRANCH   6   9
ATOM      9  N   UNL d   1       9.509   1.888 -16.133  0.00  0.00    -0.240 NA
ATOM     10  C   UNL d   1       8.716   1.600 -17.177  0.00  0.00     0.260 C 
ATOM     11  O   UNL d   1       7.851   2.367 -17.588  0.00  0.00    -0.270 OA
BRANCH  10  12
ATOM     12  C   UNL d   1       8.941   0.243 -17.846  0.00  0.00     0.193 C 
BRANCH  12  13
ATOM     13  C   UNL d   1       7.812  -0.176 -18.808  0.00  0.00     0.407 C 
ATOM     14  F   UNL d   1       8.106  -1.373 -19.313  0.00  0.00    -0.170 F 
ATOM     15  F   UNL d   1       6.649  -0.257 -18.160  0.00  0.00    -0.170 F 
ATOM     16  F   UNL d   1       7.684   0.689 -19.817  0.00  0.00    -0.170 F 
ENDBRANCH  12  13
ENDBRANCH  10  12
ENDBRANCH   6   9
ENDBRANCH   2   3
ENDBRANCH   1   2
BRANCH   1  17
ATOM     17  N   UNL d   1       9.186   6.350  -9.394  0.00  0.00     0.137 N 
ATOM     18  C   UNL d   1       8.629   5.856  -8.135  0.00  0.00     0.251 C 
ATOM     19  C   UNL d   1       8.989   6.802  -6.977  0.00  0.00     0.040 C 
ATOM     20  C   UNL d   1      10.512   6.964  -6.853  0.00  0.00     0.026 C 
ATOM     21  C   UNL d   1      11.100   7.355  -8.209  0.00  0.00     0.040 C 
ATOM     22  C   UNL d   1      10.648   6.389  -9.290  0.00  0.00     0.251 C 
BRANCH  20  23
ATOM     23  C   UNL d   1      10.897   7.990  -5.801  0.00  0.00    -0.024 A 
ATOM     24  C   UNL d   1      11.502   7.633  -4.583  0.00  0.00    -0.001 A 
ATOM     25  C   UNL d   1      11.827   8.558  -3.603  0.00  0.00     0.090 A 
ATOM     26  C   UNL d   1      11.828   6.282  -4.089  0.00  0.00     0.061 C 
ATOM     27  C   UNL d   1      11.554   9.913  -3.794  0.00  0.00     0.024 A 
ATOM     28  O   UNL d   1      12.369   7.993  -2.478  0.00  0.00    -0.331 OA
ATOM     29  C   UNL d   1      10.995  10.315  -5.029  0.00  0.00     0.002 A 
ATOM     30  C   UNL d   1      10.659   9.367  -6.017  0.00  0.00    -0.004 A 
ATOM     31  C   UNL d   1      12.515   6.590  -2.742  0.00  0.00     0.154 C 
ENDBRANCH  20  23
ENDBRANCH   1  17
TORSDOF 7
