REMARK  8 active torsions:
REMARK  status: ('A' for Active; 'I' for Inactive)
REMARK    1  A    between atoms: O_2  and  C_3 
REMARK    2  A    between atoms: C_8  and  N_9 
REMARK    3  A    between atoms: N_12  and  C_13 
REMARK    4  A    between atoms: C_13  and  C_14 
REMARK    5  A    between atoms: C_14  and  C_16 
REMARK    6  A    between atoms: C_16  and  C_17 
REMARK    7  A    between atoms: C_17  and  N_18 
REMARK       I    between atoms: N_18  and  C_19 
REMARK    8  A    between atoms: C_19  and  C_21 
ROOT
ATOM      1  C   UNL d   1       8.325   5.301 -12.490  0.00  0.00     0.196 C 
ATOM      2  F   UNL d   1       8.174   6.521 -13.003  0.00  0.00    -0.235 F 
ENDROOT
BRANCH   1   3
ATOM      3  C   UNL d   1       8.828   4.400 -13.641  0.00  0.00     0.285 C 
BRANCH   3   4
ATOM      4  N   UNL d   1       8.236   3.072 -13.647  0.00  0.00     0.144 N 
ATOM      5  C   UNL d   1       8.879   2.240 -14.682  0.00  0.00     0.274 C 
ATOM      6  C   UNL d   1       8.323   0.799 -14.679  0.00  0.00     0.137 C 
ATOM      7  N   UNL d   1       6.865   0.822 -14.800  0.00  0.00    -0.343 N 
ATOM      8  C   UNL d   1       6.198   1.694 -13.840  0.00  0.00     0.137 C 
ATOM      9  C   UNL d   1       6.785   3.098 -13.883  0.00  0.00     0.274 C 
BRANCH   7  10
ATOM     10  C   UNL d   1       6.162   0.088 -15.759  0.00  0.00     0.079 A 
ATOM     11  C   UNL d   1       4.895  -0.526 -15.461  0.00  0.00     0.110 A 
ATOM     12  C   UNL d   1       4.211  -1.223 -16.481  0.00  0.00     0.026 A 
ATOM     13  C   UNL d   1       4.753  -1.352 -17.769  0.00  0.00     0.002 A 
ATOM     14  C   UNL d   1       6.001  -0.773 -18.062  0.00  0.00     0.002 A 
ATOM     15  C   UNL d   1       6.686  -0.056 -17.071  0.00  0.00     0.019 A 
BRANCH  11  16
ATOM     16  O   UNL d   1       4.424  -0.429 -14.167  0.00  0.00    -0.327 OA
ATOM     17  C   UNL d   1       3.099  -0.840 -13.906  0.00  0.00     0.181 C 
ENDBRANCH  11  16
ENDBRANCH   7  10
ENDBRANCH   3   4
ENDBRANCH   1   3
BRANCH   1  18
ATOM     18  C   UNL d   1       9.304   5.367 -11.322  0.00  0.00     0.064 C 
BRANCH  18  19
ATOM     19  C   UNL d   1       8.871   6.385 -10.281  0.00  0.00     0.132 C 
BRANCH  19  20
ATOM     20  N   UNL d   1       9.840   6.516  -9.197  0.00  0.00    -0.233 NA
ATOM     21  C   UNL d   1      10.306   7.697  -8.763  0.00  0.00     0.298 C 
ATOM     22  O   UNL d   1      10.262   8.736  -9.428  0.00  0.00    -0.263 OA
BRANCH  21  23
ATOM     23  C   UNL d   1      10.753   7.720  -7.359  0.00  0.00     0.157 A 
ATOM     24  O   UNL d   1      10.847   8.936  -6.726  0.00  0.00    -0.302 OA
ATOM     25  C   UNL d   1      11.241   8.692  -5.428  0.00  0.00     0.100 A 
ATOM     26  C   UNL d   1      11.421   7.303  -5.243  0.00  0.00     0.025 A 
ATOM     27  C   UNL d   1      11.453   9.635  -4.415  0.00  0.00     0.025 A 
ATOM     28  C   UNL d   1      11.114   6.699  -6.505  0.00  0.00     0.032 A 
ATOM     29  C   UNL d   1      11.846   6.877  -3.961  0.00  0.00     0.002 A 
ATOM     30  C   UNL d   1      12.089   7.809  -2.929  0.00  0.00     0.000 A 
ATOM     31  C   UNL d   1      11.893   9.188  -3.155  0.00  0.00     0.002 A 
ENDBRANCH  21  23
ENDBRANCH  19  20
ENDBRANCH  18  19
ENDBRANCH   1  18
TORSDOF 8
