REMARK  14 active torsions:
REMARK  status: ('A' for Active; 'I' for Inactive)
REMARK    1  A    between atoms: O_2  and  C_3 
REMARK    2  A    between atoms: C_6  and  C_7 
REMARK    3  A    between atoms: C_12  and  N_13 
REMARK    4  A    between atoms: N_16  and  C_17 
REMARK    5  A    between atoms: C_17  and  C_18 
REMARK    6  A    between atoms: C_18  and  C_19 
REMARK    7  A    between atoms: C_19  and  C_20 
REMARK    8  A    between atoms: C_20  and  C_21 
REMARK    9  A    between atoms: C_21  and  C_22 
REMARK       I    between atoms: C_22  and  N_24 
REMARK   10  A    between atoms: N_24  and  C_25 
REMARK   11  A    between atoms: C_25  and  C_26 
REMARK   12  A    between atoms: C_29  and  O_30 
REMARK   13  A    between atoms: O_30  and  C_31 
REMARK   14  A    between atoms: C_31  and  C_32 
ROOT
ATOM      1  N   UNL d   1      10.979   1.128 -18.579  0.00  0.00    -0.344 N 
ATOM      2  C   UNL d   1       9.719   0.683 -19.158  0.00  0.00     0.137 C 
ATOM      3  C   UNL d   1       8.769   0.179 -18.051  0.00  0.00     0.274 C 
ATOM      4  N   UNL d   1       8.581   1.193 -17.007  0.00  0.00     0.141 N 
ATOM      5  C   UNL d   1       9.885   1.543 -16.424  0.00  0.00     0.274 C 
ATOM      6  C   UNL d   1      10.844   2.083 -17.491  0.00  0.00     0.137 C 
ENDROOT
BRANCH   4   7
ATOM      7  C   UNL d   1       7.681   0.659 -15.989  0.00  0.00     0.250 C 
BRANCH   7   8
ATOM      8  C   UNL d   1       7.237   1.784 -15.037  0.00  0.00     0.035 C 
BRANCH   8   9
ATOM      9  C   UNL d   1       6.243   1.356 -13.959  0.00  0.00     0.003 C 
BRANCH   9  10
ATOM     10  C   UNL d   1       5.687   2.539 -13.142  0.00  0.00     0.010 C 
BRANCH  10  11
ATOM     11  C   UNL d   1       6.191   3.974 -13.477  0.00  0.00     0.090 C 
BRANCH  11  12
ATOM     12  C   UNL d   1       7.224   4.461 -12.458  0.00  0.00     0.252 C 
ATOM     13  O   UNL d   1       7.153   4.090 -11.285  0.00  0.00    -0.271 OA
ATOM     14  N   UNL d   1       8.241   5.198 -12.892  0.00  0.00    -0.233 NA
BRANCH  14  15
ATOM     15  C   UNL d   1       9.554   5.245 -12.275  0.00  0.00     0.155 C 
BRANCH  15  16
ATOM     16  C   UNL d   1       9.601   6.115 -11.038  0.00  0.00     0.002 A 
ATOM     17  C   UNL d   1       9.441   5.541  -9.764  0.00  0.00    -0.000 A 
ATOM     18  C   UNL d   1       9.471   6.351  -8.618  0.00  0.00     0.024 A 
ATOM     19  C   UNL d   1       9.694   7.749  -8.738  0.00  0.00     0.094 A 
ATOM     20  C   UNL d   1       9.881   8.308 -10.015  0.00  0.00     0.024 A 
ATOM     21  C   UNL d   1       9.793   7.505 -11.162  0.00  0.00    -0.000 A 
BRANCH  19  22
ATOM     22  O   UNL d   1       9.732   8.622  -7.675  0.00  0.00    -0.328 OA
BRANCH  22  23
ATOM     23  C   UNL d   1       9.847   8.084  -6.368  0.00  0.00     0.184 C 
BRANCH  23  24
ATOM     24  C   UNL d   1      11.255   7.496  -6.175  0.00  0.00     0.215 C 
ATOM     25  O   UNL d   1      11.437   7.149  -4.821  0.00  0.00    -0.218 OA
ENDBRANCH  23  24
ENDBRANCH  22  23
ENDBRANCH  19  22
ENDBRANCH  15  16
ENDBRANCH  14  15
ENDBRANCH  11  12
ENDBRANCH  10  11
ENDBRANCH   9  10
ENDBRANCH   8   9
ENDBRANCH   7   8
ENDBRANCH   4   7
BRANCH   1  26
ATOM     26  C   UNL d   1      12.226   0.686 -19.039  0.00  0.00     0.056 A 
ATOM     27  C   UNL d   1      13.286   1.578 -19.334  0.00  0.00     0.015 A 
ATOM     28  C   UNL d   1      14.528   1.056 -19.778  0.00  0.00     0.001 A 
ATOM     29  C   UNL d   1      14.706  -0.328 -19.934  0.00  0.00     0.000 A 
ATOM     30  C   UNL d   1      13.660  -1.210 -19.651  0.00  0.00     0.002 A 
ATOM     31  C   UNL d   1      12.415  -0.705 -19.208  0.00  0.00     0.017 A 
BRANCH  27  32
ATOM     32  C   UNL d   1      13.145   3.042 -19.261  0.00  0.00     0.002 A 
ATOM     33  C   UNL d   1      14.019   3.836 -18.492  0.00  0.00     0.002 A 
ATOM     34  C   UNL d   1      13.840   5.236 -18.416  0.00  0.00     0.024 A 
ATOM     35  C   UNL d   1      12.779   5.860 -19.110  0.00  0.00     0.094 A 
ATOM     36  C   UNL d   1      11.907   5.057 -19.884  0.00  0.00     0.024 A 
ATOM     37  C   UNL d   1      12.098   3.672 -19.966  0.00  0.00     0.002 A 
BRANCH  35  38
ATOM     38  O   UNL d   1      12.633   7.228 -19.002  0.00  0.00    -0.328 OA
ATOM     39  C   UNL d   1      11.565   7.822 -19.726  0.00  0.00     0.181 C 
ENDBRANCH  35  38
ENDBRANCH  27  32
ENDBRANCH   1  26
TORSDOF 14
