REMARK  8 active torsions:
REMARK  status: ('A' for Active; 'I' for Inactive)
REMARK    1  A    between atoms: O_2  and  C_3 
REMARK    2  A    between atoms: C_8  and  N_9 
REMARK    3  A    between atoms: N_12  and  C_13 
REMARK    4  A    between atoms: C_13  and  C_14 
REMARK    5  A    between atoms: C_14  and  C_15 
REMARK    6  A    between atoms: C_15  and  N_16 
REMARK       I    between atoms: N_16  and  C_17 
REMARK    7  A    between atoms: C_17  and  C_19 
REMARK    8  A    between atoms: C_22  and  N_23 
ROOT
ATOM      1  C   UNL d   1       9.187   4.824 -12.091  0.00  0.00     0.062 C 
ENDROOT
BRANCH   1   2
ATOM      2  C   UNL d   1       8.727   4.526 -13.532  0.00  0.00     0.253 C 
BRANCH   2   3
ATOM      3  N   UNL d   1       9.224   3.231 -14.001  0.00  0.00     0.141 N 
ATOM      4  C   UNL d   1      10.661   3.303 -14.308  0.00  0.00     0.274 C 
ATOM      5  C   UNL d   1      11.177   1.943 -14.799  0.00  0.00     0.137 C 
ATOM      6  N   UNL d   1      10.416   1.501 -15.954  0.00  0.00    -0.343 N 
ATOM      7  C   UNL d   1       8.973   1.502 -15.756  0.00  0.00     0.137 C 
ATOM      8  C   UNL d   1       8.508   2.868 -15.229  0.00  0.00     0.274 C 
BRANCH   6   9
ATOM      9  C   UNL d   1      11.037   1.099 -17.155  0.00  0.00     0.079 A 
ATOM     10  C   UNL d   1      10.536   0.006 -17.910  0.00  0.00     0.110 A 
ATOM     11  C   UNL d   1      11.182  -0.353 -19.120  0.00  0.00     0.026 A 
ATOM     12  C   UNL d   1      12.324   0.339 -19.564  0.00  0.00     0.002 A 
ATOM     13  C   UNL d   1      12.828   1.409 -18.807  0.00  0.00     0.002 A 
ATOM     14  C   UNL d   1      12.183   1.789 -17.616  0.00  0.00     0.019 A 
BRANCH  10  15
ATOM     15  O   UNL d   1       9.447  -0.682 -17.410  0.00  0.00    -0.327 OA
ATOM     16  C   UNL d   1       8.788  -1.607 -18.251  0.00  0.00     0.181 C 
ENDBRANCH  10  15
ENDBRANCH   6   9
ENDBRANCH   2   3
ENDBRANCH   1   2
BRANCH   1  17
ATOM     17  C   UNL d   1       8.870   6.258 -11.653  0.00  0.00     0.131 C 
BRANCH  17  18
ATOM     18  N   UNL d   1       9.471   6.540 -10.355  0.00  0.00    -0.234 NA
ATOM     19  C   UNL d   1       9.874   7.751  -9.938  0.00  0.00     0.275 C 
ATOM     20  O   UNL d   1       9.883   8.752 -10.653  0.00  0.00    -0.266 OA
BRANCH  19  21
ATOM     21  C   UNL d   1      10.348   7.814  -8.514  0.00  0.00     0.058 A 
ATOM     22  C   UNL d   1       9.783   6.971  -7.529  0.00  0.00     0.006 A 
ATOM     23  C   UNL d   1      10.207   7.057  -6.191  0.00  0.00     0.018 A 
ATOM     24  C   UNL d   1      11.184   8.001  -5.810  0.00  0.00     0.066 A 
ATOM     25  C   UNL d   1      11.727   8.865  -6.784  0.00  0.00     0.018 A 
ATOM     26  C   UNL d   1      11.312   8.771  -8.128  0.00  0.00     0.006 A 
BRANCH  24  27
ATOM     27  N   UNL d   1      11.612   8.102  -4.465  0.00  0.00    -0.287 N 
ATOM     28  C   UNL d   1      11.860   7.004  -3.735  0.00  0.00     0.183 A 
ATOM     29  N   UNL d   1      12.258   7.279  -2.500  0.00  0.00    -0.222 NA
ATOM     30  C   UNL d   1      12.262   8.675  -2.441  0.00  0.00     0.120 A 
ATOM     31  C   UNL d   1      11.862   9.196  -3.653  0.00  0.00     0.102 A 
ENDBRANCH  24  27
ENDBRANCH  19  21
ENDBRANCH  17  18
ENDBRANCH   1  17
TORSDOF 8
