REMARK  10 active torsions:
REMARK  status: ('A' for Active; 'I' for Inactive)
REMARK    1  A    between atoms: C_2  and  O_3 
REMARK    2  A    between atoms: O_3  and  C_4 
REMARK    3  A    between atoms: C_4  and  C_6 
REMARK    4  A    between atoms: C_6  and  C_7 
REMARK    5  A    between atoms: C_6  and  N_15 
REMARK    6  A    between atoms: C_7  and  C_8 
REMARK    7  A    between atoms: C_8  and  C_9 
REMARK    8  A    between atoms: N_15  and  CA_16 
REMARK    9  A    between atoms: CA_16  and  C_18 
REMARK       I    between atoms: C_18  and  N_20 
REMARK   10  A    between atoms: C_29  and  C_30 
ROOT
ATOM      1  CA  ALA d   1       9.112   6.001  -9.978  0.00  0.00     0.335 C 
ATOM      2  CB  ALA d   1       7.878   5.955  -9.113  0.00  0.00     0.049 C 
ENDROOT
BRANCH   1   3
ATOM      3  N   ALA d   1       9.059   4.919 -10.982  0.00  0.00     0.355 N 
BRANCH   3   4
ATOM      4  C   UNK d   0       9.036   5.393 -12.353  0.00  0.00     0.342 C 
BRANCH   4   5
ATOM      5  C   UNK d   0       7.591   5.647 -12.784  0.00  0.00     0.306 C 
ATOM      6  O   UNK d   0       6.870   4.792 -13.306  0.00  0.00    -0.262 OA
BRANCH   5   7
ATOM      7  O   UNK d   0       7.235   6.915 -12.511  0.00  0.00    -0.300 OA
BRANCH   7   8
ATOM      8  C   UNK d   0       6.037   7.457 -13.064  0.00  0.00     0.152 C 
ATOM      9  C   UNK d   0       5.333   8.384 -12.104  0.00  0.00     0.035 C 
ENDBRANCH   7   8
ENDBRANCH   5   7
ENDBRANCH   4   5
BRANCH   4  10
ATOM     10  C   UNK d   0       9.752   4.385 -13.273  0.00  0.00     0.051 C 
BRANCH  10  11
ATOM     11  C   UNK d   0       9.941   4.872 -14.721  0.00  0.00     0.029 C 
BRANCH  11  12
ATOM     12  C   UNK d   0      10.448   3.768 -15.623  0.00  0.00    -0.022 A 
ATOM     13  C   UNK d   0       9.584   2.721 -16.005  0.00  0.00    -0.004 A 
ATOM     14  C   UNK d   0      10.054   1.683 -16.831  0.00  0.00    -0.000 A 
ATOM     15  C   UNK d   0      11.389   1.691 -17.281  0.00  0.00    -0.000 A 
ATOM     16  C   UNK d   0      12.251   2.740 -16.906  0.00  0.00    -0.000 A 
ATOM     17  C   UNK d   0      11.783   3.777 -16.078  0.00  0.00    -0.004 A 
ENDBRANCH  11  12
ENDBRANCH  10  11
ENDBRANCH   4  10
ENDBRANCH   3   4
ENDBRANCH   1   3
BRANCH   1  18
ATOM     18  C   ALA d   1      10.174   5.641  -8.959  0.00  0.00     0.268 C 
ATOM     19  O   ALA d   1      10.229   4.433  -8.738  0.00  0.00    -0.270 OA
ATOM     20  N   UNK d   2      10.905   6.623  -8.342  0.00  0.00    -0.306 N 
ATOM     21  C   UNK d   2      11.062   8.002  -8.843  0.00  0.00     0.176 C 
ATOM     22  C   UNK d   2      11.604   6.417  -7.042  0.00  0.00     0.131 C 
ATOM     23  C   UNK d   2      10.390   8.967  -7.853  0.00  0.00     0.059 C 
ATOM     24  C   UNK d   2      10.830   8.770  -6.411  0.00  0.00    -0.022 A 
ATOM     25  C   UNK d   2      11.409   7.538  -6.016  0.00  0.00    -0.004 A 
ATOM     26  C   UNK d   2      10.692   9.817  -5.483  0.00  0.00    -0.004 A 
ATOM     27  C   UNK d   2      11.850   7.364  -4.685  0.00  0.00    -0.003 A 
ATOM     28  C   UNK d   2      11.710   8.411  -3.754  0.00  0.00    -0.000 A 
ATOM     29  C   UNK d   2      11.124   9.629  -4.157  0.00  0.00    -0.000 A 
BRANCH  21  30
ATOM     30  C   UNK d   2      12.549   8.345  -9.042  0.00  0.00     0.207 C 
ATOM     31  O   UNK d   2      13.222   8.781  -8.132  0.00  0.00    -0.646 OA
ATOM     32  O   UNK d   2      13.110   8.073 -10.253  0.00  0.00    -0.646 OA
ENDBRANCH  21  30
ENDBRANCH   1  18
TORSDOF 10
