REMARK  4 active torsions:
REMARK  status: ('A' for Active; 'I' for Inactive)
REMARK    1  A    between atoms: C_2  and  C_3 
REMARK    2  A    between atoms: C_3  and  N_4 
REMARK    3  A    between atoms: C_11  and  C_12 
REMARK    4  A    between atoms: C_12  and  O_14 
ROOT
ATOM      1  N   UNL d   1       8.177   4.885 -13.191  0.00  0.00     0.140 N 
ATOM      2  C   UNL d   1       9.109   5.106 -14.296  0.00  0.00     0.282 C 
ATOM      3  C   UNL d   1       9.775   3.832 -14.844  0.00  0.00     0.178 C 
ATOM      4  O   UNL d   1       8.732   2.952 -15.259  0.00  0.00    -0.348 OA
ATOM      5  C   UNL d   1       7.892   2.593 -14.173  0.00  0.00     0.169 C 
ATOM      6  C   UNL d   1       6.871   1.525 -14.528  0.00  0.00     0.003 A 
ATOM      7  C   UNL d   1       7.051   0.732 -15.681  0.00  0.00     0.003 A 
ATOM      8  C   UNL d   1       6.074  -0.248 -16.044  0.00  0.00     0.063 A 
ATOM      9  C   UNL d   1       4.963  -0.439 -15.203  0.00  0.00     0.005 A 
ATOM     10  C   UNL d   1       4.805   0.350 -14.035  0.00  0.00    -0.004 A 
ATOM     11  C   UNL d   1       5.738   1.351 -13.705  0.00  0.00    -0.024 A 
ATOM     12  C   UNL d   1       5.488   2.271 -12.513  0.00  0.00     0.028 C 
ATOM     13  C   UNL d   1       5.904   3.724 -12.793  0.00  0.00     0.041 C 
ATOM     14  C   UNL d   1       7.207   3.886 -13.625  0.00  0.00     0.251 C 
ENDROOT
BRANCH   8  15
ATOM     15  C   UNL d   1       6.221  -1.065 -17.286  0.00  0.00     0.296 C 
ATOM     16  O   UNL d   1       5.388  -1.912 -17.636  0.00  0.00    -0.259 OA
BRANCH  15  17
ATOM     17  O   UNL d   1       7.349  -0.787 -17.945  0.00  0.00    -0.296 OA
ATOM     18  C   UNL d   1       7.699  -1.512 -19.103  0.00  0.00     0.185 C 
ENDBRANCH  15  17
ENDBRANCH   8  15
BRANCH   1  19
ATOM     19  C   UNL d   1       8.899   4.577 -11.947  0.00  0.00     0.250 C 
BRANCH  19  20
ATOM     20  C   UNL d   1       8.124   4.899 -10.660  0.00  0.00     0.035 C 
ATOM     21  C   UNL d   1       9.021   4.983  -9.416  0.00  0.00     0.002 C 
ENDBRANCH  19  20
ENDBRANCH   1  19
TORSDOF 4
