REMARK  2 active torsions:
REMARK  status: ('A' for Active; 'I' for Inactive)
REMARK    1  A    between atoms: N_2  and  C_4 
REMARK    2  A    between atoms: C_7  and  C_8 
ROOT
ATOM      1  C   UNL d   1       8.113   5.446 -11.679  0.00  0.00    -0.004 A 
ATOM      2  C   UNL d   1       6.803   5.934 -11.815  0.00  0.00    -0.000 A 
ATOM      3  C   UNL d   1       5.994   5.463 -12.833  0.00  0.00    -0.000 A 
ATOM      4  C   UNL d   1       6.474   4.470 -13.700  0.00  0.00    -0.004 A 
ATOM      5  C   UNL d   1       7.816   4.019 -13.647  0.00  0.00    -0.021 A 
ATOM      6  C   UNL d   1       8.627   4.506 -12.611  0.00  0.00    -0.026 A 
ATOM      7  C   UNL d   1      10.052   4.036 -12.540  0.00  0.00     0.028 C 
ATOM      8  C   UNL d   1      10.676   3.786 -13.916  0.00  0.00     0.039 C 
ATOM      9  C   UNL d   1       9.876   2.713 -14.673  0.00  0.00     0.228 C 
ATOM     10  C   UNL d   1       8.356   3.089 -14.774  0.00  0.00     0.075 C 
ATOM     11  C   UNL d   1       7.515   1.815 -14.836  0.00  0.00    -0.018 A 
ATOM     12  C   UNL d   1       6.617   1.496 -13.788  0.00  0.00     0.024 A 
ATOM     13  C   UNL d   1       5.853   0.333 -13.813  0.00  0.00     0.141 A 
ATOM     14  O   UNL d   1       5.042   0.075 -12.758  0.00  0.00    -0.189 OA
ATOM     15  C   UNL d   1       5.966  -0.546 -14.910  0.00  0.00     0.083 A 
ATOM     16 CL   UNL d   1       5.095  -2.037 -15.032  0.00  0.00    -0.080 Cl
ATOM     17  C   UNL d   1       6.826  -0.223 -15.963  0.00  0.00     0.009 A 
ATOM     18  C   UNL d   1       7.619   0.932 -15.933  0.00  0.00    -0.023 A 
ATOM     19  C   UNL d   1       8.561   1.173 -17.071  0.00  0.00     0.061 C 
ATOM     20  C   UNL d   1      10.036   1.182 -16.622  0.00  0.00     0.255 C 
ATOM     21  N   UNL d   1      10.496   2.418 -15.983  0.00  0.00     0.138 N 
ATOM     22  C   UNL d   1      10.575   3.519 -16.956  0.00  0.00     0.285 C 
ENDROOT
BRANCH   1  23
ATOM     23  C   UNL d   1       8.888   5.910 -10.530  0.00  0.00    -0.000 A 
ATOM     24  C   UNL d   1       8.683   5.287  -9.292  0.00  0.00     0.002 A 
ATOM     25  C   UNL d   1       9.388   5.720  -8.162  0.00  0.00     0.017 A 
ATOM     26  C   UNL d   1      10.308   6.791  -8.244  0.00  0.00     0.056 A 
ATOM     27  C   UNL d   1      10.492   7.420  -9.497  0.00  0.00     0.017 A 
ATOM     28  C   UNL d   1       9.787   6.989 -10.636  0.00  0.00     0.002 A 
BRANCH  26  29
ATOM     29  N   UNL d   1      11.029   7.223  -7.109  0.00  0.00    -0.344 N 
ATOM     30  C   UNL d   1      11.288   6.316  -6.008  0.00  0.00     0.126 C 
ATOM     31  C   UNL d   1      11.514   8.588  -7.022  0.00  0.00     0.126 C 
ENDBRANCH  26  29
ENDBRANCH   1  23
TORSDOF 2
