REMARK  4 active torsions:
REMARK  status: ('A' for Active; 'I' for Inactive)
REMARK    1  A    between atoms: C_6  and  C_7 
REMARK    2  A    between atoms: C_11  and  C_12 
REMARK    3  A    between atoms: C_12  and  N_13 
REMARK    4  A    between atoms: N_16  and  C_17 
ROOT
ATOM      1  N   UNL d   1       9.670   0.821 -14.999  0.00  0.00    -0.191 NA
ATOM      2  C   UNL d   1       9.962   1.928 -14.821  0.00  0.00     0.111 C 
ATOM      3  C   UNL d   1      10.295   3.300 -14.632  0.00  0.00     0.138 C 
ATOM      4  C   UNL d   1      11.568   3.810 -15.011  0.00  0.00     0.111 C 
ATOM      5  N   UNL d   1      12.593   4.266 -15.298  0.00  0.00    -0.191 NA
ATOM      6  C   UNL d   1       9.412   4.171 -14.099  0.00  0.00     0.040 C 
ENDROOT
BRANCH   6   7
ATOM      7  C   UNL d   1       8.059   4.023 -13.652  0.00  0.00     0.081 A 
ATOM      8  C   UNL d   1       7.288   4.820 -12.836  0.00  0.00     0.030 A 
ATOM      9  C   UNL d   1       6.026   4.173 -12.689  0.00  0.00     0.020 A 
ATOM     10  C   UNL d   1       6.052   3.003 -13.393  0.00  0.00     0.099 A 
ATOM     11  N   UNL d   1       7.291   2.925 -13.987  0.00  0.00    -0.244 NA
BRANCH   8  12
ATOM     12  C   UNL d   1       7.688   6.144 -12.234  0.00  0.00     0.278 C 
BRANCH  12  13
ATOM     13  N   UNL d   1       8.863   6.058 -11.366  0.00  0.00     0.145 N 
ATOM     14  C   UNL d   1       9.446   7.400 -11.222  0.00  0.00     0.275 C 
ATOM     15  C   UNL d   1      10.643   7.375 -10.260  0.00  0.00     0.137 C 
ATOM     16  N   UNL d   1      10.257   6.809  -8.980  0.00  0.00    -0.344 N 
ATOM     17  C   UNL d   1       9.598   5.504  -9.051  0.00  0.00     0.137 C 
ATOM     18  C   UNL d   1       8.430   5.575 -10.043  0.00  0.00     0.275 C 
BRANCH  16  19
ATOM     19  C   UNL d   1      10.553   7.473  -7.773  0.00  0.00     0.056 A 
ATOM     20  C   UNL d   1      10.630   8.884  -7.707  0.00  0.00     0.018 A 
ATOM     21  C   UNL d   1      10.932   9.534  -6.494  0.00  0.00     0.013 A 
ATOM     22  C   UNL d   1      11.147   8.788  -5.324  0.00  0.00     0.058 A 
ATOM     23  C   UNL d   1      11.068   7.385  -5.372  0.00  0.00     0.013 A 
ATOM     24 CL   UNL d   1      11.483   9.582  -3.840  0.00  0.00    -0.082 Cl
ATOM     25  C   UNL d   1      10.794   6.738  -6.593  0.00  0.00     0.018 A 
ENDBRANCH  16  19
ENDBRANCH  12  13
ENDBRANCH   8  12
ENDBRANCH   6   7
TORSDOF 4
