REMARK  6 active torsions:
REMARK  status: ('A' for Active; 'I' for Inactive)
REMARK    1  A    between atoms: O_2  and  C_3 
REMARK    2  A    between atoms: C_12  and  C_13 
REMARK    3  A    between atoms: C_13  and  C_14 
REMARK    4  A    between atoms: C_14  and  C_15 
REMARK    5  A    between atoms: C_15  and  N_16 
REMARK    6  A    between atoms: N_19  and  C_20 
ROOT
ATOM      1  C   UNL d   1       9.021   6.067 -11.639  0.00  0.00     0.036 C 
ENDROOT
BRANCH   1   2
ATOM      2  C   UNL d   1       9.376   5.715 -13.102  0.00  0.00     0.006 C 
BRANCH   2   3
ATOM      3  C   UNL d   1       9.795   4.240 -13.320  0.00  0.00     0.022 C 
ATOM      4  C   UNL d   1       8.621   3.369 -13.791  0.00  0.00    -0.025 A 
ATOM      5  C   UNL d   1       7.337   3.601 -13.254  0.00  0.00    -0.004 A 
ATOM      6  C   UNL d   1       8.799   2.313 -14.729  0.00  0.00    -0.004 A 
ATOM      7  C   UNL d   1       6.252   2.812 -13.629  0.00  0.00     0.002 A 
ATOM      8  C   UNL d   1       6.425   1.761 -14.536  0.00  0.00     0.024 A 
ATOM      9  C   UNL d   1       7.696   1.504 -15.115  0.00  0.00     0.090 A 
ATOM     10  C   UNL d   1      10.173   2.040 -15.350  0.00  0.00     0.028 C 
ATOM     11  C   UNL d   1      11.338   2.692 -14.597  0.00  0.00     0.005 C 
ATOM     12  C   UNL d   1      11.023   4.144 -14.240  0.00  0.00     0.005 C 
BRANCH   9  13
ATOM     13  O   UNL d   1       7.911   0.502 -16.044  0.00  0.00    -0.328 OA
ATOM     14  C   UNL d   1       6.792  -0.289 -16.429  0.00  0.00     0.181 C 
ENDBRANCH   9  13
ENDBRANCH   2   3
ENDBRANCH   1   2
BRANCH   1  15
ATOM     15  C   UNL d   1      10.089   6.951 -10.968  0.00  0.00     0.250 C 
BRANCH  15  16
ATOM     16  N   UNL d   1       9.674   7.455  -9.670  0.00  0.00     0.141 N 
ATOM     17  C   UNL d   1      10.566   8.541  -9.260  0.00  0.00     0.274 C 
ATOM     18  C   UNL d   1      10.076   9.143  -7.936  0.00  0.00     0.137 C 
ATOM     19  N   UNL d   1       9.967   8.101  -6.926  0.00  0.00    -0.344 N 
ATOM     20  C   UNL d   1       9.167   6.946  -7.324  0.00  0.00     0.137 C 
ATOM     21  C   UNL d   1       9.674   6.391  -8.663  0.00  0.00     0.274 C 
BRANCH  19  22
ATOM     22  C   UNL d   1      10.661   8.174  -5.707  0.00  0.00     0.056 A 
ATOM     23  C   UNL d   1      11.094   6.997  -5.053  0.00  0.00     0.018 A 
ATOM     24  C   UNL d   1      11.724   7.069  -3.797  0.00  0.00     0.013 A 
ATOM     25  C   UNL d   1      11.915   8.316  -3.186  0.00  0.00     0.058 A 
ATOM     26  C   UNL d   1      11.488   9.493  -3.817  0.00  0.00     0.013 A 
ATOM     27 CL   UNL d   1      12.663   8.396  -1.642  0.00  0.00    -0.082 Cl
ATOM     28  C   UNL d   1      10.876   9.429  -5.086  0.00  0.00     0.018 A 
ENDBRANCH  19  22
ENDBRANCH  15  16
ENDBRANCH   1  15
TORSDOF 6
