REMARK  9 active torsions:
REMARK  status: ('A' for Active; 'I' for Inactive)
REMARK    1  A    between atoms: O_2  and  C_3 
REMARK    2  A    between atoms: C_8  and  N_9 
REMARK    3  A    between atoms: N_12  and  C_13 
REMARK    4  A    between atoms: C_13  and  C_14 
REMARK    5  A    between atoms: C_14  and  C_15 
REMARK    6  A    between atoms: C_15  and  C_16 
REMARK    7  A    between atoms: C_16  and  C_17 
REMARK    8  A    between atoms: C_19  and  C_20 
REMARK    9  A    between atoms: C_21  and  C_22 
ROOT
ATOM      1  C   UNL d   1       8.268   4.263 -13.337  0.00  0.00     0.036 C 
ENDROOT
BRANCH   1   2
ATOM      2  C   UNL d   1       9.024   3.364 -14.348  0.00  0.00     0.250 C 
BRANCH   2   3
ATOM      3  N   UNL d   1       8.393   2.062 -14.591  0.00  0.00     0.141 N 
ATOM      4  C   UNL d   1       6.925   2.082 -14.479  0.00  0.00     0.274 C 
ATOM      5  C   UNL d   1       6.321   0.688 -14.689  0.00  0.00     0.137 C 
ATOM      6  N   UNL d   1       6.752   0.148 -15.963  0.00  0.00    -0.343 N 
ATOM      7  C   UNL d   1       8.188   0.171 -16.207  0.00  0.00     0.137 C 
ATOM      8  C   UNL d   1       8.767   1.578 -15.933  0.00  0.00     0.274 C 
BRANCH   6   9
ATOM      9  C   UNL d   1       5.817  -0.238 -16.940  0.00  0.00     0.079 A 
ATOM     10  C   UNL d   1       5.883   0.268 -18.264  0.00  0.00     0.110 A 
ATOM     11  C   UNL d   1       4.930  -0.186 -19.219  0.00  0.00     0.026 A 
ATOM     12  C   UNL d   1       3.933  -1.104 -18.850  0.00  0.00     0.002 A 
ATOM     13  C   UNL d   1       3.858  -1.585 -17.535  0.00  0.00     0.002 A 
ATOM     14  C   UNL d   1       4.795  -1.144 -16.578  0.00  0.00     0.019 A 
BRANCH  10  15
ATOM     15  O   UNL d   1       6.854   1.203 -18.559  0.00  0.00    -0.327 OA
ATOM     16  C   UNL d   1       7.128   1.494 -19.918  0.00  0.00     0.181 C 
ENDBRANCH  10  15
ENDBRANCH   6   9
ENDBRANCH   2   3
ENDBRANCH   1   2
BRANCH   1  17
ATOM     17  C   UNL d   1       9.160   4.919 -12.284  0.00  0.00     0.009 C 
BRANCH  17  18
ATOM     18  C   UNL d   1       8.308   5.766 -11.325  0.00  0.00     0.054 C 
BRANCH  18  19
ATOM     19  C   UNL d   1       9.088   6.295 -10.174  0.00  0.00     0.104 A 
ATOM     20  O   UNL d   1       9.953   7.299 -10.460  0.00  0.00    -0.215 OA
ATOM     21  N   UNL d   1      10.585   7.688  -9.277  0.00  0.00    -0.127 NA
ATOM     22  C   UNL d   1      10.107   6.893  -8.336  0.00  0.00     0.110 A 
ATOM     23  C   UNL d   1       9.136   5.985  -8.843  0.00  0.00     0.044 A 
BRANCH  22  24
ATOM     24  C   UNL d   1      10.448   6.928  -6.915  0.00  0.00     0.021 C 
ATOM     25  C   UNL d   1      11.055   7.961  -6.300  0.00  0.00     0.002 C 
BRANCH  25  26
ATOM     26  C   UNL d   1      11.472   7.981  -4.884  0.00  0.00     0.000 A 
ATOM     27  C   UNL d   1      11.698   9.202  -4.220  0.00  0.00     0.000 A 
ATOM     28  C   UNL d   1      12.091   9.209  -2.862  0.00  0.00     0.000 A 
ATOM     29  C   UNL d   1      12.260   8.007  -2.156  0.00  0.00     0.000 A 
ATOM     30  C   UNL d   1      12.039   6.791  -2.810  0.00  0.00     0.000 A 
ATOM     31  C   UNL d   1      11.646   6.781  -4.162  0.00  0.00     0.000 A 
ENDBRANCH  25  26
ENDBRANCH  22  24
ENDBRANCH  18  19
ENDBRANCH  17  18
ENDBRANCH   1  17
TORSDOF 9
