REMARK  7 active torsions:
REMARK  status: ('A' for Active; 'I' for Inactive)
REMARK    1  A    between atoms: O_2  and  C_3 
REMARK    2  A    between atoms: C_8  and  N_9 
REMARK    3  A    between atoms: N_12  and  C_13 
REMARK    4  A    between atoms: C_13  and  C_14 
REMARK    5  A    between atoms: C_14  and  C_15 
REMARK    6  A    between atoms: C_15  and  C_16 
REMARK    7  A    between atoms: C_16  and  N_17 
ROOT
ATOM      1  C   UNL d   1       8.318   4.485 -13.390  0.00  0.00     0.251 C 
ENDROOT
BRANCH   1   2
ATOM      2  N   UNL d   1       8.260   5.931 -13.155  0.00  0.00     0.141 N 
ATOM      3  C   UNL d   1       7.295   6.278 -12.118  0.00  0.00     0.274 C 
ATOM      4  C   UNL d   1       7.731   5.678 -10.754  0.00  0.00     0.137 C 
ATOM      5  N   UNL d   1       9.087   6.101 -10.410  0.00  0.00    -0.343 N 
ATOM      6  C   UNL d   1      10.055   5.965 -11.470  0.00  0.00     0.137 C 
ATOM      7  C   UNL d   1       9.525   6.574 -12.784  0.00  0.00     0.274 C 
BRANCH   5   8
ATOM      8  C   UNL d   1       9.405   6.721  -9.192  0.00  0.00     0.079 A 
ATOM      9  C   UNL d   1      10.260   7.856  -9.100  0.00  0.00     0.110 A 
ATOM     10  C   UNL d   1      10.589   8.391  -7.824  0.00  0.00     0.026 A 
ATOM     11  C   UNL d   1      10.006   7.864  -6.669  0.00  0.00     0.002 A 
ATOM     12  C   UNL d   1       9.119   6.787  -6.770  0.00  0.00     0.002 A 
ATOM     13  C   UNL d   1       8.828   6.204  -8.018  0.00  0.00     0.019 A 
BRANCH   9  14
ATOM     14  O   UNL d   1      10.690   8.472 -10.249  0.00  0.00    -0.327 OA
ATOM     15  C   UNL d   1      11.947   9.115 -10.190  0.00  0.00     0.181 C 
ENDBRANCH   9  14
ENDBRANCH   5   8
ENDBRANCH   1   2
BRANCH   1  16
ATOM     16  C   UNL d   1       9.274   4.180 -14.543  0.00  0.00     0.037 C 
BRANCH  16  17
ATOM     17  C   UNL d   1       9.143   2.716 -14.915  0.00  0.00     0.026 C 
BRANCH  17  18
ATOM     18  C   UNL d   1       9.834   2.405 -16.249  0.00  0.00     0.104 C 
BRANCH  18  19
ATOM     19  N   UNL d   1       9.245   1.214 -16.872  0.00  0.00    -0.316 N 
ATOM     20  C   UNL d   1       8.068   1.324 -17.532  0.00  0.00     0.257 C 
ATOM     21  C   UNL d   1       7.494   0.057 -18.117  0.00  0.00     0.052 A 
ATOM     22  O   UNL d   1       7.475   2.390 -17.658  0.00  0.00    -0.267 OA
ATOM     23  C   UNL d   1       8.316  -1.078 -18.292  0.00  0.00    -0.013 A 
ATOM     24  C   UNL d   1       6.140   0.001 -18.534  0.00  0.00     0.007 A 
ATOM     25  C   UNL d   1       9.771  -1.023 -17.848  0.00  0.00     0.051 C 
ATOM     26  C   UNL d   1       7.783  -2.252 -18.865  0.00  0.00     0.026 A 
ATOM     27  C   UNL d   1       9.967  -0.047 -16.678  0.00  0.00     0.109 C 
ATOM     28  C   UNL d   1       6.440  -2.292 -19.295  0.00  0.00     0.140 A 
ATOM     29  F   UNL d   1       5.948  -3.414 -19.857  0.00  0.00    -0.204 F 
ATOM     30  C   UNL d   1       5.614  -1.165 -19.128  0.00  0.00     0.030 A 
ENDBRANCH  18  19
ENDBRANCH  17  18
ENDBRANCH  16  17
ENDBRANCH   1  16
TORSDOF 7
