REMARK  7 active torsions:
REMARK  status: ('A' for Active; 'I' for Inactive)
REMARK       I    between atoms: C_2  and  N_3 
REMARK    1  A    between atoms: C_2  and  C_22 
REMARK    2  A    between atoms: N_3  and  C_4 
REMARK    3  A    between atoms: C_4  and  C_5 
REMARK    4  A    between atoms: C_6  and  C_7 
REMARK    5  A    between atoms: C_7  and  N_8 
REMARK    6  A    between atoms: N_11  and  C_12 
REMARK    7  A    between atoms: C_26  and  N_27 
ROOT
ATOM      1  C   UNL d   1       8.153   0.888 -15.722  0.00  0.00    -0.003 C 
ATOM      2  C   UNL d   1       7.183   1.812 -15.626  0.00  0.00     0.006 C 
ENDROOT
BRANCH   2   3
ATOM      3  C   UNL d   1       6.549   2.241 -14.317  0.00  0.00     0.276 C 
BRANCH   3   4
ATOM      4  N   UNL d   1       6.992   3.566 -13.879  0.00  0.00     0.145 N 
ATOM      5  C   UNL d   1       8.450   3.588 -13.649  0.00  0.00     0.275 C 
ATOM      6  C   UNL d   1       8.917   4.974 -13.177  0.00  0.00     0.137 C 
ATOM      7  N   UNL d   1       8.162   5.362 -12.004  0.00  0.00    -0.344 N 
ATOM      8  C   UNL d   1       6.718   5.319 -12.133  0.00  0.00     0.137 C 
ATOM      9  C   UNL d   1       6.284   3.927 -12.640  0.00  0.00     0.275 C 
BRANCH   7  10
ATOM     10  C   UNL d   1       8.799   5.820 -10.838  0.00  0.00     0.068 A 
ATOM     11  C   UNL d   1       9.462   7.070 -10.793  0.00  0.00     0.084 A 
ATOM     12  C   UNL d   1      10.122   7.486  -9.618  0.00  0.00     0.070 A 
ATOM     13 CL   UNL d   1       9.367   8.130 -12.146  0.00  0.00    -0.080 Cl
ATOM     14  C   UNL d   1      10.118   6.665  -8.480  0.00  0.00     0.012 A 
ATOM     15 CL   UNL d   1      10.942   9.003  -9.543  0.00  0.00    -0.081 Cl
ATOM     16  C   UNL d   1       9.447   5.434  -8.513  0.00  0.00     0.002 A 
ATOM     17  C   UNL d   1       8.785   5.010  -9.684  0.00  0.00     0.018 A 
ENDBRANCH   7  10
ENDBRANCH   3   4
ENDBRANCH   2   3
BRANCH   1  18
ATOM     18  C   UNL d   1       8.802   0.452 -17.024  0.00  0.00     0.155 C 
BRANCH  18  19
ATOM     19  N   UNL d   1      10.068   1.136 -17.277  0.00  0.00    -0.229 NA
ATOM     20  C   UNL d   1      10.258   2.464 -17.389  0.00  0.00     0.275 C 
ATOM     21  O   UNL d   1       9.374   3.307 -17.245  0.00  0.00    -0.266 OA
BRANCH  20  22
ATOM     22  C   UNL d   1      11.670   2.887 -17.666  0.00  0.00     0.059 A 
ATOM     23  C   UNL d   1      12.169   4.066 -17.070  0.00  0.00     0.028 A 
ATOM     24  C   UNL d   1      13.487   4.510 -17.334  0.00  0.00     0.127 A 
ATOM     25  C   UNL d   1      14.287   3.766 -18.228  0.00  0.00     0.024 A 
ATOM     26  C   UNL d   1      13.788   2.601 -18.843  0.00  0.00     0.002 A 
ATOM     27  C   UNL d   1      12.480   2.165 -18.569  0.00  0.00     0.005 A 
BRANCH  24  28
ATOM     28  N   UNL d   1      14.015   5.724 -16.680  0.00  0.00    -0.114 N 
ATOM     29  O   UNL d   1      13.239   6.431 -16.048  0.00  0.00    -0.532 OA
ATOM     30  O   UNL d   1      15.217   5.960 -16.784  0.00  0.00    -0.532 OA
ENDBRANCH  24  28
ENDBRANCH  20  22
ENDBRANCH  18  19
ENDBRANCH   1  18
TORSDOF 7
