REMARK  7 active torsions:
REMARK  status: ('A' for Active; 'I' for Inactive)
REMARK    1  A    between atoms: C_3  and  C_4 
REMARK    2  A    between atoms: N_15  and  C_16 
REMARK    3  A    between atoms: C_16  and  C_17 
REMARK    4  A    between atoms: C_17  and  C_18 
REMARK    5  A    between atoms: C_18  and  C_19 
REMARK    6  A    between atoms: C_19  and  N_20 
REMARK    7  A    between atoms: C_24  and  C_25 
ROOT
ATOM      1  O   UNL d   1       8.436   1.528 -15.124  0.00  0.00    -0.267 OA
ATOM      2  C   UNL d   1       8.939   2.192 -16.030  0.00  0.00     0.265 A 
ATOM      3  C   UNL d   1       8.761   1.887 -17.456  0.00  0.00     0.068 A 
ATOM      4  C   UNL d   1       9.358   2.672 -18.400  0.00  0.00     0.046 A 
ATOM      5  N   UNL d   1      10.115   3.808 -18.068  0.00  0.00    -0.285 N 
ATOM      6  C   UNL d   1      10.270   4.185 -16.715  0.00  0.00     0.333 A 
ATOM      7  O   UNL d   1      10.871   5.220 -16.396  0.00  0.00    -0.246 OA
ATOM      8  N   UNL d   1       9.712   3.336 -15.745  0.00  0.00    -0.249 N 
ATOM      9  C   UNL d   1      10.760   4.684 -19.026  0.00  0.00     0.110 C 
ATOM     10  C   UNL d   1      10.819   4.153 -20.460  0.00  0.00     0.025 C 
ATOM     11  C   UNL d   1       9.480   3.543 -20.835  0.00  0.00     0.008 C 
ATOM     12  C   UNL d   1       9.204   2.371 -19.900  0.00  0.00     0.044 C 
ENDROOT
BRANCH   8  13
ATOM     13  C   UNL d   1       9.867   3.700 -14.357  0.00  0.00     0.114 C 
BRANCH  13  14
ATOM     14  C   UNL d   1       8.751   4.640 -13.868  0.00  0.00     0.027 C 
BRANCH  14  15
ATOM     15  C   UNL d   1       8.809   4.772 -12.362  0.00  0.00     0.037 C 
BRANCH  15  16
ATOM     16  C   UNL d   1       8.956   6.214 -11.855  0.00  0.00     0.250 C 
BRANCH  16  17
ATOM     17  N   UNL d   1       9.046   6.270 -10.383  0.00  0.00     0.137 N 
ATOM     18  C   UNL d   1      10.261   5.712  -9.846  0.00  0.00     0.255 C 
ATOM     19  C   UNL d   1      10.428   5.961  -8.355  0.00  0.00     0.057 C 
ATOM     20  C   UNL d   1       9.235   5.402  -7.638  0.00  0.00     0.009 C 
ATOM     21  C   UNL d   1       7.981   5.994  -8.185  0.00  0.00     0.036 C 
ATOM     22  C   UNL d   1       7.870   5.730  -9.704  0.00  0.00     0.250 C 
BRANCH  19  23
ATOM     23  C   UNL d   1      10.705   7.389  -8.026  0.00  0.00     0.000 A 
ATOM     24  C   UNL d   1      11.043   7.902  -6.732  0.00  0.00     0.015 A 
ATOM     25  C   UNL d   1      11.186   9.308  -6.862  0.00  0.00     0.081 A 
ATOM     26  C   UNL d   1      11.241   7.342  -5.451  0.00  0.00     0.001 A 
ATOM     27  N   UNL d   1      11.000   9.582  -8.197  0.00  0.00    -0.244 NA
ATOM     28  C   UNL d   1      11.461  10.136  -5.769  0.00  0.00     0.019 A 
ATOM     29  C   UNL d   1      10.666   8.447  -8.889  0.00  0.00     0.095 A 
ATOM     30  C   UNL d   1      11.655   9.559  -4.504  0.00  0.00     0.002 A 
ATOM     31  C   UNL d   1      11.567   8.163  -4.350  0.00  0.00     0.000 A 
ENDBRANCH  19  23
ENDBRANCH  16  17
ENDBRANCH  15  16
ENDBRANCH  14  15
ENDBRANCH  13  14
ENDBRANCH   8  13
BRANCH   3  32
ATOM     32  C   UNL d   1       8.019   0.655 -17.821  0.00  0.00     0.006 A 
ATOM     33  C   UNL d   1       8.659  -0.377 -18.546  0.00  0.00     0.003 A 
ATOM     34  C   UNL d   1       7.944  -1.534 -18.909  0.00  0.00     0.030 A 
ATOM     35  C   UNL d   1       6.599  -1.681 -18.526  0.00  0.00     0.140 A 
ATOM     36  C   UNL d   1       5.961  -0.666 -17.787  0.00  0.00     0.030 A 
ATOM     37  F   UNL d   1       5.922  -2.801 -18.869  0.00  0.00    -0.204 F 
ATOM     38  C   UNL d   1       6.668   0.503 -17.440  0.00  0.00     0.003 A 
ENDBRANCH   3  32
TORSDOF 7
