REMARK  1 active torsions:
REMARK  status: ('A' for Active; 'I' for Inactive)
REMARK    1  A    between atoms: C_15  and  C_16 
ROOT
ATOM      1  C   UNL d   1       5.928   7.891 -12.534  0.00  0.00     0.285 C 
ATOM      2  N   UNL d   1       6.707   6.663 -12.362  0.00  0.00     0.140 N 
ATOM      3  C   UNL d   1       5.933   5.515 -12.840  0.00  0.00     0.255 C 
ATOM      4  C   UNL d   1       6.375   4.153 -12.408  0.00  0.00     0.061 C 
ATOM      5  C   UNL d   1       7.604   3.731 -13.231  0.00  0.00    -0.022 A 
ATOM      6  C   UNL d   1       7.480   2.537 -13.994  0.00  0.00     0.022 A 
ATOM      7  C   UNL d   1       8.615   1.996 -14.603  0.00  0.00     0.122 A 
ATOM      8  O   UNL d   1       8.767   0.807 -15.256  0.00  0.00    -0.256 OA
ATOM      9  C   UNL d   1      10.027   0.760 -15.776  0.00  0.00     0.392 A 
ATOM     10  O   UNL d   1      10.470  -0.138 -16.484  0.00  0.00    -0.236 OA
ATOM     11  N   UNL d   1      10.674   1.918 -15.360  0.00  0.00    -0.184 NA
ATOM     12  C   UNL d   1       9.806   2.683 -14.598  0.00  0.00     0.109 A 
ATOM     13  C   UNL d   1       9.970   3.909 -13.940  0.00  0.00     0.017 A 
ATOM     14  C   UNL d   1       8.860   4.433 -13.214  0.00  0.00    -0.019 A 
ATOM     15  C   UNL d   1       9.064   5.782 -12.498  0.00  0.00     0.078 C 
ATOM     16  C   UNL d   1       8.021   6.813 -12.947  0.00  0.00     0.259 C 
ENDROOT
BRANCH  15  17
ATOM     17  C   UNL d   1       9.303   5.743 -10.985  0.00  0.00    -0.017 A 
ATOM     18  C   UNL d   1      10.153   6.688 -10.341  0.00  0.00    -0.004 A 
ATOM     19  C   UNL d   1      10.356   6.609  -8.950  0.00  0.00    -0.000 A 
ATOM     20  C   UNL d   1       9.670   5.670  -8.155  0.00  0.00    -0.000 A 
ATOM     21  C   UNL d   1       8.822   4.739  -8.797  0.00  0.00    -0.000 A 
ATOM     22  C   UNL d   1       8.730   4.802 -10.170  0.00  0.00    -0.004 A 
ENDBRANCH  15  17
TORSDOF 1
