REMARK  5 active torsions:
REMARK  status: ('A' for Active; 'I' for Inactive)
REMARK    1  A    between atoms: C_2  and  C_4 
REMARK    2  A    between atoms: C_4  and  O_5 
REMARK    3  A    between atoms: O_5  and  C_6 
REMARK    4  A    between atoms: N_20  and  C_21 
REMARK    5  A    between atoms: C_21  and  C_22 
ROOT
ATOM      1  C   UNL d   1       6.860   3.000 -13.657  0.00  0.00     0.094 A 
ATOM      2  C   UNL d   1       6.173   3.917 -12.817  0.00  0.00     0.024 A 
ATOM      3  C   UNL d   1       6.787   5.113 -12.408  0.00  0.00     0.002 A 
ATOM      4  C   UNL d   1       8.087   5.410 -12.839  0.00  0.00    -0.004 A 
ATOM      5  C   UNL d   1       8.788   4.507 -13.658  0.00  0.00    -0.018 A 
ATOM      6  C   UNL d   1       8.203   3.280 -14.052  0.00  0.00     0.018 A 
ATOM      7  C   UNL d   1       9.042   2.366 -14.869  0.00  0.00    -0.001 A 
ATOM      8  C   UNL d   1       8.892   0.958 -14.851  0.00  0.00    -0.000 A 
ATOM      9  C   UNL d   1       9.664   0.089 -15.647  0.00  0.00    -0.000 A 
ATOM     10  C   UNL d   1      10.674   0.598 -16.468  0.00  0.00    -0.004 A 
ATOM     11  C   UNL d   1      10.932   1.975 -16.466  0.00  0.00    -0.022 A 
ATOM     12  C   UNL d   1      10.125   2.829 -15.664  0.00  0.00     0.005 A 
ATOM     13  C   UNL d   1      10.405   4.350 -15.617  0.00  0.00     0.245 C 
ATOM     14  C   UNL d   1      10.173   4.869 -14.166  0.00  0.00     0.064 C 
ATOM     15  N   UNL d   1      11.731   4.754 -16.129  0.00  0.00     0.140 N 
ATOM     16  C   UNL d   1      11.887   4.128 -17.440  0.00  0.00     0.255 C 
ATOM     17  C   UNL d   1      12.060   2.632 -17.229  0.00  0.00     0.061 C 
ENDROOT
BRANCH   1  18
ATOM     18  O   UNL d   1       6.261   1.843 -14.111  0.00  0.00    -0.326 OA
BRANCH  18  19
ATOM     19  C   UNL d   1       5.263   1.221 -13.303  0.00  0.00     0.171 C 
BRANCH  19  20
ATOM     20  C   UNL d   1       4.797  -0.082 -13.936  0.00  0.00    -0.014 C 
ATOM     21  C   UNL d   1       3.509  -0.318 -14.235  0.00  0.00    -0.007 C 
ATOM     22  C   UNL d   1       5.870  -1.112 -14.236  0.00  0.00     0.029 C 
ENDBRANCH  19  20
ENDBRANCH  18  19
ENDBRANCH   1  18
BRANCH  15  23
ATOM     23  C   UNL d   1      11.884   6.201 -16.296  0.00  0.00     0.251 C 
BRANCH  23  24
ATOM     24  C   UNL d   1      13.361   6.594 -16.508  0.00  0.00     0.035 C 
ATOM     25  C   UNL d   1      13.532   8.098 -16.687  0.00  0.00     0.002 C 
ENDBRANCH  23  24
ENDBRANCH  15  23
TORSDOF 5
