REMARK  5 active torsions:
REMARK  status: ('A' for Active; 'I' for Inactive)
REMARK    1  A    between atoms: O_2  and  C_3 
REMARK    2  A    between atoms: C_7  and  C_8 
REMARK    3  A    between atoms: C_12  and  C_13 
REMARK    4  A    between atoms: C_13  and  N_14 
REMARK    5  A    between atoms: N_17  and  C_18 
ROOT
ATOM      1  N   UNL d   1       7.620   5.061 -12.526  0.00  0.00     0.145 N 
ATOM      2  C   UNL d   1       7.832   4.432 -11.233  0.00  0.00     0.275 C 
ATOM      3  C   UNL d   1       9.214   4.726 -10.632  0.00  0.00     0.137 C 
ATOM      4  N   UNL d   1       9.359   6.157 -10.500  0.00  0.00    -0.343 N 
ATOM      5  C   UNL d   1       8.997   6.941 -11.678  0.00  0.00     0.137 C 
ATOM      6  C   UNL d   1       7.625   6.497 -12.268  0.00  0.00     0.275 C 
ENDROOT
BRANCH   1   7
ATOM      7  C   UNL d   1       6.327   4.582 -13.037  0.00  0.00     0.277 C 
BRANCH   7   8
ATOM      8  C   UNL d   1       6.293   3.119 -13.436  0.00  0.00     0.011 A 
ATOM      9  C   UNL d   1       5.369   2.250 -12.841  0.00  0.00    -0.002 A 
ATOM     10  C   UNL d   1       5.326   0.899 -13.236  0.00  0.00    -0.000 A 
ATOM     11  C   UNL d   1       6.203   0.413 -14.227  0.00  0.00    -0.000 A 
ATOM     12  C   UNL d   1       7.135   1.278 -14.829  0.00  0.00    -0.000 A 
ATOM     13  C   UNL d   1       7.181   2.628 -14.421  0.00  0.00    -0.002 A 
BRANCH  12  14
ATOM     14  C   UNL d   1       8.055   0.768 -15.851  0.00  0.00     0.002 A 
ATOM     15  C   UNL d   1       9.433   0.654 -15.582  0.00  0.00     0.000 A 
ATOM     16  C   UNL d   1      10.304   0.150 -16.565  0.00  0.00     0.002 A 
ATOM     17  C   UNL d   1       9.805  -0.248 -17.820  0.00  0.00     0.024 A 
ATOM     18  C   UNL d   1       8.421  -0.140 -18.106  0.00  0.00     0.094 A 
ATOM     19  C   UNL d   1       7.563   0.371 -17.112  0.00  0.00     0.024 A 
BRANCH  18  20
ATOM     20  O   UNL d   1       7.847  -0.490 -19.308  0.00  0.00    -0.328 OA
ATOM     21  C   UNL d   1       8.644  -1.192 -20.251  0.00  0.00     0.181 C 
ENDBRANCH  18  20
ENDBRANCH  12  14
ENDBRANCH   7   8
ENDBRANCH   1   7
BRANCH   4  22
ATOM     22  C   UNL d   1       9.699   6.760  -9.272  0.00  0.00     0.081 A 
ATOM     23  C   UNL d   1      10.918   7.421  -9.117  0.00  0.00     0.137 A 
ATOM     24  C   UNL d   1      11.340   8.010  -7.901  0.00  0.00     0.110 A 
ATOM     25  O   UNL d   1      11.925   7.575 -10.027  0.00  0.00    -0.266 OA
ATOM     26  C   UNL d   1      10.450   8.011  -6.812  0.00  0.00     0.021 A 
ATOM     27  N   UNL d   1      12.635   8.469  -8.046  0.00  0.00    -0.196 NA
ATOM     28  C   UNL d   1       9.201   7.374  -6.955  0.00  0.00     0.003 A 
ATOM     29  C   UNL d   1       8.855   6.698  -8.154  0.00  0.00     0.019 A 
ATOM     30  C   UNL d   1      12.916   8.156  -9.309  0.00  0.00     0.323 A 
ATOM     31  O   UNL d   1      14.070   8.380  -9.967  0.00  0.00    -0.141 OA
ENDBRANCH   4  22
TORSDOF 5
