REMARK  7 active torsions:
REMARK  status: ('A' for Active; 'I' for Inactive)
REMARK    1  A    between atoms: O_2  and  C_3 
REMARK    2  A    between atoms: N_13  and  C_14 
REMARK    3  A    between atoms: C_14  and  C_15 
REMARK    4  A    between atoms: C_15  and  C_16 
REMARK    5  A    between atoms: C_16  and  C_17 
REMARK    6  A    between atoms: C_17  and  N_18 
REMARK       I    between atoms: N_18  and  C_19 
REMARK    7  A    between atoms: C_19  and  C_21 
ROOT
ATOM      1  C   UNL d   1       7.248   5.820 -12.378  0.00  0.00     0.251 C 
ENDROOT
BRANCH   1   2
ATOM      2  N   UNL d   1       7.782   4.595 -12.986  0.00  0.00     0.143 N 
ATOM      3  C   UNL d   1       8.564   4.902 -14.185  0.00  0.00     0.282 C 
ATOM      4  C   UNL d   1       9.102   3.666 -14.917  0.00  0.00     0.178 C 
ATOM      5  O   UNL d   1       8.023   2.785 -15.252  0.00  0.00    -0.348 OA
ATOM      6  C   UNL d   1       7.356   2.370 -14.069  0.00  0.00     0.173 C 
ATOM      7  C   UNL d   1       6.344   1.251 -14.257  0.00  0.00     0.031 A 
ATOM      8  C   UNL d   1       6.736   3.617 -13.345  0.00  0.00     0.280 C 
ATOM      9  C   UNL d   1       5.119   1.266 -13.538  0.00  0.00     0.092 A 
ATOM     10  C   UNL d   1       6.586   0.225 -15.208  0.00  0.00     0.024 A 
ATOM     11  C   UNL d   1       4.154   0.288 -13.812  0.00  0.00     0.026 A 
ATOM     12  O   UNL d   1       4.736   2.343 -12.754  0.00  0.00    -0.329 OA
ATOM     13  C   UNL d   1       4.361  -0.686 -14.779  0.00  0.00     0.026 A 
ATOM     14  C   UNL d   1       5.568  -0.746 -15.502  0.00  0.00     0.094 A 
ATOM     15  C   UNL d   1       5.747   3.178 -12.222  0.00  0.00     0.185 C 
BRANCH  14  16
ATOM     16  O   UNL d   1       5.854  -1.651 -16.499  0.00  0.00    -0.328 OA
ATOM     17  C   UNL d   1       4.901  -2.725 -16.636  0.00  0.00     0.181 C 
ENDBRANCH  14  16
ENDBRANCH   1   2
BRANCH   1  18
ATOM     18  C   UNL d   1       8.229   7.010 -12.223  0.00  0.00     0.037 C 
BRANCH  18  19
ATOM     19  C   UNL d   1       9.104   6.824 -10.984  0.00  0.00     0.029 C 
BRANCH  19  20
ATOM     20  C   UNL d   1       9.887   8.089 -10.612  0.00  0.00     0.129 C 
BRANCH  20  21
ATOM     21  N   UNL d   1      10.633   8.021  -9.357  0.00  0.00    -0.234 NA
ATOM     22  C   UNL d   1      10.278   7.320  -8.264  0.00  0.00     0.275 C 
ATOM     23  O   UNL d   1       9.636   6.284  -8.250  0.00  0.00    -0.266 OA
BRANCH  22  24
ATOM     24  C   UNL d   1      10.755   7.911  -6.966  0.00  0.00     0.058 A 
ATOM     25  C   UNL d   1      11.102   7.059  -5.925  0.00  0.00     0.005 A 
ATOM     26  C   UNL d   1      11.470   7.567  -4.678  0.00  0.00     0.000 A 
ATOM     27  C   UNL d   1      11.470   8.964  -4.453  0.00  0.00     0.000 A 
ATOM     28  C   UNL d   1      11.865   6.678  -3.653  0.00  0.00     0.000 A 
ATOM     29  C   UNL d   1      11.080   9.839  -5.486  0.00  0.00     0.000 A 
ATOM     30  C   UNL d   1      11.858   9.459  -3.197  0.00  0.00     0.000 A 
ATOM     31  C   UNL d   1      10.724   9.315  -6.744  0.00  0.00     0.005 A 
ATOM     32  C   UNL d   1      12.262   8.569  -2.184  0.00  0.00     0.000 A 
ATOM     33  C   UNL d   1      12.257   7.181  -2.413  0.00  0.00     0.000 A 
ENDBRANCH  22  24
ENDBRANCH  20  21
ENDBRANCH  19  20
ENDBRANCH  18  19
ENDBRANCH   1  18
TORSDOF 7
