REMARK  7 active torsions:
REMARK  status: ('A' for Active; 'I' for Inactive)
REMARK    1  A    between atoms: O_2  and  C_3 
REMARK    2  A    between atoms: C_8  and  N_9 
REMARK    3  A    between atoms: N_12  and  C_13 
REMARK    4  A    between atoms: C_13  and  C_14 
REMARK    5  A    between atoms: C_15  and  C_16 
REMARK    6  A    between atoms: C_16  and  N_17 
REMARK       I    between atoms: N_17  and  C_18 
REMARK    7  A    between atoms: C_18  and  C_20 
ROOT
ATOM      1  C   UNL d   1       8.556   5.039 -13.385  0.00  0.00     0.006 C 
ATOM      2  C   UNL d   1       8.325   5.689 -12.241  0.00  0.00    -0.003 C 
ENDROOT
BRANCH   2   3
ATOM      3  C   UNL d   1       8.931   7.035 -11.939  0.00  0.00     0.155 C 
BRANCH   3   4
ATOM      4  N   UNL d   1       9.489   6.990 -10.600  0.00  0.00    -0.229 NA
ATOM      5  C   UNL d   1      10.316   7.909 -10.098  0.00  0.00     0.275 C 
ATOM      6  O   UNL d   1      10.805   8.803 -10.763  0.00  0.00    -0.266 OA
BRANCH   5   7
ATOM      7  C   UNL d   1      10.600   7.814  -8.644  0.00  0.00     0.057 A 
ATOM      8  C   UNL d   1      10.790   8.992  -7.883  0.00  0.00     0.001 A 
ATOM      9  C   UNL d   1      11.112   8.872  -6.521  0.00  0.00    -0.018 A 
ATOM     10  C   UNL d   1      11.312   7.615  -5.956  0.00  0.00    -0.004 A 
ATOM     11  C   UNL d   1      11.329   9.967  -5.501  0.00  0.00     0.053 A 
ATOM     12  C   UNL d   1      11.216   6.453  -6.721  0.00  0.00    -0.000 A 
ATOM     13  C   UNL d   1      11.662   7.766  -4.558  0.00  0.00    -0.004 A 
ATOM     14  C   UNL d   1      10.794   6.547  -8.056  0.00  0.00     0.005 A 
ATOM     15  C   UNL d   1      11.667   9.131  -4.275  0.00  0.00    -0.018 A 
ATOM     16  C   UNL d   1      11.948   6.803  -3.572  0.00  0.00    -0.000 A 
ATOM     17  C   UNL d   1      11.949   9.583  -2.985  0.00  0.00    -0.004 A 
ATOM     18  C   UNL d   1      12.275   8.644  -1.991  0.00  0.00    -0.000 A 
ATOM     19  C   UNL d   1      12.262   7.258  -2.277  0.00  0.00    -0.000 A 
ENDBRANCH   5   7
ENDBRANCH   3   4
ENDBRANCH   2   3
BRANCH   1  20
ATOM     20  C   UNL d   1       8.006   3.661 -13.718  0.00  0.00     0.276 C 
BRANCH  20  21
ATOM     21  N   UNL d   1       8.997   2.770 -14.313  0.00  0.00     0.145 N 
ATOM     22  C   UNL d   1       8.389   1.452 -14.573  0.00  0.00     0.275 C 
ATOM     23  C   UNL d   1       9.412   0.473 -15.197  0.00  0.00     0.137 C 
ATOM     24  N   UNL d   1      10.023   1.065 -16.375  0.00  0.00    -0.343 N 
ATOM     25  C   UNL d   1      10.551   2.402 -16.190  0.00  0.00     0.137 C 
ATOM     26  C   UNL d   1       9.496   3.315 -15.582  0.00  0.00     0.275 C 
BRANCH  24  27
ATOM     27  C   UNL d   1      10.087   0.418 -17.634  0.00  0.00     0.079 A 
ATOM     28  C   UNL d   1      11.231   0.554 -18.462  0.00  0.00     0.110 A 
ATOM     29  C   UNL d   1      11.238  -0.059 -19.738  0.00  0.00     0.026 A 
ATOM     30  C   UNL d   1      10.129  -0.811 -20.177  0.00  0.00     0.002 A 
ATOM     31  C   UNL d   1       9.013  -0.963 -19.346  0.00  0.00     0.002 A 
ATOM     32  C   UNL d   1       8.986  -0.345 -18.078  0.00  0.00     0.019 A 
BRANCH  28  33
ATOM     33  O   UNL d   1      12.321   1.251 -17.976  0.00  0.00    -0.327 OA
ATOM     34  C   UNL d   1      13.418   1.511 -18.828  0.00  0.00     0.181 C 
ENDBRANCH  28  33
ENDBRANCH  24  27
ENDBRANCH  20  21
ENDBRANCH   1  20
TORSDOF 7
