REMARK  5 active torsions:
REMARK  status: ('A' for Active; 'I' for Inactive)
REMARK    1  A    between atoms: C_5  and  N_6 
REMARK    2  A    between atoms: C_14  and  C_15 
REMARK    3  A    between atoms: C_15  and  C_16 
REMARK    4  A    between atoms: C_16  and  N_17 
REMARK    5  A    between atoms: C_20  and  C_21 
ROOT
ATOM      1  N   UNL d   1       9.074   6.360  -9.776  0.00  0.00     0.137 N 
ATOM      2  C   UNL d   1      10.519   6.547  -9.819  0.00  0.00     0.251 C 
ATOM      3  C   UNL d   1      10.978   7.557  -8.774  0.00  0.00     0.041 C 
ATOM      4  C   UNL d   1      10.547   7.125  -7.364  0.00  0.00     0.047 C 
ATOM      5  C   UNL d   1       9.045   6.795  -7.354  0.00  0.00     0.041 C 
ATOM      6  C   UNL d   1       8.684   5.809  -8.476  0.00  0.00     0.251 C 
ENDROOT
BRANCH   1   7
ATOM      7  C   UNL d   1       8.669   5.442 -10.831  0.00  0.00     0.251 C 
BRANCH   7   8
ATOM      8  C   UNL d   1       8.555   6.143 -12.208  0.00  0.00     0.043 C 
BRANCH   8   9
ATOM      9  C   UNL d   1       8.466   5.155 -13.392  0.00  0.00     0.064 C 
ATOM     10  C   UNL d   1       7.284   4.175 -13.276  0.00  0.00     0.172 C 
ATOM     11  O   UNL d   1       6.297   4.475 -12.595  0.00  0.00    -0.291 OA
ATOM     12  C   UNL d   1       7.379   2.907 -14.048  0.00  0.00     0.032 A 
ATOM     13  C   UNL d   1       8.537   2.559 -14.783  0.00  0.00    -0.019 A 
ATOM     14  C   UNL d   1       6.276   2.030 -14.033  0.00  0.00     0.026 A 
ATOM     15  C   UNL d   1       8.574   1.345 -15.492  0.00  0.00    -0.003 A 
ATOM     16  C   UNL d   1       9.752   3.471 -14.828  0.00  0.00     0.027 C 
ATOM     17  C   UNL d   1       7.463   0.482 -15.472  0.00  0.00     0.023 A 
ATOM     18  C   UNL d   1       6.306   0.808 -14.739  0.00  0.00     0.127 A 
ATOM     19  C   UNL d   1       9.806   4.418 -13.626  0.00  0.00     0.012 C 
BRANCH  18  20
ATOM     20  N   UNL d   1       5.139  -0.092 -14.703  0.00  0.00    -0.114 N 
ATOM     21  O   UNL d   1       4.910  -0.771 -15.698  0.00  0.00    -0.532 OA
ATOM     22  O   UNL d   1       4.451  -0.110 -13.686  0.00  0.00    -0.532 OA
ENDBRANCH  18  20
ENDBRANCH   8   9
ENDBRANCH   7   8
ENDBRANCH   1   7
BRANCH   4  23
ATOM     23  C   UNL d   1      10.900   8.182  -6.350  0.00  0.00     0.087 A 
ATOM     24  C   UNL d   1      11.453   8.075  -5.060  0.00  0.00     0.041 A 
ATOM     25  C   UNL d   1      11.554   9.349  -4.501  0.00  0.00     0.129 A 
ATOM     26  C   UNL d   1      11.860   6.953  -4.306  0.00  0.00     0.006 A 
ATOM     27  O   UNL d   1      11.060  10.215  -5.457  0.00  0.00    -0.211 OA
ATOM     28  C   UNL d   1      12.057   9.581  -3.219  0.00  0.00     0.057 A 
ATOM     29  N   UNL d   1      10.655   9.472  -6.595  0.00  0.00    -0.131 NA
ATOM     30  C   UNL d   1      12.482   8.466  -2.470  0.00  0.00     0.142 A 
ATOM     31  F   UNL d   1      13.010   8.649  -1.240  0.00  0.00    -0.204 F 
ATOM     32  C   UNL d   1      12.374   7.161  -3.006  0.00  0.00     0.030 A 
ENDBRANCH   4  23
TORSDOF 5
