REMARK  1 active torsions:
REMARK  status: ('A' for Active; 'I' for Inactive)
REMARK    1  A    between atoms: C_2  and  C_3 
REMARK       I    between atoms: C_2  and  N_9 
ROOT
ATOM      1  O   UNL d   1      12.347   2.594 -18.026  0.00  0.00    -0.272 OA
ATOM      2  C   UNL d   1      11.616   3.117 -17.175  0.00  0.00     0.234 C 
ATOM      3  N   UNL d   1      10.911   2.365 -16.284  0.00  0.00    -0.309 N 
ATOM      4  C   UNL d   1      11.087   0.914 -16.239  0.00  0.00     0.193 C 
ATOM      5  C   UNL d   1       9.783   0.166 -16.480  0.00  0.00     0.257 C 
ATOM      6  O   UNL d   1       9.859  -1.010 -16.856  0.00  0.00    -0.270 OA
ATOM      7  N   UNL d   1       8.613   0.824 -16.297  0.00  0.00    -0.314 N 
ATOM      8  C   UNL d   1       7.327   0.176 -16.549  0.00  0.00     0.109 C 
ATOM      9  C   UNL d   1       6.595  -0.013 -15.215  0.00  0.00     0.050 C 
ATOM     10  C   UNL d   1       6.537   1.291 -14.427  0.00  0.00    -0.022 A 
ATOM     11  C   UNL d   1       5.555   1.434 -13.426  0.00  0.00    -0.004 A 
ATOM     12  C   UNL d   1       5.441   2.647 -12.728  0.00  0.00    -0.000 A 
ATOM     13  C   UNL d   1       6.300   3.721 -13.017  0.00  0.00    -0.000 A 
ATOM     14  C   UNL d   1       7.292   3.573 -14.001  0.00  0.00    -0.003 A 
ATOM     15  C   UNL d   1       7.432   2.355 -14.708  0.00  0.00    -0.004 A 
ATOM     16  C   UNL d   1       8.496   2.195 -15.796  0.00  0.00     0.128 C 
ATOM     17  C   UNL d   1       9.864   2.816 -15.371  0.00  0.00     0.131 C 
ENDROOT
BRANCH   2  18
ATOM     18  C   UNL d   1      11.599   4.661 -17.110  0.00  0.00     0.079 C 
ATOM     19  C   UNL d   1      12.696   5.138 -16.131  0.00  0.00     0.009 C 
ATOM     20  C   UNL d   1      12.738   6.674 -16.049  0.00  0.00     0.001 C 
ATOM     21  C   UNL d   1      12.909   7.291 -17.443  0.00  0.00     0.000 C 
ATOM     22  C   UNL d   1      11.813   6.819 -18.410  0.00  0.00     0.001 C 
ATOM     23  C   UNL d   1      11.783   5.288 -18.501  0.00  0.00     0.009 C 
ENDBRANCH   2  18
TORSDOF 1
