REMARK  4 active torsions:
REMARK  status: ('A' for Active; 'I' for Inactive)
REMARK    1  A    between atoms: C_2  and  C_3 
REMARK    2  A    between atoms: C_3  and  C_4 
REMARK    3  A    between atoms: N_12  and  S_13 
REMARK    4  A    between atoms: S_13  and  C_16 
ROOT
ATOM      1  C   UNL d   1       9.664   6.151  -8.994  0.00  0.00    -0.018 A 
ATOM      2  C   UNL d   1       8.603   5.761  -8.160  0.00  0.00    -0.004 A 
ATOM      3  C   UNL d   1       8.371   6.395  -6.942  0.00  0.00     0.001 A 
ATOM      4  C   UNL d   1       9.220   7.424  -6.534  0.00  0.00     0.018 A 
ATOM      5  C   UNL d   1      10.295   7.806  -7.345  0.00  0.00     0.075 A 
ATOM      6  C   UNL d   1      10.557   7.169  -8.589  0.00  0.00     0.014 A 
ATOM      7  C   UNL d   1      11.745   7.753  -9.128  0.00  0.00     0.021 A 
ATOM      8  C   UNL d   1      12.208   8.634  -8.194  0.00  0.00     0.092 A 
ATOM      9  N   UNL d   1      11.309   8.716  -7.131  0.00  0.00    -0.231 N 
ENDROOT
BRANCH   9  10
ATOM     10  S   UNL d   1      11.551   9.669  -5.710  0.00  0.00     0.271 S 
ATOM     11  O   UNL d   1      12.659  10.551  -6.050  0.00  0.00    -0.200 OA
ATOM     12  O   UNL d   1      10.243  10.222  -5.269  0.00  0.00    -0.200 OA
BRANCH  10  13
ATOM     13  C   UNL d   1      11.957   8.587  -4.409  0.00  0.00     0.104 A 
ATOM     14  C   UNL d   1      11.862   7.208  -4.597  0.00  0.00     0.013 A 
ATOM     15  C   UNL d   1      12.238   6.385  -3.551  0.00  0.00     0.001 A 
ATOM     16  C   UNL d   1      12.603   6.862  -2.298  0.00  0.00     0.000 A 
ATOM     17  C   UNL d   1      12.645   8.249  -2.097  0.00  0.00     0.001 A 
ATOM     18  C   UNL d   1      12.317   9.117  -3.157  0.00  0.00     0.013 A 
ENDBRANCH  10  13
ENDBRANCH   9  10
BRANCH   1  19
ATOM     19  C   UNL d   1       9.846   5.468 -10.324  0.00  0.00     0.068 C 
BRANCH  19  20
ATOM     20  C   UNL d   1       8.561   5.402 -11.164  0.00  0.00     0.343 C 
ATOM     21  N   UNL d   1       8.279   6.709 -11.720  0.00  0.00     0.618 N 
ENDBRANCH  19  20
ENDBRANCH   1  19
TORSDOF 4
