REMARK  3 active torsions:
REMARK  status: ('A' for Active; 'I' for Inactive)
REMARK    1  A    between atoms: C_6  and  N_7 
REMARK    2  A    between atoms: N_10  and  C_11 
REMARK    3  A    between atoms: C_11  and  C_12 
ROOT
ATOM      1  N   UNL d   1      10.178   7.754  -7.053  0.00  0.00    -0.344 N 
ATOM      2  C   UNL d   1       9.620   8.786  -7.910  0.00  0.00     0.137 C 
ATOM      3  C   UNL d   1       9.973   8.481  -9.377  0.00  0.00     0.275 C 
ATOM      4  N   UNL d   1       9.461   7.161  -9.737  0.00  0.00     0.149 N 
ATOM      5  C   UNL d   1      10.080   6.148  -8.899  0.00  0.00     0.275 C 
ATOM      6  C   UNL d   1       9.785   6.399  -7.413  0.00  0.00     0.137 C 
ENDROOT
BRANCH   4   7
ATOM      7  C   UNL d   1       9.728   6.886 -11.140  0.00  0.00     0.315 C 
BRANCH   7   8
ATOM      8  C   UNL d   1       8.862   5.845 -11.754  0.00  0.00     0.173 A 
ATOM      9  N   UNL d   1       7.632   5.627 -11.275  0.00  0.00    -0.227 NA
ATOM     10  C   UNL d   1       7.060   4.656 -12.068  0.00  0.00     0.100 A 
ATOM     11  C   UNL d   1       8.070   4.352 -13.028  0.00  0.00     0.100 A 
ATOM     12  C   UNL d   1       5.814   4.015 -12.076  0.00  0.00     0.021 A 
ATOM     13  N   UNL d   1       9.210   5.111 -12.814  0.00  0.00    -0.227 NA
ATOM     14  C   UNL d   1       7.788   3.371 -14.008  0.00  0.00     0.021 A 
ATOM     15  C   UNL d   1       6.536   2.717 -14.017  0.00  0.00     0.002 A 
ATOM     16  C   UNL d   1       5.557   3.036 -13.050  0.00  0.00     0.002 A 
ENDBRANCH   7   8
ENDBRANCH   4   7
BRANCH   1  17
ATOM     17  C   UNL d   1      11.011   8.047  -5.957  0.00  0.00     0.057 A 
ATOM     18  C   UNL d   1      11.813   9.210  -5.936  0.00  0.00     0.017 A 
ATOM     19  C   UNL d   1      12.642   9.498  -4.838  0.00  0.00     0.002 A 
ATOM     20  C   UNL d   1      12.656   8.647  -3.719  0.00  0.00     0.011 A 
ATOM     21  C   UNL d   1      11.886   7.480  -3.738  0.00  0.00     0.059 A 
ATOM     22 CL   UNL d   1      11.952   6.436  -2.397  0.00  0.00    -0.082 Cl
ATOM     23  C   UNL d   1      11.067   7.172  -4.844  0.00  0.00     0.028 A 
ENDBRANCH   1  17
TORSDOF 3
