REMARK  8 active torsions:
REMARK  status: ('A' for Active; 'I' for Inactive)
REMARK    1  A    between atoms: C_3  and  S_4 
REMARK    2  A    between atoms: S_4  and  C_5 
REMARK    3  A    between atoms: C_5  and  C_6 
REMARK    4  A    between atoms: C_6  and  C_7 
REMARK    5  A    between atoms: C_7  and  N_8 
REMARK    6  A    between atoms: N_13  and  C_14 
REMARK    7  A    between atoms: C_17  and  C_18 
REMARK    8  A    between atoms: C_28  and  C_29 
ROOT
ATOM      1  N   UNL d   1       6.249   3.055 -12.890  0.00  0.00     0.138 N 
ATOM      2  C   UNL d   1       4.956   2.390 -12.833  0.00  0.00     0.252 C 
ATOM      3  C   UNL d   1       5.198   1.159 -13.736  0.00  0.00     0.052 C 
ATOM      4  C   UNL d   1       5.726  -0.072 -13.058  0.00  0.00     0.021 C 
ATOM      5  C   UNL d   1       6.721  -0.634 -14.057  0.00  0.00     0.077 C 
ATOM      6  N   UNL d   1       7.365   0.539 -14.601  0.00  0.00    -0.252 NA
ATOM      7  C   UNL d   1       6.308   1.536 -14.703  0.00  0.00     0.097 C 
ATOM      8  C   UNL d   1       6.771   2.905 -14.246  0.00  0.00     0.266 C 
ENDROOT
BRANCH   1   9
ATOM      9  C   UNL d   1       6.202   4.434 -12.441  0.00  0.00     0.251 C 
BRANCH   9  10
ATOM     10  C   UNL d   1       7.602   5.053 -12.546  0.00  0.00     0.047 C 
BRANCH  10  11
ATOM     11  C   UNL d   1       7.513   6.570 -12.348  0.00  0.00     0.067 C 
BRANCH  11  12
ATOM     12  S   UNL d   1       9.106   7.319 -11.993  0.00  0.00    -0.075 SA
BRANCH  12  13
ATOM     13  C   UNL d   1       9.356   6.779 -10.344  0.00  0.00     0.193 A 
ATOM     14  N   UNL d   1       9.859   7.604  -9.387  0.00  0.00    -0.292 N 
ATOM     15  C   UNL d   1      10.305   8.979  -9.550  0.00  0.00     0.134 C 
ATOM     16  C   UNL d   1       9.773   6.798  -8.317  0.00  0.00     0.143 A 
ATOM     17  N   UNL d   1       9.321   5.561  -8.545  0.00  0.00    -0.133 NA
ATOM     18  N   UNL d   1       9.080   5.568  -9.893  0.00  0.00    -0.122 NA
BRANCH  16  19
ATOM     19  C   UNL d   1      10.191   7.179  -6.952  0.00  0.00     0.059 C 
ATOM     20  C   UNL d   1      11.699   7.452  -6.896  0.00  0.00     0.007 C 
ATOM     21  C   UNL d   1      11.822   8.828  -6.218  0.00  0.00     0.001 C 
ATOM     22  C   UNL d   1      10.466   9.119  -5.561  0.00  0.00     0.001 C 
ATOM     23  C   UNL d   1       9.414   8.375  -6.391  0.00  0.00     0.007 C 
ENDBRANCH  16  19
ENDBRANCH  12  13
ENDBRANCH  11  12
ENDBRANCH  10  11
ENDBRANCH   9  10
ENDBRANCH   1   9
BRANCH   6  24
ATOM     24  C   UNL d   1       8.137   0.320 -15.751  0.00  0.00     0.036 A 
ATOM     25  C   UNL d   1       9.540   0.310 -15.628  0.00  0.00     0.011 A 
ATOM     26  C   UNL d   1      10.347   0.105 -16.764  0.00  0.00     0.005 A 
ATOM     27  C   UNL d   1       9.760  -0.098 -18.031  0.00  0.00     0.071 A 
ATOM     28  C   UNL d   1       8.355  -0.101 -18.151  0.00  0.00     0.005 A 
ATOM     29  C   UNL d   1       7.547   0.098 -17.017  0.00  0.00     0.011 A 
BRANCH  27  30
ATOM     30  C   UNL d   1      10.638  -0.305 -19.253  0.00  0.00     0.419 C 
ATOM     31  F   UNL d   1       9.960  -0.876 -20.250  0.00  0.00    -0.166 F 
ATOM     32  F   UNL d   1      11.101   0.871 -19.672  0.00  0.00    -0.166 F 
ATOM     33  F   UNL d   1      11.672  -1.084 -18.937  0.00  0.00    -0.166 F 
ENDBRANCH  27  30
ENDBRANCH   6  24
TORSDOF 8
