REMARK  3 active torsions:
REMARK  status: ('A' for Active; 'I' for Inactive)
REMARK    1  A    between atoms: N_10  and  N_11 
REMARK       I    between atoms: N_11  and  C_12 
REMARK    2  A    between atoms: C_12  and  C_14 
REMARK    3  A    between atoms: C_19  and  S_20 
ROOT
ATOM      1  N   UNL d   1       8.181   6.152 -11.622  0.00  0.00    -0.127 NA
ATOM      2  C   UNL d   1       8.300   5.556 -10.439  0.00  0.00     0.295 C 
ATOM      3  O   UNL d   1       7.915   4.412 -10.209  0.00  0.00    -0.264 OA
ENDROOT
BRANCH   2   4
ATOM      4  C   UNL d   1       8.949   6.212  -9.331  0.00  0.00     0.060 A 
ATOM      5  C   UNL d   1      10.008   7.053  -9.566  0.00  0.00     0.019 A 
ATOM      6  C   UNL d   1      10.550   7.722  -8.472  0.00  0.00     0.117 A 
ATOM      7  C   UNL d   1      10.025   7.549  -7.167  0.00  0.00     0.070 A 
ATOM      8  C   UNL d   1       8.977   6.650  -6.961  0.00  0.00     0.012 A 
ATOM      9 CL   UNL d   1      10.617   8.380  -5.792  0.00  0.00    -0.082 Cl
ATOM     10  C   UNL d   1       8.453   5.942  -8.037  0.00  0.00     0.006 A 
BRANCH   6  11
ATOM     11  S   UNL d   1      11.870   8.770  -8.880  0.00  0.00     0.303 S 
ATOM     12  N   UNL d   1      12.799   7.871  -9.953  0.00  0.00    -0.043 N 
ATOM     13  O   UNL d   1      11.243   9.860  -9.664  0.00  0.00    -0.197 OA
ATOM     14  O   UNL d   1      12.710   8.938  -7.695  0.00  0.00    -0.197 OA
ENDBRANCH   6  11
ENDBRANCH   2   4
BRANCH   1  15
ATOM     15  N   UNL d   1       7.785   5.448 -12.791  0.00  0.00    -0.250 N 
ATOM     16  C   UNL d   1       6.383   4.989 -12.958  0.00  0.00     0.110 C 
ATOM     17  C   UNL d   1       5.590   4.670 -11.736  0.00  0.00     0.027 C 
ATOM     18  C   UNL d   1       6.399   3.723 -13.857  0.00  0.00     0.052 C 
ATOM     19  C   UNL d   1       7.883   3.480 -14.012  0.00  0.00    -0.003 A 
ATOM     20  C   UNL d   1       8.606   4.471 -13.358  0.00  0.00     0.074 A 
ATOM     21  C   UNL d   1       8.512   2.395 -14.657  0.00  0.00    -0.003 A 
ATOM     22  C   UNL d   1      10.005   4.391 -13.279  0.00  0.00     0.018 A 
ATOM     23  C   UNL d   1      10.666   3.318 -13.897  0.00  0.00     0.002 A 
ATOM     24  C   UNL d   1       9.930   2.325 -14.595  0.00  0.00    -0.000 A 
ENDBRANCH   1  15
TORSDOF 3
