REMARK  6 active torsions:
REMARK  status: ('A' for Active; 'I' for Inactive)
REMARK       I    between atoms: C_2  and  N_3 
REMARK    1  A    between atoms: C_2  and  C_30 
REMARK    2  A    between atoms: N_3  and  C_4 
REMARK    3  A    between atoms: C_10  and  C_11 
REMARK    4  A    between atoms: C_11  and  C_12 
REMARK    5  A    between atoms: C_12  and  N_13 
REMARK    6  A    between atoms: N_16  and  C_17 
ROOT
ATOM      1  C   UNL d   1       9.097   1.200 -14.801  0.00  0.00     0.129 C 
ATOM      2  C   UNL d   1       7.847   0.424 -15.309  0.00  0.00     0.034 C 
ATOM      3  C   UNL d   1       6.651   1.379 -15.210  0.00  0.00     0.028 C 
ATOM      4  C   UNL d   1       7.146   2.516 -14.362  0.00  0.00    -0.024 A 
ATOM      5  C   UNL d   1       6.393   3.570 -13.821  0.00  0.00    -0.005 A 
ATOM      6  C   UNL d   1       7.050   4.559 -13.051  0.00  0.00    -0.005 A 
ATOM      7  C   UNL d   1       8.445   4.479 -12.816  0.00  0.00    -0.020 A 
ATOM      8  C   UNL d   1       9.192   3.398 -13.359  0.00  0.00    -0.007 A 
ATOM      9  C   UNL d   1       8.514   2.420 -14.129  0.00  0.00    -0.004 A 
ENDROOT
BRANCH   7  10
ATOM     10  C   UNL d   1       9.144   5.556 -11.997  0.00  0.00     0.062 C 
BRANCH  10  11
ATOM     11  C   UNL d   1       8.701   5.601 -10.524  0.00  0.00     0.255 C 
BRANCH  11  12
ATOM     12  N   UNL d   1       9.805   5.983  -9.650  0.00  0.00     0.141 N 
ATOM     13  C   UNL d   1       9.386   5.758  -8.266  0.00  0.00     0.274 C 
ATOM     14  C   UNL d   1      10.535   6.073  -7.294  0.00  0.00     0.138 C 
ATOM     15  N   UNL d   1      11.045   7.410  -7.483  0.00  0.00    -0.329 N 
ATOM     16  C   UNL d   1      11.351   7.752  -8.868  0.00  0.00     0.138 C 
ATOM     17  C   UNL d   1      10.175   7.392  -9.809  0.00  0.00     0.274 C 
BRANCH  15  18
ATOM     18  C   UNL d   1      11.122   8.330  -6.418  0.00  0.00     0.148 A 
ATOM     19  C   UNL d   1      11.482   7.973  -5.044  0.00  0.00     0.042 A 
ATOM     20  C   UNL d   1      11.511   9.143  -4.227  0.00  0.00     0.050 A 
ATOM     21  C   UNL d   1      11.863   6.768  -4.400  0.00  0.00     0.004 A 
ATOM     22  S   UNL d   1      11.040  10.468  -5.249  0.00  0.00     0.015 SA
ATOM     23  C   UNL d   1      11.867   9.133  -2.873  0.00  0.00     0.008 A 
ATOM     24  N   UNL d   1      10.894   9.598  -6.655  0.00  0.00    -0.192 NA
ATOM     25  C   UNL d   1      12.220   7.919  -2.264  0.00  0.00     0.001 A 
ATOM     26  C   UNL d   1      12.225   6.741  -3.036  0.00  0.00     0.000 A 
ENDBRANCH  15  18
ENDBRANCH  11  12
ENDBRANCH  10  11
ENDBRANCH   7  10
BRANCH   1  27
ATOM     27  N   UNL d   1      10.008   1.609 -15.861  0.00  0.00    -0.230 NA
ATOM     28  C   UNL d   1      10.663   0.815 -16.718  0.00  0.00     0.300 C 
ATOM     29  O   UNL d   1      10.521  -0.408 -16.750  0.00  0.00    -0.263 OA
BRANCH  28  30
ATOM     30  C   UNL d   1      11.583   1.493 -17.648  0.00  0.00     0.184 A 
ATOM     31  O   UNL d   1      12.279   0.845 -18.610  0.00  0.00    -0.206 OA
ATOM     32  N   UNL d   1      13.081   1.786 -19.266  0.00  0.00    -0.124 NA
ATOM     33  C   UNL d   1      12.830   2.945 -18.677  0.00  0.00     0.130 A 
ATOM     34  C   UNL d   1      11.876   2.828 -17.629  0.00  0.00     0.055 A 
ENDBRANCH  28  30
ENDBRANCH   1  27
TORSDOF 6
