REMARK  1 active torsions:
REMARK  status: ('A' for Active; 'I' for Inactive)
REMARK    1  A    between atoms: C_4  and  C_5 
ROOT
ATOM      1  C   UNL d   1      10.838   8.959  -5.832  0.00  0.00     0.242 C 
ATOM      2  C   UNL d   1      11.840   9.731  -6.690  0.00  0.00     0.040 C 
ATOM      3  C   UNL d   1      11.462   9.363  -8.132  0.00  0.00     0.042 C 
ATOM      4  C   UNL d   1      10.143   8.674  -8.004  0.00  0.00     0.259 C 
ATOM      5  C   UNL d   1       9.809   7.734  -9.089  0.00  0.00     0.086 A 
ATOM      6  N   UNL d   1       9.892   7.958 -10.442  0.00  0.00    -0.248 NA
ATOM      7  C   UNL d   1       9.339   6.892 -11.123  0.00  0.00     0.081 A 
ATOM      8  C   UNL d   1       9.125   6.662 -12.480  0.00  0.00     0.019 A 
ATOM      9  C   UNL d   1       8.522   5.460 -12.896  0.00  0.00     0.002 A 
ATOM     10  C   UNL d   1       8.092   4.527 -11.941  0.00  0.00     0.000 A 
ATOM     11  C   UNL d   1       8.261   4.791 -10.566  0.00  0.00     0.001 A 
ATOM     12  C   UNL d   1       8.901   5.971 -10.133  0.00  0.00     0.015 A 
ATOM     13  C   UNL d   1       9.206   6.542  -8.863  0.00  0.00    -0.003 A 
ATOM     14  C   UNL d   1       8.940   6.083  -7.478  0.00  0.00     0.063 C 
ATOM     15  C   UNL d   1       9.159   7.218  -6.441  0.00  0.00     0.256 C 
ATOM     16  N   UNL d   1      10.378   7.946  -6.772  0.00  0.00     0.143 N 
ENDROOT
BRANCH   1  17
ATOM     17  C   UNL d   1      11.463   8.447  -4.546  0.00  0.00     0.009 A 
ATOM     18  C   UNL d   1      11.732   9.354  -3.501  0.00  0.00    -0.002 A 
ATOM     19  C   UNL d   1      12.264   8.897  -2.281  0.00  0.00    -0.000 A 
ATOM     20  C   UNL d   1      12.520   7.529  -2.109  0.00  0.00    -0.000 A 
ATOM     21  C   UNL d   1      12.259   6.628  -3.149  0.00  0.00    -0.000 A 
ATOM     22  C   UNL d   1      11.754   7.080  -4.374  0.00  0.00    -0.002 A 
ENDBRANCH   1  17
TORSDOF 1
