REMARK  7 active torsions:
REMARK  status: ('A' for Active; 'I' for Inactive)
REMARK    1  A    between atoms: C_2  and  C_3 
REMARK       I    between atoms: C_2  and  N_10 
REMARK    2  A    between atoms: C_3  and  C_4 
REMARK    3  A    between atoms: N_10  and  C_11 
REMARK    4  A    between atoms: C_14  and  C_15 
REMARK    5  A    between atoms: C_15  and  C_16 
REMARK    6  A    between atoms: C_16  and  N_17 
REMARK    7  A    between atoms: N_20  and  C_21 
ROOT
ATOM      1  C   UNL d   1       9.022   5.278 -13.248  0.00  0.00     0.035 C 
ENDROOT
BRANCH   1   2
ATOM      2  C   UNL d   1       9.483   5.664 -11.850  0.00  0.00     0.002 C 
ATOM      3  C   UNL d   1       9.079   7.091 -11.493  0.00  0.00     0.002 C 
ATOM      4  C   UNL d   1       9.517   7.415 -10.055  0.00  0.00     0.024 C 
ATOM      5  C   UNL d   1       8.959   6.404  -9.011  0.00  0.00     0.106 C 
ATOM      6  C   UNL d   1       9.353   4.968  -9.347  0.00  0.00     0.024 C 
ATOM      7  C   UNL d   1       8.984   4.652 -10.800  0.00  0.00     0.002 C 
BRANCH   5   8
ATOM      8  N   UNL d   1       9.309   6.719  -7.636  0.00  0.00    -0.240 NA
ATOM      9  C   UNL d   1      10.550   6.945  -7.178  0.00  0.00     0.254 C 
ATOM     10  O   UNL d   1      11.507   7.234  -7.892  0.00  0.00    -0.271 OA
BRANCH   9  11
ATOM     11  C   UNL d   1      10.784   6.756  -5.681  0.00  0.00     0.119 C 
BRANCH  11  12
ATOM     12  C   UNL d   1      11.591   7.920  -5.083  0.00  0.00     0.128 C 
ATOM     13  O   UNL d   1      10.706   8.939  -4.649  0.00  0.00    -0.353 OA
ATOM     14  C   UNL d   1      11.428   9.682  -3.693  0.00  0.00     0.175 C 
ATOM     15  C   UNL d   1      12.370   8.686  -2.984  0.00  0.00     0.184 C 
ATOM     16  C   UNL d   1      12.433   7.500  -3.884  0.00  0.00     0.066 C 
ATOM     17  O   UNL d   1      11.896   8.254  -1.722  0.00  0.00    -0.221 OA
ENDBRANCH  11  12
ENDBRANCH   9  11
ENDBRANCH   5   8
ENDBRANCH   1   2
BRANCH   1  18
ATOM     18  C   UNL d   1       9.419   3.827 -13.594  0.00  0.00     0.250 C 
BRANCH  18  19
ATOM     19  N   UNL d   1       8.816   3.418 -14.849  0.00  0.00     0.141 N 
ATOM     20  C   UNL d   1       8.935   1.970 -15.064  0.00  0.00     0.274 C 
ATOM     21  C   UNL d   1      10.428   1.571 -15.214  0.00  0.00     0.138 C 
ATOM     22  N   UNL d   1      11.055   2.397 -16.256  0.00  0.00    -0.330 N 
ATOM     23  C   UNL d   1      10.824   3.840 -16.251  0.00  0.00     0.138 C 
ATOM     24  C   UNL d   1       9.339   4.128 -16.021  0.00  0.00     0.274 C 
BRANCH  22  25
ATOM     25  C   UNL d   1      11.797   1.806 -17.305  0.00  0.00     0.138 A 
ATOM     26  C   UNL d   1      12.849   2.488 -17.960  0.00  0.00     0.036 A 
ATOM     27  C   UNL d   1      13.553   1.877 -18.966  0.00  0.00     0.095 A 
ATOM     28  C   UNL d   1      13.460   3.839 -17.699  0.00  0.00     0.064 C 
ATOM     29  C   UNL d   1      13.209   0.578 -19.381  0.00  0.00     0.045 A 
ATOM     30  O   UNL d   1      14.601   2.631 -19.425  0.00  0.00    -0.331 OA
ATOM     31  C   UNL d   1      12.143  -0.042 -18.682  0.00  0.00     0.103 A 
ATOM     32  N   UNL d   1      11.468   0.547 -17.670  0.00  0.00    -0.228 NA
ATOM     33  C   UNL d   1      14.694   3.805 -18.604  0.00  0.00     0.154 C 
ENDBRANCH  22  25
ENDBRANCH  18  19
ENDBRANCH   1  18
TORSDOF 7
