REMARK  9 active torsions:
REMARK  status: ('A' for Active; 'I' for Inactive)
REMARK    1  A    between atoms: O_2  and  C_3 
REMARK    2  A    between atoms: C_11  and  N_12 
REMARK    3  A    between atoms: N_12  and  C_14 
REMARK    4  A    between atoms: C_14  and  C_15 
REMARK    5  A    between atoms: C_15  and  C_16 
REMARK    6  A    between atoms: C_16  and  C_17 
REMARK    7  A    between atoms: C_17  and  N_18 
REMARK       I    between atoms: N_18  and  C_19 
REMARK    8  A    between atoms: C_19  and  C_21 
REMARK    9  A    between atoms: C_24  and  C_25 
ROOT
ATOM      1  C   UNL d   1       9.738   5.151 -13.042  0.00  0.00     0.029 C 
ENDROOT
BRANCH   1   2
ATOM      2  C   UNL d   1       9.404   4.896 -14.504  0.00  0.00     0.037 C 
BRANCH   2   3
ATOM      3  C   UNL d   1       9.447   3.396 -14.817  0.00  0.00     0.250 C 
BRANCH   3   4
ATOM      4  N   UNL d   1       9.341   3.195 -16.263  0.00  0.00     0.137 N 
ATOM      5  C   UNL d   1      10.699   3.266 -16.810  0.00  0.00     0.285 C 
BRANCH   4   6
ATOM      6  C   UNL d   1       8.639   1.962 -16.656  0.00  0.00     0.224 C 
ATOM      7  C   UNL d   1       7.189   1.941 -16.139  0.00  0.00     0.038 C 
ATOM      8  C   UNL d   1       6.483   0.622 -16.468  0.00  0.00     0.030 C 
ATOM      9  C   UNL d   1       6.658   0.168 -17.912  0.00  0.00    -0.004 A 
ATOM     10  C   UNL d   1       5.797  -0.820 -18.440  0.00  0.00     0.090 A 
ATOM     11  C   UNL d   1       7.680   0.723 -18.720  0.00  0.00    -0.022 A 
ATOM     12  C   UNL d   1       5.980  -1.257 -19.779  0.00  0.00     0.024 A 
ATOM     13  C   UNL d   1       6.998  -0.704 -20.572  0.00  0.00     0.002 A 
ATOM     14  C   UNL d   1       7.842   0.284 -20.051  0.00  0.00    -0.004 A 
ATOM     15  C   UNL d   1       8.608   1.810 -18.197  0.00  0.00     0.059 C 
BRANCH  10  16
ATOM     16  O   UNL d   1       4.813  -1.323 -17.623  0.00  0.00    -0.328 OA
ATOM     17  C   UNL d   1       3.738  -2.026 -18.223  0.00  0.00     0.181 C 
ENDBRANCH  10  16
ENDBRANCH   4   6
ENDBRANCH   3   4
ENDBRANCH   2   3
ENDBRANCH   1   2
BRANCH   1  18
ATOM     18  C   UNL d   1       9.361   6.570 -12.580  0.00  0.00     0.129 C 
BRANCH  18  19
ATOM     19  N   UNL d   1       9.760   6.819 -11.206  0.00  0.00    -0.234 NA
ATOM     20  C   UNL d   1       9.315   6.160 -10.123  0.00  0.00     0.275 C 
ATOM     21  O   UNL d   1       8.520   5.222 -10.160  0.00  0.00    -0.266 OA
BRANCH  20  22
ATOM     22  C   UNL d   1       9.838   6.665  -8.809  0.00  0.00     0.058 A 
ATOM     23  C   UNL d   1      11.059   7.369  -8.719  0.00  0.00     0.005 A 
ATOM     24  C   UNL d   1      11.552   7.796  -7.470  0.00  0.00     0.000 A 
ATOM     25  C   UNL d   1      10.848   7.502  -6.284  0.00  0.00     0.000 A 
ATOM     26  C   UNL d   1       9.634   6.792  -6.378  0.00  0.00     0.000 A 
ATOM     27  C   UNL d   1       9.126   6.387  -7.625  0.00  0.00     0.005 A 
BRANCH  25  28
ATOM     28  C   UNL d   1      11.373   7.929  -4.977  0.00  0.00     0.000 A 
ATOM     29  C   UNL d   1      11.377   9.296  -4.631  0.00  0.00     0.000 A 
ATOM     30  C   UNL d   1      11.844   9.706  -3.369  0.00  0.00     0.000 A 
ATOM     31  C   UNL d   1      12.332   8.769  -2.446  0.00  0.00     0.000 A 
ATOM     32  C   UNL d   1      12.333   7.404  -2.780  0.00  0.00     0.000 A 
ATOM     33  C   UNL d   1      11.861   6.990  -4.041  0.00  0.00     0.000 A 
ENDBRANCH  25  28
ENDBRANCH  20  22
ENDBRANCH  18  19
ENDBRANCH   1  18
TORSDOF 9
