REMARK  8 active torsions:
REMARK  status: ('A' for Active; 'I' for Inactive)
REMARK    1  A    between atoms: O_2  and  C_3 
REMARK    2  A    between atoms: C_8  and  N_9 
REMARK    3  A    between atoms: N_12  and  C_13 
REMARK    4  A    between atoms: C_13  and  C_14 
REMARK    5  A    between atoms: C_14  and  C_15 
REMARK    6  A    between atoms: C_15  and  N_16 
REMARK       I    between atoms: N_16  and  C_17 
REMARK    7  A    between atoms: C_17  and  C_19 
REMARK    8  A    between atoms: C_23  and  O_24 
ROOT
ATOM      1  C   UNL d   1       8.377   6.313 -12.326  0.00  0.00     0.131 C 
ENDROOT
BRANCH   1   2
ATOM      2  C   UNL d   1       9.282   5.952 -11.134  0.00  0.00     0.062 C 
BRANCH   2   3
ATOM      3  C   UNL d   1       9.608   7.185 -10.290  0.00  0.00     0.253 C 
BRANCH   3   4
ATOM      4  N   UNL d   1      10.534   6.881  -9.221  0.00  0.00     0.141 N 
ATOM      5  C   UNL d   1       9.781   6.359  -8.072  0.00  0.00     0.274 C 
ATOM      6  C   UNL d   1      10.754   6.071  -6.933  0.00  0.00     0.137 C 
ATOM      7  N   UNL d   1      11.466   7.265  -6.564  0.00  0.00    -0.343 N 
ATOM      8  C   UNL d   1      12.173   7.871  -7.670  0.00  0.00     0.137 C 
ATOM      9  C   UNL d   1      11.188   8.139  -8.816  0.00  0.00     0.274 C 
BRANCH   7  10
ATOM     10  C   UNL d   1      11.504   7.721  -5.235  0.00  0.00     0.079 A 
ATOM     11  C   UNL d   1      11.409   9.103  -4.948  0.00  0.00     0.110 A 
ATOM     12  C   UNL d   1      11.605   9.570  -3.627  0.00  0.00     0.026 A 
ATOM     13  C   UNL d   1      11.926   8.676  -2.597  0.00  0.00     0.002 A 
ATOM     14  C   UNL d   1      11.995   7.301  -2.865  0.00  0.00     0.002 A 
ATOM     15  C   UNL d   1      11.801   6.833  -4.187  0.00  0.00     0.019 A 
BRANCH  11  16
ATOM     16  O   UNL d   1      11.013   9.912  -5.966  0.00  0.00    -0.327 OA
ATOM     17  C   UNL d   1      11.760  11.092  -6.075  0.00  0.00     0.181 C 
ENDBRANCH  11  16
ENDBRANCH   7  10
ENDBRANCH   3   4
ENDBRANCH   2   3
ENDBRANCH   1   2
BRANCH   1  18
ATOM     18  N   UNL d   1       8.480   5.288 -13.359  0.00  0.00    -0.234 NA
ATOM     19  C   UNL d   1       7.800   4.133 -13.389  0.00  0.00     0.282 C 
ATOM     20  O   UNL d   1       6.871   3.907 -12.616  0.00  0.00    -0.265 OA
BRANCH  19  21
ATOM     21  C   UNL d   1       8.222   3.141 -14.422  0.00  0.00     0.101 A 
ATOM     22  C   UNL d   1       7.567   2.024 -14.911  0.00  0.00     0.082 A 
ATOM     23  C   UNL d   1       8.328   1.339 -15.950  0.00  0.00     0.035 A 
ATOM     24  N   UNL d   1       6.310   1.569 -14.479  0.00  0.00    -0.100 NA
ATOM     25  C   UNL d   1       9.600   1.959 -16.153  0.00  0.00     0.114 A 
ATOM     26  C   UNL d   1       8.071   0.214 -16.782  0.00  0.00    -0.005 A 
ATOM     27  S   UNL d   1       9.812   3.355 -15.110  0.00  0.00    -0.062 SA
ATOM     28  N   UNL d   1      10.573   1.570 -17.029  0.00  0.00    -0.215 NA
ATOM     29  C   UNL d   1      10.285   0.479 -17.781  0.00  0.00     0.189 A 
ATOM     30  C   UNL d   1       9.064  -0.221 -17.701  0.00  0.00     0.095 A 
ATOM     31 CL   UNL d   1       8.803  -1.571 -18.748  0.00  0.00    -0.079 Cl
ATOM     32  C   UNL d   1       6.734  -0.515 -16.671  0.00  0.00     0.032 C 
BRANCH  29  33
ATOM     33  O   UNL d   1      11.234   0.037 -18.678  0.00  0.00    -0.311 OA
ATOM     34  C   UNL d   1      12.378   0.848 -18.923  0.00  0.00     0.183 C 
ENDBRANCH  29  33
ENDBRANCH  19  21
ENDBRANCH   1  18
TORSDOF 8
