REMARK  6 active torsions:
REMARK  status: ('A' for Active; 'I' for Inactive)
REMARK    1  A    between atoms: C_2  and  O_3 
REMARK    2  A    between atoms: O_3  and  C_4 
REMARK    3  A    between atoms: C_4  and  C_6 
REMARK    4  A    between atoms: C_14  and  C_15 
REMARK    5  A    between atoms: C_15  and  C_16 
REMARK    6  A    between atoms: C_16  and  N_17 
ROOT
ATOM      1  C   UNL d   1       8.358   1.174 -15.686  0.00  0.00     0.140 A 
ATOM      2  N   UNL d   1       8.513  -0.021 -16.356  0.00  0.00    -0.240 NA
ATOM      3  C   UNL d   1       9.669  -0.032 -17.109  0.00  0.00     0.081 A 
ATOM      4  C   UNL d   1      10.256  -1.007 -17.933  0.00  0.00     0.019 A 
ATOM      5  C   UNL d   1      11.458  -0.706 -18.601  0.00  0.00     0.002 A 
ATOM      6  C   UNL d   1      12.057   0.558 -18.441  0.00  0.00     0.000 A 
ATOM      7  C   UNL d   1      11.462   1.522 -17.604  0.00  0.00     0.001 A 
ATOM      8  C   UNL d   1      10.257   1.244 -16.914  0.00  0.00     0.015 A 
ATOM      9  C   UNL d   1       9.417   1.986 -16.019  0.00  0.00     0.004 A 
ENDROOT
BRANCH   1  10
ATOM     10  C   UNL d   1       7.182   1.384 -14.830  0.00  0.00     0.313 C 
ATOM     11  O   UNL d   1       6.883   2.481 -14.353  0.00  0.00    -0.257 OA
BRANCH  10  12
ATOM     12  O   UNL d   1       6.498   0.240 -14.615  0.00  0.00    -0.297 OA
BRANCH  12  13
ATOM     13  C   UNL d   1       5.344   0.229 -13.793  0.00  0.00     0.152 C 
ATOM     14  C   UNL d   1       4.251  -0.589 -14.484  0.00  0.00     0.035 C 
ENDBRANCH  12  13
ENDBRANCH  10  12
ENDBRANCH   1  10
BRANCH   9  15
ATOM     15  C   UNL d   1       9.657   3.385 -15.594  0.00  0.00     0.063 C 
BRANCH  15  16
ATOM     16  C   UNL d   1      10.757   3.501 -14.509  0.00  0.00     0.255 C 
BRANCH  16  17
ATOM     17  N   UNL d   1      11.002   4.878 -14.075  0.00  0.00     0.142 N 
ATOM     18  C   UNL d   1      11.484   5.728 -15.169  0.00  0.00     0.285 C 
ATOM     19  C   UNL d   1       9.836   5.468 -13.421  0.00  0.00     0.285 C 
ENDBRANCH  16  17
ENDBRANCH  15  16
ENDBRANCH   9  15
TORSDOF 6
