REMARK  1 active torsions:
REMARK  status: ('A' for Active; 'I' for Inactive)
REMARK    1  A    between atoms: C_12  and  C_13 
ROOT
ATOM      1  C   UNL d   1      12.251  -0.543 -18.732  0.00  0.00     0.285 C 
ATOM      2  N   UNL d   1      11.092   0.049 -18.062  0.00  0.00     0.135 N 
ATOM      3  C   UNL d   1      11.502   0.880 -16.941  0.00  0.00     0.222 C 
ATOM      4  C   UNL d   1      12.075   2.157 -17.575  0.00  0.00     0.035 C 
ATOM      5  C   UNL d   1      11.304   2.252 -18.930  0.00  0.00     0.035 C 
ATOM      6  C   UNL d   1      10.374   1.014 -18.905  0.00  0.00     0.222 C 
ATOM      7  C   UNL d   1       8.980   1.239 -18.231  0.00  0.00     0.061 C 
ATOM      8  C   UNL d   1       9.094   1.825 -16.790  0.00  0.00     0.110 C 
ATOM      9  C   UNL d   1       9.306   3.389 -16.887  0.00  0.00     0.097 C 
ATOM     10  C   UNL d   1       9.457   3.944 -15.487  0.00  0.00     0.177 C 
ATOM     11  O   UNL d   1      10.309   4.804 -15.284  0.00  0.00    -0.291 OA
ATOM     12  C   UNL d   1       8.521   3.415 -14.461  0.00  0.00     0.059 C 
ATOM     13  C   UNL d   1       7.770   2.341 -14.852  0.00  0.00     0.119 C 
ATOM     14  O   UNL d   1       7.875   1.640 -16.003  0.00  0.00    -0.333 OA
ATOM     15  C   UNL d   1      10.236   1.048 -16.043  0.00  0.00     0.061 C 
ENDROOT
BRANCH  12  16
ATOM     16  C   UNL d   1       8.361   4.140 -13.187  0.00  0.00     0.005 A 
ATOM     17  C   UNL d   1       7.126   4.686 -12.839  0.00  0.00     0.000 A 
ATOM     18  C   UNL d   1       7.024   5.428 -11.648  0.00  0.00     0.000 A 
ATOM     19  C   UNL d   1       8.154   5.593 -10.820  0.00  0.00     0.000 A 
ATOM     20  C   UNL d   1       9.386   5.037 -11.187  0.00  0.00     0.000 A 
ATOM     21  C   UNL d   1       9.494   4.306 -12.376  0.00  0.00     0.000 A 
ENDBRANCH  12  16
TORSDOF 1
