REMARK  1 active torsions:
REMARK  status: ('A' for Active; 'I' for Inactive)
REMARK    1  A    between atoms: C_10  and  C_11 
ROOT
ATOM      1  C   UNL d   1       6.875   3.103 -14.316  0.00  0.00     0.285 C 
ATOM      2  N   UNL d   1       7.516   4.224 -13.649  0.00  0.00     0.139 N 
ATOM      3  C   UNL d   1       6.769   4.548 -12.434  0.00  0.00     0.253 C 
ATOM      4  C   UNL d   1       7.390   5.765 -11.752  0.00  0.00     0.071 C 
ATOM      5  C   UNL d   1       8.867   5.524 -11.423  0.00  0.00     0.157 A 
ATOM      6  C   UNL d   1       9.618   5.071 -12.688  0.00  0.00     0.071 C 
ATOM      7  C   UNL d   1       8.907   3.878 -13.346  0.00  0.00     0.253 C 
ATOM      8  O   UNL d   1       8.975   4.522 -10.425  0.00  0.00    -0.326 OA
ATOM      9  C   UNL d   1       9.473   5.105  -9.290  0.00  0.00     0.119 A 
ATOM     10  C   UNL d   1       9.787   6.390  -9.364  0.00  0.00     0.061 A 
ATOM     11  C   UNL d   1       9.467   6.753 -10.742  0.00  0.00     0.200 A 
ATOM     12  O   UNL d   1       9.572   7.858 -11.279  0.00  0.00    -0.289 OA
ENDROOT
BRANCH  10  13
ATOM     13  C   UNL d   1      10.319   7.249  -8.278  0.00  0.00     0.005 A 
ATOM     14  C   UNL d   1      10.649   8.598  -8.489  0.00  0.00     0.000 A 
ATOM     15  C   UNL d   1      11.186   9.365  -7.439  0.00  0.00     0.000 A 
ATOM     16  C   UNL d   1      11.399   8.804  -6.167  0.00  0.00     0.000 A 
ATOM     17  C   UNL d   1      11.054   7.462  -5.942  0.00  0.00     0.000 A 
ATOM     18  C   UNL d   1      10.513   6.695  -6.989  0.00  0.00     0.000 A 
ENDBRANCH  10  13
TORSDOF 1
