REMARK  4 active torsions:
REMARK  status: ('A' for Active; 'I' for Inactive)
REMARK    1  A    between atoms: C_6  and  N_7 
REMARK    2  A    between atoms: N_10  and  C_11 
REMARK    3  A    between atoms: C_11  and  C_12 
REMARK    4  A    between atoms: C_14  and  C_15 
ROOT
ATOM      1  N   UNL d   1      10.639   6.953  -8.494  0.00  0.00    -0.344 N 
ATOM      2  C   UNL d   1       9.957   5.666  -8.475  0.00  0.00     0.137 C 
ATOM      3  C   UNL d   1       8.774   5.674  -9.460  0.00  0.00     0.274 C 
ATOM      4  N   UNL d   1       9.227   6.033 -10.812  0.00  0.00     0.141 N 
ATOM      5  C   UNL d   1       9.798   7.386 -10.762  0.00  0.00     0.274 C 
ATOM      6  C   UNL d   1      11.012   7.438  -9.818  0.00  0.00     0.137 C 
ENDROOT
BRANCH   4   7
ATOM      7  C   UNL d   1       8.086   6.016 -11.727  0.00  0.00     0.251 C 
BRANCH   7   8
ATOM      8  C   UNL d   1       7.816   4.617 -12.248  0.00  0.00     0.038 A 
ATOM      9  C   UNL d   1       7.777   4.334 -13.734  0.00  0.00     0.024 A 
ATOM     10  C   UNL d   1       6.498   4.304 -12.930  0.00  0.00     0.007 A 
BRANCH   9  11
ATOM     11  C   UNL d   1       8.392   3.088 -14.285  0.00  0.00    -0.022 A 
ATOM     12  C   UNL d   1       9.796   2.945 -14.346  0.00  0.00    -0.004 A 
ATOM     13  C   UNL d   1      10.369   1.756 -14.841  0.00  0.00    -0.000 A 
ATOM     14  C   UNL d   1       9.539   0.698 -15.261  0.00  0.00    -0.000 A 
ATOM     15  C   UNL d   1       8.139   0.840 -15.219  0.00  0.00    -0.000 A 
ATOM     16  C   UNL d   1       7.571   2.035 -14.739  0.00  0.00    -0.004 A 
ENDBRANCH   9  11
ENDBRANCH   7   8
ENDBRANCH   4   7
BRANCH   1  17
ATOM     17  C   UNL d   1      10.889   7.674  -7.310  0.00  0.00     0.057 A 
ATOM     18  C   UNL d   1      10.827   9.083  -7.293  0.00  0.00     0.017 A 
ATOM     19  C   UNL d   1      11.073   9.802  -6.102  0.00  0.00     0.002 A 
ATOM     20  C   UNL d   1      11.392   9.117  -4.915  0.00  0.00     0.011 A 
ATOM     21  C   UNL d   1      11.458   7.714  -4.923  0.00  0.00     0.059 A 
ATOM     22 CL   UNL d   1      11.863   6.860  -3.478  0.00  0.00    -0.082 Cl
ATOM     23  C   UNL d   1      11.210   7.000  -6.110  0.00  0.00     0.028 A 
ENDBRANCH   1  17
TORSDOF 4
