REMARK  3 active torsions:
REMARK  status: ('A' for Active; 'I' for Inactive)
REMARK    1  A    between atoms: C_2  and  C_3 
REMARK    2  A    between atoms: C_3  and  N_4 
REMARK    3  A    between atoms: C_11  and  C_12 
ROOT
ATOM      1  N   UNL d   1       7.885   4.787 -13.261  0.00  0.00     0.140 N 
ATOM      2  C   UNL d   1       8.910   5.087 -14.262  0.00  0.00     0.282 C 
ATOM      3  C   UNL d   1       9.627   3.835 -14.811  0.00  0.00     0.178 C 
ATOM      4  O   UNL d   1       8.655   2.924 -15.335  0.00  0.00    -0.348 OA
ATOM      5  C   UNL d   1       7.737   2.516 -14.329  0.00  0.00     0.169 C 
ATOM      6  C   UNL d   1       6.773   1.419 -14.757  0.00  0.00     0.003 A 
ATOM      7  C   UNL d   1       7.017   0.650 -15.910  0.00  0.00     0.001 A 
ATOM      8  C   UNL d   1       6.097  -0.342 -16.340  0.00  0.00     0.039 A 
ATOM      9  C   UNL d   1       4.932  -0.555 -15.563  0.00  0.00     0.003 A 
ATOM     10  C   UNL d   1       4.709   0.185 -14.383  0.00  0.00    -0.004 A 
ATOM     11  C   UNL d   1       5.622   1.173 -13.979  0.00  0.00    -0.024 A 
ATOM     12  C   UNL d   1       5.343   2.054 -12.773  0.00  0.00     0.028 C 
ATOM     13  C   UNL d   1       5.697   3.523 -12.973  0.00  0.00     0.041 C 
ATOM     14  C   UNL d   1       6.978   3.770 -13.800  0.00  0.00     0.251 C 
ENDROOT
BRANCH   8  15
ATOM     15  C   UNL d   1       6.344  -1.119 -17.571  0.00  0.00     0.208 A 
ATOM     16  N   UNL d   1       7.467  -0.950 -18.335  0.00  0.00    -0.106 NA
ATOM     17  N   UNL d   1       7.390  -1.847 -19.265  0.00  0.00    -0.021 NA
ATOM     18  N   UNL d   1       6.233  -2.511 -19.042  0.00  0.00    -0.021 NA
ATOM     19  N   UNL d   1       5.531  -2.078 -17.986  0.00  0.00    -0.106 NA
ENDBRANCH   8  15
BRANCH   1  20
ATOM     20  C   UNL d   1       8.454   4.433 -11.953  0.00  0.00     0.250 C 
BRANCH  20  21
ATOM     21  C   UNL d   1       9.133   5.592 -11.206  0.00  0.00     0.035 C 
ATOM     22  C   UNL d   1       9.358   5.260  -9.725  0.00  0.00     0.002 C 
ENDBRANCH  20  21
ENDBRANCH   1  20
TORSDOF 3
