REMARK  8 active torsions:
REMARK  status: ('A' for Active; 'I' for Inactive)
REMARK    1  A    between atoms: C_3  and  S_4 
REMARK    2  A    between atoms: S_4  and  C_5 
REMARK    3  A    between atoms: C_5  and  C_6 
REMARK    4  A    between atoms: C_6  and  C_7 
REMARK    5  A    between atoms: C_7  and  N_8 
REMARK    6  A    between atoms: C_12  and  C_13 
REMARK    7  A    between atoms: C_16  and  C_17 
REMARK    8  A    between atoms: C_26  and  C_27 
ROOT
ATOM      1  N   UNL d   1       9.740   3.954 -14.073  0.00  0.00     0.143 N 
ATOM      2  C   UNL d   1       8.490   3.182 -13.911  0.00  0.00     0.282 C 
ATOM      3  C   UNL d   1       7.328   4.030 -13.377  0.00  0.00     0.178 C 
ATOM      4  O   UNL d   1       7.700   4.641 -12.151  0.00  0.00    -0.348 OA
ATOM      5  C   UNL d   1       8.870   5.447 -12.266  0.00  0.00     0.171 C 
ATOM      6  C   UNL d   1      10.030   4.586 -12.803  0.00  0.00     0.284 C 
ENDROOT
BRANCH   1   7
ATOM      7  C   UNL d   1      10.893   3.143 -14.504  0.00  0.00     0.251 C 
BRANCH   7   8
ATOM      8  C   UNL d   1      10.705   2.557 -15.913  0.00  0.00     0.047 C 
BRANCH   8   9
ATOM      9  C   UNL d   1      11.542   1.315 -16.236  0.00  0.00     0.067 C 
BRANCH   9  10
ATOM     10  S   UNL d   1      11.123   0.588 -17.874  0.00  0.00    -0.075 SA
BRANCH  10  11
ATOM     11  C   UNL d   1       9.358   0.716 -17.942  0.00  0.00     0.193 A 
ATOM     12  N   UNL d   1       8.567  -0.366 -18.140  0.00  0.00    -0.289 N 
ATOM     13  C   UNL d   1       8.972  -1.740 -18.473  0.00  0.00     0.134 C 
ATOM     14  C   UNL d   1       7.335   0.202 -18.044  0.00  0.00     0.167 A 
ATOM     15  N   UNL d   1       7.382   1.520 -17.860  0.00  0.00    -0.128 NA
ATOM     16  N   UNL d   1       8.678   1.849 -17.845  0.00  0.00    -0.122 NA
BRANCH  14  17
ATOM     17  C   UNL d   1       6.045  -0.484 -18.271  0.00  0.00     0.039 A 
ATOM     18  C   UNL d   1       5.781  -1.777 -17.765  0.00  0.00     0.024 A 
ATOM     19  C   UNL d   1       4.546  -2.374 -18.073  0.00  0.00     0.099 A 
ATOM     20  N   UNL d   1       3.591  -1.766 -18.809  0.00  0.00    -0.242 NA
ATOM     21  C   UNL d   1       3.845  -0.513 -19.253  0.00  0.00     0.099 A 
ATOM     22  C   UNL d   1       5.057   0.161 -19.027  0.00  0.00     0.024 A 
ENDBRANCH  14  17
ENDBRANCH  10  11
ENDBRANCH   9  10
ENDBRANCH   8   9
ENDBRANCH   7   8
ENDBRANCH   1   7
BRANCH   5  23
ATOM     23  C   UNL d   1       9.236   6.044 -10.917  0.00  0.00     0.007 A 
ATOM     24  C   UNL d   1       9.859   7.302 -10.837  0.00  0.00    -0.002 A 
ATOM     25  C   UNL d   1      10.207   7.849  -9.581  0.00  0.00     0.004 A 
ATOM     26  C   UNL d   1       9.928   7.133  -8.397  0.00  0.00     0.071 A 
ATOM     27  C   UNL d   1       9.307   5.871  -8.481  0.00  0.00     0.004 A 
ATOM     28  C   UNL d   1       8.967   5.326  -9.736  0.00  0.00    -0.002 A 
BRANCH  26  29
ATOM     29  C   UNL d   1      10.277   7.718  -7.035  0.00  0.00     0.419 C 
ATOM     30  F   UNL d   1      11.135   8.732  -7.146  0.00  0.00    -0.166 F 
ATOM     31  F   UNL d   1       9.171   8.158  -6.439  0.00  0.00    -0.166 F 
ATOM     32  F   UNL d   1      10.838   6.785  -6.266  0.00  0.00    -0.166 F 
ENDBRANCH  26  29
ENDBRANCH   5  23
TORSDOF 8
