REMARK  10 active torsions:
REMARK  status: ('A' for Active; 'I' for Inactive)
REMARK    1  A    between atoms: O_2  and  C_3 
REMARK    2  A    between atoms: C_8  and  N_9 
REMARK    3  A    between atoms: N_12  and  C_13 
REMARK    4  A    between atoms: C_13  and  C_14 
REMARK    5  A    between atoms: C_14  and  C_15 
REMARK    6  A    between atoms: C_15  and  C_16 
REMARK    7  A    between atoms: C_16  and  N_17 
REMARK       I    between atoms: N_17  and  C_18 
REMARK    8  A    between atoms: C_18  and  C_20 
REMARK    9  A    between atoms: C_23  and  C_24 
REMARK   10  A    between atoms: C_27  and  S_28 
ROOT
ATOM      1  N   UNL d   1       9.247   1.030 -16.100  0.00  0.00    -0.234 NA
ATOM      2  C   UNL d   1       8.262   1.855 -15.714  0.00  0.00     0.275 C 
ATOM      3  O   UNL d   1       7.162   1.891 -16.266  0.00  0.00    -0.266 OA
ENDROOT
BRANCH   1   4
ATOM      4  C   UNL d   1       9.247   0.265 -17.340  0.00  0.00     0.129 C 
BRANCH   4   5
ATOM      5  C   UNL d   1       9.768   1.093 -18.547  0.00  0.00     0.029 C 
BRANCH   5   6
ATOM      6  C   UNL d   1       9.018   2.413 -18.823  0.00  0.00     0.037 C 
BRANCH   6   7
ATOM      7  C   UNL d   1       9.763   3.362 -19.766  0.00  0.00     0.251 C 
BRANCH   7   8
ATOM      8  N   UNL d   1       9.113   4.680 -19.713  0.00  0.00     0.141 N 
ATOM      9  C   UNL d   1       8.209   4.810 -20.855  0.00  0.00     0.274 C 
ATOM     10  C   UNL d   1       7.511   6.188 -20.865  0.00  0.00     0.137 C 
ATOM     11  N   UNL d   1       8.502   7.244 -20.814  0.00  0.00    -0.343 N 
ATOM     12  C   UNL d   1       9.470   7.142 -19.734  0.00  0.00     0.137 C 
ATOM     13  C   UNL d   1      10.122   5.742 -19.742  0.00  0.00     0.274 C 
BRANCH  11  14
ATOM     14  C   UNL d   1       8.485   8.301 -21.736  0.00  0.00     0.079 A 
ATOM     15  C   UNL d   1       7.320   9.067 -21.910  0.00  0.00     0.110 A 
ATOM     16  C   UNL d   1       7.330  10.114 -22.890  0.00  0.00     0.026 A 
ATOM     17  C   UNL d   1       8.479  10.347 -23.666  0.00  0.00     0.002 A 
ATOM     18  C   UNL d   1       9.630   9.578 -23.475  0.00  0.00     0.002 A 
ATOM     19  C   UNL d   1       9.636   8.550 -22.495  0.00  0.00     0.019 A 
BRANCH  15  20
ATOM     20  O   UNL d   1       6.223   8.801 -21.119  0.00  0.00    -0.327 OA
ATOM     21  C   UNL d   1       5.046   9.573 -21.285  0.00  0.00     0.181 C 
ENDBRANCH  15  20
ENDBRANCH  11  14
ENDBRANCH   7   8
ENDBRANCH   6   7
ENDBRANCH   5   6
ENDBRANCH   4   5
ENDBRANCH   1   4
BRANCH   2  22
ATOM     22  C   UNL d   1       8.568   2.772 -14.572  0.00  0.00     0.058 A 
ATOM     23  C   UNL d   1       7.500   3.360 -13.843  0.00  0.00     0.005 A 
ATOM     24  C   UNL d   1       7.753   4.220 -12.767  0.00  0.00     0.000 A 
ATOM     25  C   UNL d   1       9.071   4.526 -12.388  0.00  0.00     0.000 A 
ATOM     26  C   UNL d   1      10.140   3.990 -13.144  0.00  0.00     0.000 A 
ATOM     27  C   UNL d   1       9.896   3.129 -14.225  0.00  0.00     0.005 A 
BRANCH  25  28
ATOM     28  C   UNL d   1       9.314   5.372 -11.208  0.00  0.00     0.000 A 
ATOM     29  C   UNL d   1       9.459   6.766 -11.359  0.00  0.00     0.001 A 
ATOM     30  C   UNL d   1       9.776   7.579 -10.248  0.00  0.00     0.011 A 
ATOM     31  C   UNL d   1       9.934   6.992  -8.980  0.00  0.00     0.084 A 
ATOM     32  C   UNL d   1       9.759   5.616  -8.806  0.00  0.00     0.011 A 
ATOM     33  C   UNL d   1       9.458   4.808  -9.921  0.00  0.00     0.001 A 
BRANCH  31  34
ATOM     34  S   UNL d   1      10.317   8.004  -7.559  0.00  0.00     0.191 S 
ATOM     35  C   UNL d   1       8.677   8.516  -6.927  0.00  0.00     0.145 C 
ATOM     36  O   UNL d   1      10.946   7.158  -6.530  0.00  0.00    -0.222 OA
ATOM     37  O   UNL d   1      11.016   9.201  -8.036  0.00  0.00    -0.222 OA
ENDBRANCH  31  34
ENDBRANCH  25  28
ENDBRANCH   2  22
TORSDOF 10
