REMARK  2 active torsions:
REMARK  status: ('A' for Active; 'I' for Inactive)
REMARK    1  A    between atoms: C_4  and  N_5 
REMARK       I    between atoms: N_5  and  C_6 
REMARK       I    between atoms: C_6  and  N_8 
REMARK    2  A    between atoms: N_8  and  C_9 
ROOT
ATOM      1  C   UNL d   1      10.122   7.349  -7.751  0.00  0.00     0.086 A 
ATOM      2  C   UNL d   1      10.897   6.387  -7.080  0.00  0.00     0.021 A 
ATOM      3  C   UNL d   1      11.466   6.648  -5.845  0.00  0.00     0.019 A 
ATOM      4  C   UNL d   1      11.343   7.905  -5.267  0.00  0.00     0.060 A 
ATOM      5  C   UNL d   1      10.623   8.947  -5.911  0.00  0.00     0.019 A 
ATOM      6  C   UNL d   1      10.721  10.094  -5.045  0.00  0.00     0.020 A 
ATOM      7  C   UNL d   1      11.460   9.719  -3.947  0.00  0.00     0.076 A 
ATOM      8  N   UNL d   1      11.851   8.401  -4.076  0.00  0.00    -0.324 N 
ATOM      9  C   UNL d   1      12.655   7.659  -3.124  0.00  0.00     0.131 C 
ATOM     10  C   UNL d   1      10.001   8.642  -7.166  0.00  0.00     0.021 A 
ENDROOT
BRANCH   1  11
ATOM     11  N   UNL d   1       9.454   7.094  -9.003  0.00  0.00    -0.191 NA
ATOM     12  C   UNL d   1       9.152   5.899  -9.574  0.00  0.00     0.369 C 
ATOM     13  N   UNL d   1       8.217   5.988 -10.522  0.00  0.00    -0.183 NA
ATOM     14  O   UNL d   1       9.629   4.804  -9.274  0.00  0.00    -0.242 OA
BRANCH  13  15
ATOM     15  C   UNL d   1       8.055   5.135 -11.554  0.00  0.00     0.134 A 
ATOM     16  C   UNL d   1       6.878   4.657 -12.054  0.00  0.00     0.043 A 
ATOM     17  C   UNL d   1       7.090   3.778 -13.163  0.00  0.00     0.069 A 
ATOM     18  C   UNL d   1       6.013   3.058 -13.881  0.00  0.00     0.053 C 
ATOM     19  N   UNL d   1       8.341   3.631 -13.550  0.00  0.00    -0.212 NA
ATOM     20  S   UNL d   1       9.342   4.441 -12.482  0.00  0.00     0.032 SA
ENDBRANCH  13  15
ENDBRANCH   1  11
TORSDOF 2
