REMARK  6 active torsions:
REMARK  status: ('A' for Active; 'I' for Inactive)
REMARK    1  A    between atoms: C_2  and  C_3 
REMARK    2  A    between atoms: C_3  and  N_4 
REMARK    3  A    between atoms: N_4  and  C_5 
REMARK    4  A    between atoms: N_4  and  C_8 
REMARK    5  A    between atoms: C_5  and  C_6 
REMARK    6  A    between atoms: C_16  and  C_17 
ROOT
ATOM      1  C   UNL d   1       9.990   2.981 -15.393  0.00  0.00     0.253 C 
ATOM      2  C   UNL d   1      10.626   3.173 -13.988  0.00  0.00     0.182 C 
ATOM      3  O   UNL d   1       9.954   4.154 -13.223  0.00  0.00    -0.329 OA
ATOM      4  C   UNL d   1       8.591   4.052 -13.137  0.00  0.00     0.090 A 
ATOM      5  C   UNL d   1       7.841   3.251 -14.040  0.00  0.00     0.002 A 
ATOM      6  C   UNL d   1       6.443   3.176 -13.933  0.00  0.00    -0.002 A 
ATOM      7  C   UNL d   1       5.775   3.895 -12.930  0.00  0.00    -0.000 A 
ATOM      8  C   UNL d   1       6.513   4.690 -12.034  0.00  0.00     0.002 A 
ATOM      9  C   UNL d   1       7.916   4.769 -12.125  0.00  0.00     0.022 A 
ATOM     10  C   UNL d   1       8.535   2.502 -15.152  0.00  0.00     0.064 C 
ENDROOT
BRANCH   1  11
ATOM     11  N   UNL d   1      10.763   2.053 -16.262  0.00  0.00     0.138 N 
BRANCH  11  12
ATOM     12  C   UNL d   1      12.157   2.481 -16.448  0.00  0.00     0.250 C 
BRANCH  12  13
ATOM     13  C   UNL d   1      12.336   3.786 -17.245  0.00  0.00     0.035 C 
ATOM     14  C   UNL d   1      13.776   4.206 -17.398  0.00  0.00     0.002 C 
ENDBRANCH  12  13
ENDBRANCH  11  12
BRANCH  11  15
ATOM     15  C   UNL d   1      10.113   1.723 -17.539  0.00  0.00     0.250 C 
BRANCH  15  16
ATOM     16  C   UNL d   1      10.684   0.457 -18.191  0.00  0.00     0.035 C 
ATOM     17  C   UNL d   1      10.229  -0.795 -17.435  0.00  0.00     0.002 C 
ENDBRANCH  15  16
ENDBRANCH  11  15
ENDBRANCH   1  11
BRANCH   9  18
ATOM     18  C   UNL d   1       8.675   5.563 -11.166  0.00  0.00     0.009 A 
ATOM     19  C   UNL d   1       9.460   6.651 -11.449  0.00  0.00     0.035 A 
ATOM     20  S   UNL d   1      10.208   7.308 -10.013  0.00  0.00    -0.086 SA
ATOM     21  C   UNL d   1       9.460   6.082  -9.032  0.00  0.00     0.035 A 
ATOM     22  C   UNL d   1       8.682   5.240  -9.778  0.00  0.00     0.007 A 
ENDBRANCH   9  18
TORSDOF 6
