REMARK  9 active torsions:
REMARK  status: ('A' for Active; 'I' for Inactive)
REMARK    1  A    between atoms: O_2  and  C_3 
REMARK    2  A    between atoms: C_3  and  C_4 
REMARK    3  A    between atoms: C_4  and  N_5 
REMARK    4  A    between atoms: N_5  and  C_6 
REMARK    5  A    between atoms: N_5  and  C_10 
REMARK    6  A    between atoms: C_6  and  C_7 
REMARK    7  A    between atoms: C_7  and  O_8 
REMARK    8  A    between atoms: C_16  and  C_17 
REMARK    9  A    between atoms: C_21  and  O_22 
ROOT
ATOM      1  C   UNL d   1       8.755   5.337 -12.270  0.00  0.00     0.731 A 
ATOM      2  N   UNL d   1       7.538   4.986 -11.971  0.00  0.00    -0.046 NA
ATOM      3  C   UNL d   1       6.854   4.152 -12.831  0.00  0.00     0.160 A 
ATOM      4  C   UNL d   1       5.389   3.884 -12.547  0.00  0.00     0.074 C 
ATOM      5  N   UNL d   1       7.375   3.630 -13.933  0.00  0.00    -0.211 NA
ATOM      6  C   UNL d   1       8.675   3.874 -14.156  0.00  0.00     0.184 A 
ATOM      7  C   UNL d   1       9.600   3.399 -15.058  0.00  0.00     0.051 A 
ATOM      8  C   UNL d   1      10.799   4.104 -14.769  0.00  0.00     0.083 A 
ATOM      9  C   UNL d   1      12.114   3.973 -15.483  0.00  0.00     0.054 C 
ATOM     10  N   UNL d   1      10.677   4.930 -13.755  0.00  0.00    -0.154 NA
ATOM     11  N   UNL d   1       9.382   4.764 -13.337  0.00  0.00    -0.042 N 
ENDROOT
BRANCH   7  12
ATOM     12  C   UNL d   1       9.376   2.371 -16.077  0.00  0.00     0.000 A 
ATOM     13  C   UNL d   1       8.771   1.115 -15.794  0.00  0.00    -0.020 A 
ATOM     14  C   UNL d   1       8.584   0.188 -16.839  0.00  0.00     0.020 A 
ATOM     15  C   UNL d   1       8.317   0.703 -14.399  0.00  0.00     0.031 C 
ATOM     16  C   UNL d   1       9.013   0.465 -18.159  0.00  0.00     0.090 A 
ATOM     17  C   UNL d   1       9.627   1.708 -18.425  0.00  0.00     0.000 A 
ATOM     18  C   UNL d   1       9.797   2.649 -17.394  0.00  0.00    -0.003 A 
ATOM     19  C   UNL d   1      10.106   2.037 -19.825  0.00  0.00     0.033 C 
BRANCH  16  20
ATOM     20  O   UNL d   1       8.865  -0.414 -19.211  0.00  0.00    -0.328 OA
ATOM     21  C   UNL d   1       8.332  -1.702 -18.936  0.00  0.00     0.181 C 
ENDBRANCH  16  20
ENDBRANCH   7  12
BRANCH   1  22
ATOM     22  N   UNL d   1       9.399   6.369 -11.534  0.00  0.00    -0.178 N 
BRANCH  22  23
ATOM     23  C   UNL d   1       9.533   7.636 -12.260  0.00  0.00     0.152 C 
BRANCH  23  24
ATOM     24  C   UNL d   1       8.240   8.419 -12.443  0.00  0.00     0.167 C 
BRANCH  24  25
ATOM     25  O   UNL d   1       7.302   7.591 -13.122  0.00  0.00    -0.349 OA
ATOM     26  C   UNL d   1       5.957   7.660 -12.690  0.00  0.00     0.174 C 
ENDBRANCH  24  25
ENDBRANCH  23  24
ENDBRANCH  22  23
BRANCH  22  27
ATOM     27  C   UNL d   1       9.040   6.481 -10.140  0.00  0.00     0.152 C 
BRANCH  27  28
ATOM     28  C   UNL d   1       9.734   5.419  -9.284  0.00  0.00     0.167 C 
BRANCH  28  29
ATOM     29  O   UNL d   1       9.081   5.335  -8.039  0.00  0.00    -0.349 OA
ATOM     30  C   UNL d   1       9.219   6.502  -7.230  0.00  0.00     0.174 C 
ENDBRANCH  28  29
ENDBRANCH  27  28
ENDBRANCH  22  27
ENDBRANCH   1  22
TORSDOF 9
