REMARK  3 active torsions:
REMARK  status: ('A' for Active; 'I' for Inactive)
REMARK    1  A    between atoms: C_5  and  N_6 
REMARK    2  A    between atoms: N_9  and  C_10 
REMARK    3  A    between atoms: C_10  and  C_11 
ROOT
ATOM      1  N   UNL d   1      10.572   6.956  -8.688  0.00  0.00    -0.344 N 
ATOM      2  C   UNL d   1       9.912   5.658  -8.786  0.00  0.00     0.137 C 
ATOM      3  C   UNL d   1       8.771   5.707  -9.811  0.00  0.00     0.275 C 
ATOM      4  N   UNL d   1       9.258   6.216 -11.104  0.00  0.00     0.147 N 
ATOM      5  C   UNL d   1       9.803   7.575 -10.920  0.00  0.00     0.275 C 
ATOM      6  C   UNL d   1      10.984   7.564  -9.945  0.00  0.00     0.137 C 
ENDROOT
BRANCH   4   7
ATOM      7  C   UNL d   1       8.158   6.255 -12.066  0.00  0.00     0.297 C 
BRANCH   7   8
ATOM      8  C   UNL d   1       7.619   4.990 -12.659  0.00  0.00     0.112 A 
ATOM      9  N   UNL d   1       8.326   4.321 -13.646  0.00  0.00    -0.229 NA
ATOM     10  C   UNL d   1       7.619   3.231 -13.934  0.00  0.00     0.148 A 
ATOM     11  N   UNL d   1       6.431   3.203 -13.160  0.00  0.00    -0.287 N 
ATOM     12  C   UNL d   1       7.852   2.157 -14.829  0.00  0.00     0.038 A 
ATOM     13  C   UNL d   1       6.454   4.334 -12.362  0.00  0.00     0.098 A 
ATOM     14  C   UNL d   1       5.538   2.177 -13.239  0.00  0.00     0.088 A 
ATOM     15  C   UNL d   1       5.788   1.127 -14.090  0.00  0.00     0.052 A 
ATOM     16 BR   UNL d   1       4.526  -0.291 -14.234  0.00  0.00    -0.048 Br
ATOM     17  C   UNL d   1       6.946   1.122 -14.900  0.00  0.00     0.011 A 
ENDBRANCH   7   8
ENDBRANCH   4   7
BRANCH   1  18
ATOM     18  C   UNL d   1      10.819   7.577  -7.452  0.00  0.00     0.057 A 
ATOM     19  C   UNL d   1      10.686   8.978  -7.329  0.00  0.00     0.018 A 
ATOM     20  C   UNL d   1      10.918   9.604  -6.088  0.00  0.00     0.014 A 
ATOM     21  C   UNL d   1      11.288   8.839  -4.973  0.00  0.00     0.068 A 
ATOM     22 CL   UNL d   1      11.575   9.598  -3.457  0.00  0.00    -0.082 Cl
ATOM     23  C   UNL d   1      11.419   7.449  -5.083  0.00  0.00     0.070 A 
ATOM     24  C   UNL d   1      11.192   6.813  -6.321  0.00  0.00     0.029 A 
ATOM     25 CL   UNL d   1      11.862   6.540  -3.688  0.00  0.00    -0.081 Cl
ENDBRANCH   1  18
TORSDOF 3
