REMARK  10 active torsions:
REMARK  status: ('A' for Active; 'I' for Inactive)
REMARK    1  A    between atoms: C_2  and  C_3 
REMARK    2  A    between atoms: C_2  and  C_12 
REMARK    3  A    between atoms: C_3  and  C_4 
REMARK    4  A    between atoms: C_4  and  C_5 
REMARK    5  A    between atoms: C_5  and  C_6 
REMARK    6  A    between atoms: C_12  and  N_13 
REMARK       I    between atoms: N_13  and  C_14 
REMARK       I    between atoms: C_14  and  N_16 
REMARK       I    between atoms: C_17  and  N_19 
REMARK    7  A    between atoms: N_19  and  C_20 
REMARK    8  A    between atoms: C_20  and  C_21 
REMARK    9  A    between atoms: C_21  and  C_22 
REMARK   10  A    between atoms: C_22  and  C_23 
ROOT
ATOM      1  N   UNL d   1       5.660   2.243 -12.468  0.00  0.00    -0.217 NA
ATOM      2  C   UNL d   1       5.776   3.531 -12.804  0.00  0.00     0.380 C 
ATOM      3  O   UNL d   1       5.054   4.053 -13.638  0.00  0.00    -0.242 OA
ATOM      4  N   UNL d   1       6.790   4.115 -12.072  0.00  0.00     0.001 NA
ATOM      5  C   UNL d   1       6.819   5.407 -11.880  0.00  0.00     0.768 C 
ATOM      6  N   UNL d   1       5.901   6.324 -12.328  0.00  0.00     0.062 N 
ATOM      7  N   UNL d   1       7.808   5.986 -11.127  0.00  0.00    -0.084 NA
ENDROOT
BRANCH   1   8
ATOM      8  C   UNL d   1       4.963   1.153 -13.133  0.00  0.00     0.131 C 
BRANCH   8   9
ATOM      9  C   UNL d   1       5.622   0.725 -14.466  0.00  0.00     0.025 C 
ATOM     10  C   UNL d   1       4.799  -0.399 -15.115  0.00  0.00     0.002 C 
BRANCH   9  11
ATOM     11  C   UNL d   1       7.111   0.330 -14.324  0.00  0.00     0.002 C 
BRANCH  11  12
ATOM     12  C   UNL d   1       7.895   0.354 -15.646  0.00  0.00     0.005 C 
BRANCH  12  13
ATOM     13  C   UNL d   1       9.406   0.167 -15.417  0.00  0.00     0.026 C 
BRANCH  13  14
ATOM     14  C   UNL d   1      10.213   0.301 -16.692  0.00  0.00    -0.022 A 
ATOM     15  C   UNL d   1      10.041  -0.630 -17.737  0.00  0.00    -0.004 A 
ATOM     16  C   UNL d   1      10.781  -0.502 -18.927  0.00  0.00    -0.000 A 
ATOM     17  C   UNL d   1      11.699   0.555 -19.076  0.00  0.00    -0.000 A 
ATOM     18  C   UNL d   1      11.877   1.484 -18.033  0.00  0.00    -0.000 A 
ATOM     19  C   UNL d   1      11.136   1.359 -16.842  0.00  0.00    -0.004 A 
ENDBRANCH  13  14
ENDBRANCH  12  13
ENDBRANCH  11  12
ENDBRANCH   9  11
ENDBRANCH   8   9
ENDBRANCH   1   8
BRANCH   7  20
ATOM     20  C   UNL d   1       9.050   5.341 -10.725  0.00  0.00     0.146 C 
BRANCH  20  21
ATOM     21  C   UNL d   1       9.831   6.161  -9.698  0.00  0.00     0.034 C 
BRANCH  21  22
ATOM     22  C   UNL d   1       9.208   6.144  -8.296  0.00  0.00     0.057 C 
BRANCH  22  23
ATOM     23  C   UNL d   1       9.911   7.074  -7.360  0.00  0.00     0.112 A 
ATOM     24  S   UNL d   1       9.503   8.780  -7.261  0.00  0.00    -0.036 SA
ATOM     25  C   UNL d   1      10.752   8.880  -6.035  0.00  0.00     0.203 A 
ATOM     26  N   UNL d   1      11.393   7.740  -5.782  0.00  0.00    -0.127 NA
ATOM     27  N   UNL d   1      11.032  10.069  -5.389  0.00  0.00    -0.070 NA
ATOM     28  N   UNL d   1      10.933   6.704  -6.578  0.00  0.00    -0.144 NA
ENDBRANCH  22  23
ENDBRANCH  21  22
ENDBRANCH  20  21
ENDBRANCH   7  20
TORSDOF 10
