REMARK  4 active torsions:
REMARK  status: ('A' for Active; 'I' for Inactive)
REMARK    1  A    between atoms: C_5  and  C_6 
REMARK    2  A    between atoms: C_10  and  C_11 
REMARK    3  A    between atoms: C_11  and  N_12 
REMARK    4  A    between atoms: N_15  and  C_16 
ROOT
ATOM      1  C   UNL d   1       7.259   1.313 -14.720  0.00  0.00     0.019 A 
ATOM      2  C   UNL d   1       6.356   0.449 -14.061  0.00  0.00     0.099 A 
ATOM      3  N   UNL d   1       5.458   0.860 -13.137  0.00  0.00    -0.243 NA
ATOM      4  C   UNL d   1       5.419   2.176 -12.841  0.00  0.00     0.097 A 
ATOM      5  C   UNL d   1       6.257   3.135 -13.442  0.00  0.00     0.030 A 
ATOM      6  C   UNL d   1       7.199   2.684 -14.392  0.00  0.00     0.001 A 
ENDROOT
BRANCH   5   7
ATOM      7  C   UNL d   1       6.160   4.603 -13.047  0.00  0.00     0.278 C 
BRANCH   7   8
ATOM      8  N   UNL d   1       7.457   5.230 -12.794  0.00  0.00     0.145 N 
ATOM      9  C   UNL d   1       7.278   6.642 -12.438  0.00  0.00     0.275 C 
ATOM     10  C   UNL d   1       8.644   7.308 -12.139  0.00  0.00     0.138 C 
ATOM     11  N   UNL d   1       9.376   6.578 -11.109  0.00  0.00    -0.328 N 
ATOM     12  C   UNL d   1       9.457   5.152 -11.335  0.00  0.00     0.138 C 
ATOM     13  C   UNL d   1       8.074   4.592 -11.633  0.00  0.00     0.275 C 
BRANCH  11  14
ATOM     14  C   UNL d   1       9.860   7.188  -9.934  0.00  0.00     0.160 A 
ATOM     15  N   UNL d   1      10.037   6.415  -8.833  0.00  0.00    -0.224 NA
ATOM     16  C   UNL d   1      10.510   7.018  -7.723  0.00  0.00     0.121 A 
ATOM     17  C   UNL d   1      10.835   8.390  -7.703  0.00  0.00     0.120 A 
ATOM     18  N   UNL d   1      10.681   9.169  -8.796  0.00  0.00    -0.238 NA
ATOM     19  C   UNL d   1      10.190   8.567  -9.902  0.00  0.00     0.136 A 
ENDBRANCH  11  14
ENDBRANCH   7   8
ENDBRANCH   5   7
BRANCH   1  20
ATOM     20  C   UNL d   1       8.233   0.804 -15.698  0.00  0.00     0.002 A 
ATOM     21  C   UNL d   1       9.617   1.032 -15.528  0.00  0.00     0.002 A 
ATOM     22  C   UNL d   1      10.546   0.543 -16.470  0.00  0.00     0.030 A 
ATOM     23  C   UNL d   1      10.097  -0.182 -17.589  0.00  0.00     0.140 A 
ATOM     24  F   UNL d   1      10.987  -0.662 -18.489  0.00  0.00    -0.204 F 
ATOM     25  C   UNL d   1       8.721  -0.411 -17.769  0.00  0.00     0.030 A 
ATOM     26  C   UNL d   1       7.796   0.077 -16.826  0.00  0.00     0.002 A 
ENDBRANCH   1  20
TORSDOF 4
