REMARK  6 active torsions:
REMARK  status: ('A' for Active; 'I' for Inactive)
REMARK    1  A    between atoms: O_2  and  C_3 
REMARK    2  A    between atoms: C_6  and  O_7 
REMARK    3  A    between atoms: O_7  and  C_8 
REMARK    4  A    between atoms: C_8  and  C_9 
REMARK    5  A    between atoms: C_9  and  N_10 
REMARK       I    between atoms: N_13  and  C_14 
REMARK    6  A    between atoms: C_14  and  C_16 
ROOT
ATOM      1  N   UNL d   1       8.655   3.913 -12.990  0.00  0.00     0.144 N 
ATOM      2  C   UNL d   1       9.662   3.993 -11.947  0.00  0.00     0.274 C 
ATOM      3  C   UNL d   1       9.200   4.907 -10.824  0.00  0.00     0.140 C 
ATOM      4  N   UNL d   1       8.952   6.252 -11.342  0.00  0.00    -0.311 N 
ATOM      5  C   UNL d   1       9.457   7.410 -10.849  0.00  0.00     0.275 C 
ATOM      6  O   UNL d   1       9.445   8.443 -11.521  0.00  0.00    -0.266 OA
ATOM      7  C   UNL d   1       8.008   6.239 -12.476  0.00  0.00     0.140 C 
ATOM      8  C   UNL d   1       8.488   5.250 -13.557  0.00  0.00     0.274 C 
ENDROOT
BRANCH   5   9
ATOM      9  C   UNL d   1       9.963   7.478  -9.434  0.00  0.00     0.137 A 
ATOM     10  N   UNL d   1      10.185   8.749  -8.888  0.00  0.00    -0.241 NA
ATOM     11  C   UNL d   1      10.619   8.664  -7.575  0.00  0.00     0.082 A 
ATOM     12  C   UNL d   1      10.671   7.275  -7.290  0.00  0.00     0.019 A 
ATOM     13  C   UNL d   1      10.965   9.619  -6.593  0.00  0.00     0.019 A 
ATOM     14  C   UNL d   1      10.246   6.561  -8.441  0.00  0.00     0.025 A 
ATOM     15  C   UNL d   1      11.113   6.870  -6.021  0.00  0.00    -0.003 A 
ATOM     16  C   UNL d   1      11.470   7.803  -5.031  0.00  0.00    -0.022 A 
ATOM     17  C   UNL d   1      11.918   7.303  -3.679  0.00  0.00     0.031 C 
ATOM     18  C   UNL d   1      11.381   9.180  -5.320  0.00  0.00    -0.003 A 
ENDBRANCH   5   9
BRANCH   1  19
ATOM     19  C   UNL d   1       9.141   2.985 -14.003  0.00  0.00     0.283 C 
BRANCH  19  20
ATOM     20  C   UNL d   1       7.968   2.380 -14.772  0.00  0.00     0.184 C 
BRANCH  20  21
ATOM     21  O   UNL d   1       7.334   1.333 -14.036  0.00  0.00    -0.329 OA
BRANCH  21  22
ATOM     22  C   UNL d   1       6.387   0.596 -14.702  0.00  0.00     0.094 A 
ATOM     23  C   UNL d   1       6.551   0.266 -16.069  0.00  0.00     0.026 A 
ATOM     24  C   UNL d   1       5.578  -0.454 -16.741  0.00  0.00     0.026 A 
ATOM     25  C   UNL d   1       4.422  -0.911 -16.079  0.00  0.00     0.094 A 
ATOM     26  C   UNL d   1       4.246  -0.605 -14.706  0.00  0.00     0.026 A 
ATOM     27  C   UNL d   1       5.238   0.132 -14.019  0.00  0.00     0.026 A 
BRANCH  25  28
ATOM     28  O   UNL d   1       3.458  -1.620 -16.746  0.00  0.00    -0.328 OA
ATOM     29  C   UNL d   1       3.892  -2.435 -17.838  0.00  0.00     0.181 C 
ENDBRANCH  25  28
ENDBRANCH  21  22
ENDBRANCH  20  21
ENDBRANCH  19  20
ENDBRANCH   1  19
TORSDOF 6
