REMARK  6 active torsions:
REMARK  status: ('A' for Active; 'I' for Inactive)
REMARK    1  A    between atoms: C_2  and  O_5 
REMARK    2  A    between atoms: O_5  and  C_6 
REMARK       I    between atoms: C_6  and  N_8 
REMARK    3  A    between atoms: N_8  and  C_9 
REMARK    4  A    between atoms: C_12  and  C_13 
REMARK    5  A    between atoms: C_13  and  C_14 
REMARK    6  A    between atoms: C_14  and  N_15 
ROOT
ATOM      1  C   UNL d   1       7.202   2.335 -14.519  0.00  0.00     0.087 A 
ATOM      2  C   UNL d   1       6.258   2.927 -13.640  0.00  0.00     0.019 A 
ATOM      3  C   UNL d   1       6.642   3.967 -12.774  0.00  0.00    -0.003 A 
ATOM      4  C   UNL d   1       7.972   4.420 -12.768  0.00  0.00    -0.020 A 
ATOM      5  C   UNL d   1       8.912   3.841 -13.652  0.00  0.00    -0.003 A 
ATOM      6  C   UNL d   1       8.523   2.812 -14.534  0.00  0.00     0.019 A 
ENDROOT
BRANCH   4   7
ATOM      7  C   UNL d   1       8.391   5.497 -11.791  0.00  0.00     0.062 C 
BRANCH   7   8
ATOM      8  C   UNL d   1       8.499   4.942 -10.363  0.00  0.00     0.255 C 
BRANCH   8   9
ATOM      9  N   UNL d   1       8.829   5.996  -9.404  0.00  0.00     0.142 N 
ATOM     10  C   UNL d   1      10.250   6.317  -9.472  0.00  0.00     0.276 C 
ATOM     11  C   UNL d   1      10.713   7.315  -8.431  0.00  0.00     0.007 A 
ATOM     12  C   UNL d   1       9.969   7.507  -7.248  0.00  0.00    -0.022 A 
ATOM     13  C   UNL d   1      11.934   7.995  -8.610  0.00  0.00    -0.003 A 
ATOM     14  C   UNL d   1       8.665   6.767  -7.065  0.00  0.00     0.061 C 
ATOM     15  C   UNL d   1      10.432   8.398  -6.256  0.00  0.00    -0.004 A 
ATOM     16  C   UNL d   1       8.511   5.583  -8.039  0.00  0.00     0.255 C 
ATOM     17  C   UNL d   1      11.648   9.081  -6.443  0.00  0.00    -0.000 A 
ATOM     18  C   UNL d   1      12.402   8.849  -7.607  0.00  0.00    -0.000 A 
ENDBRANCH   8   9
ENDBRANCH   7   8
ENDBRANCH   4   7
BRANCH   1  19
ATOM     19  N   UNL d   1       6.839   1.291 -15.407  0.00  0.00    -0.186 NA
ATOM     20  C   UNL d   1       5.926   0.286 -15.116  0.00  0.00     0.388 C 
ATOM     21  O   UNL d   1       5.496  -0.000 -13.996  0.00  0.00    -0.236 OA
BRANCH  20  22
ATOM     22  O   UNL d   1       5.574  -0.317 -16.277  0.00  0.00    -0.288 OA
BRANCH  22  23
ATOM     23  C   UNL d   1       4.612  -1.382 -16.407  0.00  0.00     0.103 C 
ATOM     24  C   UNL d   1       3.404  -1.282 -15.451  0.00  0.00     0.030 C 
ATOM     25  C   UNL d   1       5.327  -2.730 -16.231  0.00  0.00     0.030 C 
ATOM     26  C   UNL d   1       4.100  -1.296 -17.859  0.00  0.00     0.030 C 
ENDBRANCH  22  23
ENDBRANCH  20  22
ENDBRANCH   1  19
TORSDOF 6
