REMARK  3 active torsions:
REMARK  status: ('A' for Active; 'I' for Inactive)
REMARK    1  A    between atoms: C_14  and  C_15 
REMARK    2  A    between atoms: C_15  and  N_16 
REMARK    3  A    between atoms: N_26  and  C_27 
ROOT
ATOM      1  N   UNL d   1       8.842   9.075 -22.760  0.00  0.00    -0.190 NA
ATOM      2  C   UNL d   1       9.661   8.726 -22.020  0.00  0.00     0.120 C 
ATOM      3  C   UNL d   1      10.695   8.312 -21.126  0.00  0.00     0.149 A 
ATOM      4  C   UNL d   1      10.630   7.534 -19.999  0.00  0.00     0.033 A 
ATOM      5  C   UNL d   1      12.031   7.424 -19.449  0.00  0.00     0.044 A 
ATOM      6  C   UNL d   1      12.810   6.848 -18.373  0.00  0.00     0.118 A 
ATOM      7  C   UNL d   1      14.244   7.013 -18.275  0.00  0.00     0.116 A 
ATOM      8  C   UNL d   1      14.904   7.787 -19.234  0.00  0.00     0.028 A 
ATOM      9  C   UNL d   1      14.186   8.365 -20.268  0.00  0.00     0.021 A 
ATOM     10  C   UNL d   1      12.800   8.189 -20.377  0.00  0.00     0.084 A 
ATOM     11  N   UNL d   1      11.995   8.692 -21.349  0.00  0.00    -0.235 NA
ATOM     12  O   UNL d   1      15.023   6.452 -17.288  0.00  0.00    -0.326 OA
ATOM     13  C   UNL d   1      14.424   5.409 -16.542  0.00  0.00     0.181 C 
ATOM     14  C   UNL d   1      13.018   5.860 -16.161  0.00  0.00     0.185 C 
ATOM     15  O   UNL d   1      12.269   6.074 -17.375  0.00  0.00    -0.327 OA
ENDROOT
BRANCH  14  16
ATOM     16  C   UNL d   1      12.359   4.777 -15.319  0.00  0.00     0.283 C 
BRANCH  16  17
ATOM     17  N   UNL d   1      11.006   5.136 -14.903  0.00  0.00     0.140 N 
ATOM     18  C   UNL d   1      10.091   4.943 -16.065  0.00  0.00     0.253 C 
ATOM     19  C   UNL d   1      10.015   3.483 -16.503  0.00  0.00     0.065 C 
ATOM     20  C   UNL d   1       9.658   2.573 -15.313  0.00  0.00     0.142 C 
ATOM     21  C   UNL d   1      10.583   2.808 -14.117  0.00  0.00     0.065 C 
ATOM     22  N   UNL d   1       8.220   2.644 -14.985  0.00  0.00    -0.323 N 
ATOM     23  C   UNL d   1       9.904   1.109 -15.658  0.00  0.00     0.271 C 
ATOM     24  C   UNL d   1      10.718   4.264 -13.743  0.00  0.00     0.253 C 
ATOM     25  C   UNL d   1       7.638   1.319 -15.319  0.00  0.00     0.234 C 
ATOM     26  N   UNL d   1       8.759   0.452 -15.625  0.00  0.00    -0.211 NA
ATOM     27  O   UNL d   1      11.012   0.610 -15.847  0.00  0.00    -0.269 OA
BRANCH  22  28
ATOM     28  C   UNL d   1       7.600   3.575 -14.084  0.00  0.00     0.058 C 
ATOM     29  C   UNL d   1       6.563   3.154 -13.242  0.00  0.00     0.017 C 
ATOM     30  C   UNL d   1       6.017   3.975 -12.251  0.00  0.00     0.002 C 
ATOM     31  C   UNL d   1       6.487   5.278 -12.023  0.00  0.00     0.000 C 
ATOM     32  C   UNL d   1       7.484   5.776 -12.838  0.00  0.00     0.002 C 
ATOM     33  C   UNL d   1       7.917   4.958 -13.871  0.00  0.00     0.017 C 
ENDBRANCH  22  28
ENDBRANCH  16  17
ENDBRANCH  14  16
TORSDOF 3
