REMARK  6 active torsions:
REMARK  status: ('A' for Active; 'I' for Inactive)
REMARK    1  A    between atoms: C_6  and  C_7 
REMARK    2  A    between atoms: C_10  and  S_11 
REMARK    3  A    between atoms: S_11  and  C_12 
REMARK    4  A    between atoms: C_12  and  C_13 
REMARK    5  A    between atoms: C_13  and  C_14 
REMARK    6  A    between atoms: C_14  and  N_15 
ROOT
ATOM      1  C   UNL d   1       9.564   0.437 -21.588  0.00  0.00     0.067 C 
ENDROOT
BRANCH   1   2
ATOM      2  S   UNL d   1       7.831  -0.026 -21.263  0.00  0.00    -0.075 SA
BRANCH   2   3
ATOM      3  C   UNL d   1       7.805  -0.013 -19.494  0.00  0.00     0.193 A 
ATOM      4  N   UNL d   1       8.892   0.024 -18.718  0.00  0.00    -0.122 NA
ATOM      5  N   UNL d   1       8.424  -0.015 -17.426  0.00  0.00    -0.128 NA
ATOM      6  C   UNL d   1       7.087  -0.049 -17.515  0.00  0.00     0.167 A 
ATOM      7  N   UNL d   1       6.651  -0.051 -18.798  0.00  0.00    -0.289 N 
ATOM      8  C   UNL d   1       5.291  -0.109 -19.325  0.00  0.00     0.134 C 
BRANCH   6   9
ATOM      9  C   UNL d   1       6.235  -0.108 -16.328  0.00  0.00     0.037 A 
ATOM     10  C   UNL d   1       6.303   0.859 -15.286  0.00  0.00     0.021 A 
ATOM     11  C   UNL d   1       7.171   1.979 -15.353  0.00  0.00     0.003 A 
ATOM     12  C   UNL d   1       5.449   0.755 -14.151  0.00  0.00     0.081 A 
ATOM     13  C   UNL d   1       7.152   2.928 -14.316  0.00  0.00     0.015 A 
ATOM     14  C   UNL d   1       6.260   2.742 -13.248  0.00  0.00     0.059 A 
ATOM     15  C   UNL d   1       6.201   3.729 -12.104  0.00  0.00     0.052 C 
ATOM     16  N   UNL d   1       5.457   1.665 -13.148  0.00  0.00    -0.250 NA
ATOM     17  C   UNL d   1       4.502  -0.288 -14.111  0.00  0.00     0.019 A 
ATOM     18  C   UNL d   1       4.422  -1.232 -15.150  0.00  0.00     0.002 A 
ATOM     19  C   UNL d   1       5.301  -1.161 -16.237  0.00  0.00     0.003 A 
ENDBRANCH   6   9
ENDBRANCH   2   3
ENDBRANCH   1   2
BRANCH   1  20
ATOM     20  C   UNL d   1       9.841   1.918 -21.279  0.00  0.00     0.047 C 
BRANCH  20  21
ATOM     21  C   UNL d   1      11.249   2.356 -21.721  0.00  0.00     0.251 C 
BRANCH  21  22
ATOM     22  N   UNL d   1      11.525   3.765 -21.418  0.00  0.00     0.138 N 
ATOM     23  C   UNL d   1      11.534   4.131 -19.997  0.00  0.00     0.255 C 
ATOM     24  C   UNL d   1      12.668   3.501 -19.164  0.00  0.00     0.061 C 
ATOM     25  C   UNL d   1      13.982   4.268 -19.278  0.00  0.00    -0.026 A 
ATOM     26  C   UNL d   1      14.632   4.358 -20.540  0.00  0.00    -0.023 A 
ATOM     27  C   UNL d   1      14.562   4.905 -18.146  0.00  0.00    -0.002 A 
ATOM     28  C   UNL d   1      14.037   3.710 -21.782  0.00  0.00     0.061 C 
ATOM     29  C   UNL d   1      15.851   5.064 -20.670  0.00  0.00     0.017 A 
ATOM     30  C   UNL d   1      12.663   4.291 -22.176  0.00  0.00     0.255 C 
ATOM     31  C   UNL d   1      16.438   5.690 -19.555  0.00  0.00     0.105 A 
ATOM     32  C   UNL d   1      15.778   5.592 -18.314  0.00  0.00     0.115 A 
ATOM     33  N   UNL d   1      17.612   6.401 -19.403  0.00  0.00    -0.224 NA
ATOM     34  O   UNL d   1      16.541   6.266 -17.375  0.00  0.00    -0.292 OA
ATOM     35  C   UNL d   1      17.610   6.717 -18.102  0.00  0.00     0.159 A 
ATOM     36  C   UNL d   1      18.655   7.511 -17.399  0.00  0.00     0.080 C 
ATOM     37  C   UNL d   1      13.919   4.862 -16.770  0.00  0.00     0.033 C 
ENDBRANCH  21  22
ENDBRANCH  20  21
ENDBRANCH   1  20
TORSDOF 6
