REMARK  6 active torsions:
REMARK  status: ('A' for Active; 'I' for Inactive)
REMARK    1  A    between atoms: C_10  and  C_11 
REMARK    2  A    between atoms: C_11  and  C_12 
REMARK    3  A    between atoms: C_12  and  C_13 
REMARK    4  A    between atoms: C_13  and  C_14 
REMARK    5  A    between atoms: C_14  and  N_15 
REMARK    6  A    between atoms: N_18  and  C_19 
ROOT
ATOM      1  C   UNL d   1       8.462   5.014  -9.936  0.00  0.00     0.250 C 
ENDROOT
BRANCH   1   2
ATOM      2  C   UNL d   1       9.509   6.075  -9.496  0.00  0.00     0.035 C 
BRANCH   2   3
ATOM      3  C   UNL d   1       9.999   5.775  -8.065  0.00  0.00     0.003 C 
BRANCH   3   4
ATOM      4  C   UNL d   1       9.859   6.949  -7.072  0.00  0.00     0.014 C 
BRANCH   4   5
ATOM      5  C   UNL d   1      11.202   7.651  -6.727  0.00  0.00     0.105 A 
ATOM      6  C   UNL d   1      11.216   9.138  -7.117  0.00  0.00     0.259 A 
ATOM      7  O   UNL d   1      11.065   9.519  -8.273  0.00  0.00    -0.270 OA
ATOM      8  N   UNL d   1      11.424   9.921  -6.044  0.00  0.00    -0.212 NA
ATOM      9  C   UNL d   1      11.566   9.142  -4.893  0.00  0.00     0.081 A 
ATOM     10  C   UNL d   1      11.449   7.806  -5.245  0.00  0.00     0.004 A 
ATOM     11  C   UNL d   1      11.784   9.539  -3.561  0.00  0.00     0.019 A 
ATOM     12  C   UNL d   1      11.560   6.787  -4.282  0.00  0.00    -0.002 A 
ATOM     13  C   UNL d   1      11.803   7.160  -2.941  0.00  0.00    -0.000 A 
ATOM     14  C   UNL d   1      11.905   8.525  -2.586  0.00  0.00     0.002 A 
ENDBRANCH   4   5
ENDBRANCH   3   4
ENDBRANCH   2   3
ENDBRANCH   1   2
BRANCH   1  15
ATOM     15  N   UNL d   1       8.234   5.005 -11.378  0.00  0.00     0.141 N 
ATOM     16  C   UNL d   1       6.996   4.286 -11.714  0.00  0.00     0.274 C 
ATOM     17  C   UNL d   1       6.765   4.291 -13.238  0.00  0.00     0.137 C 
ATOM     18  N   UNL d   1       7.932   3.756 -13.937  0.00  0.00    -0.344 N 
ATOM     19  C   UNL d   1       9.192   4.381 -13.560  0.00  0.00     0.137 C 
ATOM     20  C   UNL d   1       9.350   4.331 -12.049  0.00  0.00     0.274 C 
BRANCH  18  21
ATOM     21  C   UNL d   1       7.881   2.703 -14.861  0.00  0.00     0.056 A 
ATOM     22  C   UNL d   1       8.846   2.609 -15.903  0.00  0.00     0.018 A 
ATOM     23  C   UNL d   1       8.761   1.598 -16.875  0.00  0.00     0.013 A 
ATOM     24  C   UNL d   1       7.712   0.666 -16.836  0.00  0.00     0.058 A 
ATOM     25  C   UNL d   1       6.753   0.741 -15.811  0.00  0.00     0.013 A 
ATOM     26 CL   UNL d   1       7.603  -0.553 -18.047  0.00  0.00    -0.082 Cl
ATOM     27  C   UNL d   1       6.838   1.741 -14.828  0.00  0.00     0.018 A 
ENDBRANCH  18  21
ENDBRANCH   1  15
TORSDOF 6
