REMARK  9 active torsions:
REMARK  status: ('A' for Active; 'I' for Inactive)
REMARK    1  A    between atoms: O_2  and  C_3 
REMARK    2  A    between atoms: C_8  and  N_9 
REMARK    3  A    between atoms: N_12  and  C_13 
REMARK    4  A    between atoms: C_13  and  C_14 
REMARK    5  A    between atoms: C_14  and  C_15 
REMARK    6  A    between atoms: C_15  and  C_16 
REMARK    7  A    between atoms: C_16  and  N_17 
REMARK       I    between atoms: N_17  and  C_18 
REMARK    8  A    between atoms: C_18  and  C_20 
REMARK    9  A    between atoms: C_21  and  C_22 
ROOT
ATOM      1  C   UNL d   1       7.046   3.485 -13.450  0.00  0.00     0.251 C 
ENDROOT
BRANCH   1   2
ATOM      2  N   UNL d   1       7.998   2.554 -14.064  0.00  0.00     0.141 N 
ATOM      3  C   UNL d   1       7.288   1.683 -15.012  0.00  0.00     0.274 C 
ATOM      4  C   UNL d   1       8.249   0.632 -15.611  0.00  0.00     0.137 C 
ATOM      5  N   UNL d   1       9.406   1.287 -16.208  0.00  0.00    -0.343 N 
ATOM      6  C   UNL d   1      10.104   2.227 -15.347  0.00  0.00     0.137 C 
ATOM      7  C   UNL d   1       9.104   3.230 -14.763  0.00  0.00     0.274 C 
BRANCH   5   8
ATOM      8  C   UNL d   1       9.767   1.124 -17.559  0.00  0.00     0.079 A 
ATOM      9  C   UNL d   1       8.802   1.146 -18.608  0.00  0.00     0.110 A 
ATOM     10  C   UNL d   1       9.233   0.919 -19.940  0.00  0.00     0.026 A 
ATOM     11  C   UNL d   1      10.591   0.711 -20.232  0.00  0.00     0.002 A 
ATOM     12  C   UNL d   1      11.545   0.722 -19.203  0.00  0.00     0.002 A 
ATOM     13  C   UNL d   1      11.133   0.930 -17.873  0.00  0.00     0.019 A 
BRANCH   9  14
ATOM     14  O   UNL d   1       7.493   1.436 -18.284  0.00  0.00    -0.327 OA
ATOM     15  C   UNL d   1       6.483   1.179 -19.246  0.00  0.00     0.181 C 
ENDBRANCH   9  14
ENDBRANCH   5   8
ENDBRANCH   1   2
BRANCH   1  16
ATOM     16  C   UNL d   1       7.725   4.360 -12.380  0.00  0.00     0.037 C 
BRANCH  16  17
ATOM     17  C   UNL d   1       8.125   5.754 -12.904  0.00  0.00     0.029 C 
BRANCH  17  18
ATOM     18  C   UNL d   1       9.394   6.286 -12.241  0.00  0.00     0.129 C 
BRANCH  18  19
ATOM     19  N   UNL d   1       9.159   6.768 -10.891  0.00  0.00    -0.234 NA
ATOM     20  C   UNL d   1       9.453   6.100  -9.767  0.00  0.00     0.275 C 
ATOM     21  O   UNL d   1       9.578   4.876  -9.716  0.00  0.00    -0.266 OA
BRANCH  20  22
ATOM     22  C   UNL d   1       9.690   7.024  -8.675  0.00  0.00     0.062 C 
ATOM     23  C   UNL d   1      10.440   6.658  -7.618  0.00  0.00     0.005 C 
BRANCH  23  24
ATOM     24  C   UNL d   1      10.829   7.548  -6.508  0.00  0.00     0.001 A 
ATOM     25  C   UNL d   1      11.283   6.987  -5.297  0.00  0.00     0.006 A 
ATOM     26  C   UNL d   1      11.636   7.811  -4.210  0.00  0.00     0.030 A 
ATOM     27  C   UNL d   1      11.518   9.210  -4.314  0.00  0.00     0.006 A 
ATOM     28  I   UNL d   1      12.262   6.950  -2.413  0.00  0.00    -0.043 I 
ATOM     29  C   UNL d   1      11.069   9.779  -5.517  0.00  0.00     0.000 A 
ATOM     30  C   UNL d   1      10.723   8.956  -6.605  0.00  0.00     0.000 A 
ENDBRANCH  23  24
ENDBRANCH  20  22
ENDBRANCH  18  19
ENDBRANCH  17  18
ENDBRANCH  16  17
ENDBRANCH   1  16
TORSDOF 9
