REMARK  7 active torsions:
REMARK  status: ('A' for Active; 'I' for Inactive)
REMARK       I    between atoms: C_2  and  N_3 
REMARK    1  A    between atoms: C_2  and  C_23 
REMARK    2  A    between atoms: N_3  and  C_4 
REMARK    3  A    between atoms: C_4  and  C_5 
REMARK    4  A    between atoms: C_5  and  C_6 
REMARK    5  A    between atoms: C_6  and  C_8 
REMARK    6  A    between atoms: C_8  and  N_9 
REMARK    7  A    between atoms: N_12  and  C_13 
ROOT
ATOM      1  C   UNL d   1       8.901   7.357 -12.151  0.00  0.00     0.188 C 
ATOM      2  O   UNL d   1       8.650   8.732 -12.035  0.00  0.00    -0.221 OA
ENDROOT
BRANCH   1   3
ATOM      3  C   UNL d   1       9.321   6.792 -10.785  0.00  0.00     0.061 C 
BRANCH   3   4
ATOM      4  C   UNL d   1      10.721   7.216 -10.415  0.00  0.00     0.132 C 
BRANCH   4   5
ATOM      5  N   UNL d   1      10.889   7.325  -8.983  0.00  0.00    -0.233 NA
ATOM      6  C   UNL d   1      11.091   8.524  -8.407  0.00  0.00     0.293 C 
ATOM      7  O   UNL d   1      11.066   9.587  -9.012  0.00  0.00    -0.264 OA
BRANCH   6   8
ATOM      8  C   UNL d   1      11.396   8.498  -6.973  0.00  0.00     0.139 A 
ATOM      9  N   UNL d   1      11.127   7.350  -6.243  0.00  0.00    -0.241 NA
ATOM     10  C   UNL d   1      11.491   7.505  -4.930  0.00  0.00     0.082 A 
ATOM     11  C   UNL d   1      12.006   8.824  -4.811  0.00  0.00     0.022 A 
ATOM     12  C   UNL d   1      11.463   6.615  -3.850  0.00  0.00     0.021 A 
ATOM     13  C   UNL d   1      11.943   9.431  -6.121  0.00  0.00     0.026 A 
ATOM     14  C   UNL d   1      12.485   9.192  -3.532  0.00  0.00     0.031 A 
ATOM     15  C   UNL d   1      12.446   8.321  -2.426  0.00  0.00     0.140 A 
ATOM     16  F   UNL d   1      12.931   8.721  -1.230  0.00  0.00    -0.204 F 
ATOM     17  C   UNL d   1      11.916   7.029  -2.586  0.00  0.00     0.031 A 
ENDBRANCH   6   8
ENDBRANCH   4   5
ENDBRANCH   3   4
ENDBRANCH   1   3
BRANCH   1  18
ATOM     18  C   UNL d   1       7.604   6.742 -12.688  0.00  0.00     0.283 C 
BRANCH  18  19
ATOM     19  N   UNL d   1       7.628   5.277 -12.806  0.00  0.00     0.144 N 
ATOM     20  C   UNL d   1       8.513   4.791 -13.882  0.00  0.00     0.274 C 
ATOM     21  C   UNL d   1       8.548   3.251 -13.956  0.00  0.00     0.137 C 
ATOM     22  N   UNL d   1       7.187   2.720 -14.048  0.00  0.00    -0.344 N 
ATOM     23  C   UNL d   1       6.241   3.229 -13.046  0.00  0.00     0.137 C 
ATOM     24  C   UNL d   1       6.270   4.750 -12.993  0.00  0.00     0.274 C 
BRANCH  22  25
ATOM     25  C   UNL d   1       6.835   1.760 -15.011  0.00  0.00     0.068 A 
ATOM     26  C   UNL d   1       6.013   0.634 -14.727  0.00  0.00     0.084 A 
ATOM     27  C   UNL d   1       5.630  -0.252 -15.755  0.00  0.00     0.070 A 
ATOM     28 CL   UNL d   1       5.464   0.284 -13.127  0.00  0.00    -0.080 Cl
ATOM     29  C   UNL d   1       6.074  -0.050 -17.073  0.00  0.00     0.012 A 
ATOM     30 CL   UNL d   1       4.609  -1.606 -15.431  0.00  0.00    -0.081 Cl
ATOM     31  C   UNL d   1       6.916   1.036 -17.361  0.00  0.00     0.002 A 
ATOM     32  C   UNL d   1       7.299   1.925 -16.342  0.00  0.00     0.018 A 
ENDBRANCH  22  25
ENDBRANCH  18  19
ENDBRANCH   1  18
TORSDOF 7
