REMARK  9 active torsions:
REMARK  status: ('A' for Active; 'I' for Inactive)
REMARK    1  A    between atoms: O_2  and  C_3 
REMARK    2  A    between atoms: C_8  and  N_9 
REMARK    3  A    between atoms: N_12  and  C_13 
REMARK    4  A    between atoms: C_13  and  C_14 
REMARK    5  A    between atoms: C_14  and  C_15 
REMARK    6  A    between atoms: C_15  and  C_16 
REMARK    7  A    between atoms: C_16  and  N_17 
REMARK       I    between atoms: N_17  and  C_18 
REMARK    8  A    between atoms: C_18  and  C_20 
REMARK    9  A    between atoms: C_23  and  C_24 
ROOT
ATOM      1  C   UNL d   1       5.734   2.868 -13.392  0.00  0.00     0.037 C 
ENDROOT
BRANCH   1   2
ATOM      2  C   UNL d   1       6.194   1.399 -13.560  0.00  0.00     0.251 C 
BRANCH   2   3
ATOM      3  N   UNL d   1       5.571   0.782 -14.720  0.00  0.00     0.141 N 
ATOM      4  C   UNL d   1       6.307   1.149 -15.938  0.00  0.00     0.274 C 
ATOM      5  C   UNL d   1       5.653   0.540 -17.184  0.00  0.00     0.137 C 
ATOM      6  N   UNL d   1       5.482  -0.896 -17.038  0.00  0.00    -0.343 N 
ATOM      7  C   UNL d   1       4.888  -1.352 -15.794  0.00  0.00     0.137 C 
ATOM      8  C   UNL d   1       5.591  -0.680 -14.588  0.00  0.00     0.274 C 
BRANCH   6   9
ATOM      9  C   UNL d   1       5.981  -1.824 -17.979  0.00  0.00     0.079 A 
ATOM     10  C   UNL d   1       7.232  -1.629 -18.606  0.00  0.00     0.110 A 
ATOM     11  C   UNL d   1       7.722  -2.564 -19.553  0.00  0.00     0.026 A 
ATOM     12  C   UNL d   1       6.980  -3.703 -19.859  0.00  0.00     0.002 A 
ATOM     13  C   UNL d   1       5.744  -3.909 -19.236  0.00  0.00     0.002 A 
ATOM     14  C   UNL d   1       5.250  -2.980 -18.296  0.00  0.00     0.019 A 
BRANCH  10  15
ATOM     15  O   UNL d   1       7.993  -0.537 -18.256  0.00  0.00    -0.327 OA
ATOM     16  C   UNL d   1       9.280  -0.388 -18.850  0.00  0.00     0.181 C 
ENDBRANCH  10  15
ENDBRANCH   6   9
ENDBRANCH   2   3
ENDBRANCH   1   2
BRANCH   1  17
ATOM     17  C   UNL d   1       6.578   3.588 -12.333  0.00  0.00     0.029 C 
BRANCH  17  18
ATOM     18  C   UNL d   1       6.350   5.127 -12.252  0.00  0.00     0.129 C 
BRANCH  18  19
ATOM     19  N   UNL d   1       7.397   5.842 -11.516  0.00  0.00    -0.234 NA
ATOM     20  C   UNL d   1       8.734   5.695 -11.609  0.00  0.00     0.275 C 
ATOM     21  O   UNL d   1       9.514   6.129 -10.769  0.00  0.00    -0.266 OA
BRANCH  20  22
ATOM     22  C   UNL d   1       9.235   4.892 -12.769  0.00  0.00     0.058 A 
ATOM     23  C   UNL d   1       8.892   5.191 -14.090  0.00  0.00     0.004 A 
ATOM     24  C   UNL d   1       9.281   4.413 -15.165  0.00  0.00    -0.004 A 
ATOM     25  C   UNL d   1       9.985   3.206 -14.948  0.00  0.00    -0.023 A 
ATOM     26  C   UNL d   1      10.307   2.873 -13.638  0.00  0.00    -0.004 A 
ATOM     27  C   UNL d   1       9.950   3.692 -12.556  0.00  0.00     0.004 A 
BRANCH  25  28
ATOM     28  C   UNL d   1      10.434   2.336 -16.136  0.00  0.00     0.019 C 
ATOM     29  C   UNL d   1      11.897   2.668 -16.491  0.00  0.00     0.004 C 
ATOM     30  C   UNL d   1       9.548   2.640 -17.375  0.00  0.00     0.004 C 
ATOM     31  C   UNL d   1      10.386   0.816 -15.784  0.00  0.00     0.004 C 
ENDBRANCH  25  28
ENDBRANCH  20  22
ENDBRANCH  18  19
ENDBRANCH  17  18
ENDBRANCH   1  17
TORSDOF 9
