REMARK  4 active torsions:
REMARK  status: ('A' for Active; 'I' for Inactive)
REMARK    1  A    between atoms: C_2  and  C_3 
REMARK    2  A    between atoms: C_6  and  N_7 
REMARK    3  A    between atoms: N_17  and  S_18 
REMARK    4  A    between atoms: S_18  and  C_21 
ROOT
ATOM      1  C   UNL d   1       8.986   2.422 -18.376  0.00  0.00     0.134 A 
ATOM      2  N   UNL d   1       8.732   3.008 -17.211  0.00  0.00    -0.227 NA
ATOM      3  C   UNL d   1       8.021   2.047 -16.514  0.00  0.00     0.133 A 
ATOM      4  C   UNL d   1       7.418   2.088 -15.217  0.00  0.00     0.159 A 
ATOM      5  N   UNL d   1       6.713   1.029 -14.760  0.00  0.00    -0.226 NA
ATOM      6  C   UNL d   1       6.599  -0.086 -15.501  0.00  0.00     0.102 A 
ATOM      7  C   UNL d   1       7.161  -0.221 -16.780  0.00  0.00     0.041 A 
ATOM      8  C   UNL d   1       7.880   0.864 -17.294  0.00  0.00     0.098 A 
ATOM      9  N   UNL d   1       8.554   1.137 -18.487  0.00  0.00    -0.218 N 
ENDROOT
BRANCH   9  10
ATOM     10  S   UNL d   1       8.783   0.073 -19.831  0.00  0.00     0.272 S 
ATOM     11  O   UNL d   1       8.213  -1.236 -19.470  0.00  0.00    -0.200 OA
ATOM     12  O   UNL d   1       8.297   0.804 -21.010  0.00  0.00    -0.200 OA
BRANCH  10  13
ATOM     13  C   UNL d   1      10.560  -0.131 -19.917  0.00  0.00     0.106 A 
ATOM     14  C   UNL d   1      11.253   0.226 -21.091  0.00  0.00     0.043 A 
ATOM     15  C   UNL d   1      12.650   0.068 -21.151  0.00  0.00     0.141 A 
ATOM     16  C   UNL d   1      13.350  -0.452 -20.044  0.00  0.00     0.030 A 
ATOM     17  F   UNL d   1      13.318   0.436 -22.270  0.00  0.00    -0.204 F 
ATOM     18  C   UNL d   1      12.650  -0.809 -18.878  0.00  0.00     0.003 A 
ATOM     19  C   UNL d   1      11.253  -0.659 -18.809  0.00  0.00     0.013 A 
ENDBRANCH  10  13
ENDBRANCH   9  10
BRANCH   1  20
ATOM     20  C   UNL d   1       9.682   3.177 -19.468  0.00  0.00     0.065 C 
ATOM     21  C   UNL d   1       8.750   4.100 -20.267  0.00  0.00     0.008 C 
ENDBRANCH   1  20
BRANCH   4  22
ATOM     22  N   UNL d   1       7.476   3.199 -14.365  0.00  0.00    -0.328 N 
ATOM     23  C   UNL d   1       6.282   3.755 -13.741  0.00  0.00     0.141 C 
ATOM     24  C   UNL d   1       6.521   4.012 -12.245  0.00  0.00     0.314 C 
ATOM     25  N   UNL d   1       7.726   4.823 -12.056  0.00  0.00     0.343 N 
ATOM     26  C   UNL d   1       8.900   4.162 -12.640  0.00  0.00     0.314 C 
ATOM     27  C   UNL d   1       8.701   3.946 -14.154  0.00  0.00     0.141 C 
ENDBRANCH   4  22
TORSDOF 4
