REMARK  2 active torsions:
REMARK  status: ('A' for Active; 'I' for Inactive)
REMARK    1  A    between atoms: C_2  and  C_3 
REMARK    2  A    between atoms: C_6  and  C_7 
ROOT
ATOM      1  C   UNL d   1      11.972   7.767  -4.035  0.00  0.00     0.039 C 
ATOM      2  C   UNL d   1      11.167   6.744  -4.870  0.00  0.00     0.003 C 
ATOM      3  C   UNL d   1      11.240   7.003  -6.382  0.00  0.00     0.011 C 
ATOM      4  C   UNL d   1      10.847   8.457  -6.742  0.00  0.00     0.087 C 
ATOM      5  C   UNL d   1      11.667   9.474  -5.921  0.00  0.00     0.011 C 
ATOM      6  C   UNL d   1      11.574   9.215  -4.411  0.00  0.00     0.003 C 
ENDROOT
BRANCH   4   7
ATOM      7  C   UNL d   1      11.004   8.722  -8.252  0.00  0.00     0.185 C 
ATOM      8  O   UNL d   1      10.110   9.186  -8.953  0.00  0.00    -0.647 OA
ATOM      9  O   UNL d   1      12.255   8.407  -8.703  0.00  0.00    -0.647 OA
ENDBRANCH   4   7
BRANCH   1  10
ATOM     10  C   UNL d   1      11.829   7.489  -2.521  0.00  0.00     0.338 C 
ATOM     11  N   UNL d   1      12.662   8.383  -1.751  0.00  0.00     0.618 N 
ENDBRANCH   1  10
TORSDOF 2
