REMARK  7 active torsions:
REMARK  status: ('A' for Active; 'I' for Inactive)
REMARK    1  A    between atoms: C_6  and  N_7 
REMARK    2  A    between atoms: N_10  and  C_11 
REMARK    3  A    between atoms: C_11  and  C_12 
REMARK    4  A    between atoms: C_12  and  C_13 
REMARK    5  A    between atoms: C_13  and  C_14 
REMARK    6  A    between atoms: C_14  and  N_15 
REMARK       I    between atoms: N_15  and  C_16 
REMARK    7  A    between atoms: C_16  and  C_18 
ROOT
ATOM      1  C   UNL d   1       7.168   1.128 -15.567  0.00  0.00     0.037 C 
ENDROOT
BRANCH   1   2
ATOM      2  C   UNL d   1       6.460   2.295 -14.849  0.00  0.00     0.251 C 
BRANCH   2   3
ATOM      3  N   UNL d   1       7.155   2.797 -13.671  0.00  0.00     0.141 N 
ATOM      4  C   UNL d   1       6.321   3.818 -13.010  0.00  0.00     0.274 C 
ATOM      5  C   UNL d   1       6.971   4.279 -11.693  0.00  0.00     0.137 C 
ATOM      6  N   UNL d   1       8.358   4.664 -11.923  0.00  0.00    -0.344 N 
ATOM      7  C   UNL d   1       9.214   3.761 -12.671  0.00  0.00     0.137 C 
ATOM      8  C   UNL d   1       8.495   3.350 -13.955  0.00  0.00     0.274 C 
BRANCH   6   9
ATOM      9  C   UNL d   1       8.854   5.859 -11.465  0.00  0.00     0.052 A 
ATOM     10  C   UNL d   1       8.847   6.953 -12.358  0.00  0.00     0.017 A 
ATOM     11  C   UNL d   1       9.342   8.199 -11.956  0.00  0.00     0.001 A 
ATOM     12  C   UNL d   1       9.857   8.364 -10.660  0.00  0.00    -0.004 A 
ATOM     13  C   UNL d   1       9.882   7.282  -9.752  0.00  0.00    -0.024 A 
ATOM     14  C   UNL d   1      10.435   7.517  -8.364  0.00  0.00     0.031 C 
ATOM     15  C   UNL d   1       9.366   6.030 -10.145  0.00  0.00    -0.010 A 
ATOM     16  C   UNL d   1       9.342   4.857  -9.177  0.00  0.00     0.032 C 
ENDBRANCH   6   9
ENDBRANCH   2   3
ENDBRANCH   1   2
BRANCH   1  17
ATOM     17  C   UNL d   1       6.659   0.891 -17.003  0.00  0.00     0.029 C 
BRANCH  17  18
ATOM     18  C   UNL d   1       7.708   0.195 -17.918  0.00  0.00     0.129 C 
BRANCH  18  19
ATOM     19  N   UNL d   1       8.993   0.911 -18.001  0.00  0.00    -0.234 NA
ATOM     20  C   UNL d   1       9.162   2.150 -18.496  0.00  0.00     0.275 C 
ATOM     21  O   UNL d   1       8.271   2.781 -19.049  0.00  0.00    -0.266 OA
BRANCH  20  22
ATOM     22  C   UNL d   1      10.502   2.783 -18.227  0.00  0.00     0.058 A 
ATOM     23  C   UNL d   1      10.586   4.171 -17.992  0.00  0.00     0.005 A 
ATOM     24  C   UNL d   1      11.836   4.790 -17.775  0.00  0.00     0.000 A 
ATOM     25  C   UNL d   1      13.018   4.005 -17.800  0.00  0.00     0.000 A 
ATOM     26  C   UNL d   1      11.925   6.178 -17.541  0.00  0.00     0.000 A 
ATOM     27  C   UNL d   1      12.934   2.620 -18.039  0.00  0.00     0.000 A 
ATOM     28  C   UNL d   1      14.269   4.615 -17.591  0.00  0.00     0.000 A 
ATOM     29  C   UNL d   1      11.684   2.008 -18.247  0.00  0.00     0.005 A 
ATOM     30  C   UNL d   1      14.352   6.001 -17.353  0.00  0.00     0.000 A 
ATOM     31  C   UNL d   1      13.180   6.782 -17.329  0.00  0.00     0.000 A 
ENDBRANCH  20  22
ENDBRANCH  18  19
ENDBRANCH  17  18
ENDBRANCH   1  17
TORSDOF 7
