REMARK  4 active torsions:
REMARK  status: ('A' for Active; 'I' for Inactive)
REMARK    1  A    between atoms: C_12  and  C_13 
REMARK    2  A    between atoms: N_16  and  C_17 
REMARK    3  A    between atoms: C_17  and  C_18 
REMARK    4  A    between atoms: C_18  and  C_19 
ROOT
ATOM      1  C   UNL d   1       9.091   4.027 -14.037  0.00  0.00     0.011 C 
ATOM      2  C   UNL d   1       8.963   5.541 -13.915  0.00  0.00     0.036 C 
ATOM      3  C   UNL d   1       8.472   5.978 -12.537  0.00  0.00     0.250 C 
ATOM      4  N   UNL d   1       9.412   5.495 -11.528  0.00  0.00     0.137 N 
ATOM      5  C   UNL d   1       9.407   4.037 -11.536  0.00  0.00     0.250 C 
ATOM      6  C   UNL d   1       9.944   3.521 -12.860  0.00  0.00     0.036 C 
ENDROOT
BRANCH   1   7
ATOM      7  C   UNL d   1       9.644   3.556 -15.413  0.00  0.00     0.062 C 
ATOM      8  C   UNL d   1       9.438   2.039 -15.617  0.00  0.00     0.172 C 
ATOM      9  O   UNL d   1       8.570   1.428 -14.973  0.00  0.00    -0.291 OA
ATOM     10  C   UNL d   1      10.286   1.372 -16.633  0.00  0.00     0.031 A 
ATOM     11  C   UNL d   1      11.335   2.064 -17.309  0.00  0.00    -0.019 A 
ATOM     12  C   UNL d   1      10.049   0.007 -16.925  0.00  0.00     0.003 A 
ATOM     13  C   UNL d   1      12.123   1.375 -18.240  0.00  0.00     0.007 A 
ATOM     14  C   UNL d   1      11.620   3.529 -17.032  0.00  0.00     0.027 C 
ATOM     15  C   UNL d   1      11.881   0.024 -18.523  0.00  0.00     0.057 A 
ATOM     16  C   UNL d   1      10.838  -0.660 -17.873  0.00  0.00     0.011 A 
ATOM     17 CL   UNL d   1      12.882  -0.807 -19.653  0.00  0.00    -0.082 Cl
ATOM     18  C   UNL d   1      11.115   3.961 -15.668  0.00  0.00     0.012 C 
ENDBRANCH   1   7
BRANCH   4  19
ATOM     19  C   UNL d   1       8.989   6.004 -10.230  0.00  0.00     0.255 C 
BRANCH  19  20
ATOM     20  C   UNL d   1      10.082   5.787  -9.169  0.00  0.00     0.062 C 
BRANCH  20  21
ATOM     21  C   UNL d   1      10.194   6.935  -8.194  0.00  0.00    -0.020 A 
ATOM     22  C   UNL d   1      11.410   7.642  -8.060  0.00  0.00    -0.004 A 
ATOM     23  C   UNL d   1      11.510   8.737  -7.184  0.00  0.00    -0.000 A 
ATOM     24  C   UNL d   1      10.382   9.133  -6.444  0.00  0.00    -0.000 A 
ATOM     25  C   UNL d   1       9.170   8.426  -6.585  0.00  0.00    -0.000 A 
ATOM     26  C   UNL d   1       9.068   7.326  -7.449  0.00  0.00    -0.004 A 
ENDBRANCH  20  21
ENDBRANCH  19  20
ENDBRANCH   4  19
TORSDOF 4
