REMARK  9 active torsions:
REMARK  status: ('A' for Active; 'I' for Inactive)
REMARK    1  A    between atoms: C_2  and  C_3 
REMARK    2  A    between atoms: C_3  and  N_4 
REMARK    3  A    between atoms: C_11  and  O_12 
REMARK    4  A    between atoms: O_12  and  C_13 
REMARK    5  A    between atoms: C_13  and  C_14 
REMARK    6  A    between atoms: C_14  and  C_15 
REMARK    7  A    between atoms: C_15  and  C_16 
REMARK    8  A    between atoms: C_16  and  N_17 
REMARK       I    between atoms: N_17  and  C_18 
REMARK    9  A    between atoms: C_18  and  C_20 
ROOT
ATOM      1  N   UNL d   1      13.015   7.199 -18.894  0.00  0.00     0.143 N 
ATOM      2  C   UNL d   1      11.796   7.706 -19.522  0.00  0.00     0.282 C 
ATOM      3  C   UNL d   1      10.762   6.610 -19.822  0.00  0.00     0.178 C 
ATOM      4  O   UNL d   1      10.465   5.898 -18.627  0.00  0.00    -0.348 OA
ATOM      5  C   UNL d   1      11.630   5.338 -18.033  0.00  0.00     0.173 C 
ATOM      6  C   UNL d   1      11.303   4.471 -16.833  0.00  0.00     0.031 A 
ATOM      7  C   UNL d   1      10.168   3.636 -16.853  0.00  0.00     0.024 A 
ATOM      8  C   UNL d   1       9.842   2.823 -15.743  0.00  0.00     0.094 A 
ATOM      9  C   UNL d   1      10.684   2.859 -14.605  0.00  0.00     0.026 A 
ATOM     10  C   UNL d   1      11.826   3.686 -14.586  0.00  0.00     0.026 A 
ATOM     11  C   UNL d   1      12.154   4.476 -15.704  0.00  0.00     0.092 A 
ATOM     12  O   UNL d   1      13.290   5.250 -15.639  0.00  0.00    -0.329 OA
ATOM     13  C   UNL d   1      13.763   5.826 -16.852  0.00  0.00     0.185 C 
ATOM     14  C   UNL d   1      12.624   6.466 -17.673  0.00  0.00     0.280 C 
ENDROOT
BRANCH   8  15
ATOM     15  O   UNL d   1       8.707   2.061 -15.840  0.00  0.00    -0.331 OA
BRANCH  15  16
ATOM     16  C   UNL d   1       7.982   1.737 -14.656  0.00  0.00     0.149 C 
BRANCH  16  17
ATOM     17  C   UNL d   1       7.636   3.058 -13.893  0.00  0.00     0.035 C 
BRANCH  17  18
ATOM     18  C   UNL d   1       6.239   3.061 -13.239  0.00  0.00     0.029 C 
BRANCH  18  19
ATOM     19  C   UNL d   1       5.899   4.456 -12.669  0.00  0.00     0.129 C 
BRANCH  19  20
ATOM     20  N   UNL d   1       6.827   4.905 -11.641  0.00  0.00    -0.233 NA
ATOM     21  C   UNL d   1       8.021   5.462 -11.870  0.00  0.00     0.293 C 
ATOM     22  O   UNL d   1       8.489   5.603 -13.003  0.00  0.00    -0.264 OA
BRANCH  21  23
ATOM     23  C   UNL d   1       8.764   5.911 -10.666  0.00  0.00     0.140 A 
ATOM     24  N   UNL d   1       9.791   6.816 -10.824  0.00  0.00    -0.222 NA
ATOM     25  C   UNL d   1      10.333   7.166  -9.613  0.00  0.00     0.163 A 
ATOM     26  C   UNL d   1       9.639   6.392  -8.646  0.00  0.00     0.037 A 
ATOM     27  N   UNL d   1      11.338   8.062  -9.396  0.00  0.00    -0.225 NA
ATOM     28  C   UNL d   1       8.664   5.592  -9.327  0.00  0.00     0.027 A 
ATOM     29  C   UNL d   1      10.041   6.590  -7.308  0.00  0.00     0.005 A 
ATOM     30  C   UNL d   1      11.079   7.504  -7.030  0.00  0.00     0.021 A 
ATOM     31  C   UNL d   1      11.683   8.205  -8.098  0.00  0.00     0.101 A 
ENDBRANCH  21  23
ENDBRANCH  19  20
ENDBRANCH  18  19
ENDBRANCH  17  18
ENDBRANCH  16  17
ENDBRANCH  15  16
ENDBRANCH   8  15
BRANCH   1  32
ATOM     32  C   UNL d   1      13.970   8.290 -18.661  0.00  0.00     0.251 C 
BRANCH  32  33
ATOM     33  C   UNL d   1      14.650   8.825 -19.928  0.00  0.00     0.035 C 
ATOM     34  C   UNL d   1      15.603   9.988 -19.631  0.00  0.00     0.002 C 
ENDBRANCH  32  33
ENDBRANCH   1  32
TORSDOF 9
