REMARK  8 active torsions:
REMARK  status: ('A' for Active; 'I' for Inactive)
REMARK    1  A    between atoms: O_2  and  C_3 
REMARK    2  A    between atoms: C_8  and  N_9 
REMARK    3  A    between atoms: N_12  and  C_13 
REMARK    4  A    between atoms: C_13  and  C_14 
REMARK    5  A    between atoms: C_14  and  C_16 
REMARK    6  A    between atoms: C_16  and  C_17 
REMARK    7  A    between atoms: C_17  and  N_18 
REMARK       I    between atoms: N_18  and  C_19 
REMARK    8  A    between atoms: C_19  and  C_21 
ROOT
ATOM      1  C   UNL d   1       8.210   5.696 -11.781  0.00  0.00     0.188 C 
ATOM      2  O   UNL d   1       8.195   7.085 -12.039  0.00  0.00    -0.221 OA
ENDROOT
BRANCH   1   3
ATOM      3  C   UNL d   1       8.680   5.001 -13.073  0.00  0.00     0.283 C 
BRANCH   3   4
ATOM      4  N   UNL d   1       8.181   3.643 -13.252  0.00  0.00     0.144 N 
ATOM      5  C   UNL d   1       8.904   2.917 -14.300  0.00  0.00     0.274 C 
ATOM      6  C   UNL d   1       8.437   1.458 -14.435  0.00  0.00     0.137 C 
ATOM      7  N   UNL d   1       6.986   1.404 -14.614  0.00  0.00    -0.343 N 
ATOM      8  C   UNL d   1       6.194   2.169 -13.648  0.00  0.00     0.137 C 
ATOM      9  C   UNL d   1       6.739   3.592 -13.522  0.00  0.00     0.274 C 
BRANCH   7  10
ATOM     10  C   UNL d   1       6.419   0.743 -15.709  0.00  0.00     0.079 A 
ATOM     11  C   UNL d   1       5.222  -0.028 -15.584  0.00  0.00     0.110 A 
ATOM     12  C   UNL d   1       4.714  -0.689 -16.735  0.00  0.00     0.026 A 
ATOM     13  C   UNL d   1       5.351  -0.569 -17.980  0.00  0.00     0.002 A 
ATOM     14  C   UNL d   1       6.513   0.198 -18.105  0.00  0.00     0.002 A 
ATOM     15  C   UNL d   1       7.039   0.855 -16.978  0.00  0.00     0.019 A 
BRANCH  11  16
ATOM     16  O   UNL d   1       4.622  -0.129 -14.341  0.00  0.00    -0.327 OA
ATOM     17  C   UNL d   1       3.299  -0.646 -14.268  0.00  0.00     0.181 C 
ENDBRANCH  11  16
ENDBRANCH   7  10
ENDBRANCH   3   4
ENDBRANCH   1   3
BRANCH   1  18
ATOM     18  C   UNL d   1       9.207   5.384 -10.640  0.00  0.00     0.061 C 
BRANCH  18  19
ATOM     19  C   UNL d   1       8.615   5.619  -9.237  0.00  0.00     0.132 C 
BRANCH  19  20
ATOM     20  N   UNL d   1       9.563   6.090  -8.233  0.00  0.00    -0.233 NA
ATOM     21  C   UNL d   1      10.175   7.286  -8.289  0.00  0.00     0.293 C 
ATOM     22  O   UNL d   1      10.247   7.973  -9.310  0.00  0.00    -0.264 OA
BRANCH  21  23
ATOM     23  C   UNL d   1      10.639   7.844  -6.976  0.00  0.00     0.139 A 
ATOM     24  N   UNL d   1      11.042   7.003  -6.000  0.00  0.00    -0.241 NA
ATOM     25  C   UNL d   1      11.460   7.519  -4.824  0.00  0.00     0.082 A 
ATOM     26  C   UNL d   1      11.483   8.923  -4.578  0.00  0.00     0.018 A 
ATOM     27  C   UNL d   1      11.863   6.659  -3.795  0.00  0.00     0.019 A 
ATOM     28  C   UNL d   1      11.078   9.802  -5.600  0.00  0.00     0.003 A 
ATOM     29  C   UNL d   1      11.896   9.439  -3.338  0.00  0.00     0.002 A 
ATOM     30  C   UNL d   1      10.659   9.241  -6.814  0.00  0.00     0.024 A 
ATOM     31  C   UNL d   1      12.315   8.556  -2.331  0.00  0.00     0.000 A 
ATOM     32  C   UNL d   1      12.287   7.169  -2.554  0.00  0.00     0.002 A 
ENDBRANCH  21  23
ENDBRANCH  19  20
ENDBRANCH  18  19
ENDBRANCH   1  18
TORSDOF 8
