REMARK  3 active torsions:
REMARK  status: ('A' for Active; 'I' for Inactive)
REMARK    1  A    between atoms: C_2  and  C_3 
REMARK       I    between atoms: C_2  and  N_23 
REMARK    2  A    between atoms: C_7  and  C_8 
REMARK    3  A    between atoms: C_8  and  N_9 
ROOT
ATOM      1  C   UNL d   1       9.080   5.222 -13.070  0.00  0.00     0.056 C 
ATOM      2  C   UNL d   1      10.137   5.177 -14.017  0.00  0.00     0.005 C 
ATOM      3  C   UNL d   1      10.134   4.223 -15.049  0.00  0.00    -0.000 C 
ATOM      4  C   UNL d   1       9.053   3.330 -15.159  0.00  0.00    -0.002 C 
ATOM      5  C   UNL d   1       8.061   3.273 -14.156  0.00  0.00     0.011 C 
ATOM      6  C   UNL d   1       8.058   4.233 -13.123  0.00  0.00     0.002 C 
ENDROOT
BRANCH   5   7
ATOM      7  C   UNL d   1       6.948   2.224 -14.188  0.00  0.00     0.277 C 
BRANCH   7   8
ATOM      8  N   UNL d   1       7.382   0.816 -14.065  0.00  0.00     0.148 N 
ATOM      9  C   UNL d   1       8.308   0.311 -15.113  0.00  0.00     0.296 C 
ATOM     10  C   UNL d   1       7.565   0.201 -16.407  0.00  0.00     0.088 A 
ATOM     11  C   UNL d   1       6.216  -0.021 -16.499  0.00  0.00    -0.003 A 
ATOM     12  N   UNL d   1       8.101   0.271 -17.676  0.00  0.00    -0.248 NA
ATOM     13  C   UNL d   1       5.346  -0.084 -15.275  0.00  0.00     0.063 C 
ATOM     14  C   UNL d   1       5.904  -0.144 -17.895  0.00  0.00     0.015 A 
ATOM     15  C   UNL d   1       6.215  -0.089 -13.981  0.00  0.00     0.256 C 
ATOM     16  C   UNL d   1       7.119   0.044 -18.625  0.00  0.00     0.081 A 
ATOM     17  C   UNL d   1       4.729  -0.403 -18.640  0.00  0.00     0.001 A 
ATOM     18  C   UNL d   1       7.164  -0.023 -20.029  0.00  0.00     0.019 A 
ATOM     19  C   UNL d   1       5.978  -0.278 -20.741  0.00  0.00     0.002 A 
ATOM     20  C   UNL d   1       4.768  -0.467 -20.045  0.00  0.00     0.000 A 
ENDBRANCH   7   8
ENDBRANCH   5   7
BRANCH   1  21
ATOM     21  C   UNL d   1       9.004   6.353 -12.107  0.00  0.00     0.261 C 
ATOM     22  O   UNL d   1       8.706   7.467 -12.528  0.00  0.00    -0.267 OA
ATOM     23  N   UNL d   1       9.323   6.087 -10.821  0.00  0.00    -0.296 N 
ATOM     24  C   UNL d   1       9.810   7.041  -9.940  0.00  0.00     0.059 A 
ATOM     25  C   UNL d   1       8.725   4.981 -10.084  0.00  0.00     0.114 A 
ATOM     26  C   UNL d   1       9.529   6.679  -8.640  0.00  0.00    -0.004 A 
ATOM     27  C   UNL d   1      10.450   8.255 -10.247  0.00  0.00     0.017 A 
ATOM     28  C   UNL d   1       8.853   5.344  -8.594  0.00  0.00     0.052 A 
ATOM     29  C   UNL d   1       9.790   7.546  -7.570  0.00  0.00    -0.003 A 
ATOM     30  C   UNL d   1      10.393   8.797  -7.865  0.00  0.00    -0.000 A 
ATOM     31  C   UNL d   1      10.728   9.140  -9.198  0.00  0.00     0.002 A 
ENDBRANCH   1  21
TORSDOF 3
