REMARK  8 active torsions:
REMARK  status: ('A' for Active; 'I' for Inactive)
REMARK    1  A    between atoms: O_2  and  C_3 
REMARK    2  A    between atoms: C_8  and  N_9 
REMARK    3  A    between atoms: N_12  and  C_13 
REMARK    4  A    between atoms: C_13  and  C_14 
REMARK    5  A    between atoms: C_14  and  C_16 
REMARK    6  A    between atoms: C_16  and  C_17 
REMARK    7  A    between atoms: C_17  and  N_18 
REMARK    8  A    between atoms: C_20  and  C_21 
ROOT
ATOM      1  C   UNL d   1       9.004   4.575 -14.366  0.00  0.00     0.188 C 
ATOM      2  O   UNL d   1      10.045   4.453 -15.297  0.00  0.00    -0.221 OA
ENDROOT
BRANCH   1   3
ATOM      3  C   UNL d   1       8.547   3.162 -13.947  0.00  0.00     0.283 C 
BRANCH   3   4
ATOM      4  N   UNL d   1       7.564   2.533 -14.838  0.00  0.00     0.144 N 
ATOM      5  C   UNL d   1       8.098   2.278 -16.181  0.00  0.00     0.274 C 
ATOM      6  C   UNL d   1       7.054   1.688 -17.124  0.00  0.00     0.137 C 
ATOM      7  N   UNL d   1       6.529   0.464 -16.540  0.00  0.00    -0.343 N 
ATOM      8  C   UNL d   1       6.024   0.583 -15.175  0.00  0.00     0.137 C 
ATOM      9  C   UNL d   1       7.077   1.266 -14.279  0.00  0.00     0.274 C 
BRANCH   7  10
ATOM     10  C   UNL d   1       6.489  -0.753 -17.242  0.00  0.00     0.079 A 
ATOM     11  C   UNL d   1       7.563  -1.177 -18.071  0.00  0.00     0.110 A 
ATOM     12  C   UNL d   1       7.458  -2.435 -18.738  0.00  0.00     0.026 A 
ATOM     13  C   UNL d   1       6.332  -3.252 -18.550  0.00  0.00     0.002 A 
ATOM     14  C   UNL d   1       5.283  -2.835 -17.723  0.00  0.00     0.002 A 
ATOM     15  C   UNL d   1       5.360  -1.582 -17.076  0.00  0.00     0.019 A 
BRANCH  11  16
ATOM     16  O   UNL d   1       8.706  -0.402 -18.153  0.00  0.00    -0.327 OA
ATOM     17  C   UNL d   1       9.815  -0.851 -18.920  0.00  0.00     0.181 C 
ENDBRANCH  11  16
ENDBRANCH   7  10
ENDBRANCH   3   4
ENDBRANCH   1   3
BRANCH   1  18
ATOM     18  C   UNL d   1       9.593   5.384 -13.212  0.00  0.00     0.061 C 
BRANCH  18  19
ATOM     19  C   UNL d   1       8.570   6.261 -12.469  0.00  0.00     0.132 C 
BRANCH  19  20
ATOM     20  N   UNL d   1       9.180   6.924 -11.332  0.00  0.00    -0.230 N 
ATOM     21  N   UNL d   1       9.481   8.243 -11.386  0.00  0.00    -0.064 NA
ATOM     22  N   UNL d   1       9.975   8.570 -10.239  0.00  0.00    -0.129 NA
ATOM     23  C   UNL d   1       9.998   7.452  -9.402  0.00  0.00     0.123 A 
ATOM     24  C   UNL d   1       9.524   6.382 -10.115  0.00  0.00     0.118 A 
BRANCH  23  25
ATOM     25  C   UNL d   1      10.486   7.528  -8.026  0.00  0.00     0.021 A 
ATOM     26  C   UNL d   1      10.462   8.735  -7.295  0.00  0.00     0.002 A 
ATOM     27  C   UNL d   1      10.932   8.779  -5.963  0.00  0.00     0.000 A 
ATOM     28  C   UNL d   1      11.426   7.604  -5.347  0.00  0.00     0.000 A 
ATOM     29  C   UNL d   1      10.930   9.968  -5.219  0.00  0.00     0.000 A 
ATOM     30  C   UNL d   1      11.468   6.410  -6.080  0.00  0.00     0.000 A 
ATOM     31  C   UNL d   1      11.910   7.597  -4.023  0.00  0.00     0.000 A 
ATOM     32  C   UNL d   1      10.979   6.370  -7.399  0.00  0.00     0.002 A 
ATOM     33  C   UNL d   1      11.892   8.793  -3.288  0.00  0.00     0.000 A 
ATOM     34  C   UNL d   1      11.400   9.954  -3.887  0.00  0.00     0.000 A 
ENDBRANCH  23  25
ENDBRANCH  19  20
ENDBRANCH  18  19
ENDBRANCH   1  18
TORSDOF 8
