REMARK  2 active torsions:
REMARK  status: ('A' for Active; 'I' for Inactive)
REMARK    1  A    between atoms: C_2  and  C_3 
REMARK    2  A    between atoms: C_3  and  N_4 
ROOT
ATOM      1  N   UNL d   1      10.966   8.635  -5.636  0.00  0.00     0.135 N 
ATOM      2  C   UNL d   1      11.935   9.486  -6.346  0.00  0.00     0.251 C 
ATOM      3  C   UNL d   1      11.595   9.368  -7.839  0.00  0.00     0.042 C 
ATOM      4  C   UNL d   1      10.308   8.572  -7.840  0.00  0.00     0.055 C 
ATOM      5  C   UNL d   1       9.942   7.806  -9.098  0.00  0.00    -0.022 A 
ATOM      6  C   UNL d   1      10.236   8.322 -10.375  0.00  0.00    -0.004 A 
ATOM      7  C   UNL d   1       9.786   7.644 -11.521  0.00  0.00     0.002 A 
ATOM      8  C   UNL d   1       9.108   6.426 -11.419  0.00  0.00     0.027 A 
ATOM      9  C   UNL d   1       8.818   5.906 -10.152  0.00  0.00     0.127 A 
ATOM     10  O   UNL d   1       8.114   4.748 -10.102  0.00  0.00    -0.191 OA
ATOM     11  C   UNL d   1       9.222   6.591  -8.988  0.00  0.00    -0.001 A 
ATOM     12  C   UNL d   1       8.878   6.020  -7.619  0.00  0.00     0.030 C 
ATOM     13  C   UNL d   1       9.240   6.914  -6.401  0.00  0.00     0.038 C 
ATOM     14  C   UNL d   1      10.538   7.675  -6.652  0.00  0.00     0.224 C 
ENDROOT
BRANCH   1  15
ATOM     15  C   UNL d   1      11.557   8.022  -4.445  0.00  0.00     0.250 C 
BRANCH  15  16
ATOM     16  C   UNL d   1      11.664   9.017  -3.272  0.00  0.00     0.035 C 
ATOM     17  C   UNL d   1      12.434   8.429  -2.081  0.00  0.00     0.002 C 
ENDBRANCH  15  16
ENDBRANCH   1  15
TORSDOF 2
