REMARK  2 active torsions:
REMARK  status: ('A' for Active; 'I' for Inactive)
REMARK    1  A    between atoms: N_2  and  C_4 
REMARK    2  A    between atoms: C_4  and  C_5 
ROOT
ATOM      1  C   UNL d   1      11.188   2.841 -16.584  0.00  0.00     0.173 C 
ATOM      2  C   UNL d   1      10.086   3.355 -15.682  0.00  0.00     0.057 C 
ATOM      3  C   UNL d   1       9.373   2.164 -15.245  0.00  0.00     0.113 C 
ATOM      4  C   UNL d   1       8.057   2.497 -14.475  0.00  0.00    -0.009 A 
ATOM      5  C   UNL d   1       7.969   3.708 -13.730  0.00  0.00    -0.003 A 
ATOM      6  C   UNL d   1       6.818   4.008 -12.959  0.00  0.00    -0.000 A 
ATOM      7  C   UNL d   1       5.763   3.088 -12.915  0.00  0.00    -0.000 A 
ATOM      8  C   UNL d   1       5.868   1.885 -13.642  0.00  0.00    -0.004 A 
ATOM      9  C   UNL d   1       6.983   1.585 -14.413  0.00  0.00    -0.020 A 
ATOM     10  C   UNL d   1       7.038   0.296 -15.196  0.00  0.00     0.053 C 
ATOM     11  C   UNL d   1       7.099   0.624 -16.671  0.00  0.00    -0.002 A 
ATOM     12  C   UNL d   1       5.982   0.418 -17.497  0.00  0.00     0.018 A 
ATOM     13  C   UNL d   1       6.078   0.777 -18.853  0.00  0.00     0.099 A 
ATOM     14  N   UNL d   1       7.179   1.334 -19.398  0.00  0.00    -0.241 NA
ATOM     15  C   UNL d   1       8.256   1.508 -18.604  0.00  0.00     0.112 A 
ATOM     16  C   UNL d   1       8.271   1.162 -17.232  0.00  0.00     0.077 A 
ATOM     17  N   UNL d   1       9.424   1.306 -16.440  0.00  0.00    -0.141 NA
ATOM     18  O   UNL d   1      10.564   1.723 -17.216  0.00  0.00    -0.279 OA
ENDROOT
BRANCH   1  19
ATOM     19  C   UNL d   1      11.715   3.867 -17.635  0.00  0.00     0.282 C 
BRANCH  19  20
ATOM     20  N   UNL d   1      12.400   5.052 -17.064  0.00  0.00     0.144 N 
ATOM     21  C   UNL d   1      13.557   4.633 -16.266  0.00  0.00     0.286 C 
ATOM     22  C   UNL d   1      11.540   5.945 -16.290  0.00  0.00     0.286 C 
ENDBRANCH  19  20
ENDBRANCH   1  19
TORSDOF 2
