REMARK  7 active torsions:
REMARK  status: ('A' for Active; 'I' for Inactive)
REMARK    1  A    between atoms: O_2  and  C_3 
REMARK    2  A    between atoms: C_7  and  N_8 
REMARK    3  A    between atoms: N_11  and  C_12 
REMARK    4  A    between atoms: C_12  and  C_13 
REMARK    5  A    between atoms: N_16  and  C_17 
REMARK    6  A    between atoms: C_23  and  O_24 
REMARK    7  A    between atoms: C_26  and  O_27 
ROOT
ATOM      1  C   UNL d   1      14.514   4.952 -19.373  0.00  0.00     0.058 C 
ATOM      2  C   UNL d   1      14.299   5.429 -20.813  0.00  0.00     0.028 C 
ATOM      3  C   UNL d   1      15.711   5.513 -21.383  0.00  0.00     0.103 C 
ATOM      4  N   UNL d   1      16.549   5.767 -20.223  0.00  0.00    -0.334 N 
ATOM      5  C   UNL d   1      15.862   5.532 -18.962  0.00  0.00     0.105 C 
ENDROOT
BRANCH   1   6
ATOM      6  C   UNL d   1      13.417   5.417 -18.416  0.00  0.00     0.252 C 
BRANCH   6   7
ATOM      7  N   UNL d   1      12.068   5.068 -18.869  0.00  0.00     0.141 N 
ATOM      8  C   UNL d   1      11.065   5.568 -17.926  0.00  0.00     0.274 C 
ATOM      9  C   UNL d   1      11.215   4.884 -16.543  0.00  0.00     0.137 C 
ATOM     10  N   UNL d   1      11.190   3.423 -16.709  0.00  0.00    -0.344 N 
ATOM     11  C   UNL d   1      12.061   2.859 -17.743  0.00  0.00     0.137 C 
ATOM     12  C   UNL d   1      11.865   3.627 -19.062  0.00  0.00     0.274 C 
BRANCH  10  13
ATOM     13  C   UNL d   1      10.363   2.599 -15.951  0.00  0.00     0.058 A 
ATOM     14  C   UNL d   1      10.656   1.224 -15.760  0.00  0.00     0.017 A 
ATOM     15  C   UNL d   1       9.784   0.402 -15.026  0.00  0.00     0.004 A 
ATOM     16  C   UNL d   1       8.624   0.947 -14.437  0.00  0.00     0.024 A 
ATOM     17  C   UNL d   1       8.337   2.317 -14.572  0.00  0.00     0.096 A 
ATOM     18  C   UNL d   1       9.186   3.119 -15.356  0.00  0.00     0.041 A 
BRANCH  17  19
ATOM     19  O   UNL d   1       7.199   2.815 -13.979  0.00  0.00    -0.328 OA
ATOM     20  C   UNL d   1       7.336   4.085 -13.334  0.00  0.00     0.181 C 
ENDBRANCH  17  19
ENDBRANCH  10  13
ENDBRANCH   6   7
ENDBRANCH   1   6
BRANCH   4  21
ATOM     21  C   UNL d   1      17.885   6.144 -20.332  0.00  0.00     0.143 A 
ATOM     22  C   UNL d   1      18.399   7.333 -19.754  0.00  0.00     0.054 A 
ATOM     23  C   UNL d   1      19.789   7.560 -19.891  0.00  0.00     0.088 A 
ATOM     24  C   UNL d   1      17.579   8.287 -19.107  0.00  0.00     0.031 A 
ATOM     25  N   UNL d   1      20.566   6.689 -20.566  0.00  0.00    -0.224 NA
ATOM     26  C   UNL d   1      20.341   8.724 -19.321  0.00  0.00     0.045 A 
ATOM     27  C   UNL d   1      19.984   5.609 -21.088  0.00  0.00     0.200 A 
ATOM     28  N   UNL d   1      18.696   5.289 -20.993  0.00  0.00    -0.207 NA
ATOM     29  C   UNL d   1      19.539   9.641 -18.619  0.00  0.00     0.118 A 
ATOM     30  C   UNL d   1      18.145   9.438 -18.512  0.00  0.00     0.117 A 
BRANCH  29  31
ATOM     31  O   UNL d   1      20.138  10.782 -18.155  0.00  0.00    -0.326 OA
ATOM     32  C   UNL d   1      20.351  10.790 -16.753  0.00  0.00     0.181 C 
ENDBRANCH  29  31
BRANCH  30  33
ATOM     33  O   UNL d   1      17.397  10.381 -17.837  0.00  0.00    -0.326 OA
ATOM     34  C   UNL d   1      15.983  10.369 -18.038  0.00  0.00     0.181 C 
ENDBRANCH  30  33
ENDBRANCH   4  21
TORSDOF 7
