REMARK  6 active torsions:
REMARK  status: ('A' for Active; 'I' for Inactive)
REMARK    1  A    between atoms: C_5  and  C_6 
REMARK    2  A    between atoms: C_6  and  O_7 
REMARK    3  A    between atoms: O_7  and  C_8 
REMARK    4  A    between atoms: C_8  and  C_9 
REMARK    5  A    between atoms: C_8  and  C_15 
REMARK    6  A    between atoms: C_9  and  N_10 
ROOT
ATOM      1  C   UNL d   1       9.044   4.461 -13.991  0.00  0.00     0.161 C 
ENDROOT
BRANCH   1   2
ATOM      2  O   UNL d   1       9.557   4.809 -12.703  0.00  0.00    -0.345 OA
BRANCH   2   3
ATOM      3  C   UNL d   1       8.561   5.160 -11.747  0.00  0.00     0.169 C 
BRANCH   3   4
ATOM      4  C   UNL d   1       9.141   5.855 -10.540  0.00  0.00     0.007 A 
ATOM      5  C   UNL d   1       8.951   5.326  -9.248  0.00  0.00    -0.001 A 
ATOM      6  C   UNL d   1       9.467   6.008  -8.131  0.00  0.00     0.011 A 
ATOM      7  C   UNL d   1      10.170   7.219  -8.303  0.00  0.00     0.058 A 
ATOM      8 CL   UNL d   1      10.819   8.040  -6.932  0.00  0.00    -0.082 Cl
ATOM      9  C   UNL d   1      10.350   7.754  -9.594  0.00  0.00     0.011 A 
ATOM     10  C   UNL d   1       9.831   7.072 -10.710  0.00  0.00    -0.001 A 
ENDBRANCH   3   4
ENDBRANCH   2   3
ENDBRANCH   1   2
BRANCH   1  11
ATOM     11  C   UNL d   1      10.252   4.412 -14.962  0.00  0.00     0.142 C 
BRANCH  11  12
ATOM     12  N   UNL d   1       9.866   4.222 -16.364  0.00  0.00    -0.305 N 
ATOM     13  C   UNL d   1       9.454   3.094 -16.981  0.00  0.00     0.179 A 
ATOM     14  N   UNL d   1       9.134   3.275 -18.250  0.00  0.00    -0.223 NA
ATOM     15  C   UNL d   1       9.401   4.629 -18.512  0.00  0.00     0.119 A 
ATOM     16  C   UNL d   1       9.861   5.213 -17.356  0.00  0.00     0.098 A 
ENDBRANCH  11  12
ENDBRANCH   1  11
BRANCH   1  17
ATOM     17  C   UNL d   1       8.197   3.175 -14.004  0.00  0.00     0.017 A 
ATOM     18  C   UNL d   1       6.820   3.142 -13.696  0.00  0.00     0.057 A 
ATOM     19  C   UNL d   1       6.096   1.927 -13.770  0.00  0.00     0.023 A 
ATOM     20 CL   UNL d   1       5.914   4.539 -13.227  0.00  0.00    -0.083 Cl
ATOM     21  C   UNL d   1       6.740   0.742 -14.159  0.00  0.00     0.059 A 
ATOM     22  C   UNL d   1       8.103   0.756 -14.462  0.00  0.00     0.011 A 
ATOM     23 CL   UNL d   1       5.829  -0.726 -14.290  0.00  0.00    -0.082 Cl
ATOM     24  C   UNL d   1       8.838   1.953 -14.326  0.00  0.00    -0.000 A 
ENDBRANCH   1  17
TORSDOF 6
