REMARK  3 active torsions:
REMARK  status: ('A' for Active; 'I' for Inactive)
REMARK    1  A    between atoms: C_14  and  C_15 
REMARK    2  A    between atoms: C_15  and  N_16 
REMARK    3  A    between atoms: N_19  and  C_20 
ROOT
ATOM      1  C   UNL d   1       9.055   6.040 -10.557  0.00  0.00     0.140 A 
ATOM      2  C   UNL d   1       8.349   5.518  -9.466  0.00  0.00     0.037 A 
ATOM      3  C   UNL d   1       8.666   5.968  -8.169  0.00  0.00     0.005 A 
ATOM      4  C   UNL d   1       9.706   6.901  -8.016  0.00  0.00     0.018 A 
ATOM      5  C   UNL d   1      10.055   7.367  -6.734  0.00  0.00     0.012 A 
ATOM      6  C   UNL d   1      11.090   8.310  -6.587  0.00  0.00     0.068 A 
ATOM      7  C   UNL d   1      11.466   8.796  -5.266  0.00  0.00     0.101 C 
ATOM      8  N   UNL d   1      11.767   9.181  -4.218  0.00  0.00    -0.191 NA
ATOM      9  C   UNL d   1      11.769   8.778  -7.730  0.00  0.00     0.012 A 
ATOM     10  C   UNL d   1      11.412   8.312  -9.009  0.00  0.00     0.020 A 
ATOM     11  C   UNL d   1      10.380   7.368  -9.180  0.00  0.00     0.083 A 
ATOM     12  N   UNL d   1      10.065   6.923 -10.416  0.00  0.00    -0.229 NA
ENDROOT
BRANCH   1  13
ATOM     13  N   UNL d   1       8.714   5.640 -11.855  0.00  0.00    -0.330 N 
ATOM     14  C   UNL d   1       9.694   5.094 -12.764  0.00  0.00     0.138 C 
ATOM     15  C   UNL d   1       9.220   3.734 -13.279  0.00  0.00     0.274 C 
ATOM     16  N   UNL d   1       7.904   3.842 -13.923  0.00  0.00     0.144 N 
ATOM     17  C   UNL d   1       6.922   4.333 -12.940  0.00  0.00     0.274 C 
ATOM     18  C   UNL d   1       7.353   5.706 -12.365  0.00  0.00     0.138 C 
BRANCH  16  19
ATOM     19  C   UNL d   1       7.470   2.542 -14.439  0.00  0.00     0.283 C 
BRANCH  19  20
ATOM     20  C   UNL d   1       8.386   2.019 -15.575  0.00  0.00     0.185 C 
ATOM     21  C   UNL d   1       9.332   0.899 -15.079  0.00  0.00     0.181 C 
ATOM     22  O   UNL d   1      10.191   0.492 -16.131  0.00  0.00    -0.326 OA
ATOM     23  C   UNL d   1       9.540   0.259 -17.319  0.00  0.00     0.116 A 
ATOM     24  C   UNL d   1       8.219   0.731 -17.546  0.00  0.00     0.118 A 
ATOM     25  C   UNL d   1      10.203  -0.473 -18.320  0.00  0.00     0.028 A 
ATOM     26  C   UNL d   1       7.575   0.430 -18.767  0.00  0.00     0.042 A 
ATOM     27  O   UNL d   1       7.554   1.466 -16.587  0.00  0.00    -0.327 OA
ATOM     28  C   UNL d   1       6.257   0.869 -19.002  0.00  0.00     0.005 A 
ATOM     29  C   UNL d   1       8.237  -0.323 -19.776  0.00  0.00     0.083 A 
ATOM     30  C   UNL d   1       5.648   0.570 -20.231  0.00  0.00     0.015 A 
ATOM     31  C   UNL d   1       6.376  -0.176 -21.174  0.00  0.00     0.059 A 
ATOM     32  C   UNL d   1       5.767  -0.532 -22.512  0.00  0.00     0.052 C 
ATOM     33  N   UNL d   1       7.635  -0.614 -20.954  0.00  0.00    -0.250 NA
ATOM     34  C   UNL d   1       9.557  -0.762 -19.536  0.00  0.00     0.021 A 
ENDBRANCH  19  20
ENDBRANCH  16  19
ENDBRANCH   1  13
TORSDOF 3
