REMARK  7 active torsions:
REMARK  status: ('A' for Active; 'I' for Inactive)
REMARK    1  A    between atoms: O_2  and  C_3 
REMARK    2  A    between atoms: C_8  and  N_9 
REMARK    3  A    between atoms: N_12  and  C_13 
REMARK    4  A    between atoms: C_13  and  C_14 
REMARK    5  A    between atoms: C_17  and  O_18 
REMARK    6  A    between atoms: O_18  and  C_19 
REMARK    7  A    between atoms: C_19  and  C_20 
ROOT
ATOM      1  N   UNL d   1       8.438   5.090 -11.903  0.00  0.00    -0.343 N 
ATOM      2  C   UNL d   1       7.830   6.412 -11.924  0.00  0.00     0.137 C 
ATOM      3  C   UNL d   1       8.876   7.499 -11.544  0.00  0.00     0.275 C 
ATOM      4  N   UNL d   1       9.476   7.180 -10.223  0.00  0.00     0.145 N 
ATOM      5  C   UNL d   1      10.168   5.920 -10.372  0.00  0.00     0.275 C 
ATOM      6  C   UNL d   1       9.210   4.766 -10.720  0.00  0.00     0.137 C 
ENDROOT
BRANCH   4   7
ATOM      7  C   UNL d   1      10.380   8.230  -9.780  0.00  0.00     0.277 C 
BRANCH   7   8
ATOM      8  C   UNL d   1      10.694   8.217  -8.277  0.00  0.00     0.011 A 
ATOM      9  C   UNL d   1      10.485   7.078  -7.457  0.00  0.00    -0.000 A 
ATOM     10  C   UNL d   1      10.840   7.138  -6.092  0.00  0.00     0.024 A 
ATOM     11  C   UNL d   1      11.318   8.330  -5.494  0.00  0.00     0.094 A 
ATOM     12  C   UNL d   1      11.471   9.476  -6.308  0.00  0.00     0.024 A 
ATOM     13  C   UNL d   1      11.198   9.391  -7.677  0.00  0.00    -0.000 A 
BRANCH  11  14
ATOM     14  O   UNL d   1      11.598   8.264  -4.159  0.00  0.00    -0.328 OA
BRANCH  14  15
ATOM     15  C   UNL d   1      11.874   9.475  -3.492  0.00  0.00     0.187 C 
BRANCH  15  16
ATOM     16  C   UNL d   1      12.103   9.125  -2.027  0.00  0.00     0.226 C 
ATOM     17  F   UNL d   1      13.369   8.792  -1.834  0.00  0.00    -0.232 F 
ENDBRANCH  15  16
ENDBRANCH  14  15
ENDBRANCH  11  14
ENDBRANCH   7   8
ENDBRANCH   4   7
BRANCH   1  18
ATOM     18  C   UNL d   1       8.464   4.272 -13.030  0.00  0.00     0.079 A 
ATOM     19  C   UNL d   1       9.671   3.984 -13.704  0.00  0.00     0.110 A 
ATOM     20  C   UNL d   1       9.641   3.082 -14.806  0.00  0.00     0.026 A 
ATOM     21  C   UNL d   1       8.431   2.487 -15.204  0.00  0.00     0.002 A 
ATOM     22  C   UNL d   1       7.242   2.779 -14.520  0.00  0.00     0.002 A 
ATOM     23  C   UNL d   1       7.255   3.690 -13.443  0.00  0.00     0.019 A 
BRANCH  19  24
ATOM     24  O   UNL d   1      10.826   4.606 -13.278  0.00  0.00    -0.327 OA
ATOM     25  C   UNL d   1      12.060   4.225 -13.867  0.00  0.00     0.181 C 
ENDBRANCH  19  24
ENDBRANCH   1  18
TORSDOF 7
