REMARK  6 active torsions:
REMARK  status: ('A' for Active; 'I' for Inactive)
REMARK    1  A    between atoms: O_2  and  C_3 
REMARK    2  A    between atoms: N_11  and  C_12 
REMARK    3  A    between atoms: C_12  and  C_13 
REMARK    4  A    between atoms: C_18  and  C_19 
REMARK    5  A    between atoms: C_19  and  N_20 
REMARK       I    between atoms: N_20  and  C_21 
REMARK    6  A    between atoms: C_21  and  C_23 
ROOT
ATOM      1  C   UNL d   1      12.181   5.074 -16.193  0.00  0.00     0.058 A 
ATOM      2  C   UNL d   1      12.012   6.382 -15.669  0.00  0.00     0.005 A 
ATOM      3  C   UNL d   1      12.820   7.448 -16.108  0.00  0.00     0.001 A 
ATOM      4  C   UNL d   1      13.822   7.223 -17.064  0.00  0.00     0.010 A 
ATOM      5  C   UNL d   1      14.012   5.926 -17.582  0.00  0.00     0.069 A 
ATOM      6  C   UNL d   1      15.045   5.690 -18.571  0.00  0.00     0.101 C 
ATOM      7  N   UNL d   1      15.870   5.501 -19.361  0.00  0.00    -0.191 NA
ATOM      8  C   UNL d   1      13.195   4.860 -17.149  0.00  0.00     0.015 A 
ENDROOT
BRANCH   1   9
ATOM      9  C   UNL d   1      11.349   3.911 -15.716  0.00  0.00     0.275 C 
ATOM     10  N   UNL d   1      10.488   4.187 -14.731  0.00  0.00    -0.229 NA
ATOM     11  O   UNL d   1      11.505   2.778 -16.177  0.00  0.00    -0.266 OA
BRANCH  10  12
ATOM     12  C   UNL d   1       9.770   3.218 -13.923  0.00  0.00     0.155 C 
BRANCH  12  13
ATOM     13  C   UNL d   1       8.370   3.689 -13.588  0.00  0.00     0.000 A 
ATOM     14  C   UNL d   1       8.111   4.884 -12.851  0.00  0.00     0.009 A 
ATOM     15  C   UNL d   1       6.780   5.213 -12.522  0.00  0.00    -0.003 A 
ATOM     16  C   UNL d   1       5.726   4.361 -12.888  0.00  0.00    -0.000 A 
ATOM     17  C   UNL d   1       5.988   3.175 -13.591  0.00  0.00    -0.000 A 
ATOM     18  C   UNL d   1       7.299   2.856 -13.972  0.00  0.00    -0.003 A 
BRANCH  14  19
ATOM     19  C   UNL d   1       9.223   5.798 -12.333  0.00  0.00     0.277 C 
BRANCH  19  20
ATOM     20  N   UNL d   1       9.117   6.168 -10.927  0.00  0.00     0.146 N 
ATOM     21  C   UNL d   1      10.276   6.980 -10.557  0.00  0.00     0.277 C 
ATOM     22  C   UNL d   1      10.385   7.317  -9.083  0.00  0.00     0.009 A 
ATOM     23  C   UNL d   1       9.677   6.541  -8.145  0.00  0.00    -0.020 A 
ATOM     24  C   UNL d   1      11.241   8.342  -8.643  0.00  0.00     0.027 A 
ATOM     25  C   UNL d   1       9.769   6.841  -6.768  0.00  0.00     0.022 A 
ATOM     26  C   UNL d   1       8.780   5.422  -8.637  0.00  0.00     0.061 C 
ATOM     27  C   UNL d   1      10.622   7.867  -6.323  0.00  0.00     0.119 A 
ATOM     28  C   UNL d   1      11.356   8.624  -7.265  0.00  0.00     0.153 A 
ATOM     29  O   UNL d   1      12.145   9.648  -6.838  0.00  0.00    -0.188 OA
ATOM     30  C   UNL d   1       9.084   4.987 -10.068  0.00  0.00     0.256 C 
BRANCH  27  31
ATOM     31  O   UNL d   1      10.665   8.151  -4.983  0.00  0.00    -0.326 OA
ATOM     32  C   UNL d   1      11.916   7.956  -4.337  0.00  0.00     0.181 C 
ENDBRANCH  27  31
ENDBRANCH  19  20
ENDBRANCH  14  19
ENDBRANCH  12  13
ENDBRANCH  10  12
ENDBRANCH   1   9
TORSDOF 6
