REMARK  6 active torsions:
REMARK  status: ('A' for Active; 'I' for Inactive)
REMARK    1  A    between atoms: C_2  and  C_3 
REMARK    2  A    between atoms: C_3  and  C_6 
REMARK    3  A    between atoms: C_9  and  S_10 
REMARK    4  A    between atoms: S_10  and  N_13 
REMARK    5  A    between atoms: N_13  and  C_14 
REMARK    6  A    between atoms: C_17  and  C_18 
ROOT
ATOM      1  S   UNL d   1       8.021   5.328 -12.733  0.00  0.00     0.285 S 
ATOM      2  O   UNL d   1       9.358   5.450 -13.336  0.00  0.00    -0.198 OA
ATOM      3  O   UNL d   1       7.038   6.416 -12.819  0.00  0.00    -0.198 OA
ENDROOT
BRANCH   1   4
ATOM      4  C   UNL d   1       7.273   3.796 -13.255  0.00  0.00     0.105 A 
ATOM      5  C   UNL d   1       5.994   3.450 -12.787  0.00  0.00     0.013 A 
ATOM      6  C   UNL d   1       5.435   2.216 -13.172  0.00  0.00    -0.004 A 
ATOM      7  C   UNL d   1       6.104   1.321 -14.043  0.00  0.00    -0.023 A 
ATOM      8  C   UNL d   1       7.397   1.693 -14.489  0.00  0.00    -0.004 A 
ATOM      9  C   UNL d   1       7.980   2.917 -14.096  0.00  0.00     0.013 A 
BRANCH   7  10
ATOM     10  C   UNL d   1       5.477  -0.026 -14.487  0.00  0.00     0.019 C 
ATOM     11  C   UNL d   1       4.038  -0.234 -13.945  0.00  0.00     0.004 C 
ATOM     12  C   UNL d   1       6.337  -1.162 -13.918  0.00  0.00     0.004 C 
BRANCH  10  13
ATOM     13  C   UNL d   1       5.466  -0.104 -16.043  0.00  0.00     0.004 C 
ATOM     14  C   UNL d   1       4.806  -1.358 -16.661  0.00  0.00     0.000 C 
ENDBRANCH  10  13
ENDBRANCH   7  10
ENDBRANCH   1   4
BRANCH   1  15
ATOM     15  N   UNL d   1       8.287   5.066 -11.051  0.00  0.00    -0.158 NA
BRANCH  15  16
ATOM     16  C   UNL d   1       9.066   5.821 -10.184  0.00  0.00     0.094 A 
ATOM     17  C   UNL d   1       9.649   7.043 -10.579  0.00  0.00     0.020 A 
ATOM     18  C   UNL d   1      10.448   7.763  -9.679  0.00  0.00    -0.003 A 
ATOM     19  C   UNL d   1      10.685   7.291  -8.358  0.00  0.00    -0.021 A 
ATOM     20  C   UNL d   1      10.114   6.051  -7.998  0.00  0.00    -0.003 A 
ATOM     21  C   UNL d   1       9.298   5.330  -8.885  0.00  0.00     0.020 A 
BRANCH  19  22
ATOM     22  C   UNL d   1      11.556   8.088  -7.413  0.00  0.00     0.055 A 
ATOM     23  C   UNL d   1      11.628   9.569  -7.564  0.00  0.00     0.042 A 
ATOM     24  C   UNL d   1      11.424  10.190  -6.212  0.00  0.00     0.290 C 
ATOM     25  C   UNL d   1      12.832   8.733  -7.917  0.00  0.00     0.009 A 
ATOM     26  N   UNL d   1      10.737   9.150  -5.460  0.00  0.00     0.339 N 
ATOM     27  C   UNL d   1      11.304   7.882  -5.915  0.00  0.00     0.294 C 
ENDBRANCH  19  22
ENDBRANCH  15  16
ENDBRANCH   1  15
TORSDOF 6
