REMARK  11 active torsions:
REMARK  status: ('A' for Active; 'I' for Inactive)
REMARK    1  A    between atoms: C_2  and  C_3 
REMARK    2  A    between atoms: C_3  and  N_4 
REMARK    3  A    between atoms: C_19  and  O_20 
REMARK    4  A    between atoms: O_20  and  C_21 
REMARK    5  A    between atoms: C_21  and  C_22 
REMARK    6  A    between atoms: N_24  and  C_25 
REMARK    7  A    between atoms: C_25  and  C_26 
REMARK    8  A    between atoms: C_26  and  C_27 
REMARK    9  A    between atoms: C_27  and  N_28 
REMARK   10  A    between atoms: N_31  and  C_32 
REMARK   11  A    between atoms: C_37  and  O_38 
ROOT
ATOM      1  C   UNL d   1      11.367   0.812 -18.653  0.00  0.00     0.131 A 
ATOM      2  C   UNL d   1      12.066   0.536 -19.781  0.00  0.00     0.116 A 
ATOM      3  N   UNL d   1      11.467   1.338 -20.728  0.00  0.00    -0.231 N 
ATOM      4  N   UNL d   1      10.444   2.053 -20.207  0.00  0.00    -0.064 NA
ATOM      5  N   UNL d   1      10.347   1.721 -18.965  0.00  0.00    -0.131 NA
ENDROOT
BRANCH   1   6
ATOM      6  C   UNL d   1      11.594   0.290 -17.259  0.00  0.00     0.198 C 
BRANCH   6   7
ATOM      7  O   UNL d   1      10.808   0.901 -16.247  0.00  0.00    -0.324 OA
BRANCH   7   8
ATOM      8  C   UNL d   1      10.945   2.259 -16.029  0.00  0.00     0.094 A 
ATOM      9  C   UNL d   1      12.146   2.940 -16.349  0.00  0.00     0.024 A 
ATOM     10  C   UNL d   1      12.287   4.313 -16.093  0.00  0.00     0.002 A 
ATOM     11  C   UNL d   1      11.233   5.007 -15.486  0.00  0.00    -0.004 A 
ATOM     12  C   UNL d   1      10.029   4.341 -15.182  0.00  0.00    -0.018 A 
ATOM     13  C   UNL d   1       8.930   5.082 -14.468  0.00  0.00     0.064 C 
ATOM     14  C   UNL d   1       9.839   2.971 -15.498  0.00  0.00     0.018 A 
ATOM     15  C   UNL d   1       8.141   4.124 -13.540  0.00  0.00     0.245 C 
ATOM     16  N   UNL d   1       7.166   4.892 -12.755  0.00  0.00     0.140 N 
ATOM     17  C   UNL d   1       7.585   2.922 -14.312  0.00  0.00     0.005 A 
ATOM     18  C   UNL d   1       6.364   3.959 -11.985  0.00  0.00     0.255 C 
ATOM     19  C   UNL d   1       5.509   3.115 -12.923  0.00  0.00     0.061 C 
ATOM     20  C   UNL d   1       6.319   2.364 -13.979  0.00  0.00    -0.022 A 
ATOM     21  C   UNL d   1       5.923   1.188 -14.622  0.00  0.00    -0.004 A 
ATOM     22  C   UNL d   1       6.728   0.662 -15.654  0.00  0.00    -0.000 A 
ATOM     23  C   UNL d   1       7.973   1.258 -15.961  0.00  0.00    -0.000 A 
ATOM     24  C   UNL d   1       8.489   2.373 -15.261  0.00  0.00    -0.001 A 
BRANCH  16  25
ATOM     25  C   UNL d   1       7.772   5.879 -11.842  0.00  0.00     0.251 C 
BRANCH  25  26
ATOM     26  C   UNL d   1       8.918   5.370 -10.897  0.00  0.00     0.035 C 
ATOM     27  C   UNL d   1       8.407   4.826  -9.527  0.00  0.00     0.002 C 
ENDBRANCH  25  26
ENDBRANCH  16  25
ENDBRANCH   7   8
ENDBRANCH   6   7
ENDBRANCH   1   6
BRANCH   3  28
ATOM     28  C   UNL d   1      11.803   1.519 -22.119  0.00  0.00     0.131 C 
BRANCH  28  29
ATOM     29  C   UNL d   1      12.626   2.796 -22.347  0.00  0.00     0.062 C 
BRANCH  29  30
ATOM     30  C   UNL d   1      13.792   2.969 -21.349  0.00  0.00     0.253 C 
BRANCH  30  31
ATOM     31  N   UNL d   1      14.684   4.061 -21.730  0.00  0.00     0.141 N 
ATOM     32  C   UNL d   1      14.040   5.368 -21.528  0.00  0.00     0.274 C 
ATOM     33  C   UNL d   1      14.987   6.512 -21.961  0.00  0.00     0.137 C 
ATOM     34  N   UNL d   1      16.244   6.388 -21.268  0.00  0.00    -0.343 N 
ATOM     35  C   UNL d   1      16.889   5.094 -21.309  0.00  0.00     0.137 C 
ATOM     36  C   UNL d   1      15.883   3.998 -20.889  0.00  0.00     0.274 C 
BRANCH  34  37
ATOM     37  C   UNL d   1      16.775   7.465 -20.479  0.00  0.00     0.079 A 
ATOM     38  C   UNL d   1      17.184   7.251 -19.152  0.00  0.00     0.110 A 
ATOM     39  C   UNL d   1      17.763   8.323 -18.441  0.00  0.00     0.026 A 
ATOM     40  C   UNL d   1      17.903   9.597 -19.032  0.00  0.00     0.002 A 
ATOM     41  C   UNL d   1      17.458   9.800 -20.350  0.00  0.00     0.002 A 
ATOM     42  C   UNL d   1      16.887   8.727 -21.072  0.00  0.00     0.019 A 
BRANCH  38  43
ATOM     43  O   UNL d   1      17.000   5.991 -18.588  0.00  0.00    -0.327 OA
ATOM     44  C   UNL d   1      17.231   5.823 -17.203  0.00  0.00     0.181 C 
ENDBRANCH  38  43
ENDBRANCH  34  37
ENDBRANCH  30  31
ENDBRANCH  29  30
ENDBRANCH  28  29
ENDBRANCH   3  28
TORSDOF 11
