REMARK  9 active torsions:
REMARK  status: ('A' for Active; 'I' for Inactive)
REMARK    1  A    between atoms: C_8  and  O_9 
REMARK    2  A    between atoms: O_9  and  C_10 
REMARK    3  A    between atoms: C_10  and  C_11 
REMARK    4  A    between atoms: C_11  and  C_12 
REMARK    5  A    between atoms: C_12  and  C_13 
REMARK    6  A    between atoms: C_13  and  N_14 
REMARK    7  A    between atoms: N_14  and  C_15 
REMARK    8  A    between atoms: C_15  and  C_16 
REMARK    9  A    between atoms: C_18  and  C_19 
ROOT
ATOM      1  C   UNL d   1       9.455   4.883 -10.316  0.00  0.00     0.290 C 
ENDROOT
BRANCH   1   2
ATOM      2  C   UNL d   1       8.568   5.604  -9.305  0.00  0.00     0.041 C 
BRANCH   2   3
ATOM      3  C   UNL d   1       9.351   6.251  -8.162  0.00  0.00     0.035 C 
BRANCH   3   4
ATOM      4  C   UNL d   1      10.449   7.246  -8.618  0.00  0.00     0.149 C 
BRANCH   4   5
ATOM      5  O   UNL d   1      10.303   8.518  -8.017  0.00  0.00    -0.331 OA
BRANCH   5   6
ATOM      6  C   UNL d   1      10.688   8.656  -6.709  0.00  0.00     0.096 A 
ATOM      7  C   UNL d   1      10.683   9.963  -6.201  0.00  0.00     0.024 A 
ATOM      8  C   UNL d   1      11.061  10.226  -4.882  0.00  0.00     0.004 A 
ATOM      9  C   UNL d   1      11.466   9.175  -4.063  0.00  0.00     0.018 A 
ATOM     10  C   UNL d   1      11.895   9.376  -2.693  0.00  0.00     0.006 A 
ATOM     11  C   UNL d   1      11.467   7.856  -4.554  0.00  0.00     0.087 A 
ATOM     12  C   UNL d   1      12.281   8.337  -1.933  0.00  0.00     0.063 A 
ATOM     13  C   UNL d   1      12.271   6.967  -2.441  0.00  0.00     0.279 A 
ATOM     14  O   UNL d   1      12.662   6.010  -1.797  0.00  0.00    -0.265 OA
ATOM     15  N   UNL d   1      11.864   6.806  -3.708  0.00  0.00    -0.208 NA
ATOM     16  C   UNL d   1      11.085   7.587  -5.871  0.00  0.00     0.043 A 
ENDBRANCH   5   6
ENDBRANCH   4   5
ENDBRANCH   3   4
ENDBRANCH   2   3
ENDBRANCH   1   2
BRANCH   1  17
ATOM     17  N   UNL d   1       8.710   4.584 -11.518  0.00  0.00     0.339 N 
BRANCH  17  18
ATOM     18  C   UNL d   1       9.573   3.881 -12.449  0.00  0.00     0.290 C 
BRANCH  18  19
ATOM     19  C   UNL d   1       8.881   3.794 -13.780  0.00  0.00     0.041 A 
ATOM     20  C   UNL d   1       9.486   2.990 -14.908  0.00  0.00     0.026 A 
ATOM     21  C   UNL d   1       9.490   4.498 -14.972  0.00  0.00     0.007 A 
BRANCH  20  22
ATOM     22  C   UNL d   1       8.628   2.174 -15.820  0.00  0.00     0.002 A 
ATOM     23  C   UNL d   1       8.674   2.399 -17.215  0.00  0.00     0.112 A 
ATOM     24  C   UNL d   1       7.846   1.638 -18.088  0.00  0.00     0.116 A 
ATOM     25  O   UNL d   1       9.516   3.366 -17.713  0.00  0.00    -0.326 OA
ATOM     26  C   UNL d   1       6.960   0.688 -17.551  0.00  0.00     0.026 A 
ATOM     27  O   UNL d   1       7.865   1.850 -19.447  0.00  0.00    -0.326 OA
ATOM     28  C   UNL d   1       6.912   0.463 -16.162  0.00  0.00     0.002 A 
ATOM     29  C   UNL d   1       7.745   1.204 -15.301  0.00  0.00    -0.002 A 
ATOM     30  C   UNL d   1       9.003   2.563 -19.918  0.00  0.00     0.181 C 
ATOM     31  C   UNL d   1       9.232   3.797 -19.037  0.00  0.00     0.181 C 
ENDBRANCH  20  22
ENDBRANCH  18  19
ENDBRANCH  17  18
ENDBRANCH   1  17
TORSDOF 9
