REMARK  8 active torsions:
REMARK  status: ('A' for Active; 'I' for Inactive)
REMARK    1  A    between atoms: C_2  and  C_3 
REMARK       I    between atoms: C_2  and  N_10 
REMARK    2  A    between atoms: C_3  and  C_4 
REMARK    3  A    between atoms: C_4  and  C_6 
REMARK    4  A    between atoms: N_10  and  C_11 
REMARK    5  A    between atoms: C_14  and  C_15 
REMARK    6  A    between atoms: C_15  and  C_16 
REMARK    7  A    between atoms: C_16  and  N_17 
REMARK    8  A    between atoms: C_20  and  C_21 
ROOT
ATOM      1  C   UNL d   1       9.271   5.485 -11.762  0.00  0.00     0.035 C 
ENDROOT
BRANCH   1   2
ATOM      2  C   UNL d   1       9.443   4.300 -12.725  0.00  0.00     0.002 C 
ATOM      3  C   UNL d   1       8.118   3.969 -13.423  0.00  0.00     0.002 C 
ATOM      4  C   UNL d   1       8.285   2.852 -14.458  0.00  0.00     0.024 C 
ATOM      5  C   UNL d   1       9.380   3.194 -15.495  0.00  0.00     0.106 C 
ATOM      6  C   UNL d   1      10.712   3.494 -14.794  0.00  0.00     0.024 C 
ATOM      7  C   UNL d   1      10.544   4.610 -13.759  0.00  0.00     0.002 C 
BRANCH   5   8
ATOM      8  N   UNL d   1       9.570   2.093 -16.430  0.00  0.00    -0.240 NA
ATOM      9  C   UNL d   1       8.686   1.751 -17.375  0.00  0.00     0.254 C 
ATOM     10  O   UNL d   1       7.648   2.374 -17.570  0.00  0.00    -0.270 OA
BRANCH   9  11
ATOM     11  C   UNL d   1       9.022   0.512 -18.207  0.00  0.00     0.131 C 
BRANCH  11  12
ATOM     12  C   UNL d   1       7.811  -0.067 -18.977  0.00  0.00     0.256 C 
ATOM     13  O   UNL d   1       7.438   0.804 -20.036  0.00  0.00    -0.214 OA
BRANCH  12  14
ATOM     14  C   UNL d   1       8.110  -1.452 -19.576  0.00  0.00     0.426 C 
ATOM     15  F   UNL d   1       7.034  -1.937 -20.196  0.00  0.00    -0.167 F 
ATOM     16  F   UNL d   1       9.122  -1.360 -20.440  0.00  0.00    -0.167 F 
ATOM     17  F   UNL d   1       8.446  -2.297 -18.603  0.00  0.00    -0.167 F 
ENDBRANCH  12  14
ENDBRANCH  11  12
ENDBRANCH   9  11
ENDBRANCH   5   8
ENDBRANCH   1   2
BRANCH   1  18
ATOM     18  C   UNL d   1       8.703   5.088 -10.384  0.00  0.00     0.250 C 
BRANCH  18  19
ATOM     19  N   UNL d   1       9.110   6.020  -9.336  0.00  0.00     0.137 N 
ATOM     20  C   UNL d   1       8.460   5.670  -8.081  0.00  0.00     0.251 C 
ATOM     21  C   UNL d   1       8.794   6.700  -6.989  0.00  0.00     0.040 C 
ATOM     22  C   UNL d   1      10.315   6.773  -6.759  0.00  0.00     0.026 C 
ATOM     23  C   UNL d   1      11.006   6.978  -8.092  0.00  0.00     0.040 C 
ATOM     24  C   UNL d   1      10.540   5.928  -9.094  0.00  0.00     0.251 C 
BRANCH  22  25
ATOM     25  C   UNL d   1      10.735   7.865  -5.801  0.00  0.00    -0.024 A 
ATOM     26  C   UNL d   1      11.465   7.628  -4.617  0.00  0.00    -0.001 A 
ATOM     27  C   UNL d   1      11.807   8.634  -3.732  0.00  0.00     0.090 A 
ATOM     28  C   UNL d   1      11.902   6.334  -4.062  0.00  0.00     0.061 A 
ATOM     29  C   UNL d   1      11.431   9.952  -3.998  0.00  0.00     0.024 A 
ATOM     30  O   UNL d   1      12.429   8.179  -2.606  0.00  0.00    -0.331 OA
ATOM     31  C   UNL d   1      10.747  10.213  -5.200  0.00  0.00     0.002 A 
ATOM     32  C   UNL d   1      10.403   9.187  -6.099  0.00  0.00    -0.004 A 
ATOM     33  C   UNL d   1      12.441   6.747  -2.674  0.00  0.00     0.154 A 
ENDBRANCH  22  25
ENDBRANCH  18  19
ENDBRANCH   1  18
TORSDOF 8
