REMARK  8 active torsions:
REMARK  status: ('A' for Active; 'I' for Inactive)
REMARK    1  A    between atoms: O_2  and  C_3 
REMARK    2  A    between atoms: C_6  and  N_7 
REMARK    3  A    between atoms: N_7  and  C_8 
REMARK    4  A    between atoms: C_8  and  C_9 
REMARK    5  A    between atoms: C_9  and  N_10 
REMARK    6  A    between atoms: N_13  and  C_14 
REMARK    7  A    between atoms: C_14  and  C_15 
REMARK    8  A    between atoms: C_15  and  C_16 
ROOT
ATOM      1  N   UNL d   1       9.463   6.565 -11.010  0.00  0.00     0.143 N 
ATOM      2  C   UNL d   1       8.185   6.595 -11.724  0.00  0.00     0.286 C 
ATOM      3  C   UNL d   1       8.152   5.593 -12.899  0.00  0.00     0.285 C 
ATOM      4  N   UNL d   1       8.410   4.218 -12.454  0.00  0.00     0.142 N 
ATOM      5  C   UNL d   1       9.677   4.212 -11.730  0.00  0.00     0.285 C 
ATOM      6  C   UNL d   1       9.652   5.202 -10.544  0.00  0.00     0.286 C 
ENDROOT
BRANCH   1   7
ATOM      7  C   UNL d   1       9.464   7.520  -9.906  0.00  0.00     0.277 C 
BRANCH   7   8
ATOM      8  C   UNL d   1      10.847   7.748  -9.269  0.00  0.00     0.161 C 
BRANCH   8   9
ATOM      9  N   UNL d   1      10.755   8.719  -8.197  0.00  0.00    -0.269 NA
BRANCH   9  10
ATOM     10  C   UNL d   1      11.076   8.404  -6.872  0.00  0.00     0.076 A 
ATOM     11  C   UNL d   1      11.437   9.465  -6.032  0.00  0.00     0.021 A 
ATOM     12  C   UNL d   1      11.794   9.235  -4.689  0.00  0.00     0.026 A 
ATOM     13  C   UNL d   1      11.798   7.911  -4.160  0.00  0.00     0.094 A 
ATOM     14  C   UNL d   1      11.416   6.865  -4.999  0.00  0.00     0.026 A 
ATOM     15  C   UNL d   1      11.052   7.088  -6.342  0.00  0.00     0.021 A 
BRANCH  13  16
ATOM     16  O   UNL d   1      12.123   7.604  -2.853  0.00  0.00    -0.328 OA
ATOM     17  C   UNL d   1      12.546   8.681  -2.020  0.00  0.00     0.181 C 
ENDBRANCH  13  16
ENDBRANCH   9  10
ENDBRANCH   8   9
ENDBRANCH   7   8
ENDBRANCH   1   7
BRANCH   4  18
ATOM     18  C   UNL d   1       8.419   3.265 -13.570  0.00  0.00     0.255 C 
BRANCH  18  19
ATOM     19  C   UNL d   1       7.022   2.825 -14.064  0.00  0.00     0.063 C 
BRANCH  19  20
ATOM     20  C   UNL d   1       7.071   1.875 -15.232  0.00  0.00     0.000 A 
ATOM     21  C   UNL d   1       6.253   0.705 -15.461  0.00  0.00     0.015 A 
ATOM     22  C   UNL d   1       6.629   0.134 -16.713  0.00  0.00     0.081 A 
ATOM     23  C   UNL d   1       5.204   0.064 -14.757  0.00  0.00     0.001 A 
ATOM     24  N   UNL d   1       7.640   0.933 -17.196  0.00  0.00    -0.244 NA
ATOM     25  C   UNL d   1       6.005  -1.017 -17.233  0.00  0.00     0.019 A 
ATOM     26  C   UNL d   1       7.906   1.975 -16.325  0.00  0.00     0.095 A 
ATOM     27  C   UNL d   1       4.977  -1.633 -16.503  0.00  0.00     0.002 A 
ATOM     28  C   UNL d   1       4.568  -1.087 -15.272  0.00  0.00     0.000 A 
ENDBRANCH  19  20
ENDBRANCH  18  19
ENDBRANCH   4  18
TORSDOF 8
