REMARK  7 active torsions:
REMARK  status: ('A' for Active; 'I' for Inactive)
REMARK    1  A    between atoms: C_6  and  C_7 
REMARK    2  A    between atoms: C_10  and  S_11 
REMARK    3  A    between atoms: S_11  and  C_12 
REMARK    4  A    between atoms: C_12  and  C_13 
REMARK    5  A    between atoms: C_13  and  C_14 
REMARK    6  A    between atoms: C_14  and  N_15 
REMARK    7  A    between atoms: C_23  and  C_24 
ROOT
ATOM      1  C   UNL d   1      11.421   2.775 -18.101  0.00  0.00     0.047 C 
ENDROOT
BRANCH   1   2
ATOM      2  C   UNL d   1      12.050   1.463 -17.644  0.00  0.00     0.067 C 
BRANCH   2   3
ATOM      3  S   UNL d   1      11.757   0.121 -18.845  0.00  0.00    -0.075 SA
BRANCH   3   4
ATOM      4  C   UNL d   1       9.995   0.064 -18.803  0.00  0.00     0.193 A 
ATOM      5  N   UNL d   1       9.218   0.436 -19.824  0.00  0.00    -0.122 NA
ATOM      6  N   UNL d   1       7.927   0.270 -19.380  0.00  0.00    -0.128 NA
ATOM      7  C   UNL d   1       8.028  -0.198 -18.133  0.00  0.00     0.167 A 
ATOM      8  N   UNL d   1       9.309  -0.350 -17.719  0.00  0.00    -0.289 N 
ATOM      9  C   UNL d   1       9.834  -0.859 -16.453  0.00  0.00     0.134 C 
BRANCH   7  10
ATOM     10  C   UNL d   1       6.847  -0.523 -17.336  0.00  0.00     0.037 A 
ATOM     11  C   UNL d   1       6.537   0.155 -16.131  0.00  0.00     0.021 A 
ATOM     12  C   UNL d   1       7.336   1.221 -15.647  0.00  0.00     0.003 A 
ATOM     13  C   UNL d   1       5.413  -0.243 -15.348  0.00  0.00     0.081 A 
ATOM     14  C   UNL d   1       6.998   1.843 -14.441  0.00  0.00     0.015 A 
ATOM     15  C   UNL d   1       5.863   1.390 -13.746  0.00  0.00     0.059 A 
ATOM     16  C   UNL d   1       5.420   2.063 -12.469  0.00  0.00     0.052 C 
ATOM     17  N   UNL d   1       5.099   0.361 -14.177  0.00  0.00    -0.250 NA
ATOM     18  C   UNL d   1       4.606  -1.298 -15.816  0.00  0.00     0.019 A 
ATOM     19  C   UNL d   1       4.910  -1.974 -17.014  0.00  0.00     0.002 A 
ATOM     20  C   UNL d   1       6.026  -1.588 -17.771  0.00  0.00     0.003 A 
ENDBRANCH   7  10
ENDBRANCH   3   4
ENDBRANCH   2   3
ENDBRANCH   1   2
BRANCH   1  21
ATOM     21  C   UNL d   1      11.562   3.879 -17.033  0.00  0.00     0.251 C 
BRANCH  21  22
ATOM     22  N   UNL d   1      11.241   5.216 -17.540  0.00  0.00     0.138 N 
ATOM     23  C   UNL d   1       9.962   5.189 -18.259  0.00  0.00     0.255 C 
ATOM     24  C   UNL d   1       9.369   6.565 -18.543  0.00  0.00     0.063 C 
ATOM     25  C   UNL d   1      10.006   7.269 -19.729  0.00  0.00     0.000 A 
ATOM     26  C   UNL d   1      11.387   7.578 -19.760  0.00  0.00    -0.022 A 
ATOM     27  C   UNL d   1       9.219   7.642 -20.835  0.00  0.00     0.115 A 
ATOM     28  C   UNL d   1      12.303   7.215 -18.604  0.00  0.00     0.061 C 
ATOM     29  C   UNL d   1      11.932   8.243 -20.885  0.00  0.00    -0.003 A 
ATOM     30  C   UNL d   1      12.370   5.707 -18.332  0.00  0.00     0.255 C 
ATOM     31  C   UNL d   1      11.121   8.603 -21.982  0.00  0.00     0.021 A 
ATOM     32  C   UNL d   1       9.744   8.304 -21.966  0.00  0.00     0.106 A 
ATOM     33  N   UNL d   1       8.736   8.538 -22.879  0.00  0.00    -0.217 NA
ATOM     34  C   UNL d   1       7.653   8.028 -22.275  0.00  0.00     0.256 A 
ATOM     35  O   UNL d   1       7.862   7.467 -21.041  0.00  0.00    -0.285 OA
BRANCH  34  36
ATOM     36  C   UNL d   1       6.263   8.000 -22.832  0.00  0.00     0.458 C 
ATOM     37  F   UNL d   1       6.148   8.820 -23.879  0.00  0.00    -0.163 F 
ATOM     38  F   UNL d   1       5.950   6.768 -23.231  0.00  0.00    -0.163 F 
ATOM     39  F   UNL d   1       5.388   8.387 -21.905  0.00  0.00    -0.163 F 
ENDBRANCH  34  36
ENDBRANCH  21  22
ENDBRANCH   1  21
TORSDOF 7
