REMARK  3 active torsions:
REMARK  status: ('A' for Active; 'I' for Inactive)
REMARK    1  A    between atoms: S_2  and  C_3 
REMARK    2  A    between atoms: C_6  and  C_7 
REMARK    3  A    between atoms: C_7  and  C_8 
ROOT
ATOM      1  C   UNL d   1       9.544   6.975  -8.362  0.00  0.00     0.300 C 
ATOM      2  N   UNL d   1       9.885   7.973  -9.350  0.00  0.00     0.344 N 
ATOM      3  C   UNL d   1       9.800   9.310  -8.813  0.00  0.00     0.295 C 
ATOM      4  C   UNL d   1      10.876   9.519  -7.725  0.00  0.00     0.066 C 
ATOM      5  C   UNL d   1      10.848   8.442  -6.779  0.00  0.00    -0.003 A 
ATOM      6  C   UNL d   1      10.255   7.263  -7.077  0.00  0.00     0.089 A 
ATOM      7  N   UNL d   1      10.445   6.446  -5.980  0.00  0.00    -0.248 NA
ATOM      8  C   UNL d   1      11.141   7.096  -4.981  0.00  0.00     0.081 A 
ATOM      9  C   UNL d   1      11.579   6.734  -3.701  0.00  0.00     0.019 A 
ATOM     10  C   UNL d   1      12.256   7.676  -2.919  0.00  0.00     0.002 A 
ATOM     11  C   UNL d   1      12.501   8.969  -3.433  0.00  0.00     0.000 A 
ATOM     12  C   UNL d   1      12.084   9.327  -4.712  0.00  0.00     0.001 A 
ATOM     13  C   UNL d   1      11.384   8.385  -5.495  0.00  0.00     0.015 A 
ENDROOT
BRANCH   1  14
ATOM     14  C   UNL d   1       9.923   5.631  -8.974  0.00  0.00     0.069 C 
BRANCH  14  15
ATOM     15  C   UNL d   1       9.156   5.272 -10.240  0.00  0.00    -0.020 A 
ATOM     16  C   UNL d   1       7.956   4.569 -10.143  0.00  0.00    -0.004 A 
ATOM     17  C   UNL d   1       7.224   4.178 -11.282  0.00  0.00     0.006 A 
ATOM     18  C   UNL d   1       7.757   4.417 -12.552  0.00  0.00     0.025 A 
ATOM     19  C   UNL d   1       8.972   5.114 -12.680  0.00  0.00     0.006 A 
ATOM     20  C   UNL d   1       9.654   5.550 -11.524  0.00  0.00    -0.004 A 
BRANCH  18  21
ATOM     21  S   UNL d   1       6.906   3.866 -13.981  0.00  0.00    -0.113 SA
ATOM     22  C   UNL d   1       6.337   2.171 -13.769  0.00  0.00     0.074 C 
ENDBRANCH  18  21
ENDBRANCH  14  15
ENDBRANCH   1  14
TORSDOF 3
