REMARK  7 active torsions:
REMARK  status: ('A' for Active; 'I' for Inactive)
REMARK    1  A    between atoms: C_8  and  O_9 
REMARK    2  A    between atoms: O_9  and  C_10 
REMARK    3  A    between atoms: C_10  and  C_11 
REMARK    4  A    between atoms: C_11  and  C_12 
REMARK    5  A    between atoms: C_12  and  C_13 
REMARK    6  A    between atoms: C_13  and  N_14 
REMARK    7  A    between atoms: N_17  and  C_18 
ROOT
ATOM      1  N   UNL d   1       8.578   5.682 -12.284  0.00  0.00     0.141 N 
ATOM      2  C   UNL d   1       7.190   5.636 -12.776  0.00  0.00     0.274 C 
ATOM      3  C   UNL d   1       7.138   4.742 -14.040  0.00  0.00     0.137 C 
ATOM      4  N   UNL d   1       7.648   3.429 -13.716  0.00  0.00    -0.343 N 
ATOM      5  C   UNL d   1       8.966   3.402 -13.116  0.00  0.00     0.137 C 
ATOM      6  C   UNL d   1       8.965   4.334 -11.883  0.00  0.00     0.274 C 
ENDROOT
BRANCH   1   7
ATOM      7  C   UNL d   1       8.581   6.516 -11.095  0.00  0.00     0.251 C 
BRANCH   7   8
ATOM      8  C   UNL d   1       9.936   7.160 -10.830  0.00  0.00     0.038 C 
BRANCH   8   9
ATOM      9  C   UNL d   1       9.887   8.200  -9.698  0.00  0.00     0.035 C 
BRANCH   9  10
ATOM     10  C   UNL d   1      11.269   8.897  -9.523  0.00  0.00     0.151 C 
BRANCH  10  11
ATOM     11  O   UNL d   1      11.375   9.580  -8.274  0.00  0.00    -0.315 OA
BRANCH  11  12
ATOM     12  C   UNL d   1      11.529   8.765  -7.159  0.00  0.00     0.179 A 
ATOM     13  C   UNL d   1      11.476   7.361  -7.221  0.00  0.00     0.044 A 
ATOM     14  C   UNL d   1      11.457   6.649  -6.020  0.00  0.00     0.002 A 
ATOM     15  C   UNL d   1      11.606   7.335  -4.819  0.00  0.00     0.014 A 
ATOM     16  C   UNL d   1      11.662   6.548  -3.529  0.00  0.00     0.039 C 
ATOM     17  C   UNL d   1      11.733   8.741  -4.837  0.00  0.00     0.163 A 
ATOM     18  C   UNL d   1      12.386   7.280  -2.418  0.00  0.00     0.095 C 
ATOM     19  C   UNL d   1      12.190   8.793  -2.452  0.00  0.00     0.257 C 
ATOM     20  O   UNL d   1      12.151   9.402  -1.414  0.00  0.00    -0.270 OA
ATOM     21  N   UNL d   1      11.968   9.406  -3.632  0.00  0.00    -0.193 NA
ATOM     22  N   UNL d   1      11.652   9.440  -6.000  0.00  0.00    -0.204 NA
ENDBRANCH  11  12
ENDBRANCH  10  11
ENDBRANCH   9  10
ENDBRANCH   8   9
ENDBRANCH   7   8
ENDBRANCH   1   7
BRANCH   4  23
ATOM     23  C   UNL d   1       6.919   2.282 -14.063  0.00  0.00     0.084 A 
ATOM     24  C   UNL d   1       7.223   1.515 -15.219  0.00  0.00     0.018 A 
ATOM     25  C   UNL d   1       6.462   0.357 -15.510  0.00  0.00     0.002 A 
ATOM     26  C   UNL d   1       8.266   1.888 -16.100  0.00  0.00     0.002 A 
ATOM     27  C   UNL d   1       5.429  -0.069 -14.651  0.00  0.00     0.002 A 
ATOM     28  C   UNL d   1       6.735  -0.403 -16.667  0.00  0.00     0.000 A 
ATOM     29  C   UNL d   1       5.134   0.699 -13.514  0.00  0.00     0.031 A 
ATOM     30  C   UNL d   1       5.846   1.871 -13.240  0.00  0.00     0.155 A 
ATOM     31  F   UNL d   1       5.514   2.595 -12.140  0.00  0.00    -0.203 F 
ATOM     32  C   UNL d   1       7.777  -0.026 -17.529  0.00  0.00     0.000 A 
ATOM     33  C   UNL d   1       8.544   1.117 -17.248  0.00  0.00     0.000 A 
ENDBRANCH   4  23
TORSDOF 7
