REMARK  7 active torsions:
REMARK  status: ('A' for Active; 'I' for Inactive)
REMARK    1  A    between atoms: O_2  and  C_3 
REMARK    2  A    between atoms: C_9  and  C_10 
REMARK    3  A    between atoms: C_12  and  N_13 
REMARK    4  A    between atoms: N_13  and  C_14 
REMARK    5  A    between atoms: C_14  and  C_15 
REMARK    6  A    between atoms: N_25  and  S_26 
REMARK    7  A    between atoms: S_26  and  C_29 
ROOT
ATOM      1  C   UNL d   1       9.103   6.461 -19.978  0.00  0.00     0.094 A 
ATOM      2  C   UNL d   1       9.988   7.572 -19.974  0.00  0.00     0.026 A 
ATOM      3  C   UNL d   1      11.162   7.531 -19.216  0.00  0.00     0.020 A 
ATOM      4  C   UNL d   1      11.479   6.390 -18.466  0.00  0.00     0.075 A 
ATOM      5  C   UNL d   1      10.630   5.249 -18.436  0.00  0.00     0.022 A 
ATOM      6  C   UNL d   1       9.438   5.320 -19.212  0.00  0.00     0.026 A 
ATOM      7  C   UNL d   1      11.266   4.268 -17.573  0.00  0.00     0.039 A 
ATOM      8  C   UNL d   1      12.441   4.834 -17.146  0.00  0.00     0.093 A 
ATOM      9  N   UNL d   1      12.566   6.114 -17.667  0.00  0.00    -0.231 N 
ENDROOT
BRANCH   7  10
ATOM     10  C   UNL d   1      10.736   2.946 -17.264  0.00  0.00     0.115 A 
ATOM     11  N   UNL d   1       9.547   2.786 -16.540  0.00  0.00    -0.058 NA
ATOM     12  C   UNL d   1       9.422   1.476 -16.381  0.00  0.00     0.746 A 
ATOM     13  N   UNL d   1      10.411   0.789 -16.953  0.00  0.00    -0.062 NA
ATOM     14  C   UNL d   1      11.278   1.701 -17.524  0.00  0.00     0.096 A 
ATOM     15  C   UNL d   1      12.524   1.302 -18.241  0.00  0.00     0.054 C 
BRANCH  12  16
ATOM     16  N   UNL d   1       8.399   0.812 -15.720  0.00  0.00    -0.081 NA
BRANCH  16  17
ATOM     17  C   UNL d   1       7.246   1.289 -14.982  0.00  0.00     0.171 C 
BRANCH  17  18
ATOM     18  C   UNL d   1       6.027   0.384 -15.079  0.00  0.00     0.003 A 
ATOM     19  C   UNL d   1       5.808  -0.413 -16.223  0.00  0.00    -0.002 A 
ATOM     20  C   UNL d   1       4.655  -1.219 -16.316  0.00  0.00    -0.000 A 
ATOM     21  C   UNL d   1       3.708  -1.211 -15.277  0.00  0.00    -0.000 A 
ATOM     22  C   UNL d   1       3.913  -0.412 -14.141  0.00  0.00    -0.000 A 
ATOM     23  C   UNL d   1       5.082   0.375 -14.031  0.00  0.00    -0.002 A 
ENDBRANCH  17  18
ENDBRANCH  16  17
ENDBRANCH  12  16
ENDBRANCH   7  10
BRANCH   9  24
ATOM     24  S   UNL d   1      13.884   7.177 -17.362  0.00  0.00     0.271 S 
ATOM     25  O   UNL d   1      13.291   8.366 -16.737  0.00  0.00    -0.200 OA
ATOM     26  O   UNL d   1      14.898   6.372 -16.658  0.00  0.00    -0.200 OA
BRANCH  24  27
ATOM     27  C   UNL d   1      14.501   7.589 -18.997  0.00  0.00     0.104 A 
ATOM     28  C   UNL d   1      14.361   8.902 -19.497  0.00  0.00     0.013 A 
ATOM     29  C   UNL d   1      14.817   9.210 -20.794  0.00  0.00     0.001 A 
ATOM     30  C   UNL d   1      15.427   8.211 -21.581  0.00  0.00     0.000 A 
ATOM     31  C   UNL d   1      15.574   6.903 -21.075  0.00  0.00     0.001 A 
ATOM     32  C   UNL d   1      15.107   6.588 -19.782  0.00  0.00     0.013 A 
ENDBRANCH  24  27
ENDBRANCH   9  24
BRANCH   1  33
ATOM     33  O   UNL d   1       7.923   6.445 -20.698  0.00  0.00    -0.328 OA
ATOM     34  C   UNL d   1       7.569   7.625 -21.407  0.00  0.00     0.181 C 
ENDBRANCH   1  33
TORSDOF 7
