REMARK  3 active torsions:
REMARK  status: ('A' for Active; 'I' for Inactive)
REMARK    1  A    between atoms: C_2  and  C_3 
REMARK    2  A    between atoms: N_14  and  C_15 
REMARK    3  A    between atoms: C_15  and  C_16 
ROOT
ATOM      1  C   UNL d   1      10.236   7.723  -9.600  0.00  0.00     0.005 C 
ATOM      2  C   UNL d   1      10.262   7.406  -8.285  0.00  0.00    -0.021 C 
ATOM      3  C   UNL d   1       9.542   6.149  -7.851  0.00  0.00     0.061 C 
ATOM      4  C   UNL d   1       8.565   5.609  -8.886  0.00  0.00     0.256 C 
ATOM      5  N   UNL d   1       9.189   5.536 -10.197  0.00  0.00     0.146 N 
ATOM      6  C   UNL d   1       9.543   6.887 -10.659  0.00  0.00     0.277 C 
ENDROOT
BRANCH   2   7
ATOM      7  C   UNL d   1      10.934   8.267  -7.280  0.00  0.00     0.016 A 
ATOM      8  C   UNL d   1      11.231   7.959  -5.905  0.00  0.00     0.019 A 
ATOM      9  C   UNL d   1      11.895   9.100  -5.353  0.00  0.00     0.081 A 
ATOM     10  C   UNL d   1      11.057   6.851  -5.051  0.00  0.00     0.002 A 
ATOM     11  N   UNL d   1      11.991  10.018  -6.386  0.00  0.00    -0.244 NA
ATOM     12  C   UNL d   1      12.368   9.119  -4.025  0.00  0.00     0.019 A 
ATOM     13  C   UNL d   1      11.451   9.489  -7.550  0.00  0.00     0.099 A 
ATOM     14  C   UNL d   1      12.177   7.988  -3.203  0.00  0.00     0.002 A 
ATOM     15  C   UNL d   1      11.524   6.853  -3.726  0.00  0.00     0.000 A 
ENDBRANCH   2   7
BRANCH   5  16
ATOM     16  C   UNL d   1       8.242   4.935 -11.125  0.00  0.00     0.277 C 
BRANCH  16  17
ATOM     17  C   UNL d   1       8.882   4.608 -12.461  0.00  0.00     0.011 A 
ATOM     18  C   UNL d   1       9.849   3.592 -12.539  0.00  0.00    -0.002 A 
ATOM     19  C   UNL d   1      10.459   3.254 -13.763  0.00  0.00    -0.000 A 
ATOM     20  C   UNL d   1      10.122   3.964 -14.926  0.00  0.00    -0.000 A 
ATOM     21  C   UNL d   1       9.161   4.987 -14.851  0.00  0.00    -0.000 A 
ATOM     22  C   UNL d   1       8.550   5.319 -13.626  0.00  0.00    -0.002 A 
ENDBRANCH  16  17
ENDBRANCH   5  16
TORSDOF 3
