REMARK  5 active torsions:
REMARK  status: ('A' for Active; 'I' for Inactive)
REMARK    1  A    between atoms: N_11  and  C_12 
REMARK    2  A    between atoms: C_12  and  C_13 
REMARK    3  A    between atoms: C_13  and  C_14 
REMARK    4  A    between atoms: C_14  and  C_15 
REMARK    5  A    between atoms: C_15  and  N_16 
ROOT
ATOM      1  C   UNL d   1       6.557   3.348 -13.758  0.00  0.00     0.027 C 
ENDROOT
BRANCH   1   2
ATOM      2  C   UNL d   1       7.608   2.428 -14.418  0.00  0.00     0.112 C 
BRANCH   2   3
ATOM      3  N   UNL d   1       6.984   1.380 -15.229  0.00  0.00    -0.264 N 
ATOM      4  C   UNL d   1       6.231   0.373 -14.710  0.00  0.00     0.263 A 
ATOM      5  O   UNL d   1       5.958   0.146 -13.530  0.00  0.00    -0.267 OA
ATOM      6  C   UNL d   1       5.757  -0.417 -15.869  0.00  0.00     0.061 A 
ATOM      7  C   UNL d   1       6.266   0.160 -17.004  0.00  0.00     0.061 A 
ATOM      8  C   UNL d   1       4.950  -1.563 -15.911  0.00  0.00     0.005 A 
ATOM      9  C   UNL d   1       6.020  -0.352 -18.288  0.00  0.00     0.005 A 
ATOM     10  C   UNL d   1       7.065   1.331 -16.585  0.00  0.00     0.263 A 
ATOM     11  C   UNL d   1       5.212  -1.511 -18.365  0.00  0.00     0.000 A 
ATOM     12  C   UNL d   1       4.684  -2.108 -17.190  0.00  0.00     0.000 A 
ATOM     13  O   UNL d   1       7.652   2.092 -17.354  0.00  0.00    -0.267 OA
ENDBRANCH   2   3
ENDBRANCH   1   2
BRANCH   1  14
ATOM     14  C   UNL d   1       7.172   4.620 -13.171  0.00  0.00     0.037 C 
BRANCH  14  15
ATOM     15  C   UNL d   1       8.011   4.365 -11.908  0.00  0.00     0.250 C 
BRANCH  15  16
ATOM     16  N   UNL d   1       8.405   5.593 -11.231  0.00  0.00     0.137 N 
ATOM     17  C   UNL d   1       9.086   5.250  -9.976  0.00  0.00     0.250 C 
ATOM     18  C   UNL d   1       9.463   6.519  -9.181  0.00  0.00     0.033 C 
ATOM     19  C   UNL d   1      10.333   7.455 -10.044  0.00  0.00     0.004 C 
ATOM     20  C   UNL d   1      10.158   6.204  -7.848  0.00  0.00     0.002 C 
ATOM     21  C   UNL d   1       9.621   7.728 -11.376  0.00  0.00     0.035 C 
ATOM     22  C   UNL d   1      10.676   8.751  -9.288  0.00  0.00     0.000 C 
ATOM     23  C   UNL d   1       9.271   6.414 -12.076  0.00  0.00     0.250 C 
ATOM     24  C   UNL d   1      11.363   8.442  -7.948  0.00  0.00     0.000 C 
ATOM     25  C   UNL d   1      10.510   7.495  -7.088  0.00  0.00     0.000 C 
ENDBRANCH  15  16
ENDBRANCH  14  15
ENDBRANCH   1  14
TORSDOF 5
