REMARK  7 active torsions:
REMARK  status: ('A' for Active; 'I' for Inactive)
REMARK    1  A    between atoms: C_3  and  S_4 
REMARK    2  A    between atoms: S_4  and  N_7 
REMARK    3  A    between atoms: N_7  and  C_8 
REMARK    4  A    between atoms: N_11  and  C_12 
REMARK    5  A    between atoms: C_12  and  C_13 
REMARK    6  A    between atoms: C_13  and  C_14 
REMARK    7  A    between atoms: C_14  and  C_15 
ROOT
ATOM      1  C   UNL d   1       9.491   6.631  -9.427  0.00  0.00     0.151 C 
ATOM      2  C   UNL d   1       9.335   5.322  -8.676  0.00  0.00     0.063 C 
ATOM      3  C   UNL d   1       8.681   4.433  -9.686  0.00  0.00     0.252 C 
ATOM      4  N   UNL d   1       8.008   5.325 -10.605  0.00  0.00     0.139 N 
ATOM      5  C   UNL d   1       8.977   6.371 -10.840  0.00  0.00     0.275 C 
ENDROOT
BRANCH   1   6
ATOM      6  N   UNL d   1      10.877   7.019  -9.497  0.00  0.00    -0.184 NA
BRANCH   6   7
ATOM      7  S   UNL d   1      11.391   8.475  -8.873  0.00  0.00     0.287 S 
ATOM      8  O   UNL d   1      10.431   9.511  -9.271  0.00  0.00    -0.198 OA
ATOM      9  O   UNL d   1      12.820   8.531  -9.258  0.00  0.00    -0.198 OA
BRANCH   7  10
ATOM     10  C   UNL d   1      11.447   8.348  -7.103  0.00  0.00     0.130 A 
ATOM     11  C   UNL d   1      11.764   9.326  -6.175  0.00  0.00    -0.003 A 
ATOM     12  C   UNL d   1      12.025  10.752  -6.414  0.00  0.00     0.032 C 
ATOM     13  C   UNL d   1      11.826   8.775  -4.836  0.00  0.00     0.005 A 
ATOM     14  C   UNL d   1      11.584   7.371  -4.837  0.00  0.00     0.030 A 
ATOM     15  C   UNL d   1      12.082   9.364  -3.574  0.00  0.00     0.030 A 
ATOM     16  S   UNL d   1      11.301   6.769  -6.433  0.00  0.00    -0.074 SA
ATOM     17  C   UNL d   1      11.636   6.621  -3.683  0.00  0.00     0.009 A 
ATOM     18  C   UNL d   1      11.898   7.216  -2.466  0.00  0.00     0.030 A 
ATOM     19  C   UNL d   1      12.129   8.590  -2.428  0.00  0.00     0.140 A 
ATOM     20  F   UNL d   1      12.362   9.214  -1.245  0.00  0.00    -0.204 F 
ENDBRANCH   7  10
ENDBRANCH   6   7
ENDBRANCH   1   6
BRANCH   4  21
ATOM     21  C   UNL d   1       7.579   4.683 -11.828  0.00  0.00     0.251 C 
BRANCH  21  22
ATOM     22  C   UNL d   1       6.072   4.383 -11.858  0.00  0.00     0.042 C 
BRANCH  22  23
ATOM     23  C   UNL d   1       5.575   3.914 -13.239  0.00  0.00     0.050 C 
BRANCH  23  24
ATOM     24  C   UNL d   1       6.234   2.638 -13.700  0.00  0.00     0.088 A 
ATOM     25  C   UNL d   1       7.507   2.409 -14.273  0.00  0.00     0.041 A 
ATOM     26  C   UNL d   1       7.673   1.039 -14.475  0.00  0.00     0.126 A 
ATOM     27  C   UNL d   1       8.580   3.283 -14.564  0.00  0.00     0.003 A 
ATOM     28  O   UNL d   1       6.492   0.457 -14.039  0.00  0.00    -0.211 OA
ATOM     29  C   UNL d   1       8.857   0.493 -14.994  0.00  0.00     0.027 A 
ATOM     30  N   UNL d   1       5.625   1.462 -13.524  0.00  0.00    -0.131 NA
ATOM     31  C   UNL d   1       9.929   1.369 -15.274  0.00  0.00     0.002 A 
ATOM     32  C   UNL d   1       9.795   2.756 -15.044  0.00  0.00     0.000 A 
ENDBRANCH  23  24
ENDBRANCH  22  23
ENDBRANCH  21  22
ENDBRANCH   4  21
TORSDOF 7
