REMARK  4 active torsions:
REMARK  status: ('A' for Active; 'I' for Inactive)
REMARK       I    between atoms: N_10  and  C_11 
REMARK    1  A    between atoms: C_11  and  C_13 
REMARK    2  A    between atoms: C_13  and  N_14 
REMARK    3  A    between atoms: N_17  and  C_18 
REMARK    4  A    between atoms: C_18  and  C_19 
ROOT
ATOM      1  N   UNL d   1       9.579   5.668 -11.844  0.00  0.00     0.151 N 
ATOM      2  C   UNL d   1       8.944   4.377 -11.772  0.00  0.00     0.286 C 
ATOM      3  C   UNL d   1       9.630   3.373 -12.714  0.00  0.00     0.286 C 
ATOM      4  N   UNL d   1       9.587   3.798 -14.099  0.00  0.00     0.146 N 
ATOM      5  C   UNL d   1      10.231   5.105 -14.148  0.00  0.00     0.286 C 
ATOM      6  C   UNL d   1       9.562   6.108 -13.228  0.00  0.00     0.286 C 
ENDROOT
BRANCH   1   7
ATOM      7  C   UNL d   1       8.948   6.648 -11.010  0.00  0.00     0.337 C 
BRANCH   7   8
ATOM      8  C   UNL d   1       9.841   7.870 -10.647  0.00  0.00     0.271 C 
ATOM      9  N   UNL d   1      10.495   7.985  -9.473  0.00  0.00    -0.299 N 
ATOM     10  C   UNL d   1      11.655   8.902  -9.290  0.00  0.00     0.093 A 
ATOM     11  C   UNL d   1      10.075   7.557  -8.201  0.00  0.00     0.058 A 
ATOM     12  C   UNL d   1      12.903   8.278  -9.920  0.00  0.00     0.025 C 
ATOM     13  C   UNL d   1      11.897   9.059  -7.782  0.00  0.00     0.051 A 
ATOM     14  C   UNL d   1      10.907   8.111  -7.224  0.00  0.00    -0.004 A 
ATOM     15  C   UNL d   1      10.801   7.803  -5.867  0.00  0.00    -0.003 C 
ATOM     16  C   UNL d   1       9.841   6.836  -5.550  0.00  0.00    -0.000 C 
ATOM     17  C   UNL d   1       8.907   6.417  -6.498  0.00  0.00     0.002 C 
ATOM     18  C   UNL d   1       9.008   6.727  -7.824  0.00  0.00     0.017 C 
ATOM     19  O   UNL d   1       9.818   8.772 -11.457  0.00  0.00    -0.270 OA
ENDBRANCH   7   8
ENDBRANCH   1   7
BRANCH   4  20
ATOM     20  C   UNL d   1      10.228   2.797 -14.946  0.00  0.00     0.278 C 
BRANCH  20  21
ATOM     21  C   UNL d   1       9.987   3.021 -16.435  0.00  0.00     0.022 A 
ATOM     22  C   UNL d   1       9.073   2.222 -17.168  0.00  0.00     0.056 A 
ATOM     23  C   UNL d   1       8.862   2.478 -18.538  0.00  0.00     0.012 A 
ATOM     24 CL   UNL d   1       8.209   0.915 -16.438  0.00  0.00    -0.083 Cl
ATOM     25  C   UNL d   1       9.527   3.539 -19.183  0.00  0.00     0.012 A 
ATOM     26  C   UNL d   1      10.436   4.332 -18.461  0.00  0.00     0.058 A 
ATOM     27  C   UNL d   1      10.683   4.053 -17.108  0.00  0.00     0.010 A 
ATOM     28 CL   UNL d   1      11.248   5.650 -19.223  0.00  0.00    -0.082 Cl
ENDBRANCH  20  21
ENDBRANCH   4  20
TORSDOF 4
