REMARK  7 active torsions:
REMARK  status: ('A' for Active; 'I' for Inactive)
REMARK    1  A    between atoms: C_5  and  C_6 
REMARK    2  A    between atoms: N_14  and  C_15 
REMARK    3  A    between atoms: C_15  and  C_16 
REMARK    4  A    between atoms: C_16  and  C_17 
REMARK    5  A    between atoms: C_17  and  C_18 
REMARK    6  A    between atoms: C_18  and  O_19 
REMARK    7  A    between atoms: O_19  and  C_20 
ROOT
ATOM      1  C   UNL d   1       9.947   8.139  -9.944  0.00  0.00     0.251 C 
ENDROOT
BRANCH   1   2
ATOM      2  N   UNL d   1      10.474   6.942  -9.253  0.00  0.00     0.140 N 
ATOM      3  C   UNL d   1       9.482   5.902  -8.903  0.00  0.00     0.249 C 
ATOM      4  C   UNL d   1      10.101   4.600  -8.556  0.00  0.00     0.038 C 
ATOM      5  C   UNL d   1       8.505   6.345  -7.837  0.00  0.00     0.176 C 
ATOM      6  O   UNL d   1       9.166   6.763  -6.627  0.00  0.00    -0.348 OA
ATOM      7  C   UNL d   1      10.145   7.765  -6.890  0.00  0.00     0.172 C 
ATOM      8  C   UNL d   1      11.153   7.384  -8.008  0.00  0.00     0.284 C 
BRANCH   7   9
ATOM      9  C   UNL d   1      10.871   8.051  -5.621  0.00  0.00     0.026 A 
ATOM     10  C   UNL d   1      11.456   7.014  -4.862  0.00  0.00     0.098 A 
ATOM     11  N   UNL d   1      12.114   7.227  -3.702  0.00  0.00    -0.230 NA
ATOM     12  C   UNL d   1      12.185   8.496  -3.262  0.00  0.00     0.151 A 
ATOM     13  C   UNL d   1      11.633   9.592  -3.948  0.00  0.00     0.033 A 
ATOM     14  N   UNL d   1      12.811   8.708  -2.046  0.00  0.00    -0.080 NA
ATOM     15  C   UNL d   1      10.976   9.368  -5.166  0.00  0.00     0.002 A 
ENDBRANCH   7   9
ENDBRANCH   1   2
BRANCH   1  16
ATOM     16  C   UNL d   1       9.399   8.009 -11.386  0.00  0.00     0.038 C 
BRANCH  16  17
ATOM     17  C   UNL d   1       8.682   6.680 -11.673  0.00  0.00     0.035 C 
BRANCH  17  18
ATOM     18  C   UNL d   1       7.951   6.540 -12.975  0.00  0.00     0.149 C 
BRANCH  18  19
ATOM     19  O   UNL d   1       7.052   5.422 -12.808  0.00  0.00    -0.331 OA
BRANCH  19  20
ATOM     20  C   UNL d   1       7.285   4.211 -13.418  0.00  0.00     0.096 A 
ATOM     21  C   UNL d   1       6.273   3.207 -13.356  0.00  0.00     0.043 A 
ATOM     22  C   UNL d   1       6.451   1.989 -14.036  0.00  0.00     0.082 A 
ATOM     23  C   UNL d   1       7.621   1.757 -14.792  0.00  0.00    -0.004 A 
ATOM     24  N   UNL d   1       5.480   0.962 -13.951  0.00  0.00    -0.212 NA
ATOM     25  C   UNL d   1       8.627   2.739 -14.850  0.00  0.00    -0.001 A 
ATOM     26  C   UNL d   1       7.834   0.426 -15.479  0.00  0.00     0.038 C 
ATOM     27  C   UNL d   1       8.469   3.935 -14.153  0.00  0.00     0.024 A 
ATOM     28  C   UNL d   1       6.492  -0.189 -15.886  0.00  0.00     0.095 C 
ATOM     29  C   UNL d   1       5.453  -0.104 -14.754  0.00  0.00     0.256 C 
ATOM     30  O   UNL d   1       4.598  -0.974 -14.633  0.00  0.00    -0.270 OA
ENDBRANCH  19  20
ENDBRANCH  18  19
ENDBRANCH  17  18
ENDBRANCH  16  17
ENDBRANCH   1  16
TORSDOF 7
