REMARK  4 active torsions:
REMARK  status: ('A' for Active; 'I' for Inactive)
REMARK    1  A    between atoms: C_4  and  C_5 
REMARK    2  A    between atoms: C_7  and  C_8 
REMARK    3  A    between atoms: C_8  and  N_9 
REMARK    4  A    between atoms: N_12  and  C_13 
ROOT
ATOM      1  N   UNL d   1       9.879   7.433  -9.182  0.00  0.00     0.147 N 
ATOM      2  C   UNL d   1       9.957   6.367  -8.179  0.00  0.00     0.275 C 
ATOM      3  C   UNL d   1       9.535   6.913  -6.808  0.00  0.00     0.137 C 
ATOM      4  N   UNL d   1      10.368   8.057  -6.450  0.00  0.00    -0.343 N 
ATOM      5  C   UNL d   1      10.412   9.103  -7.465  0.00  0.00     0.137 C 
ATOM      6  C   UNL d   1      10.810   8.506  -8.820  0.00  0.00     0.275 C 
ENDROOT
BRANCH   1   7
ATOM      7  C   UNL d   1      10.248   6.910 -10.491  0.00  0.00     0.297 C 
BRANCH   7   8
ATOM      8  C   UNL d   1       9.367   5.917 -11.194  0.00  0.00     0.113 A 
ATOM      9  N   UNL d   1       9.784   5.194 -12.313  0.00  0.00    -0.228 NA
ATOM     10  C   UNL d   1       8.751   4.423 -12.653  0.00  0.00     0.162 A 
ATOM     11  N   UNL d   1       7.711   4.637 -11.830  0.00  0.00    -0.224 NA
ATOM     12  C   UNL d   1       8.071   5.586 -10.897  0.00  0.00     0.117 A 
BRANCH  10  13
ATOM     13  C   UNL d   1       8.763   3.467 -13.758  0.00  0.00     0.036 A 
ATOM     14  C   UNL d   1       9.972   3.154 -14.420  0.00  0.00     0.003 A 
ATOM     15  C   UNL d   1       9.982   2.232 -15.486  0.00  0.00     0.000 A 
ATOM     16  C   UNL d   1       8.786   1.611 -15.893  0.00  0.00     0.000 A 
ATOM     17  C   UNL d   1       7.580   1.908 -15.230  0.00  0.00     0.000 A 
ATOM     18  C   UNL d   1       7.569   2.830 -14.166  0.00  0.00     0.003 A 
ENDBRANCH  10  13
ENDBRANCH   7   8
ENDBRANCH   1   7
BRANCH   4  19
ATOM     19  C   UNL d   1      11.078   8.155  -5.236  0.00  0.00     0.076 A 
ATOM     20  C   UNL d   1      11.407   9.417  -4.680  0.00  0.00     0.116 A 
ATOM     21  N   UNL d   1      12.059   9.581  -3.514  0.00  0.00    -0.241 NA
ATOM     22  C   UNL d   1      12.434   8.485  -2.832  0.00  0.00     0.099 A 
ATOM     23  C   UNL d   1      12.160   7.180  -3.276  0.00  0.00     0.022 A 
ATOM     24  C   UNL d   1      11.470   7.012  -4.495  0.00  0.00     0.020 A 
ENDBRANCH   4  19
TORSDOF 4
