REMARK  7 active torsions:
REMARK  status: ('A' for Active; 'I' for Inactive)
REMARK    1  A    between atoms: C_2  and  C_3 
REMARK    2  A    between atoms: C_3  and  N_4 
REMARK    3  A    between atoms: N_4  and  C_5 
REMARK    4  A    between atoms: N_4  and  C_21 
REMARK    5  A    between atoms: C_5  and  C_6 
REMARK    6  A    between atoms: C_6  and  N_7 
REMARK    7  A    between atoms: N_10  and  C_11 
ROOT
ATOM      1  C   UNL d   1       9.436   5.274 -11.707  0.00  0.00     0.285 C 
ENDROOT
BRANCH   1   2
ATOM      2  N   UNL d   1       9.157   5.335 -13.164  0.00  0.00     0.137 N 
BRANCH   2   3
ATOM      3  C   UNL d   1      10.338   5.634 -13.983  0.00  0.00     0.250 C 
BRANCH   3   4
ATOM      4  C   UNL d   1      10.242   5.483 -15.548  0.00  0.00     0.035 C 
ATOM      5  C   UNL d   1      11.445   6.145 -16.256  0.00  0.00     0.002 C 
ENDBRANCH   3   4
ENDBRANCH   2   3
BRANCH   2   6
ATOM      6  C   UNL d   1       8.493   4.150 -13.685  0.00  0.00     0.224 C 
ATOM      7  C   UNL d   1       7.150   3.794 -13.028  0.00  0.00     0.059 C 
ATOM      8  C   UNL d   1       6.547   2.509 -13.610  0.00  0.00    -0.022 A 
ATOM      9  C   UNL d   1       7.271   1.634 -14.468  0.00  0.00    -0.001 A 
ATOM     10  C   UNL d   1       5.304   2.090 -13.110  0.00  0.00    -0.004 A 
ATOM     11  C   UNL d   1       8.724   1.930 -14.813  0.00  0.00     0.030 C 
ATOM     12  C   UNL d   1       6.679   0.415 -14.898  0.00  0.00     0.127 A 
ATOM     13  C   UNL d   1       9.403   2.917 -13.871  0.00  0.00     0.038 C 
ATOM     14  O   UNL d   1       7.311  -0.413 -15.783  0.00  0.00    -0.191 OA
ATOM     15  C   UNL d   1       5.430   0.014 -14.394  0.00  0.00     0.027 A 
ATOM     16  C   UNL d   1       4.758   0.847 -13.503  0.00  0.00     0.002 A 
ENDBRANCH   2   6
ENDBRANCH   1   2
BRANCH   1  17
ATOM     17  C   UNL d   1       9.713   6.621 -10.996  0.00  0.00     0.286 C 
BRANCH  17  18
ATOM     18  N   UNL d   1      10.099   6.452  -9.577  0.00  0.00     0.143 N 
ATOM     19  C   UNL d   1      11.309   7.220  -9.278  0.00  0.00     0.274 C 
ATOM     20  C   UNL d   1      11.725   7.053  -7.807  0.00  0.00     0.137 C 
ATOM     21  N   UNL d   1      10.651   7.401  -6.917  0.00  0.00    -0.344 N 
ATOM     22  C   UNL d   1       9.388   6.713  -7.174  0.00  0.00     0.137 C 
ATOM     23  C   UNL d   1       9.029   6.880  -8.668  0.00  0.00     0.274 C 
BRANCH  21  24
ATOM     24  C   UNL d   1      10.897   8.258  -5.871  0.00  0.00     0.068 A 
ATOM     25  C   UNL d   1      11.475   7.858  -4.642  0.00  0.00     0.084 A 
ATOM     26  C   UNL d   1      11.701   8.744  -3.588  0.00  0.00     0.070 A 
ATOM     27 CL   UNL d   1      11.866   6.235  -4.370  0.00  0.00    -0.080 Cl
ATOM     28  C   UNL d   1      11.275  10.064  -3.737  0.00  0.00     0.012 A 
ATOM     29 CL   UNL d   1      12.316   8.217  -2.051  0.00  0.00    -0.081 Cl
ATOM     30  C   UNL d   1      10.667  10.459  -4.952  0.00  0.00     0.002 A 
ATOM     31  C   UNL d   1      10.528   9.596  -6.042  0.00  0.00     0.018 A 
ENDBRANCH  21  24
ENDBRANCH  17  18
ENDBRANCH   1  17
TORSDOF 7
