REMARK  5 active torsions:
REMARK  status: ('A' for Active; 'I' for Inactive)
REMARK    1  A    between atoms: C_2  and  C_4 
REMARK    2  A    between atoms: C_7  and  C_8 
REMARK    3  A    between atoms: C_8  and  N_9 
REMARK    4  A    between atoms: N_12  and  C_13 
REMARK    5  A    between atoms: C_13  and  C_14 
REMARK       I    between atoms: C_14  and  N_16 
ROOT
ATOM      1  N   UNL d   1       8.725   4.501 -13.105  0.00  0.00     0.146 N 
ATOM      2  C   UNL d   1       7.889   3.751 -14.038  0.00  0.00     0.286 C 
ATOM      3  C   UNL d   1       8.695   3.272 -15.243  0.00  0.00     0.286 C 
ATOM      4  N   UNL d   1       9.834   2.430 -14.876  0.00  0.00     0.151 N 
ATOM      5  C   UNL d   1      10.654   3.188 -13.944  0.00  0.00     0.286 C 
ATOM      6  C   UNL d   1       9.859   3.660 -12.734  0.00  0.00     0.286 C 
ENDROOT
BRANCH   4   7
ATOM      7  C   UNL d   1      10.634   2.043 -16.042  0.00  0.00     0.337 C 
BRANCH   7   8
ATOM      8  C   UNL d   1       9.903   1.137 -17.052  0.00  0.00     0.271 C 
ATOM      9  O   UNL d   1       9.805  -0.066 -16.791  0.00  0.00    -0.270 OA
ATOM     10  N   UNL d   1       9.439   1.676 -18.217  0.00  0.00    -0.299 N 
ATOM     11  C   UNL d   1       9.770   3.031 -18.740  0.00  0.00     0.093 A 
ATOM     12  C   UNL d   1       8.460   1.061 -19.056  0.00  0.00     0.058 A 
ATOM     13  C   UNL d   1       8.934   3.190 -20.033  0.00  0.00     0.051 A 
ATOM     14  C   UNL d   1      11.279   3.263 -19.067  0.00  0.00     0.025 C 
ATOM     15  C   UNL d   1       8.151   1.912 -20.106  0.00  0.00    -0.004 A 
ATOM     16  C   UNL d   1       7.208   1.571 -21.109  0.00  0.00    -0.003 A 
ATOM     17  C   UNL d   1       6.554   0.323 -21.012  0.00  0.00    -0.000 A 
ATOM     18  C   UNL d   1       6.851  -0.548 -19.952  0.00  0.00     0.002 A 
ATOM     19  C   UNL d   1       7.801  -0.192 -18.962  0.00  0.00     0.017 A 
ENDBRANCH   7   8
ENDBRANCH   4   7
BRANCH   1  20
ATOM     20  C   UNL d   1       7.945   4.902 -11.942  0.00  0.00     0.277 C 
BRANCH  20  21
ATOM     21  C   UNL d   1       8.755   5.652 -10.900  0.00  0.00     0.011 A 
ATOM     22  C   UNL d   1       9.439   6.823 -11.250  0.00  0.00    -0.003 A 
ATOM     23  C   UNL d   1      10.197   7.522 -10.287  0.00  0.00    -0.004 A 
ATOM     24  C   UNL d   1      10.297   7.035  -8.970  0.00  0.00    -0.022 A 
ATOM     25  C   UNL d   1       9.602   5.859  -8.614  0.00  0.00    -0.004 A 
ATOM     26  C   UNL d   1       8.828   5.168  -9.573  0.00  0.00    -0.003 A 
BRANCH  24  27
ATOM     27  C   UNL d   1      11.140   7.757  -7.916  0.00  0.00     0.022 C 
ATOM     28  C   UNL d   1      10.297   8.806  -7.175  0.00  0.00     0.005 C 
ATOM     29  C   UNL d   1      12.437   8.371  -8.487  0.00  0.00     0.005 C 
ENDBRANCH  24  27
ENDBRANCH  20  21
ENDBRANCH   1  20
TORSDOF 5
