REMARK  5 active torsions:
REMARK  status: ('A' for Active; 'I' for Inactive)
REMARK    1  A    between atoms: C_10  and  C_11 
REMARK    2  A    between atoms: C_11  and  C_12 
REMARK    3  A    between atoms: C_12  and  N_13 
REMARK    4  A    between atoms: C_16  and  C_17 
REMARK    5  A    between atoms: C_17  and  C_19 
ROOT
ATOM      1  N   UNL d   1      10.653   8.341 -10.406  0.00  0.00     0.137 N 
ATOM      2  C   UNL d   1       9.742   9.236  -9.695  0.00  0.00     0.251 C 
ATOM      3  C   UNL d   1       9.378   8.691  -8.303  0.00  0.00     0.043 C 
ATOM      4  C   UNL d   1      10.651   8.371  -7.495  0.00  0.00     0.066 C 
ATOM      5  C   UNL d   1      11.665   7.553  -8.302  0.00  0.00     0.043 C 
ATOM      6  C   UNL d   1      11.912   8.208  -9.672  0.00  0.00     0.251 C 
ENDROOT
BRANCH   1   7
ATOM      7  C   UNL d   1      10.079   7.044 -10.720  0.00  0.00     0.250 C 
BRANCH   7   8
ATOM      8  C   UNL d   1       9.032   7.125 -11.837  0.00  0.00     0.038 C 
BRANCH   8   9
ATOM      9  C   UNL d   1       8.341   5.758 -12.000  0.00  0.00     0.037 C 
ATOM     10  C   UNL d   1       8.918   5.018 -13.207  0.00  0.00     0.174 C 
ATOM     11  C   UNL d   1       8.101   3.811 -13.662  0.00  0.00     0.005 A 
ATOM     12  O   UNL d   1      10.262   4.674 -12.937  0.00  0.00    -0.219 OA
ATOM     13  C   UNL d   1       6.776   3.605 -13.210  0.00  0.00    -0.024 A 
ATOM     14  C   UNL d   1       8.688   2.908 -14.563  0.00  0.00     0.019 A 
ATOM     15  C   UNL d   1       6.064   2.471 -13.643  0.00  0.00    -0.003 A 
ATOM     16  C   UNL d   1       6.114   4.547 -12.226  0.00  0.00     0.026 C 
ATOM     17  C   UNL d   1       6.652   1.567 -14.543  0.00  0.00     0.021 A 
ATOM     18  C   UNL d   1       7.969   1.776 -15.015  0.00  0.00     0.103 A 
ATOM     19  N   UNL d   1       8.552   0.897 -15.902  0.00  0.00    -0.148 N 
ATOM     20  C   UNL d   1       6.821   5.900 -12.106  0.00  0.00     0.008 C 
ENDBRANCH   8   9
ENDBRANCH   7   8
ENDBRANCH   1   7
BRANCH   4  21
ATOM     21  C   UNL d   1      10.331   7.625  -6.213  0.00  0.00     0.175 C 
ATOM     22  O   UNL d   1       9.472   6.733  -6.216  0.00  0.00    -0.291 OA
BRANCH  21  23
ATOM     23  C   UNL d   1      11.135   7.952  -5.026  0.00  0.00     0.060 A 
ATOM     24  C   UNL d   1      11.254   9.287  -4.560  0.00  0.00     0.136 A 
ATOM     25  C   UNL d   1      11.974   9.542  -3.386  0.00  0.00     0.057 A 
ATOM     26  O   UNL d   1      10.665  10.351  -5.188  0.00  0.00    -0.190 OA
ATOM     27  C   UNL d   1      12.564   8.497  -2.664  0.00  0.00     0.142 A 
ATOM     28  C   UNL d   1      12.416   7.163  -3.099  0.00  0.00     0.030 A 
ATOM     29  F   UNL d   1      13.245   8.793  -1.538  0.00  0.00    -0.204 F 
ATOM     30  C   UNL d   1      11.679   6.895  -4.266  0.00  0.00     0.007 A 
ENDBRANCH  21  23
ENDBRANCH   4  21
TORSDOF 5
