REMARK  7 active torsions:
REMARK  status: ('A' for Active; 'I' for Inactive)
REMARK    1  A    between atoms: O_2  and  C_3 
REMARK    2  A    between atoms: N_13  and  C_14 
REMARK    3  A    between atoms: C_14  and  C_15 
REMARK    4  A    between atoms: C_15  and  C_16 
REMARK    5  A    between atoms: C_16  and  C_17 
REMARK    6  A    between atoms: C_17  and  N_18 
REMARK       I    between atoms: N_18  and  C_19 
REMARK    7  A    between atoms: C_19  and  C_21 
ROOT
ATOM      1  C   UNL d   1       9.702   0.515 -16.310  0.00  0.00     0.094 A 
ATOM      2  C   UNL d   1      11.005   1.031 -16.133  0.00  0.00     0.026 A 
ATOM      3  C   UNL d   1      11.220   2.169 -15.331  0.00  0.00     0.026 A 
ATOM      4  C   UNL d   1      10.144   2.809 -14.689  0.00  0.00     0.092 A 
ATOM      5  C   UNL d   1       8.836   2.276 -14.833  0.00  0.00     0.031 A 
ATOM      6  C   UNL d   1       8.629   1.140 -15.643  0.00  0.00     0.024 A 
ATOM      7  C   UNL d   1       7.661   2.946 -14.149  0.00  0.00     0.173 C 
ATOM      8  O   UNL d   1       6.660   2.029 -13.691  0.00  0.00    -0.348 OA
ATOM      9  C   UNL d   1       5.544   2.712 -13.144  0.00  0.00     0.178 C 
ATOM     10  C   UNL d   1       5.972   3.662 -12.017  0.00  0.00     0.282 C 
ATOM     11  N   UNL d   1       7.019   4.589 -12.439  0.00  0.00     0.143 N 
ATOM     12  C   UNL d   1       8.151   3.861 -13.027  0.00  0.00     0.280 C 
ATOM     13  C   UNL d   1       9.309   4.741 -13.555  0.00  0.00     0.185 C 
ATOM     14  O   UNL d   1      10.419   3.929 -13.932  0.00  0.00    -0.329 OA
ENDROOT
BRANCH  11  15
ATOM     15  C   UNL d   1       7.394   5.529 -11.385  0.00  0.00     0.251 C 
BRANCH  15  16
ATOM     16  C   UNL d   1       8.259   4.929 -10.254  0.00  0.00     0.037 C 
BRANCH  16  17
ATOM     17  C   UNL d   1       8.694   5.986  -9.258  0.00  0.00     0.029 C 
BRANCH  17  18
ATOM     18  C   UNL d   1       9.761   5.425  -8.331  0.00  0.00     0.129 C 
BRANCH  18  19
ATOM     19  N   UNL d   1      10.078   6.356  -7.256  0.00  0.00    -0.234 NA
ATOM     20  C   UNL d   1      10.742   7.504  -7.387  0.00  0.00     0.275 C 
ATOM     21  O   UNL d   1      11.089   8.001  -8.461  0.00  0.00    -0.266 OA
BRANCH  20  22
ATOM     22  C   UNL d   1      10.993   8.212  -6.106  0.00  0.00     0.058 A 
ATOM     23  C   UNL d   1      11.463   7.520  -4.963  0.00  0.00     0.016 A 
ATOM     24  C   UNL d   1      11.736   8.229  -3.779  0.00  0.00     0.058 A 
ATOM     25  C   UNL d   1      11.527   9.620  -3.724  0.00  0.00     0.011 A 
ATOM     26 CL   UNL d   1      12.262   7.377  -2.385  0.00  0.00    -0.082 Cl
ATOM     27  C   UNL d   1      11.054  10.304  -4.865  0.00  0.00     0.001 A 
ATOM     28  C   UNL d   1      10.816   9.602  -6.052  0.00  0.00     0.005 A 
ENDBRANCH  20  22
ENDBRANCH  18  19
ENDBRANCH  17  18
ENDBRANCH  16  17
ENDBRANCH  15  16
ENDBRANCH  11  15
BRANCH   1  29
ATOM     29  O   UNL d   1       9.409  -0.586 -17.080  0.00  0.00    -0.328 OA
ATOM     30  C   UNL d   1      10.351  -0.990 -18.059  0.00  0.00     0.181 C 
ENDBRANCH   1  29
TORSDOF 7
