REMARK  4 active torsions:
REMARK  status: ('A' for Active; 'I' for Inactive)
REMARK    1  A    between atoms: N_3  and  C_4 
REMARK    2  A    between atoms: C_4  and  C_5 
REMARK    3  A    between atoms: C_5  and  N_6 
REMARK    4  A    between atoms: N_15  and  C_16 
ROOT
ATOM      1  O   UNL d   1       9.361   7.750 -11.856  0.00  0.00    -0.247 OA
ATOM      2  C   UNL d   1       9.146   6.639 -11.373  0.00  0.00     0.328 A 
ATOM      3  N   UNL d   1       8.572   5.614 -12.017  0.00  0.00    -0.298 N 
ATOM      4  C   UNL d   1       8.463   4.410 -11.210  0.00  0.00     0.131 A 
ATOM      5  C   UNL d   1       9.056   4.853  -9.873  0.00  0.00     0.135 A 
ATOM      6  N   UNL d   1       9.469   6.230 -10.128  0.00  0.00    -0.280 N 
ENDROOT
BRANCH   3   7
ATOM      7  C   UNL d   1       8.103   5.668 -13.393  0.00  0.00     0.141 C 
BRANCH   7   8
ATOM      8  C   UNL d   1       9.195   5.151 -14.357  0.00  0.00     0.274 C 
BRANCH   8   9
ATOM      9  N   UNL d   1       9.428   3.711 -14.273  0.00  0.00     0.139 N 
ATOM     10  C   UNL d   1      10.556   3.352 -15.136  0.00  0.00     0.250 C 
ATOM     11  C   UNL d   1      11.180   2.031 -14.674  0.00  0.00     0.035 C 
ATOM     12  C   UNL d   1      10.606   0.750 -15.308  0.00  0.00     0.002 C 
ATOM     13  C   UNL d   1       9.076   0.693 -15.449  0.00  0.00     0.002 C 
ATOM     14  C   UNL d   1       8.325   1.452 -14.360  0.00  0.00     0.035 C 
ATOM     15  C   UNL d   1       8.222   2.960 -14.620  0.00  0.00     0.250 C 
ENDBRANCH   8   9
ENDBRANCH   7   8
ENDBRANCH   3   7
BRANCH   6  16
ATOM     16  C   UNL d   1      10.046   7.061  -9.147  0.00  0.00     0.064 A 
ATOM     17  C   UNL d   1       9.456   7.169  -7.862  0.00  0.00     0.017 A 
ATOM     18  C   UNL d   1      10.020   8.028  -6.895  0.00  0.00     0.002 A 
ATOM     19  C   UNL d   1      11.184   8.761  -7.196  0.00  0.00     0.000 A 
ATOM     20  C   UNL d   1      11.780   8.642  -8.469  0.00  0.00     0.002 A 
ATOM     21  C   UNL d   1      11.208   7.800  -9.442  0.00  0.00     0.017 A 
ENDBRANCH   6  16
TORSDOF 4
