REMARK  8 active torsions:
REMARK  status: ('A' for Active; 'I' for Inactive)
REMARK    1  A    between atoms: N_3  and  C_4 
REMARK    2  A    between atoms: C_4  and  C_5 
REMARK    3  A    between atoms: C_5  and  C_6 
REMARK    4  A    between atoms: C_6  and  C_7 
REMARK    5  A    between atoms: C_7  and  C_8 
REMARK    6  A    between atoms: C_8  and  C_9 
REMARK    7  A    between atoms: C_9  and  N_10 
REMARK    8  A    between atoms: N_13  and  C_14 
ROOT
ATOM      1  N   UNL d   1       8.030   4.465 -13.064  0.00  0.00     0.141 N 
ATOM      2  C   UNL d   1       8.975   4.100 -14.133  0.00  0.00     0.274 C 
ATOM      3  C   UNL d   1       8.860   2.600 -14.437  0.00  0.00     0.137 C 
ATOM      4  N   UNL d   1       7.481   2.271 -14.816  0.00  0.00    -0.344 N 
ATOM      5  C   UNL d   1       6.457   2.735 -13.868  0.00  0.00     0.137 C 
ATOM      6  C   UNL d   1       6.663   4.222 -13.524  0.00  0.00     0.274 C 
ENDROOT
BRANCH   1   7
ATOM      7  C   UNL d   1       8.133   5.889 -12.727  0.00  0.00     0.250 C 
BRANCH   7   8
ATOM      8  C   UNL d   1       9.467   6.233 -12.034  0.00  0.00     0.035 C 
BRANCH   8   9
ATOM      9  C   UNL d   1       9.357   6.249 -10.508  0.00  0.00     0.002 C 
BRANCH   9  10
ATOM     10  C   UNL d   1      10.101   7.446  -9.918  0.00  0.00     0.002 C 
BRANCH  10  11
ATOM     11  C   UNL d   1       9.986   7.429  -8.398  0.00  0.00     0.027 C 
BRANCH  11  12
ATOM     12  C   UNL d   1      10.465   8.739  -7.744  0.00  0.00     0.132 C 
BRANCH  12  13
ATOM     13  N   UNL d   1      10.860   8.575  -6.353  0.00  0.00    -0.201 N 
ATOM     14  C   UNL d   1      11.135   9.572  -5.475  0.00  0.00     0.352 A 
ATOM     15  O   UNL d   1      11.062  10.787  -5.639  0.00  0.00    -0.244 OA
ATOM     16  N   UNL d   1      11.512   8.911  -4.373  0.00  0.00    -0.241 N 
ATOM     17  C   UNL d   1      11.458   7.563  -4.657  0.00  0.00     0.171 A 
ATOM     18  C   UNL d   1      11.894   9.453  -3.147  0.00  0.00     0.086 A 
ATOM     19  N   UNL d   1      11.051   7.340  -5.849  0.00  0.00    -0.147 NA
ATOM     20  C   UNL d   1      11.862   6.678  -3.575  0.00  0.00     0.039 A 
ATOM     21  C   UNL d   1      12.247   7.182  -2.388  0.00  0.00     0.005 A 
ATOM     22  C   UNL d   1      12.268   8.625  -2.152  0.00  0.00     0.019 A 
ENDBRANCH  12  13
ENDBRANCH  11  12
ENDBRANCH  10  11
ENDBRANCH   9  10
ENDBRANCH   8   9
ENDBRANCH   7   8
ENDBRANCH   1   7
BRANCH   4  23
ATOM     23  C   UNL d   1       7.201   1.550 -15.969  0.00  0.00     0.056 A 
ATOM     24  C   UNL d   1       6.253   0.482 -15.998  0.00  0.00     0.015 A 
ATOM     25  C   UNL d   1       5.988  -0.177 -17.243  0.00  0.00     0.001 A 
ATOM     26  C   UNL d   1       5.556   0.033 -14.842  0.00  0.00     0.001 A 
ATOM     27  C   UNL d   1       6.674   0.201 -18.415  0.00  0.00     0.000 A 
ATOM     28  C   UNL d   1       5.049  -1.223 -17.304  0.00  0.00     0.000 A 
ATOM     29  C   UNL d   1       7.622   1.231 -18.379  0.00  0.00     0.002 A 
ATOM     30  C   UNL d   1       7.877   1.904 -17.166  0.00  0.00     0.017 A 
ATOM     31  C   UNL d   1       4.343  -1.610 -16.152  0.00  0.00     0.000 A 
ATOM     32  C   UNL d   1       4.587  -0.975 -14.928  0.00  0.00     0.000 A 
ENDBRANCH   4  23
TORSDOF 8
