REMARK  4 active torsions:
REMARK  status: ('A' for Active; 'I' for Inactive)
REMARK    1  A    between atoms: O_2  and  C_3 
REMARK    2  A    between atoms: C_13  and  O_14 
REMARK    3  A    between atoms: N_18  and  C_19 
REMARK    4  A    between atoms: C_19  and  C_20 
ROOT
ATOM      1  C   UNL d   1       5.905   0.834 -14.362  0.00  0.00     0.118 A 
ATOM      2  C   UNL d   1       6.782   0.166 -15.254  0.00  0.00     0.051 A 
ATOM      3  C   UNL d   1       8.058   0.682 -15.537  0.00  0.00     0.105 A 
ATOM      4  O   UNL d   1       8.873  -0.013 -16.401  0.00  0.00    -0.273 OA
ATOM      5  C   UNL d   1      10.120   0.407 -16.766  0.00  0.00     0.298 A 
ATOM      6  O   UNL d   1      10.800  -0.241 -17.559  0.00  0.00    -0.259 OA
ATOM      7  C   UNL d   1      10.595   1.674 -16.142  0.00  0.00     0.071 A 
ATOM      8  C   UNL d   1       9.836   2.357 -15.261  0.00  0.00    -0.015 A 
ATOM      9  C   UNL d   1       8.480   1.885 -14.934  0.00  0.00     0.021 A 
ATOM     10  C   UNL d   1       7.601   2.572 -14.069  0.00  0.00     0.028 A 
ATOM     11  C   UNL d   1       6.315   2.055 -13.772  0.00  0.00     0.116 A 
ATOM     12  C   UNL d   1      10.364   3.638 -14.619  0.00  0.00     0.062 C 
ATOM     13  C   UNL d   1      11.870   3.865 -14.901  0.00  0.00     0.256 C 
ATOM     14  N   UNL d   1      12.236   3.568 -16.293  0.00  0.00     0.146 N 
ATOM     15  C   UNL d   1      11.975   2.154 -16.576  0.00  0.00     0.282 C 
ENDROOT
BRANCH  14  16
ATOM     16  C   UNL d   1      11.598   4.445 -17.279  0.00  0.00     0.277 C 
BRANCH  16  17
ATOM     17  C   UNL d   1      12.372   5.723 -17.535  0.00  0.00     0.011 A 
ATOM     18  C   UNL d   1      12.353   6.793 -16.614  0.00  0.00    -0.002 A 
ATOM     19  C   UNL d   1      13.071   7.974 -16.891  0.00  0.00     0.011 A 
ATOM     20  C   UNL d   1      13.805   8.091 -18.088  0.00  0.00     0.058 A 
ATOM     21  C   UNL d   1      13.816   7.029 -19.012  0.00  0.00     0.011 A 
ATOM     22 CL   UNL d   1      14.684   9.534 -18.437  0.00  0.00    -0.082 Cl
ATOM     23  C   UNL d   1      13.107   5.846 -18.732  0.00  0.00    -0.002 A 
ENDBRANCH  16  17
ENDBRANCH  14  16
BRANCH  11  24
ATOM     24  O   UNL d   1       5.439   2.665 -12.895  0.00  0.00    -0.326 OA
ATOM     25  C   UNL d   1       5.868   3.835 -12.215  0.00  0.00     0.181 C 
ENDBRANCH  11  24
BRANCH   1  26
ATOM     26  O   UNL d   1       4.658   0.356 -14.016  0.00  0.00    -0.326 OA
ATOM     27  C   UNL d   1       4.174  -0.802 -14.680  0.00  0.00     0.181 C 
ENDBRANCH   1  26
TORSDOF 4
