REMARK  6 active torsions:
REMARK  status: ('A' for Active; 'I' for Inactive)
REMARK    1  A    between atoms: S_2  and  C_4 
REMARK    2  A    between atoms: S_2  and  N_14 
REMARK    3  A    between atoms: C_18  and  C_19 
REMARK    4  A    between atoms: C_19  and  C_20 
REMARK    5  A    between atoms: C_20  and  N_21 
REMARK    6  A    between atoms: N_24  and  C_25 
ROOT
ATOM      1  N   UNL d   1      10.144   4.019 -13.583  0.00  0.00    -0.276 N 
ATOM      2  C   UNL d   1       9.030   3.083 -13.809  0.00  0.00     0.113 C 
ATOM      3  C   UNL d   1       7.748   3.926 -13.618  0.00  0.00     0.027 C 
ATOM      4  C   UNL d   1       8.205   5.388 -13.540  0.00  0.00     0.025 C 
ATOM      5  C   UNL d   1       9.635   5.275 -13.002  0.00  0.00     0.094 C 
ENDROOT
BRANCH   5   6
ATOM      6  C   UNL d   1       9.653   5.231 -11.447  0.00  0.00     0.058 C 
BRANCH   6   7
ATOM      7  C   UNL d   1      10.198   6.545 -10.838  0.00  0.00     0.252 C 
BRANCH   7   8
ATOM      8  N   UNL d   1       9.723   6.739  -9.477  0.00  0.00     0.141 N 
ATOM      9  C   UNL d   1      10.760   6.263  -8.569  0.00  0.00     0.274 C 
ATOM     10  C   UNL d   1      10.396   6.396  -7.109  0.00  0.00     0.137 C 
ATOM     11  N   UNL d   1      10.053   7.786  -6.854  0.00  0.00    -0.344 N 
ATOM     12  C   UNL d   1       9.064   8.384  -7.773  0.00  0.00     0.137 C 
ATOM     13  C   UNL d   1       9.572   8.178  -9.218  0.00  0.00     0.274 C 
BRANCH  11  14
ATOM     14  C   UNL d   1      10.665   8.499  -5.816  0.00  0.00     0.057 C 
ATOM     15  C   UNL d   1      11.185   7.862  -4.640  0.00  0.00     0.022 C 
ATOM     16  C   UNL d   1      11.610   8.711  -3.568  0.00  0.00     0.031 C 
ATOM     17  C   UNL d   1      11.280   6.487  -4.214  0.00  0.00     0.009 C 
ATOM     18  C   UNL d   1      11.468  10.056  -3.615  0.00  0.00     0.007 C 
ATOM     19  S   UNL d   1      12.317   7.891  -2.248  0.00  0.00    -0.086 SA
ATOM     20  C   UNL d   1      11.033  10.631  -4.836  0.00  0.00     0.002 C 
ATOM     21  C   UNL d   1      10.698   9.890  -5.933  0.00  0.00     0.017 C 
ATOM     22  C   UNL d   1      11.895   6.393  -2.998  0.00  0.00     0.035 C 
ENDBRANCH  11  14
ENDBRANCH   7   8
ENDBRANCH   6   7
ENDBRANCH   5   6
BRANCH   1  23
ATOM     23  S   UNL d   1      11.550   3.991 -14.628  0.00  0.00     0.264 S 
ATOM     24  O   UNL d   1      11.750   2.594 -15.033  0.00  0.00    -0.200 OA
ATOM     25  O   UNL d   1      12.632   4.709 -13.934  0.00  0.00    -0.200 OA
BRANCH  23  26
ATOM     26  C   UNL d   1      11.095   4.888 -16.152  0.00  0.00     0.103 A 
ATOM     27  C   UNL d   1      12.078   5.477 -16.995  0.00  0.00     0.015 A 
ATOM     28  C   UNL d   1      11.653   6.182 -18.158  0.00  0.00     0.020 A 
ATOM     29  C   UNL d   1      13.475   5.376 -16.759  0.00  0.00     0.021 A 
ATOM     30  C   UNL d   1      10.288   6.311 -18.479  0.00  0.00     0.002 A 
ATOM     31  C   UNL d   1      12.629   6.742 -19.003  0.00  0.00     0.099 A 
ATOM     32  C   UNL d   1       9.329   5.695 -17.652  0.00  0.00     0.001 A 
ATOM     33  C   UNL d   1       9.737   4.965 -16.516  0.00  0.00     0.013 A 
ATOM     34  N   UNL d   1      13.961   6.649 -18.777  0.00  0.00    -0.242 NA
ATOM     35  C   UNL d   1      14.357   5.979 -17.674  0.00  0.00     0.099 A 
ENDBRANCH  23  26
ENDBRANCH   1  23
TORSDOF 6
