REMARK  8 active torsions:
REMARK  status: ('A' for Active; 'I' for Inactive)
REMARK    1  A    between atoms: C_3  and  S_4 
REMARK    2  A    between atoms: S_4  and  C_5 
REMARK    3  A    between atoms: C_5  and  C_6 
REMARK    4  A    between atoms: C_6  and  C_7 
REMARK    5  A    between atoms: C_7  and  N_8 
REMARK    6  A    between atoms: N_13  and  C_14 
REMARK    7  A    between atoms: C_17  and  C_18 
REMARK    8  A    between atoms: C_28  and  C_29 
ROOT
ATOM      1  N   UNL d   1       8.897   6.081  -9.826  0.00  0.00     0.138 N 
ATOM      2  C   UNL d   1       9.925   6.196 -10.856  0.00  0.00     0.252 C 
ATOM      3  C   UNL d   1      11.001   7.049 -10.169  0.00  0.00     0.052 C 
ATOM      4  C   UNL d   1      10.851   8.547 -10.368  0.00  0.00     0.021 C 
ATOM      5  C   UNL d   1      11.188   9.073  -8.986  0.00  0.00     0.077 C 
ATOM      6  N   UNL d   1      10.626   8.126  -8.047  0.00  0.00    -0.252 NA
ATOM      7  C   UNL d   1      10.787   6.835  -8.671  0.00  0.00     0.097 C 
ATOM      8  C   UNL d   1       9.582   5.922  -8.549  0.00  0.00     0.266 C 
ENDROOT
BRANCH   1   9
ATOM      9  C   UNL d   1       8.005   4.970 -10.087  0.00  0.00     0.251 C 
BRANCH   9  10
ATOM     10  C   UNL d   1       7.014   5.355 -11.217  0.00  0.00     0.047 C 
BRANCH  10  11
ATOM     11  C   UNL d   1       6.185   4.120 -11.663  0.00  0.00     0.067 C 
BRANCH  11  12
ATOM     12  S   UNL d   1       5.888   4.001 -13.444  0.00  0.00    -0.075 SA
BRANCH  12  13
ATOM     13  C   UNL d   1       7.529   3.764 -13.984  0.00  0.00     0.193 A 
ATOM     14  N   UNL d   1       7.878   2.732 -14.793  0.00  0.00    -0.287 N 
ATOM     15  C   UNL d   1       7.007   1.702 -15.359  0.00  0.00     0.134 C 
ATOM     16  C   UNL d   1       9.204   2.967 -14.962  0.00  0.00     0.186 A 
ATOM     17  N   UNL d   1       9.614   4.080 -14.327  0.00  0.00    -0.127 NA
ATOM     18  N   UNL d   1       8.523   4.597 -13.730  0.00  0.00    -0.122 NA
BRANCH  16  19
ATOM     19  C   UNL d   1      10.141   2.191 -15.767  0.00  0.00     0.139 A 
ATOM     20  N   UNL d   1       9.781   0.964 -16.202  0.00  0.00    -0.145 NA
ATOM     21  N   UNL d   1      10.605   0.237 -16.953  0.00  0.00    -0.146 NA
ATOM     22  C   UNL d   1      11.810   0.744 -17.301  0.00  0.00     0.122 A 
ATOM     23  C   UNL d   1      12.251   2.018 -16.898  0.00  0.00     0.024 A 
ATOM     24  C   UNL d   1      11.387   2.770 -16.102  0.00  0.00     0.026 A 
ENDBRANCH  16  19
ENDBRANCH  12  13
ENDBRANCH  11  12
ENDBRANCH  10  11
ENDBRANCH   9  10
ENDBRANCH   1   9
BRANCH   6  25
ATOM     25  C   UNL d   1      10.980   8.265  -6.688  0.00  0.00     0.036 A 
ATOM     26  C   UNL d   1      11.062   9.552  -6.106  0.00  0.00     0.011 A 
ATOM     27  C   UNL d   1      11.439   9.697  -4.757  0.00  0.00     0.005 A 
ATOM     28  C   UNL d   1      11.750   8.564  -3.986  0.00  0.00     0.071 A 
ATOM     29  C   UNL d   1      11.664   7.282  -4.545  0.00  0.00     0.005 A 
ATOM     30  C   UNL d   1      11.258   7.138  -5.876  0.00  0.00     0.011 A 
BRANCH  28  31
ATOM     31  C   UNL d   1      12.125   8.677  -2.538  0.00  0.00     0.419 C 
ATOM     32  F   UNL d   1      13.416   8.459  -2.394  0.00  0.00    -0.166 F 
ATOM     33  F   UNL d   1      11.875   9.888  -2.082  0.00  0.00    -0.166 F 
ATOM     34  F   UNL d   1      11.464   7.749  -1.851  0.00  0.00    -0.166 F 
ENDBRANCH  28  31
ENDBRANCH   6  25
TORSDOF 8
