REMARK  6 active torsions:
REMARK  status: ('A' for Active; 'I' for Inactive)
REMARK       I    between atoms: C_2  and  N_3 
REMARK    1  A    between atoms: C_2  and  C_23 
REMARK    2  A    between atoms: N_3  and  C_4 
REMARK    3  A    between atoms: C_4  and  C_5 
REMARK    4  A    between atoms: C_7  and  C_8 
REMARK    5  A    between atoms: C_8  and  N_9 
REMARK    6  A    between atoms: N_12  and  C_13 
ROOT
ATOM      1  C   UNL d   1       9.628   6.248 -10.451  0.00  0.00     0.026 A 
ATOM      2  C   UNL d   1       9.407   7.390 -11.418  0.00  0.00     0.004 A 
ATOM      3  C   UNL d   1       8.904   6.002 -11.760  0.00  0.00     0.035 A 
ENDROOT
BRANCH   3   4
ATOM      4  C   UNL d   1       9.554   5.206 -12.887  0.00  0.00     0.250 C 
BRANCH   4   5
ATOM      5  N   UNL d   1       8.880   3.933 -13.125  0.00  0.00     0.141 N 
ATOM      6  C   UNL d   1       9.683   3.134 -14.070  0.00  0.00     0.274 C 
ATOM      7  C   UNL d   1       9.021   1.766 -14.332  0.00  0.00     0.137 C 
ATOM      8  N   UNL d   1       7.647   1.947 -14.763  0.00  0.00    -0.344 N 
ATOM      9  C   UNL d   1       6.822   2.826 -13.955  0.00  0.00     0.137 C 
ATOM     10  C   UNL d   1       7.549   4.158 -13.713  0.00  0.00     0.274 C 
BRANCH   8  11
ATOM     11  C   UNL d   1       7.141   1.294 -15.894  0.00  0.00     0.068 A 
ATOM     12  C   UNL d   1       6.064   0.374 -15.812  0.00  0.00     0.084 A 
ATOM     13  C   UNL d   1       5.574  -0.229 -16.992  0.00  0.00     0.070 A 
ATOM     14 CL   UNL d   1       5.354  -0.037 -14.283  0.00  0.00    -0.080 Cl
ATOM     15  C   UNL d   1       6.158   0.071 -18.233  0.00  0.00     0.012 A 
ATOM     16 CL   UNL d   1       4.260  -1.342 -16.933  0.00  0.00    -0.081 Cl
ATOM     17  C   UNL d   1       7.231   0.971 -18.316  0.00  0.00     0.002 A 
ATOM     18  C   UNL d   1       7.725   1.581 -17.148  0.00  0.00     0.018 A 
ENDBRANCH   8  11
ENDBRANCH   4   5
ENDBRANCH   3   4
BRANCH   1  19
ATOM     19  C   UNL d   1       8.838   6.122  -9.165  0.00  0.00     0.129 C 
BRANCH  19  20
ATOM     20  N   UNL d   1       9.237   7.048  -8.124  0.00  0.00    -0.234 NA
ATOM     21  C   UNL d   1      10.360   6.902  -7.419  0.00  0.00     0.275 C 
ATOM     22  O   UNL d   1      11.062   5.918  -7.507  0.00  0.00    -0.266 OA
BRANCH  21  23
ATOM     23  C   UNL d   1      10.749   8.062  -6.566  0.00  0.00     0.060 A 
ATOM     24  C   UNL d   1      11.215   7.963  -5.219  0.00  0.00     0.022 A 
ATOM     25  C   UNL d   1      11.525   9.166  -4.524  0.00  0.00     0.082 A 
ATOM     26  C   UNL d   1      11.381   6.732  -4.544  0.00  0.00     0.002 A 
ATOM     27  N   UNL d   1      11.445  10.362  -5.121  0.00  0.00    -0.244 NA
ATOM     28  C   UNL d   1      11.947   9.111  -3.181  0.00  0.00     0.019 A 
ATOM     29  C   UNL d   1      11.110  10.412  -6.409  0.00  0.00     0.099 A 
ATOM     30  C   UNL d   1      10.728   9.319  -7.173  0.00  0.00     0.025 A 
ATOM     31  C   UNL d   1      12.087   7.884  -2.512  0.00  0.00     0.002 A 
ATOM     32  C   UNL d   1      11.816   6.696  -3.204  0.00  0.00     0.000 A 
ENDBRANCH  21  23
ENDBRANCH  19  20
ENDBRANCH   1  19
TORSDOF 6
