REMARK  4 active torsions:
REMARK  status: ('A' for Active; 'I' for Inactive)
REMARK    1  A    between atoms: O_2  and  C_3 
REMARK    2  A    between atoms: C_6  and  N_7 
REMARK    3  A    between atoms: N_10  and  C_11 
REMARK    4  A    between atoms: C_11  and  C_12 
ROOT
ATOM      1  N   UNL d   1       7.514   4.343 -12.933  0.00  0.00    -0.345 N 
ATOM      2  C   UNL d   1       6.982   4.974 -11.721  0.00  0.00     0.119 C 
ATOM      3  C   UNL d   1       8.027   5.090 -10.610  0.00  0.00     0.101 C 
ATOM      4  N   UNL d   1       9.206   5.819 -11.093  0.00  0.00    -0.248 NA
ATOM      5  C   UNL d   1       9.785   5.066 -12.222  0.00  0.00     0.101 C 
ATOM      6  C   UNL d   1       8.766   4.963 -13.387  0.00  0.00     0.119 C 
ENDROOT
BRANCH   4   7
ATOM      7  C   UNL d   1      10.167   5.975 -10.006  0.00  0.00     0.049 C 
BRANCH   7   8
ATOM      8  C   UNL d   1       9.814   6.634  -8.701  0.00  0.00     0.033 A 
ATOM      9  C   UNL d   1      10.586   7.618  -7.992  0.00  0.00     0.038 A 
ATOM     10  C   UNL d   1       9.865   8.005  -6.828  0.00  0.00     0.163 A 
ATOM     11  C   UNL d   1      11.845   8.246  -8.169  0.00  0.00     0.005 A 
ATOM     12  N   UNL d   1       8.714   7.253  -6.845  0.00  0.00    -0.225 NA
ATOM     13  N   UNL d   1      10.236   8.915  -5.877  0.00  0.00    -0.225 NA
ATOM     14  C   UNL d   1       8.715   6.378  -7.913  0.00  0.00     0.102 A 
ATOM     15  C   UNL d   1      11.442   9.461  -6.082  0.00  0.00     0.101 A 
ATOM     16  C   UNL d   1      12.263   9.150  -7.175  0.00  0.00     0.021 A 
ENDBRANCH   7   8
ENDBRANCH   4   7
BRANCH   1  17
ATOM     17  C   UNL d   1       6.917   3.196 -13.506  0.00  0.00     0.056 A 
ATOM     18  C   UNL d   1       5.847   2.485 -12.864  0.00  0.00     0.019 A 
ATOM     19  C   UNL d   1       5.351   1.296 -13.411  0.00  0.00     0.026 A 
ATOM     20  C   UNL d   1       5.828   0.788 -14.630  0.00  0.00     0.094 A 
ATOM     21  C   UNL d   1       6.885   1.488 -15.271  0.00  0.00     0.026 A 
ATOM     22  C   UNL d   1       7.421   2.653 -14.720  0.00  0.00     0.019 A 
BRANCH  20  23
ATOM     23  O   UNL d   1       5.168  -0.289 -15.160  0.00  0.00    -0.328 OA
ATOM     24  C   UNL d   1       5.581  -0.699 -16.447  0.00  0.00     0.181 C 
ENDBRANCH  20  23
ENDBRANCH   1  17
TORSDOF 4
