REMARK  0 active torsions:
REMARK  status: ('A' for Active; 'I' for Inactive)
ROOT
ATOM      1  C   UNL d   1       8.720   4.753  -8.676  0.00  0.00     0.139 C 
ATOM      2  N   UNL d   1       9.376   5.971  -9.139  0.00  0.00    -0.243 N 
ATOM      3  C   UNL d   1       9.532   6.315 -10.433  0.00  0.00     0.372 A 
ATOM      4  O   UNL d   1       9.195   5.670 -11.428  0.00  0.00    -0.238 OA
ATOM      5  O   UNL d   1      10.170   7.503 -10.435  0.00  0.00    -0.281 OA
ATOM      6  C   UNL d   1      10.472   7.973  -9.145  0.00  0.00     0.174 A 
ATOM      7  C   UNL d   1      11.987   8.160  -8.972  0.00  0.00     0.040 C 
ATOM      8  C   UNL d   1       9.742   9.268  -8.895  0.00  0.00     0.040 C 
ATOM      9  C   UNL d   1       9.900   6.864  -8.301  0.00  0.00     0.266 A 
ATOM     10  O   UNL d   1       9.935   6.830  -7.072  0.00  0.00    -0.269 OA
ENDROOT
TORSDOF 0
