REMARK  3 active torsions:
REMARK  status: ('A' for Active; 'I' for Inactive)
REMARK    1  A    between atoms: C_3  and  C_4 
REMARK    2  A    between atoms: N_15  and  C_16 
REMARK    3  A    between atoms: C_16  and  C_17 
ROOT
ATOM      1  O   UNL d   1       6.959   4.204 -11.953  0.00  0.00    -0.289 OA
ATOM      2  C   UNL d   1       8.009   4.452 -12.521  0.00  0.00     0.200 A 
ATOM      3  C   UNL d   1       8.605   3.844 -13.710  0.00  0.00     0.061 A 
ATOM      4  C   UNL d   1       9.776   4.446 -13.852  0.00  0.00     0.119 A 
ATOM      5  O   UNL d   1      10.100   5.385 -12.876  0.00  0.00    -0.326 OA
ATOM      6  C   UNL d   1       8.977   5.505 -12.025  0.00  0.00     0.157 A 
ATOM      7  C   UNL d   1       8.394   6.925 -12.131  0.00  0.00     0.071 C 
ATOM      8  C   UNL d   1       9.331   7.974 -11.486  0.00  0.00     0.254 C 
ATOM      9  N   UNL d   1       9.646   7.614 -10.090  0.00  0.00     0.142 N 
ATOM     10  C   UNL d   1      10.322   6.323 -10.082  0.00  0.00     0.254 C 
ATOM     11  C   UNL d   1       9.369   5.236 -10.565  0.00  0.00     0.071 C 
ENDROOT
BRANCH   3  12
ATOM     12  C   UNL d   1       8.046   2.778 -14.560  0.00  0.00     0.005 A 
ATOM     13  C   UNL d   1       6.816   2.190 -14.263  0.00  0.00     0.000 A 
ATOM     14  C   UNL d   1       6.315   1.147 -15.056  0.00  0.00     0.000 A 
ATOM     15  C   UNL d   1       7.040   0.717 -16.178  0.00  0.00     0.000 A 
ATOM     16  C   UNL d   1       8.266   1.319 -16.496  0.00  0.00     0.000 A 
ATOM     17  C   UNL d   1       8.785   2.352 -15.693  0.00  0.00     0.000 A 
ENDBRANCH   3  12
BRANCH   9  18
ATOM     18  C   UNL d   1      10.430   8.666  -9.443  0.00  0.00     0.277 C 
BRANCH  18  19
ATOM     19  C   UNL d   1      10.574   8.525  -7.918  0.00  0.00     0.011 C 
ATOM     20  C   UNL d   1      11.198   9.567  -7.192  0.00  0.00    -0.002 C 
ATOM     21  C   UNL d   1      11.418   9.451  -5.803  0.00  0.00    -0.000 C 
ATOM     22  C   UNL d   1      11.090   8.253  -5.140  0.00  0.00    -0.000 C 
ATOM     23  C   UNL d   1      10.471   7.218  -5.854  0.00  0.00    -0.000 C 
ATOM     24  C   UNL d   1      10.111   7.397  -7.192  0.00  0.00    -0.002 C 
ENDBRANCH  18  19
ENDBRANCH   9  18
TORSDOF 3
