REMARK  9 active torsions:
REMARK  status: ('A' for Active; 'I' for Inactive)
REMARK    1  A    between atoms: O_2  and  C_3 
REMARK    2  A    between atoms: C_6  and  N_7 
REMARK    3  A    between atoms: N_10  and  C_11 
REMARK    4  A    between atoms: C_11  and  C_12 
REMARK    5  A    between atoms: C_12  and  C_13 
REMARK    6  A    between atoms: C_13  and  C_14 
REMARK    7  A    between atoms: C_14  and  C_15 
REMARK    8  A    between atoms: C_15  and  C_16 
REMARK    9  A    between atoms: C_16  and  N_17 
ROOT
ATOM      1  C   UNL d   1       6.056   3.036 -13.145  0.00  0.00     0.002 C 
ENDROOT
BRANCH   1   2
ATOM      2  C   UNL d   1       6.488   4.462 -12.766  0.00  0.00     0.002 C 
BRANCH   2   3
ATOM      3  C   UNL d   1       7.707   4.511 -11.835  0.00  0.00     0.035 C 
BRANCH   3   4
ATOM      4  C   UNL d   1       8.065   5.944 -11.424  0.00  0.00     0.250 C 
BRANCH   4   5
ATOM      5  N   UNL d   1       9.239   5.979 -10.551  0.00  0.00     0.141 N 
ATOM      6  C   UNL d   1       8.824   5.629  -9.184  0.00  0.00     0.274 C 
ATOM      7  C   UNL d   1      10.019   5.644  -8.230  0.00  0.00     0.137 C 
ATOM      8  N   UNL d   1      10.681   6.942  -8.274  0.00  0.00    -0.344 N 
ATOM      9  C   UNL d   1      11.030   7.419  -9.610  0.00  0.00     0.137 C 
ATOM     10  C   UNL d   1       9.800   7.339 -10.528  0.00  0.00     0.274 C 
BRANCH   8  11
ATOM     11  C   UNL d   1      10.951   7.669  -7.095  0.00  0.00     0.056 A 
ATOM     12  C   UNL d   1      10.978   9.080  -7.090  0.00  0.00     0.019 A 
ATOM     13  C   UNL d   1      11.236   9.794  -5.901  0.00  0.00     0.026 A 
ATOM     14  C   UNL d   1      11.471   9.117  -4.690  0.00  0.00     0.094 A 
ATOM     15  C   UNL d   1      11.463   7.704  -4.690  0.00  0.00     0.026 A 
ATOM     16  C   UNL d   1      11.205   6.996  -5.879  0.00  0.00     0.019 A 
BRANCH  14  17
ATOM     17  O   UNL d   1      11.692   9.881  -3.565  0.00  0.00    -0.328 OA
ATOM     18  C   UNL d   1      12.131   9.218  -2.387  0.00  0.00     0.181 C 
ENDBRANCH  14  17
ENDBRANCH   8  11
ENDBRANCH   4   5
ENDBRANCH   3   4
ENDBRANCH   2   3
ENDBRANCH   1   2
BRANCH   1  19
ATOM     19  C   UNL d   1       7.002   2.333 -14.139  0.00  0.00     0.025 C 
BRANCH  19  20
ATOM     20  C   UNL d   1       6.913   0.788 -14.089  0.00  0.00     0.112 C 
BRANCH  20  21
ATOM     21  N   UNL d   1       6.620   0.182 -15.409  0.00  0.00    -0.264 N 
ATOM     22  C   UNL d   1       5.409  -0.417 -15.596  0.00  0.00     0.263 A 
ATOM     23  C   UNL d   1       5.106  -0.996 -16.954  0.00  0.00     0.056 A 
ATOM     24  O   UNL d   1       4.551  -0.487 -14.711  0.00  0.00    -0.267 OA
ATOM     25  C   UNL d   1       3.861  -1.610 -17.219  0.00  0.00     0.005 A 
ATOM     26  C   UNL d   1       6.046  -0.943 -18.011  0.00  0.00     0.009 A 
ATOM     27  C   UNL d   1       3.560  -2.160 -18.472  0.00  0.00     0.000 A 
ATOM     28  C   UNL d   1       4.504  -2.096 -19.505  0.00  0.00     0.000 A 
ATOM     29  C   UNL d   1       5.757  -1.489 -19.294  0.00  0.00     0.000 A 
ATOM     30  C   UNL d   1       6.738  -1.413 -20.301  0.00  0.00     0.000 A 
ATOM     31  C   UNL d   1       7.975  -0.802 -20.048  0.00  0.00     0.000 A 
ATOM     32  C   UNL d   1       8.238  -0.263 -18.778  0.00  0.00     0.005 A 
ATOM     33  C   UNL d   1       7.287  -0.323 -17.732  0.00  0.00     0.056 A 
ATOM     34  C   UNL d   1       7.585   0.249 -16.369  0.00  0.00     0.263 A 
ATOM     35  O   UNL d   1       8.689   0.769 -16.174  0.00  0.00    -0.267 OA
ENDBRANCH  20  21
ENDBRANCH  19  20
ENDBRANCH   1  19
TORSDOF 9
