REMARK  5 active torsions:
REMARK  status: ('A' for Active; 'I' for Inactive)
REMARK       I    between atoms: C_2  and  N_3 
REMARK    1  A    between atoms: C_2  and  C_16 
REMARK    2  A    between atoms: N_3  and  C_4 
REMARK    3  A    between atoms: N_7  and  C_8 
REMARK    4  A    between atoms: C_8  and  C_9 
REMARK    5  A    between atoms: C_19  and  C_20 
ROOT
ATOM      1  O   UNL d   1       9.823   8.192 -11.374  0.00  0.00    -0.266 OA
ATOM      2  C   UNL d   1       9.722   7.251 -10.587  0.00  0.00     0.275 C 
ATOM      3  N   UNL d   1       9.209   6.055 -10.915  0.00  0.00    -0.234 NA
ENDROOT
BRANCH   2   4
ATOM      4  C   UNL d   1      10.183   7.398  -9.172  0.00  0.00     0.058 A 
ATOM      5  C   UNL d   1      11.264   8.253  -8.874  0.00  0.00     0.005 A 
ATOM      6  C   UNL d   1      11.680   8.429  -7.542  0.00  0.00     0.000 A 
ATOM      7  C   UNL d   1      11.012   7.763  -6.490  0.00  0.00     0.001 A 
ATOM      8  C   UNL d   1       9.922   6.921  -6.789  0.00  0.00     0.000 A 
ATOM      9  C   UNL d   1       9.498   6.749  -8.119  0.00  0.00     0.005 A 
BRANCH   7  10
ATOM     10  C   UNL d   1      11.457   7.927  -5.106  0.00  0.00     0.007 A 
ATOM     11  C   UNL d   1      11.560   6.948  -4.151  0.00  0.00     0.035 A 
ATOM     12  S   UNL d   1      12.175   7.556  -2.638  0.00  0.00    -0.086 SA
ATOM     13  C   UNL d   1      12.256   9.167  -3.289  0.00  0.00     0.035 A 
ATOM     14  C   UNL d   1      11.862   9.201  -4.601  0.00  0.00     0.007 A 
ENDBRANCH   7  10
ENDBRANCH   2   4
BRANCH   3  15
ATOM     15  C   UNL d   1       8.550   5.741 -12.182  0.00  0.00     0.142 C 
ATOM     16  C   UNL d   1       7.981   4.327 -12.161  0.00  0.00     0.275 C 
ATOM     17  N   UNL d   1       6.777   4.395 -12.982  0.00  0.00     0.143 N 
ATOM     18  C   UNL d   1       6.135   5.603 -12.512  0.00  0.00     0.253 C 
ATOM     19  C   UNL d   1       7.303   6.582 -12.440  0.00  0.00     0.062 C 
BRANCH  17  20
ATOM     20  C   UNL d   1       5.919   3.218 -12.849  0.00  0.00     0.277 C 
BRANCH  20  21
ATOM     21  C   UNL d   1       6.283   2.085 -13.802  0.00  0.00     0.011 A 
ATOM     22  C   UNL d   1       5.471   0.928 -13.850  0.00  0.00    -0.002 A 
ATOM     23  C   UNL d   1       5.777  -0.113 -14.748  0.00  0.00    -0.000 A 
ATOM     24  C   UNL d   1       6.900  -0.012 -15.590  0.00  0.00    -0.000 A 
ATOM     25  C   UNL d   1       7.729   1.119 -15.533  0.00  0.00    -0.000 A 
ATOM     26  C   UNL d   1       7.419   2.162 -14.653  0.00  0.00    -0.002 A 
ENDBRANCH  20  21
ENDBRANCH  17  20
ENDBRANCH   3  15
TORSDOF 5
