REMARK  7 active torsions:
REMARK  status: ('A' for Active; 'I' for Inactive)
REMARK    1  A    between atoms: C_2  and  O_5 
REMARK    2  A    between atoms: O_5  and  C_6 
REMARK       I    between atoms: C_6  and  N_8 
REMARK    3  A    between atoms: N_8  and  C_9 
REMARK    4  A    between atoms: C_12  and  C_13 
REMARK    5  A    between atoms: C_13  and  C_14 
REMARK    6  A    between atoms: C_14  and  N_15 
REMARK    7  A    between atoms: N_18  and  C_19 
ROOT
ATOM      1  C   UNL d   1       9.349   5.734 -10.870  0.00  0.00     0.035 C 
ENDROOT
BRANCH   1   2
ATOM      2  C   UNL d   1       8.958   4.851 -12.083  0.00  0.00     0.002 C 
ATOM      3  C   UNL d   1      10.045   3.778 -12.362  0.00  0.00     0.002 C 
ATOM      4  C   UNL d   1       9.718   2.848 -13.525  0.00  0.00     0.025 C 
ATOM      5  C   UNL d   1       9.495   3.663 -14.802  0.00  0.00     0.109 C 
ATOM      6  C   UNL d   1       8.435   4.760 -14.539  0.00  0.00     0.025 C 
ATOM      7  C   UNL d   1       8.772   5.659 -13.365  0.00  0.00     0.002 C 
BRANCH   5   8
ATOM      8  N   UNL d   1      10.765   4.237 -15.246  0.00  0.00    -0.214 NA
ATOM      9  C   UNL d   1      10.950   4.801 -16.491  0.00  0.00     0.383 C 
ATOM     10  O   UNL d   1      10.100   4.903 -17.374  0.00  0.00    -0.236 OA
BRANCH   9  11
ATOM     11  O   UNL d   1      12.233   5.213 -16.569  0.00  0.00    -0.289 OA
BRANCH  11  12
ATOM     12  C   UNL d   1      12.821   5.766 -17.749  0.00  0.00     0.103 C 
ATOM     13  C   UNL d   1      12.213   7.145 -18.077  0.00  0.00     0.030 C 
ATOM     14  C   UNL d   1      12.719   4.791 -18.944  0.00  0.00     0.030 C 
ATOM     15  C   UNL d   1      14.300   5.938 -17.369  0.00  0.00     0.030 C 
ENDBRANCH  11  12
ENDBRANCH   9  11
ENDBRANCH   5   8
ENDBRANCH   1   2
BRANCH   1  16
ATOM     16  C   UNL d   1       9.632   7.262 -11.144  0.00  0.00     0.250 C 
BRANCH  16  17
ATOM     17  N   UNL d   1      10.365   7.956 -10.087  0.00  0.00     0.141 N 
ATOM     18  C   UNL d   1      11.463   7.161  -9.539  0.00  0.00     0.274 C 
ATOM     19  C   UNL d   1      12.246   7.909  -8.446  0.00  0.00     0.137 C 
ATOM     20  N   UNL d   1      11.263   8.263  -7.454  0.00  0.00    -0.344 N 
ATOM     21  C   UNL d   1      10.150   9.037  -7.903  0.00  0.00     0.137 C 
ATOM     22  C   UNL d   1       9.427   8.308  -9.022  0.00  0.00     0.274 C 
BRANCH  20  23
ATOM     23  C   UNL d   1      11.404   7.937  -6.099  0.00  0.00     0.068 A 
ATOM     24  C   UNL d   1      11.493   8.957  -5.145  0.00  0.00     0.084 A 
ATOM     25  C   UNL d   1      11.748   8.617  -3.790  0.00  0.00     0.070 A 
ATOM     26 CL   UNL d   1      11.392  10.595  -5.641  0.00  0.00    -0.080 Cl
ATOM     27  C   UNL d   1      11.918   7.306  -3.389  0.00  0.00     0.012 A 
ATOM     28 CL   UNL d   1      11.870   9.780  -2.580  0.00  0.00    -0.081 Cl
ATOM     29  C   UNL d   1      11.862   6.333  -4.368  0.00  0.00     0.002 A 
ATOM     30  C   UNL d   1      11.554   6.610  -5.716  0.00  0.00     0.018 A 
ENDBRANCH  20  23
ENDBRANCH  16  17
ENDBRANCH   1  16
TORSDOF 7
