REMARK  8 active torsions:
REMARK  status: ('A' for Active; 'I' for Inactive)
REMARK    1  A    between atoms: C_3  and  C_4 
REMARK    2  A    between atoms: C_10  and  O_11 
REMARK    3  A    between atoms: O_11  and  C_12 
REMARK    4  A    between atoms: C_12  and  C_13 
REMARK    5  A    between atoms: C_13  and  C_14 
REMARK    6  A    between atoms: C_14  and  C_15 
REMARK    7  A    between atoms: C_15  and  N_16 
REMARK    8  A    between atoms: N_19  and  C_20 
ROOT
ATOM      1  C   UNL d   1       8.204   6.397 -11.758  0.00  0.00     0.038 C 
ENDROOT
BRANCH   1   2
ATOM      2  C   UNL d   1       8.119   5.438 -12.959  0.00  0.00     0.035 C 
BRANCH   2   3
ATOM      3  C   UNL d   1       8.662   4.021 -12.593  0.00  0.00     0.149 C 
BRANCH   3   4
ATOM      4  O   UNL d   1       8.662   3.146 -13.709  0.00  0.00    -0.331 OA
BRANCH   4   5
ATOM      5  C   UNL d   1       9.729   3.209 -14.582  0.00  0.00     0.097 A 
ATOM      6  C   UNL d   1      10.045   1.988 -15.252  0.00  0.00     0.045 A 
ATOM      7  C   UNL d   1      11.072   1.936 -16.177  0.00  0.00     0.102 A 
ATOM      8  N   UNL d   1      11.754   3.077 -16.465  0.00  0.00    -0.228 N 
ATOM      9  N   UNL d   1      12.785   3.213 -17.372  0.00  0.00    -0.164 NA
ATOM     10  C   UNL d   1      11.477   4.316 -15.828  0.00  0.00     0.088 A 
ATOM     11  C   UNL d   1      13.112   4.487 -17.303  0.00  0.00     0.124 A 
ATOM     12  C   UNL d   1      12.331   5.225 -16.378  0.00  0.00     0.060 A 
ATOM     13  C   UNL d   1      10.456   4.361 -14.838  0.00  0.00     0.043 A 
BRANCH  12  14
ATOM     14  C   UNL d   1      12.427   6.675 -16.080  0.00  0.00     0.134 C 
ATOM     15  N   UNL d   1      13.148   7.473 -16.748  0.00  0.00    -0.095 NA
ATOM     16  O   UNL d   1      13.040   8.784 -16.186  0.00  0.00    -0.061 OA
ENDBRANCH  12  14
ENDBRANCH   4   5
ENDBRANCH   3   4
ENDBRANCH   2   3
ENDBRANCH   1   2
BRANCH   1  17
ATOM     17  C   UNL d   1       9.654   6.607 -11.225  0.00  0.00     0.251 C 
BRANCH  17  18
ATOM     18  N   UNL d   1       9.692   7.400 -10.002  0.00  0.00     0.141 N 
ATOM     19  C   UNL d   1       9.076   6.645  -8.891  0.00  0.00     0.274 C 
ATOM     20  C   UNL d   1       9.051   7.493  -7.619  0.00  0.00     0.137 C 
ATOM     21  N   UNL d   1      10.399   7.943  -7.331  0.00  0.00    -0.344 N 
ATOM     22  C   UNL d   1      11.113   8.614  -8.399  0.00  0.00     0.137 C 
ATOM     23  C   UNL d   1      11.081   7.735  -9.661  0.00  0.00     0.274 C 
BRANCH  21  24
ATOM     24  C   UNL d   1      10.974   7.766  -6.082  0.00  0.00     0.068 A 
ATOM     25  C   UNL d   1      11.189   8.839  -5.197  0.00  0.00     0.084 A 
ATOM     26  C   UNL d   1      11.737   8.648  -3.919  0.00  0.00     0.070 A 
ATOM     27 CL   UNL d   1      10.733  10.413  -5.633  0.00  0.00    -0.080 Cl
ATOM     28  C   UNL d   1      12.162   7.389  -3.505  0.00  0.00     0.012 A 
ATOM     29 CL   UNL d   1      11.856   9.931  -2.809  0.00  0.00    -0.081 Cl
ATOM     30  C   UNL d   1      11.936   6.348  -4.394  0.00  0.00     0.002 A 
ATOM     31  C   UNL d   1      11.364   6.492  -5.663  0.00  0.00     0.018 A 
ENDBRANCH  21  24
ENDBRANCH  17  18
ENDBRANCH   1  17
TORSDOF 8
