REMARK  0 active torsions:
REMARK  status: ('A' for Active; 'I' for Inactive)
ROOT
ATOM      1  C   UNL d   1      11.860   1.900 -16.882  0.00  0.00     0.286 C 
ATOM      2  N   UNL d   1      10.713   1.038 -16.637  0.00  0.00     0.143 N 
ATOM      3  C   UNL d   1      10.157   0.594 -17.913  0.00  0.00     0.274 C 
ATOM      4  C   UNL d   1       8.967  -0.343 -17.651  0.00  0.00     0.137 C 
ATOM      5  N   UNL d   1       7.932   0.348 -16.879  0.00  0.00    -0.343 N 
ATOM      6  C   UNL d   1       6.625  -0.165 -17.065  0.00  0.00     0.053 A 
ATOM      7  C   UNL d   1       6.108  -0.169 -18.385  0.00  0.00     0.017 A 
ATOM      8  C   UNL d   1       4.833  -0.686 -18.674  0.00  0.00     0.002 A 
ATOM      9  C   UNL d   1       4.041  -1.213 -17.641  0.00  0.00    -0.000 A 
ATOM     10  C   UNL d   1       4.525  -1.205 -16.322  0.00  0.00    -0.003 A 
ATOM     11  C   UNL d   1       5.803  -0.683 -16.023  0.00  0.00    -0.002 A 
ATOM     12  C   UNL d   1       6.233  -0.654 -14.570  0.00  0.00     0.054 C 
ATOM     13  C   UNL d   1       6.388   0.785 -14.134  0.00  0.00    -0.020 A 
ATOM     14  C   UNL d   1       5.461   1.355 -13.238  0.00  0.00    -0.004 A 
ATOM     15  C   UNL d   1       5.556   2.716 -12.891  0.00  0.00    -0.000 A 
ATOM     16  C   UNL d   1       6.579   3.507 -13.447  0.00  0.00    -0.000 A 
ATOM     17  C   UNL d   1       7.508   2.936 -14.339  0.00  0.00    -0.003 A 
ATOM     18  C   UNL d   1       7.426   1.567 -14.690  0.00  0.00    -0.004 A 
ATOM     19  C   UNL d   1       8.451   0.893 -15.612  0.00  0.00     0.137 C 
ATOM     20  C   UNL d   1       9.684   1.787 -15.911  0.00  0.00     0.277 C 
ENDROOT
TORSDOF 0
