REMARK  1 active torsions:
REMARK  status: ('A' for Active; 'I' for Inactive)
REMARK    1  A    between atoms: C_6  and  C_7 
ROOT
ATOM      1  C   UNL d   1      11.973   9.970  -3.444  0.00  0.00     0.286 C 
ATOM      2  N   UNL d   1      11.490   8.625  -3.326  0.00  0.00     0.141 N 
ATOM      3  C   UNL d   1      12.008   7.951  -2.148  0.00  0.00     0.251 C 
ATOM      4  C   UNL d   1      11.698   6.484  -2.410  0.00  0.00     0.038 C 
ATOM      5  C   UNL d   1      11.649   6.368  -3.922  0.00  0.00     0.040 C 
ATOM      6  C   UNL d   1      11.880   7.785  -4.442  0.00  0.00     0.243 C 
ENDROOT
BRANCH   6   7
ATOM      7  C   UNL d   1      11.187   8.098  -5.770  0.00  0.00     0.028 A 
ATOM      8  C   UNL d   1      11.823   8.876  -6.765  0.00  0.00     0.097 A 
ATOM      9  N   UNL d   1      11.263   9.179  -7.954  0.00  0.00    -0.243 NA
ATOM     10  C   UNL d   1      10.015   8.726  -8.217  0.00  0.00     0.099 A 
ATOM     11  C   UNL d   1       9.290   7.946  -7.297  0.00  0.00     0.020 A 
ATOM     12  C   UNL d   1       9.882   7.635  -6.073  0.00  0.00     0.001 A 
ENDBRANCH   6   7
TORSDOF 1
