REMARK  1 active torsions:
REMARK  status: ('A' for Active; 'I' for Inactive)
REMARK    1  A    between atoms: N_13  and  C_14 
ROOT
ATOM      1  F   UNL d   1       7.306  -4.588 -23.594  0.00  0.00    -0.204 F 
ATOM      2  C   UNL d   1       7.026  -4.124 -22.359  0.00  0.00     0.140 A 
ATOM      3  C   UNL d   1       7.030  -4.998 -21.259  0.00  0.00     0.032 A 
ATOM      4  C   UNL d   1       6.736  -4.503 -19.969  0.00  0.00     0.026 A 
ATOM      5  C   UNL d   1       6.439  -3.142 -19.794  0.00  0.00     0.090 A 
ATOM      6  C   UNL d   1       6.410  -2.269 -20.899  0.00  0.00     0.002 A 
ATOM      7  C   UNL d   1       6.717  -2.764 -22.188  0.00  0.00     0.027 A 
ATOM      8  C   UNL d   1       6.055  -0.807 -20.733  0.00  0.00     0.031 C 
ATOM      9  C   UNL d   1       5.478  -0.543 -19.349  0.00  0.00     0.033 C 
ATOM     10  C   UNL d   1       6.286  -1.312 -18.273  0.00  0.00     0.103 C 
ATOM     11  C   UNL d   1       7.787  -0.928 -18.235  0.00  0.00     0.063 C 
ATOM     12  C   UNL d   1       7.973   0.508 -17.743  0.00  0.00     0.253 C 
ATOM     13  N   UNL d   1       7.428   0.654 -16.385  0.00  0.00     0.135 N 
ATOM     14  C   UNL d   1       5.978   0.377 -16.407  0.00  0.00     0.253 C 
ATOM     15  C   UNL d   1       5.697  -1.059 -16.873  0.00  0.00     0.063 C 
ATOM     16  O   UNL d   1       6.176  -2.711 -18.511  0.00  0.00    -0.336 OA
ENDROOT
BRANCH  13  17
ATOM     17  C   UNL d   1       7.737   1.986 -15.845  0.00  0.00     0.224 C 
ATOM     18  C   UNL d   1       6.942   2.261 -14.546  0.00  0.00     0.059 C 
ATOM     19  C   UNL d   1       7.384   3.479 -13.768  0.00  0.00    -0.024 A 
ATOM     20  C   UNL d   1       8.641   4.079 -13.995  0.00  0.00    -0.026 A 
ATOM     21  C   UNL d   1       6.511   3.997 -12.793  0.00  0.00    -0.004 A 
ATOM     22  C   UNL d   1       9.588   3.553 -15.063  0.00  0.00     0.028 C 
ATOM     23  C   UNL d   1       9.015   5.205 -13.232  0.00  0.00    -0.005 A 
ATOM     24  C   UNL d   1       9.248   2.141 -15.552  0.00  0.00     0.038 C 
ATOM     25  C   UNL d   1       8.143   5.720 -12.253  0.00  0.00    -0.000 A 
ATOM     26  C   UNL d   1       6.890   5.120 -12.035  0.00  0.00    -0.000 A 
ENDBRANCH  13  17
TORSDOF 1
