REMARK  6 active torsions:
REMARK  status: ('A' for Active; 'I' for Inactive)
REMARK    1  A    between atoms: O_2  and  C_3 
REMARK    2  A    between atoms: C_6  and  O_7 
REMARK    3  A    between atoms: O_7  and  C_8 
REMARK    4  A    between atoms: C_8  and  C_9 
REMARK    5  A    between atoms: C_9  and  N_10 
REMARK       I    between atoms: N_13  and  C_14 
REMARK    6  A    between atoms: C_14  and  C_16 
ROOT
ATOM      1  N   UNL d   1       9.569   5.691 -11.466  0.00  0.00     0.144 N 
ATOM      2  C   UNL d   1       8.804   6.943 -11.488  0.00  0.00     0.274 C 
ATOM      3  C   UNL d   1       9.549   8.046 -10.700  0.00  0.00     0.140 C 
ATOM      4  N   UNL d   1       9.837   7.579  -9.304  0.00  0.00    -0.311 N 
ATOM      5  C   UNL d   1       9.549   8.316  -8.201  0.00  0.00     0.275 C 
ATOM      6  O   UNL d   1       8.808   9.285  -8.228  0.00  0.00    -0.266 OA
ATOM      7  C   UNL d   1      10.517   6.282  -9.278  0.00  0.00     0.140 C 
ATOM      8  C   UNL d   1       9.695   5.267 -10.068  0.00  0.00     0.274 C 
ENDROOT
BRANCH   1   9
ATOM      9  C   UNL d   1       8.863   4.615 -12.149  0.00  0.00     0.283 C 
BRANCH   9  10
ATOM     10  C   UNL d   1       8.772   4.886 -13.668  0.00  0.00     0.184 C 
BRANCH  10  11
ATOM     11  O   UNL d   1       8.662   3.685 -14.397  0.00  0.00    -0.329 OA
BRANCH  11  12
ATOM     12  C   UNL d   1       7.571   2.867 -14.185  0.00  0.00     0.094 A 
ATOM     13  C   UNL d   1       7.637   1.606 -14.807  0.00  0.00     0.026 A 
ATOM     14  C   UNL d   1       6.601   0.676 -14.624  0.00  0.00     0.026 A 
ATOM     15  C   UNL d   1       5.489   0.976 -13.799  0.00  0.00     0.094 A 
ATOM     16  C   UNL d   1       5.438   2.232 -13.158  0.00  0.00     0.026 A 
ATOM     17  C   UNL d   1       6.450   3.193 -13.383  0.00  0.00     0.026 A 
BRANCH  15  18
ATOM     18  O   UNL d   1       4.435   0.101 -13.639  0.00  0.00    -0.328 OA
ATOM     19  C   UNL d   1       4.331  -0.972 -14.557  0.00  0.00     0.181 C 
ENDBRANCH  15  18
ENDBRANCH  11  12
ENDBRANCH  10  11
ENDBRANCH   9  10
ENDBRANCH   1   9
BRANCH   5  20
ATOM     20  C   UNL d   1      10.233   8.062  -6.915  0.00  0.00     0.137 A 
ATOM     21  N   UNL d   1      10.497   9.175  -6.114  0.00  0.00    -0.239 NA
ATOM     22  C   UNL d   1      11.127   8.806  -4.940  0.00  0.00     0.101 A 
ATOM     23  C   UNL d   1      11.232   7.383  -5.030  0.00  0.00     0.022 A 
ATOM     24  C   UNL d   1      11.594   9.492  -3.803  0.00  0.00     0.118 A 
ATOM     25  C   UNL d   1      10.645   6.940  -6.248  0.00  0.00     0.026 A 
ATOM     26  C   UNL d   1      11.846   6.743  -3.944  0.00  0.00     0.022 A 
ATOM     27  C   UNL d   1      12.299   7.493  -2.841  0.00  0.00     0.099 A 
ATOM     28  N   UNL d   1      12.176   8.834  -2.767  0.00  0.00    -0.241 NA
ENDBRANCH   5  20
TORSDOF 6
