REMARK  8 active torsions:
REMARK  status: ('A' for Active; 'I' for Inactive)
REMARK    1  A    between atoms: C_2  and  C_3 
REMARK    2  A    between atoms: C_3  and  C_23 
REMARK    3  A    between atoms: C_4  and  C_5 
REMARK    4  A    between atoms: C_4  and  C_11 
REMARK    5  A    between atoms: C_14  and  O_15 
REMARK    6  A    between atoms: O_15  and  C_16 
REMARK    7  A    between atoms: C_16  and  C_17 
REMARK    8  A    between atoms: C_17  and  N_18 
ROOT
ATOM      1  C   UNL d   1       7.173   3.498 -13.455  0.00  0.00    -0.022 C 
ATOM      2  C   UNL d   1       7.854   2.758 -14.391  0.00  0.00    -0.004 C 
ENDROOT
BRANCH   2   3
ATOM      3  C   UNL d   1       7.305   1.507 -14.980  0.00  0.00    -0.000 A 
ATOM      4  C   UNL d   1       7.366   1.306 -16.384  0.00  0.00    -0.000 A 
ATOM      5  C   UNL d   1       6.820   0.141 -16.962  0.00  0.00    -0.000 A 
ATOM      6  C   UNL d   1       6.176  -0.807 -16.148  0.00  0.00    -0.000 A 
ATOM      7  C   UNL d   1       6.129  -0.629 -14.754  0.00  0.00    -0.000 A 
ATOM      8  C   UNL d   1       6.734   0.500 -14.177  0.00  0.00    -0.000 A 
ENDBRANCH   2   3
BRANCH   2   9
ATOM      9  C   UNL d   1       9.194   3.161 -14.910  0.00  0.00    -0.000 A 
ATOM     10  C   UNL d   1       9.456   4.504 -15.260  0.00  0.00     0.002 A 
ATOM     11  C   UNL d   1      10.717   4.909 -15.716  0.00  0.00     0.024 A 
ATOM     12  C   UNL d   1      11.743   3.960 -15.918  0.00  0.00     0.094 A 
ATOM     13  C   UNL d   1      11.490   2.615 -15.573  0.00  0.00     0.024 A 
ATOM     14  C   UNL d   1      10.232   2.218 -15.077  0.00  0.00     0.002 A 
BRANCH  12  15
ATOM     15  O   UNL d   1      12.970   4.301 -16.431  0.00  0.00    -0.329 OA
BRANCH  15  16
ATOM     16  C   UNL d   1      12.983   5.269 -17.482  0.00  0.00     0.184 C 
BRANCH  16  17
ATOM     17  C   UNL d   1      12.629   4.568 -18.805  0.00  0.00     0.283 C 
BRANCH  17  18
ATOM     18  N   UNL d   1      12.470   5.497 -19.926  0.00  0.00     0.144 N 
ATOM     19  C   UNL d   1      13.710   6.195 -20.244  0.00  0.00     0.286 C 
ATOM     20  C   UNL d   1      12.050   4.747 -21.103  0.00  0.00     0.286 C 
ENDBRANCH  17  18
ENDBRANCH  16  17
ENDBRANCH  15  16
ENDBRANCH  12  15
ENDBRANCH   2   9
BRANCH   1  21
ATOM     21  C   UNL d   1       5.757   3.161 -12.934  0.00  0.00     0.026 C 
ATOM     22  C   UNL d   1       4.662   4.164 -13.245  0.00  0.00     0.005 C 
ENDBRANCH   1  21
BRANCH   1  23
ATOM     23  C   UNL d   1       7.815   4.660 -12.773  0.00  0.00    -0.004 A 
ATOM     24  C   UNL d   1       7.219   5.941 -12.786  0.00  0.00    -0.000 A 
ATOM     25  C   UNL d   1       7.821   7.056 -12.203  0.00  0.00    -0.000 A 
ATOM     26  C   UNL d   1       9.043   6.943 -11.555  0.00  0.00    -0.000 A 
ATOM     27  C   UNL d   1       9.655   5.688 -11.523  0.00  0.00    -0.000 A 
ATOM     28  C   UNL d   1       9.080   4.546 -12.134  0.00  0.00    -0.000 A 
ENDBRANCH   1  23
TORSDOF 8
