REMARK  13 active torsions:
REMARK  status: ('A' for Active; 'I' for Inactive)
REMARK    1  A    between atoms: C_2  and  C_3 
REMARK    2  A    between atoms: C_3  and  C_4 
REMARK    3  A    between atoms: C_4  and  C_5 
REMARK    4  A    between atoms: C_5  and  C_6 
REMARK    5  A    between atoms: C_6  and  C_7 
REMARK    6  A    between atoms: C_7  and  C_8 
REMARK    7  A    between atoms: C_8  and  C_9 
REMARK    8  A    between atoms: C_9  and  C_10 
REMARK       I    between atoms: C_10  and  N_12 
REMARK    9  A    between atoms: N_12  and  C_13 
REMARK   10  A    between atoms: C_13  and  C_14 
REMARK   11  A    between atoms: C_14  and  C_15 
REMARK   12  A    between atoms: C_15  and  N_16 
REMARK   13  A    between atoms: N_19  and  C_20 
ROOT
ATOM      1  N   UNL d   1       9.566   4.297 -14.582  0.00  0.00     0.141 N 
ATOM      2  C   UNL d   1       8.663   3.163 -14.825  0.00  0.00     0.274 C 
ATOM      3  C   UNL d   1       9.291   2.162 -15.782  0.00  0.00     0.138 C 
ATOM      4  N   UNL d   1       9.672   2.800 -17.027  0.00  0.00    -0.330 N 
ATOM      5  C   UNL d   1      10.514   3.964 -16.842  0.00  0.00     0.138 C 
ATOM      6  C   UNL d   1       9.870   4.956 -15.860  0.00  0.00     0.274 C 
ENDROOT
BRANCH   4   7
ATOM      7  C   UNL d   1       9.275   2.328 -18.304  0.00  0.00     0.142 C 
ATOM      8  C   UNL d   1       9.137   0.835 -18.412  0.00  0.00     0.051 A 
ATOM      9  C   UNL d   1       8.059   0.206 -19.088  0.00  0.00     0.084 A 
ATOM     10  C   UNL d   1      10.090   0.009 -17.752  0.00  0.00     0.004 A 
ATOM     11  N   UNL d   1       7.144   0.931 -19.844  0.00  0.00    -0.244 NA
ATOM     12  C   UNL d   1       7.917  -1.198 -19.059  0.00  0.00     0.019 A 
ATOM     13  C   UNL d   1       7.593   1.821 -20.814  0.00  0.00     0.099 A 
ATOM     14  C   UNL d   1       8.548   2.834 -20.530  0.00  0.00     0.101 A 
ATOM     15  C   UNL d   1       7.080   1.683 -22.118  0.00  0.00     0.021 A 
ATOM     16  N   UNL d   1       9.037   3.161 -19.249  0.00  0.00    -0.227 NA
ATOM     17  C   UNL d   1       8.962   3.692 -21.569  0.00  0.00     0.032 A 
ATOM     18  C   UNL d   1       8.456   3.546 -22.870  0.00  0.00     0.059 A 
ATOM     19 CL   UNL d   1       8.983   4.606 -24.121  0.00  0.00    -0.082 Cl
ATOM     20  C   UNL d   1       7.512   2.540 -23.146  0.00  0.00     0.013 A 
ATOM     21  C   UNL d   1       8.858  -1.983 -18.397  0.00  0.00     0.002 A 
ATOM     22  C   UNL d   1       9.946  -1.373 -17.731  0.00  0.00     0.000 A 
ENDBRANCH   4   7
BRANCH   1  23
ATOM     23  C   UNL d   1       8.905   5.247 -13.697  0.00  0.00     0.253 C 
BRANCH  23  24
ATOM     24  C   UNL d   1       8.578   4.611 -12.341  0.00  0.00     0.062 C 
BRANCH  24  25
ATOM     25  C   UNL d   1       7.701   5.522 -11.465  0.00  0.00     0.131 C 
BRANCH  25  26
ATOM     26  N   UNL d   1       7.953   5.249 -10.082  0.00  0.00    -0.238 NA
ATOM     27  C   UNL d   1       9.075   5.582  -9.444  0.00  0.00     0.251 C 
ATOM     28  O   UNL d   1      10.090   5.935 -10.055  0.00  0.00    -0.271 OA
BRANCH  27  29
ATOM     29  C   UNL d   1       9.083   5.519  -7.943  0.00  0.00     0.090 C 
BRANCH  29  30
ATOM     30  C   UNL d   1       9.966   6.557  -7.237  0.00  0.00     0.010 C 
BRANCH  30  31
ATOM     31  C   UNL d   1      10.144   7.939  -7.934  0.00  0.00     0.001 C 
BRANCH  31  32
ATOM     32  C   UNL d   1      11.125   8.878  -7.242  0.00  0.00     0.000 C 
BRANCH  32  33
ATOM     33  C   UNL d   1      10.805   9.068  -5.772  0.00  0.00     0.000 C 
BRANCH  33  34
ATOM     34  C   UNL d   1      11.858   9.899  -5.068  0.00  0.00     0.000 C 
BRANCH  34  35
ATOM     35  C   UNL d   1      11.872   9.630  -3.550  0.00  0.00     0.000 C 
BRANCH  35  36
ATOM     36  C   UNL d   1      12.411   8.224  -3.187  0.00  0.00     0.000 C 
ATOM     37  C   UNL d   1      12.658   8.074  -1.695  0.00  0.00     0.000 C 
ENDBRANCH  35  36
ENDBRANCH  34  35
ENDBRANCH  33  34
ENDBRANCH  32  33
ENDBRANCH  31  32
ENDBRANCH  30  31
ENDBRANCH  29  30
ENDBRANCH  27  29
ENDBRANCH  25  26
ENDBRANCH  24  25
ENDBRANCH  23  24
ENDBRANCH   1  23
TORSDOF 13
