REMARK  8 active torsions:
REMARK  status: ('A' for Active; 'I' for Inactive)
REMARK    1  A    between atoms: C_5  and  C_6 
REMARK    2  A    between atoms: C_6  and  C_7 
REMARK    3  A    between atoms: C_7  and  C_9 
REMARK    4  A    between atoms: C_9  and  N_10 
REMARK       I    between atoms: N_10  and  C_11 
REMARK       I    between atoms: C_11  and  N_13 
REMARK       I    between atoms: C_14  and  N_16 
REMARK    5  A    between atoms: N_16  and  C_17 
REMARK    6  A    between atoms: C_17  and  C_18 
REMARK    7  A    between atoms: C_18  and  C_19 
REMARK    8  A    between atoms: C_19  and  C_20 
ROOT
ATOM      1  N   UNL d   1       9.857   6.957 -10.790  0.00  0.00    -0.217 NA
ATOM      2  C   UNL d   1       8.975   7.201 -11.755  0.00  0.00     0.367 C 
ATOM      3  O   UNL d   1       8.760   8.344 -12.157  0.00  0.00    -0.243 OA
ATOM      4  N   UNL d   1       8.336   6.035 -12.137  0.00  0.00    -0.159 NA
ATOM      5  C   UNL d   1       7.061   6.045 -12.436  0.00  0.00     0.237 C 
ATOM      6  N   UNL d   1       6.225   7.148 -12.439  0.00  0.00    -0.060 NA
ATOM      7  N   UNL d   1       6.414   4.911 -12.868  0.00  0.00    -0.241 NA
ENDROOT
BRANCH   1   8
ATOM      8  C   UNL d   1      10.615   7.976 -10.056  0.00  0.00     0.131 C 
BRANCH   8   9
ATOM      9  C   UNL d   1      10.565   7.704  -8.547  0.00  0.00     0.029 C 
ATOM     10  C   UNL d   1       9.120   7.681  -8.000  0.00  0.00     0.002 C 
BRANCH   9  11
ATOM     11  C   UNL d   1      11.433   8.723  -7.766  0.00  0.00     0.028 C 
BRANCH  11  12
ATOM     12  C   UNL d   1      11.538   8.476  -6.261  0.00  0.00    -0.022 A 
ATOM     13  C   UNL d   1      11.841   9.557  -5.397  0.00  0.00    -0.005 A 
ATOM     14  C   UNL d   1      11.998   9.332  -4.010  0.00  0.00    -0.005 A 
ATOM     15  C   UNL d   1      11.863   8.031  -3.490  0.00  0.00    -0.022 A 
ATOM     16  C   UNL d   1      12.024   7.768  -2.014  0.00  0.00     0.031 C 
ATOM     17  C   UNL d   1      11.571   6.960  -4.344  0.00  0.00    -0.005 A 
ATOM     18  C   UNL d   1      11.421   7.172  -5.719  0.00  0.00    -0.005 A 
ENDBRANCH  11  12
ENDBRANCH   9  11
ENDBRANCH   8   9
ENDBRANCH   1   8
BRANCH   7  19
ATOM     19  C   UNL d   1       7.081   3.642 -13.064  0.00  0.00     0.129 C 
BRANCH  19  20
ATOM     20  C   UNL d   1       6.229   2.654 -13.870  0.00  0.00     0.033 C 
BRANCH  20  21
ATOM     21  C   UNL d   1       6.951   1.326 -14.160  0.00  0.00     0.057 C 
BRANCH  21  22
ATOM     22  C   UNL d   1       6.259   0.512 -15.204  0.00  0.00     0.112 A 
ATOM     23  S   UNL d   1       5.154  -0.792 -14.795  0.00  0.00    -0.036 SA
ATOM     24  C   UNL d   1       4.942  -0.991 -16.527  0.00  0.00     0.203 A 
ATOM     25  N   UNL d   1       5.623  -0.120 -17.283  0.00  0.00    -0.127 NA
ATOM     26  N   UNL d   1       4.114  -1.972 -17.045  0.00  0.00    -0.070 NA
ATOM     27  N   UNL d   1       6.391   0.744 -16.517  0.00  0.00    -0.144 NA
ENDBRANCH  21  22
ENDBRANCH  20  21
ENDBRANCH  19  20
ENDBRANCH   7  19
TORSDOF 8
