REMARK  0 active torsions:
REMARK  status: ('A' for Active; 'I' for Inactive)
ROOT
ATOM      1  N   UNL d   1       9.907   8.760 -10.047  0.00  0.00     0.062 N 
ATOM      2  C   UNL d   1      10.214   8.424  -8.757  0.00  0.00     0.764 A 
ATOM      3  N   UNL d   1      10.983   9.168  -8.025  0.00  0.00    -0.058 NA
ATOM      4  C   UNL d   1      11.253   8.776  -6.700  0.00  0.00     0.098 A 
ATOM      5  C   UNL d   1      12.094   9.588  -5.903  0.00  0.00     0.020 A 
ATOM      6  C   UNL d   1      12.407   9.189  -4.583  0.00  0.00     0.013 A 
ATOM      7  C   UNL d   1      11.880   7.999  -4.051  0.00  0.00     0.058 A 
ATOM      8 CL   UNL d   1      12.241   7.536  -2.432  0.00  0.00    -0.082 Cl
ATOM      9  C   UNL d   1      11.061   7.180  -4.844  0.00  0.00     0.011 A 
ATOM     10  C   UNL d   1      10.731   7.575  -6.152  0.00  0.00     0.022 A 
ATOM     11  C   UNL d   1       9.822   6.719  -7.002  0.00  0.00     0.173 A 
ATOM     12  N   UNL d   1       9.625   7.245  -8.338  0.00  0.00    -0.080 NA
ENDROOT
TORSDOF 0
