REMARK  1 active torsions:
REMARK  status: ('A' for Active; 'I' for Inactive)
REMARK    1  A    between atoms: C_14  and  C_15 
ROOT
ATOM      1  O   UNL d   1       4.320  -0.012 -18.626  0.00  0.00    -0.188 OA
ATOM      2  C   UNL d   1       5.668   0.224 -18.628  0.00  0.00     0.156 A 
ATOM      3  C   UNL d   1       6.271   0.601 -17.419  0.00  0.00     0.025 A 
ATOM      4  C   UNL d   1       7.666   0.842 -17.322  0.00  0.00    -0.018 A 
ATOM      5  C   UNL d   1       8.452   0.721 -18.502  0.00  0.00    -0.015 A 
ATOM      6  C   UNL d   1       7.838   0.348 -19.732  0.00  0.00     0.058 A 
ATOM      7 BR   UNL d   1       8.851   0.156 -21.340  0.00  0.00    -0.047 Br
ATOM      8  C   UNL d   1       6.448   0.102 -19.793  0.00  0.00     0.162 A 
ATOM      9  O   UNL d   1       5.878  -0.247 -20.988  0.00  0.00    -0.188 OA
ATOM     10  C   UNL d   1       9.957   0.973 -18.439  0.00  0.00     0.052 C 
ATOM     11  C   UNL d   1      10.691  -0.036 -17.543  0.00  0.00     0.124 C 
ATOM     12  N   UNL d   1      10.663   0.361 -16.145  0.00  0.00    -0.294 NA
ATOM     13  C   UNL d   1       9.373   0.219 -15.485  0.00  0.00     0.129 C 
ATOM     14  C   UNL d   1       8.312   1.231 -15.975  0.00  0.00     0.068 C 
ENDROOT
BRANCH  14  15
ATOM     15  C   UNL d   1       7.316   1.522 -14.853  0.00  0.00    -0.017 A 
ATOM     16  C   UNL d   1       7.172   2.848 -14.389  0.00  0.00    -0.004 A 
ATOM     17  C   UNL d   1       6.237   3.163 -13.387  0.00  0.00    -0.000 A 
ATOM     18  C   UNL d   1       5.445   2.144 -12.830  0.00  0.00    -0.000 A 
ATOM     19  C   UNL d   1       5.593   0.812 -13.270  0.00  0.00    -0.000 A 
ATOM     20  C   UNL d   1       6.543   0.497 -14.262  0.00  0.00    -0.004 A 
ENDBRANCH  14  15
TORSDOF 1
