REMARK  8 active torsions:
REMARK  status: ('A' for Active; 'I' for Inactive)
REMARK    1  A    between atoms: S_2  and  N_4 
REMARK    2  A    between atoms: S_2  and  C_25 
REMARK    3  A    between atoms: N_4  and  C_5 
REMARK    4  A    between atoms: C_5  and  C_6 
REMARK    5  A    between atoms: C_6  and  C_7 
REMARK    6  A    between atoms: C_7  and  C_8 
REMARK    7  A    between atoms: C_8  and  N_9 
REMARK    8  A    between atoms: C_12  and  C_13 
ROOT
ATOM      1  C   UNL d   1       7.951   2.091 -15.982  0.00  0.00     0.037 C 
ENDROOT
BRANCH   1   2
ATOM      2  C   UNL d   1       7.078   1.410 -17.046  0.00  0.00     0.029 C 
BRANCH   2   3
ATOM      3  C   UNL d   1       7.813   1.218 -18.381  0.00  0.00     0.139 C 
BRANCH   3   4
ATOM      4  N   UNL d   1       6.851   1.056 -19.474  0.00  0.00    -0.184 NA
BRANCH   4   5
ATOM      5  S   UNL d   1       7.145  -0.104 -20.706  0.00  0.00     0.287 S 
ATOM      6  O   UNL d   1       6.105   0.066 -21.731  0.00  0.00    -0.198 OA
ATOM      7  O   UNL d   1       8.575  -0.060 -21.048  0.00  0.00    -0.198 OA
BRANCH   5   8
ATOM      8  C   UNL d   1       6.845  -1.671 -19.916  0.00  0.00     0.134 A 
ATOM      9  S   UNL d   1       5.727  -1.793 -18.588  0.00  0.00    -0.074 SA
ATOM     10  C   UNL d   1       6.045  -3.514 -18.440  0.00  0.00     0.031 A 
ATOM     11  C   UNL d   1       7.015  -3.938 -19.406  0.00  0.00     0.007 A 
ATOM     12  C   UNL d   1       5.461  -4.416 -17.531  0.00  0.00     0.018 A 
ATOM     13  C   UNL d   1       7.465  -2.849 -20.244  0.00  0.00     0.020 A 
ATOM     14  C   UNL d   1       7.368  -5.309 -19.399  0.00  0.00     0.001 A 
ATOM     15  C   UNL d   1       6.787  -6.214 -18.491  0.00  0.00     0.011 A 
ATOM     16  C   UNL d   1       5.838  -5.771 -17.553  0.00  0.00     0.058 A 
ATOM     17 CL   UNL d   1       5.146  -6.896 -16.445  0.00  0.00    -0.082 Cl
ENDBRANCH   5   8
ENDBRANCH   4   5
ENDBRANCH   3   4
ENDBRANCH   2   3
ENDBRANCH   1   2
BRANCH   1  18
ATOM     18  C   UNL d   1       7.184   2.436 -14.688  0.00  0.00     0.250 C 
BRANCH  18  19
ATOM     19  N   UNL d   1       7.712   3.628 -14.030  0.00  0.00     0.137 N 
ATOM     20  C   UNL d   1       6.826   3.998 -12.917  0.00  0.00     0.251 C 
ATOM     21  C   UNL d   1       7.303   5.293 -12.234  0.00  0.00     0.041 C 
ATOM     22  C   UNL d   1       8.754   5.164 -11.751  0.00  0.00     0.047 C 
ATOM     23  C   UNL d   1       9.644   4.664 -12.900  0.00  0.00     0.041 C 
ATOM     24  C   UNL d   1       9.073   3.398 -13.543  0.00  0.00     0.251 C 
BRANCH  22  25
ATOM     25  C   UNL d   1       9.265   6.457 -11.169  0.00  0.00     0.087 A 
ATOM     26  C   UNL d   1       9.731   6.774  -9.874  0.00  0.00     0.041 A 
ATOM     27  C   UNL d   1      10.101   8.118  -9.840  0.00  0.00     0.129 A 
ATOM     28  C   UNL d   1       9.841   5.997  -8.700  0.00  0.00     0.006 A 
ATOM     29  O   UNL d   1       9.861   8.595 -11.114  0.00  0.00    -0.211 OA
ATOM     30  C   UNL d   1      10.602   8.749  -8.695  0.00  0.00     0.057 A 
ATOM     31  N   UNL d   1       9.340   7.553 -11.930  0.00  0.00    -0.131 NA
ATOM     32  C   UNL d   1      10.708   7.978  -7.518  0.00  0.00     0.142 A 
ATOM     33  F   UNL d   1      11.178   8.548  -6.380  0.00  0.00    -0.204 F 
ATOM     34  C   UNL d   1      10.329   6.613  -7.523  0.00  0.00     0.030 A 
ENDBRANCH  22  25
ENDBRANCH  18  19
ENDBRANCH   1  18
TORSDOF 8
