REMARK  4 active torsions:
REMARK  status: ('A' for Active; 'I' for Inactive)
REMARK    1  A    between atoms: N_3  and  C_4 
REMARK    2  A    between atoms: C_4  and  C_5 
REMARK    3  A    between atoms: C_5  and  N_6 
REMARK    4  A    between atoms: N_15  and  C_16 
ROOT
ATOM      1  O   UNL d   1      10.254   4.394 -12.680  0.00  0.00    -0.247 OA
ATOM      2  C   UNL d   1       9.028   4.334 -12.616  0.00  0.00     0.328 A 
ATOM      3  N   UNL d   1       8.283   4.666 -11.559  0.00  0.00    -0.298 N 
ATOM      4  C   UNL d   1       6.865   4.431 -11.765  0.00  0.00     0.131 A 
ATOM      5  C   UNL d   1       6.814   3.914 -13.204  0.00  0.00     0.135 A 
ATOM      6  N   UNL d   1       8.220   3.929 -13.608  0.00  0.00    -0.280 N 
ENDROOT
BRANCH   3   7
ATOM      7  C   UNL d   1       8.810   5.115 -10.278  0.00  0.00     0.141 C 
BRANCH   7   8
ATOM      8  C   UNL d   1       9.446   6.511 -10.425  0.00  0.00     0.274 C 
BRANCH   8   9
ATOM      9  N   UNL d   1      10.189   6.883  -9.225  0.00  0.00     0.139 N 
ATOM     10  C   UNL d   1       9.246   7.357  -8.211  0.00  0.00     0.250 C 
ATOM     11  C   UNL d   1       9.866   7.237  -6.815  0.00  0.00     0.035 C 
ATOM     12  C   UNL d   1      10.598   8.497  -6.333  0.00  0.00     0.002 C 
ATOM     13  C   UNL d   1      11.508   9.189  -7.366  0.00  0.00     0.002 C 
ATOM     14  C   UNL d   1      12.136   8.254  -8.410  0.00  0.00     0.035 C 
ATOM     15  C   UNL d   1      11.178   7.910  -9.568  0.00  0.00     0.250 C 
ENDBRANCH   8   9
ENDBRANCH   7   8
ENDBRANCH   3   7
BRANCH   6  16
ATOM     16  C   UNL d   1       8.689   3.522 -14.882  0.00  0.00     0.064 A 
ATOM     17  C   UNL d   1       9.665   4.292 -15.556  0.00  0.00     0.020 A 
ATOM     18  C   UNL d   1      10.128   3.919 -16.826  0.00  0.00     0.031 A 
ATOM     19  C   UNL d   1       9.604   2.772 -17.450  0.00  0.00     0.140 A 
ATOM     20  C   UNL d   1       8.622   2.006 -16.796  0.00  0.00     0.031 A 
ATOM     21  F   UNL d   1      10.046   2.416 -18.678  0.00  0.00    -0.204 F 
ATOM     22  C   UNL d   1       8.156   2.378 -15.515  0.00  0.00     0.020 A 
ENDBRANCH   6  16
TORSDOF 4
