REMARK  10 active torsions:
REMARK  status: ('A' for Active; 'I' for Inactive)
REMARK    1  A    between atoms: O_2  and  C_3 
REMARK    2  A    between atoms: C_9  and  C_10 
REMARK    3  A    between atoms: C_12  and  C_13 
REMARK    4  A    between atoms: C_13  and  N_14 
REMARK    5  A    between atoms: N_14  and  C_15 
REMARK    6  A    between atoms: C_15  and  C_16 
REMARK    7  A    between atoms: C_16  and  C_17 
REMARK    8  A    between atoms: C_17  and  S_18 
REMARK    9  A    between atoms: S_18  and  C_19 
REMARK   10  A    between atoms: C_22  and  C_23 
ROOT
ATOM      1  C   UNL d   1       9.250   4.575 -11.994  0.00  0.00     0.291 C 
ENDROOT
BRANCH   1   2
ATOM      2  N   UNL d   1       9.449   5.639 -11.023  0.00  0.00     0.339 N 
BRANCH   2   3
ATOM      3  C   UNL d   1       8.781   5.308  -9.780  0.00  0.00     0.290 C 
BRANCH   3   4
ATOM      4  C   UNL d   1       8.927   6.443  -8.793  0.00  0.00     0.041 A 
ATOM      5  C   UNL d   1       9.775   6.309  -7.559  0.00  0.00     0.026 A 
ATOM      6  C   UNL d   1       8.278   6.334  -7.424  0.00  0.00     0.007 A 
BRANCH   5   7
ATOM      7  C   UNL d   1      10.576   7.462  -7.054  0.00  0.00     0.002 A 
ATOM      8  C   UNL d   1      11.561   8.063  -7.848  0.00  0.00     0.090 A 
ATOM      9  C   UNL d   1      12.315   9.124  -7.284  0.00  0.00     0.026 A 
ATOM     10  C   UNL d   1      12.034   9.635  -6.013  0.00  0.00     0.032 A 
ATOM     11  C   UNL d   1      11.015   9.060  -5.253  0.00  0.00     0.140 A 
ATOM     12  F   UNL d   1      10.719   9.590  -4.042  0.00  0.00    -0.204 F 
ATOM     13  C   UNL d   1      10.303   7.954  -5.773  0.00  0.00     0.027 A 
BRANCH   8  14
ATOM     14  O   UNL d   1      11.757   7.592  -9.130  0.00  0.00    -0.328 OA
ATOM     15  C   UNL d   1      12.880   8.080  -9.840  0.00  0.00     0.181 C 
ENDBRANCH   8  14
ENDBRANCH   5   7
ENDBRANCH   3   4
ENDBRANCH   2   3
ENDBRANCH   1   2
BRANCH   1  16
ATOM     16  C   UNL d   1       9.593   5.115 -13.380  0.00  0.00     0.050 C 
BRANCH  16  17
ATOM     17  C   UNL d   1       9.371   4.065 -14.485  0.00  0.00     0.067 C 
BRANCH  17  18
ATOM     18  S   UNL d   1       9.657   4.702 -16.166  0.00  0.00    -0.075 SA
BRANCH  18  19
ATOM     19  C   UNL d   1      11.402   4.874 -16.200  0.00  0.00     0.193 A 
ATOM     20  N   UNL d   1      12.040   5.346 -17.288  0.00  0.00    -0.289 N 
ATOM     21  C   UNL d   1      13.338   5.233 -16.918  0.00  0.00     0.167 A 
ATOM     22  C   UNL d   1      11.454   5.816 -18.539  0.00  0.00     0.134 C 
ATOM     23  N   UNL d   1      13.463   4.787 -15.659  0.00  0.00    -0.128 NA
ATOM     24  N   UNL d   1      12.205   4.534 -15.201  0.00  0.00    -0.122 NA
BRANCH  21  25
ATOM     25  C   UNL d   1      14.513   5.526 -17.741  0.00  0.00     0.036 A 
ATOM     26  C   UNL d   1      14.523   5.256 -19.127  0.00  0.00     0.003 A 
ATOM     27  C   UNL d   1      15.638   5.591 -19.918  0.00  0.00     0.000 A 
ATOM     28  C   UNL d   1      16.779   6.159 -19.320  0.00  0.00     0.000 A 
ATOM     29  C   UNL d   1      16.800   6.389 -17.931  0.00  0.00     0.000 A 
ATOM     30  C   UNL d   1      15.671   6.079 -17.146  0.00  0.00     0.003 A 
ENDBRANCH  21  25
ENDBRANCH  18  19
ENDBRANCH  17  18
ENDBRANCH  16  17
ENDBRANCH   1  16
TORSDOF 10
