REMARK  8 active torsions:
REMARK  status: ('A' for Active; 'I' for Inactive)
REMARK    1  A    between atoms: O_2  and  C_3 
REMARK    2  A    between atoms: C_8  and  N_9 
REMARK    3  A    between atoms: N_12  and  C_13 
REMARK    4  A    between atoms: C_13  and  C_14 
REMARK    5  A    between atoms: C_14  and  C_15 
REMARK    6  A    between atoms: C_15  and  C_16 
REMARK    7  A    between atoms: C_16  and  O_17 
REMARK    8  A    between atoms: O_17  and  C_18 
ROOT
ATOM      1  C   UNL d   1      15.517   8.950 -19.696  0.00  0.00     0.097 A 
ATOM      2  C   UNL d   1      16.337   9.757 -20.542  0.00  0.00     0.045 A 
ATOM      3  C   UNL d   1      17.716   9.657 -20.492  0.00  0.00     0.102 A 
ATOM      4  N   UNL d   1      18.292   8.813 -19.581  0.00  0.00    -0.228 N 
ATOM      5  N   UNL d   1      19.652   8.599 -19.388  0.00  0.00    -0.163 NA
ATOM      6  C   UNL d   1      19.684   7.708 -18.420  0.00  0.00     0.132 A 
ATOM      7  C   UNL d   1      18.402   7.332 -17.935  0.00  0.00     0.107 A 
ATOM      8  C   UNL d   1      18.092   6.402 -16.909  0.00  0.00     0.104 C 
ATOM      9  N   UNL d   1      17.839   5.668 -16.029  0.00  0.00    -0.191 NA
ATOM     10  C   UNL d   1      17.505   8.016 -18.722  0.00  0.00     0.096 A 
ATOM     11  C   UNL d   1      16.120   8.059 -18.824  0.00  0.00     0.044 A 
ENDROOT
BRANCH   1  12
ATOM     12  O   UNL d   1      14.161   9.132 -19.827  0.00  0.00    -0.331 OA
BRANCH  12  13
ATOM     13  C   UNL d   1      13.296   8.050 -19.522  0.00  0.00     0.149 C 
BRANCH  13  14
ATOM     14  C   UNL d   1      13.083   7.857 -17.998  0.00  0.00     0.035 C 
BRANCH  14  15
ATOM     15  C   UNL d   1      12.490   6.480 -17.735  0.00  0.00     0.038 C 
BRANCH  15  16
ATOM     16  C   UNL d   1      12.214   6.292 -16.222  0.00  0.00     0.251 C 
BRANCH  16  17
ATOM     17  N   UNL d   1      11.575   5.007 -15.918  0.00  0.00     0.141 N 
ATOM     18  C   UNL d   1      10.291   4.876 -16.627  0.00  0.00     0.274 C 
ATOM     19  C   UNL d   1       9.635   3.521 -16.334  0.00  0.00     0.137 C 
ATOM     20  N   UNL d   1       9.477   3.360 -14.905  0.00  0.00    -0.343 N 
ATOM     21  C   UNL d   1      10.659   3.600 -14.095  0.00  0.00     0.137 C 
ATOM     22  C   UNL d   1      11.309   4.945 -14.476  0.00  0.00     0.274 C 
BRANCH  20  23
ATOM     23  C   UNL d   1       8.211   3.099 -14.342  0.00  0.00     0.079 A 
ATOM     24  C   UNL d   1       7.636   3.982 -13.395  0.00  0.00     0.110 A 
ATOM     25  C   UNL d   1       6.367   3.666 -12.846  0.00  0.00     0.026 A 
ATOM     26  C   UNL d   1       5.692   2.493 -13.236  0.00  0.00     0.002 A 
ATOM     27  C   UNL d   1       6.262   1.627 -14.185  0.00  0.00     0.002 A 
ATOM     28  C   UNL d   1       7.518   1.935 -14.742  0.00  0.00     0.019 A 
BRANCH  24  29
ATOM     29  O   UNL d   1       8.339   5.124 -13.062  0.00  0.00    -0.327 OA
ATOM     30  C   UNL d   1       7.784   6.004 -12.099  0.00  0.00     0.181 C 
ENDBRANCH  24  29
ENDBRANCH  20  23
ENDBRANCH  16  17
ENDBRANCH  15  16
ENDBRANCH  14  15
ENDBRANCH  13  14
ENDBRANCH  12  13
ENDBRANCH   1  12
TORSDOF 8
