REMARK  4 active torsions:
REMARK  status: ('A' for Active; 'I' for Inactive)
REMARK       I    between atoms: N_10  and  C_11 
REMARK    1  A    between atoms: C_11  and  C_13 
REMARK    2  A    between atoms: C_13  and  C_14 
REMARK    3  A    between atoms: N_17  and  C_18 
REMARK    4  A    between atoms: C_18  and  C_19 
ROOT
ATOM      1  C   UNL d   1       8.746   3.209 -14.371  0.00  0.00     0.013 C 
ATOM      2  C   UNL d   1       7.429   3.958 -14.126  0.00  0.00     0.036 C 
ATOM      3  C   UNL d   1       7.104   4.155 -12.648  0.00  0.00     0.251 C 
ATOM      4  N   UNL d   1       8.214   4.882 -12.029  0.00  0.00     0.141 N 
ATOM      5  C   UNL d   1       9.451   4.109 -12.116  0.00  0.00     0.251 C 
ATOM      6  C   UNL d   1       9.848   3.934 -13.574  0.00  0.00     0.036 C 
ENDROOT
BRANCH   1   7
ATOM      7  C   UNL d   1       9.080   3.131 -15.884  0.00  0.00     0.088 C 
BRANCH   7   8
ATOM      8  C   UNL d   1      10.298   2.244 -16.197  0.00  0.00     0.237 C 
ATOM      9  N   UNL d   1      11.355   2.722 -16.894  0.00  0.00    -0.301 N 
ATOM     10  C   UNL d   1      12.224   1.824 -17.684  0.00  0.00     0.093 A 
ATOM     11  C   UNL d   1      11.900   4.040 -16.887  0.00  0.00     0.058 A 
ATOM     12  C   UNL d   1      11.442   1.070 -18.785  0.00  0.00     0.025 C 
ATOM     13  C   UNL d   1      13.339   2.738 -18.291  0.00  0.00     0.051 A 
ATOM     14  C   UNL d   1      13.057   4.080 -17.671  0.00  0.00    -0.004 A 
ATOM     15  C   UNL d   1      13.827   5.255 -17.823  0.00  0.00    -0.003 A 
ATOM     16  C   UNL d   1      13.409   6.418 -17.134  0.00  0.00    -0.000 A 
ATOM     17  C   UNL d   1      12.244   6.377 -16.332  0.00  0.00     0.002 A 
ATOM     18  C   UNL d   1      11.469   5.204 -16.204  0.00  0.00     0.017 A 
ATOM     19  O   UNL d   1      10.267   1.072 -15.808  0.00  0.00    -0.272 OA
ENDBRANCH   7   8
ENDBRANCH   1   7
BRANCH   4  20
ATOM     20  C   UNL d   1       7.888   5.179 -10.639  0.00  0.00     0.278 C 
BRANCH  20  21
ATOM     21  C   UNL d   1       8.937   6.001  -9.902  0.00  0.00     0.022 A 
ATOM     22  C   UNL d   1       9.511   7.178 -10.455  0.00  0.00     0.058 A 
ATOM     23  C   UNL d   1      10.465   7.900  -9.720  0.00  0.00     0.041 A 
ATOM     24 CL   UNL d   1       9.056   7.812 -11.998  0.00  0.00    -0.083 Cl
ATOM     25  C   UNL d   1      10.839   7.485  -8.430  0.00  0.00     0.141 A 
ATOM     26  C   UNL d   1      10.259   6.335  -7.870  0.00  0.00     0.029 A 
ATOM     27  F   UNL d   1      11.762   8.191  -7.733  0.00  0.00    -0.204 F 
ATOM     28  C   UNL d   1       9.315   5.592  -8.605  0.00  0.00     0.001 A 
ENDBRANCH  20  21
ENDBRANCH   4  20
TORSDOF 4
