REMARK  4 active torsions:
REMARK  status: ('A' for Active; 'I' for Inactive)
REMARK    1  A    between atoms: C_10  and  C_11 
REMARK    2  A    between atoms: C_11  and  C_12 
REMARK    3  A    between atoms: C_12  and  N_13 
REMARK    4  A    between atoms: N_16  and  C_17 
ROOT
ATOM      1  N   UNL d   1       9.118   5.955 -11.064  0.00  0.00     0.141 N 
ATOM      2  C   UNL d   1       8.663   5.551  -9.730  0.00  0.00     0.274 C 
ATOM      3  C   UNL d   1       9.842   5.524  -8.750  0.00  0.00     0.137 C 
ATOM      4  N   UNL d   1      10.522   6.816  -8.735  0.00  0.00    -0.344 N 
ATOM      5  C   UNL d   1      10.904   7.340 -10.042  0.00  0.00     0.137 C 
ATOM      6  C   UNL d   1       9.696   7.304 -10.998  0.00  0.00     0.274 C 
ENDROOT
BRANCH   1   7
ATOM      7  C   UNL d   1       7.989   5.951 -11.998  0.00  0.00     0.251 C 
BRANCH   7   8
ATOM      8  C   UNL d   1       7.626   4.520 -12.457  0.00  0.00     0.043 C 
BRANCH   8   9
ATOM      9  C   UNL d   1       8.756   3.691 -13.139  0.00  0.00     0.068 A 
ATOM     10  C   UNL d   1       9.710   4.483 -14.049  0.00  0.00     0.173 A 
ATOM     11  O   UNL d   1      10.407   5.422 -13.681  0.00  0.00    -0.291 OA
ATOM     12  C   UNL d   1       9.697   3.888 -15.373  0.00  0.00     0.031 A 
ATOM     13  C   UNL d   1       8.879   2.769 -15.386  0.00  0.00    -0.019 A 
ATOM     14  C   UNL d   1      10.401   4.316 -16.511  0.00  0.00     0.003 A 
ATOM     15  C   UNL d   1       8.727   2.003 -16.558  0.00  0.00    -0.004 A 
ATOM     16  C   UNL d   1       8.232   2.530 -14.045  0.00  0.00     0.034 A 
ATOM     17  C   UNL d   1       9.435   2.415 -17.716  0.00  0.00    -0.000 A 
ATOM     18  C   UNL d   1      10.262   3.564 -17.696  0.00  0.00     0.000 A 
ENDBRANCH   8   9
ENDBRANCH   7   8
ENDBRANCH   1   7
BRANCH   4  19
ATOM     19  C   UNL d   1      10.758   7.513  -7.542  0.00  0.00     0.056 A 
ATOM     20  C   UNL d   1      10.944   6.793  -6.341  0.00  0.00     0.018 A 
ATOM     21  C   UNL d   1      11.164   7.466  -5.128  0.00  0.00     0.013 A 
ATOM     22  C   UNL d   1      11.223   8.867  -5.102  0.00  0.00     0.058 A 
ATOM     23  C   UNL d   1      11.062   9.602  -6.290  0.00  0.00     0.013 A 
ATOM     24 CL   UNL d   1      11.459   9.663  -3.601  0.00  0.00    -0.082 Cl
ATOM     25  C   UNL d   1      10.818   8.928  -7.507  0.00  0.00     0.018 A 
ENDBRANCH   4  19
TORSDOF 4
