REMARK  5 active torsions:
REMARK  status: ('A' for Active; 'I' for Inactive)
REMARK    1  A    between atoms: C_2  and  C_3 
REMARK    2  A    between atoms: C_2  and  C_14 
REMARK    3  A    between atoms: C_3  and  C_4 
REMARK    4  A    between atoms: N_7  and  C_8 
REMARK    5  A    between atoms: C_8  and  C_9 
ROOT
ATOM      1  C   UNL d   1       8.997   3.793 -14.213  0.00  0.00     0.012 C 
ATOM      2  C   UNL d   1       8.981   5.298 -14.356  0.00  0.00     0.036 C 
ATOM      3  C   UNL d   1       8.484   6.015 -13.081  0.00  0.00     0.250 C 
ATOM      4  N   UNL d   1       9.349   5.684 -11.956  0.00  0.00     0.137 N 
ATOM      5  C   UNL d   1       9.267   4.252 -11.718  0.00  0.00     0.250 C 
ATOM      6  C   UNL d   1       9.799   3.514 -12.946  0.00  0.00     0.036 C 
ENDROOT
BRANCH   1   7
ATOM      7  C   UNL d   1       9.641   3.148 -15.459  0.00  0.00     0.069 C 
BRANCH   7   8
ATOM      8  C   UNL d   1       9.485   1.625 -15.546  0.00  0.00     0.173 C 
ATOM      9  O   UNL d   1       8.670   1.044 -14.825  0.00  0.00    -0.291 OA
BRANCH   8  10
ATOM     10  C   UNL d   1      10.274   0.935 -16.591  0.00  0.00     0.035 A 
ATOM     11  C   UNL d   1      11.447   1.506 -17.143  0.00  0.00     0.005 A 
ATOM     12  C   UNL d   1      12.182   0.819 -18.119  0.00  0.00     0.030 A 
ATOM     13  C   UNL d   1      11.765  -0.453 -18.549  0.00  0.00     0.140 A 
ATOM     14  C   UNL d   1      10.604  -1.033 -18.004  0.00  0.00     0.030 A 
ATOM     15  F   UNL d   1      12.499  -1.117 -19.470  0.00  0.00    -0.204 F 
ATOM     16  C   UNL d   1       9.871  -0.352 -17.015  0.00  0.00     0.005 A 
ENDBRANCH   8  10
ENDBRANCH   7   8
ENDBRANCH   1   7
BRANCH   4  17
ATOM     17  C   UNL d   1       8.885   6.402 -10.771  0.00  0.00     0.250 C 
BRANCH  17  18
ATOM     18  C   UNL d   1       9.956   6.427  -9.697  0.00  0.00     0.033 A 
ATOM     19  C   UNL d   1       9.665   7.122  -8.384  0.00  0.00     0.002 A 
ATOM     20  C   UNL d   1       9.811   5.625  -8.426  0.00  0.00     0.002 A 
ENDBRANCH  17  18
ENDBRANCH   4  17
TORSDOF 5
