REMARK  3 active torsions:
REMARK  status: ('A' for Active; 'I' for Inactive)
REMARK    1  A    between atoms: C_5  and  N_6 
REMARK    2  A    between atoms: N_9  and  C_10 
REMARK    3  A    between atoms: C_10  and  C_11 
ROOT
ATOM      1  N   UNL d   1      10.582   6.971  -8.722  0.00  0.00    -0.344 N 
ATOM      2  C   UNL d   1      11.009   7.613  -9.959  0.00  0.00     0.137 C 
ATOM      3  C   UNL d   1       9.818   7.703 -10.925  0.00  0.00     0.275 C 
ATOM      4  N   UNL d   1       9.264   6.362 -11.172  0.00  0.00     0.145 N 
ATOM      5  C   UNL d   1       8.784   5.772  -9.910  0.00  0.00     0.275 C 
ATOM      6  C   UNL d   1       9.914   5.679  -8.878  0.00  0.00     0.137 C 
ENDROOT
BRANCH   4   7
ATOM      7  C   UNL d   1       8.164   6.506 -12.120  0.00  0.00     0.278 C 
BRANCH   7   8
ATOM      8  C   UNL d   1       7.618   5.202 -12.660  0.00  0.00     0.029 A 
ATOM      9  C   UNL d   1       8.399   4.420 -13.548  0.00  0.00     0.082 A 
ATOM     10  N   UNL d   1       7.851   3.218 -14.035  0.00  0.00    -0.229 N 
ATOM     11  C   UNL d   1       9.638   4.525 -14.118  0.00  0.00     0.041 A 
ATOM     12  C   UNL d   1       6.605   2.788 -13.691  0.00  0.00     0.100 A 
ATOM     13  N   UNL d   1       8.723   2.564 -14.869  0.00  0.00    -0.164 NA
ATOM     14  C   UNL d   1       5.853   3.539 -12.813  0.00  0.00     0.021 A 
ATOM     15  C   UNL d   1       6.362   4.761 -12.296  0.00  0.00     0.001 A 
ATOM     16  C   UNL d   1       9.777   3.350 -14.894  0.00  0.00     0.122 A 
ENDBRANCH   7   8
ENDBRANCH   4   7
BRANCH   1  17
ATOM     17  C   UNL d   1      10.864   7.531  -7.466  0.00  0.00     0.056 A 
ATOM     18  C   UNL d   1      10.840   8.934  -7.258  0.00  0.00     0.018 A 
ATOM     19  C   UNL d   1      11.118   9.468  -5.981  0.00  0.00     0.013 A 
ATOM     20  C   UNL d   1      11.431   8.622  -4.905  0.00  0.00     0.058 A 
ATOM     21 CL   UNL d   1      11.836   9.268  -3.366  0.00  0.00    -0.082 Cl
ATOM     22  C   UNL d   1      11.427   7.229  -5.096  0.00  0.00     0.013 A 
ATOM     23  C   UNL d   1      11.175   6.693  -6.374  0.00  0.00     0.018 A 
ENDBRANCH   1  17
TORSDOF 3
