REMARK  8 active torsions:
REMARK  status: ('A' for Active; 'I' for Inactive)
REMARK    1  A    between atoms: C_3  and  S_4 
REMARK    2  A    between atoms: S_4  and  C_5 
REMARK    3  A    between atoms: C_5  and  C_6 
REMARK    4  A    between atoms: C_6  and  C_7 
REMARK    5  A    between atoms: C_7  and  N_8 
REMARK    6  A    between atoms: C_13  and  C_14 
REMARK    7  A    between atoms: C_17  and  C_18 
REMARK    8  A    between atoms: C_27  and  C_28 
ROOT
ATOM      1  N   UNL d   1       6.402  -0.895 -18.467  0.00  0.00     0.137 N 
ATOM      2  C   UNL d   1       5.603  -2.101 -18.485  0.00  0.00     0.250 C 
ATOM      3  C   UNL d   1       5.285  -2.309 -17.000  0.00  0.00     0.038 C 
ATOM      4  C   UNL d   1       5.400  -0.949 -16.373  0.00  0.00     0.037 A 
ATOM      5  C   UNL d   1       4.522  -0.534 -15.206  0.00  0.00     0.007 A 
ATOM      6  C   UNL d   1       5.998  -0.711 -14.989  0.00  0.00     0.024 A 
ATOM      7  C   UNL d   1       5.711  -0.026 -17.528  0.00  0.00     0.251 C 
ENDROOT
BRANCH   1   8
ATOM      8  C   UNL d   1       6.534  -0.293 -19.785  0.00  0.00     0.251 C 
BRANCH   8   9
ATOM      9  C   UNL d   1       7.433   0.957 -19.734  0.00  0.00     0.047 C 
BRANCH   9  10
ATOM     10  C   UNL d   1       7.904   1.408 -21.132  0.00  0.00     0.067 C 
BRANCH  10  11
ATOM     11  S   UNL d   1       8.320   3.176 -21.215  0.00  0.00    -0.075 SA
BRANCH  11  12
ATOM     12  C   UNL d   1       9.696   3.247 -20.108  0.00  0.00     0.193 A 
ATOM     13  N   UNL d   1      10.162   4.410 -19.609  0.00  0.00    -0.289 N 
ATOM     14  C   UNL d   1       9.704   5.762 -19.901  0.00  0.00     0.134 C 
ATOM     15  C   UNL d   1      11.160   3.985 -18.788  0.00  0.00     0.169 A 
ATOM     16  N   UNL d   1      11.309   2.658 -18.806  0.00  0.00    -0.128 NA
ATOM     17  N   UNL d   1      10.373   2.179 -19.685  0.00  0.00    -0.122 NA
BRANCH  15  18
ATOM     18  C   UNL d   1      12.027   4.820 -17.966  0.00  0.00     0.059 A 
ATOM     19  C   UNL d   1      13.369   4.444 -17.717  0.00  0.00     0.125 A 
ATOM     20  N   UNL d   1      14.213   5.197 -16.975  0.00  0.00    -0.146 NA
ATOM     21  N   UNL d   1      13.794   6.350 -16.441  0.00  0.00    -0.146 NA
ATOM     22  C   UNL d   1      12.519   6.759 -16.626  0.00  0.00     0.122 A 
ATOM     23  C   UNL d   1      11.588   6.022 -17.378  0.00  0.00     0.027 A 
ENDBRANCH  15  18
ENDBRANCH  11  12
ENDBRANCH  10  11
ENDBRANCH   9  10
ENDBRANCH   8   9
ENDBRANCH   1   8
BRANCH   6  24
ATOM     24  C   UNL d   1       6.917   0.460 -14.758  0.00  0.00    -0.022 A 
ATOM     25  C   UNL d   1       8.247   0.457 -15.244  0.00  0.00    -0.004 A 
ATOM     26  C   UNL d   1       9.065   1.591 -15.097  0.00  0.00     0.004 A 
ATOM     27  C   UNL d   1       8.571   2.756 -14.474  0.00  0.00     0.071 A 
ATOM     28  C   UNL d   1       7.229   2.772 -14.036  0.00  0.00     0.004 A 
ATOM     29  C   UNL d   1       6.427   1.634 -14.147  0.00  0.00    -0.004 A 
BRANCH  27  30
ATOM     30  C   UNL d   1       9.460   3.974 -14.296  0.00  0.00     0.419 C 
ATOM     31  F   UNL d   1       8.870   4.912 -13.556  0.00  0.00    -0.166 F 
ATOM     32  F   UNL d   1      10.600   3.624 -13.696  0.00  0.00    -0.166 F 
ATOM     33  F   UNL d   1       9.746   4.497 -15.488  0.00  0.00    -0.166 F 
ENDBRANCH  27  30
ENDBRANCH   6  24
TORSDOF 8
