REMARK  7 active torsions:
REMARK  status: ('A' for Active; 'I' for Inactive)
REMARK    1  A    between atoms: C_6  and  S_7 
REMARK    2  A    between atoms: S_7  and  N_10 
REMARK    3  A    between atoms: N_10  and  C_11 
REMARK    4  A    between atoms: N_14  and  C_15 
REMARK    5  A    between atoms: C_15  and  C_16 
REMARK    6  A    between atoms: C_16  and  C_17 
REMARK    7  A    between atoms: C_17  and  C_18 
ROOT
ATOM      1  C   UNL d   1       9.727   6.068  -9.277  0.00  0.00     0.151 C 
ATOM      2  C   UNL d   1       8.549   5.134  -9.023  0.00  0.00     0.063 C 
ATOM      3  C   UNL d   1       7.885   4.985 -10.393  0.00  0.00     0.252 C 
ATOM      4  N   UNL d   1       8.964   5.242 -11.335  0.00  0.00     0.139 N 
ATOM      5  C   UNL d   1       9.638   6.399 -10.768  0.00  0.00     0.275 C 
ENDROOT
BRANCH   4   6
ATOM      6  C   UNL d   1       8.461   5.510 -12.682  0.00  0.00     0.251 C 
BRANCH   6   7
ATOM      7  C   UNL d   1       8.120   4.196 -13.416  0.00  0.00     0.042 C 
BRANCH   7   8
ATOM      8  C   UNL d   1       9.283   3.182 -13.514  0.00  0.00     0.050 C 
BRANCH   8   9
ATOM      9  C   UNL d   1      10.431   3.635 -14.381  0.00  0.00     0.088 A 
ATOM     10  C   UNL d   1      10.950   3.095 -15.579  0.00  0.00     0.041 A 
ATOM     11  C   UNL d   1      12.041   3.864 -15.990  0.00  0.00     0.126 A 
ATOM     12  C   UNL d   1      10.566   1.972 -16.344  0.00  0.00     0.003 A 
ATOM     13  O   UNL d   1      12.179   4.850 -15.030  0.00  0.00    -0.211 OA
ATOM     14  C   UNL d   1      12.782   3.587 -17.146  0.00  0.00     0.027 A 
ATOM     15  N   UNL d   1      11.184   4.679 -14.030  0.00  0.00    -0.131 NA
ATOM     16  C   UNL d   1      12.402   2.467 -17.913  0.00  0.00     0.002 A 
ATOM     17  C   UNL d   1      11.304   1.664 -17.513  0.00  0.00     0.000 A 
ENDBRANCH   8   9
ENDBRANCH   7   8
ENDBRANCH   6   7
ENDBRANCH   4   6
BRANCH   1  18
ATOM     18  N   UNL d   1       9.641   7.285  -8.475  0.00  0.00    -0.185 NA
BRANCH  18  19
ATOM     19  S   UNL d   1      10.999   8.346  -8.409  0.00  0.00     0.281 S 
ATOM     20  O   UNL d   1      10.640   9.575  -9.133  0.00  0.00    -0.199 OA
ATOM     21  O   UNL d   1      12.196   7.595  -8.795  0.00  0.00    -0.199 OA
BRANCH  19  22
ATOM     22  C   UNL d   1      11.139   8.666  -6.656  0.00  0.00     0.105 A 
ATOM     23  C   UNL d   1      11.048   9.982  -6.179  0.00  0.00     0.013 A 
ATOM     24  C   UNL d   1      11.121  10.222  -4.804  0.00  0.00     0.000 A 
ATOM     25  C   UNL d   1      11.397   9.187  -3.898  0.00  0.00    -0.004 A 
ATOM     26  C   UNL d   1      11.496   7.864  -4.374  0.00  0.00    -0.021 A 
ATOM     27  C   UNL d   1      11.698   6.740  -3.386  0.00  0.00     0.031 C 
ATOM     28  C   UNL d   1      11.358   7.598  -5.756  0.00  0.00     0.009 A 
ENDBRANCH  19  22
ENDBRANCH  18  19
ENDBRANCH   1  18
TORSDOF 7
