REMARK  6 active torsions:
REMARK  status: ('A' for Active; 'I' for Inactive)
REMARK    1  A    between atoms: C_5  and  C_6 
REMARK    2  A    between atoms: N_14  and  C_15 
REMARK    3  A    between atoms: C_15  and  C_16 
REMARK    4  A    between atoms: C_18  and  C_19 
REMARK    5  A    between atoms: C_19  and  N_20 
REMARK       I    between atoms: N_20  and  C_21 
REMARK    6  A    between atoms: C_21  and  C_23 
ROOT
ATOM      1  C   UNL d   1       8.909   6.409 -11.247  0.00  0.00     0.035 A 
ATOM      2  C   UNL d   1      10.075   7.285 -10.836  0.00  0.00     0.004 A 
ATOM      3  C   UNL d   1       9.229   6.673  -9.782  0.00  0.00     0.026 A 
ENDROOT
BRANCH   1   4
ATOM      4  C   UNL d   1       9.157   5.033 -11.788  0.00  0.00     0.250 C 
BRANCH   4   5
ATOM      5  N   UNL d   1       8.391   4.634 -12.950  0.00  0.00     0.140 N 
ATOM      6  C   UNL d   1       7.048   4.122 -12.606  0.00  0.00     0.249 C 
ATOM      7  C   UNL d   1       6.134   5.129 -11.888  0.00  0.00     0.038 C 
ATOM      8  C   UNL d   1       6.338   3.545 -13.832  0.00  0.00     0.176 C 
ATOM      9  O   UNL d   1       7.165   2.596 -14.517  0.00  0.00    -0.348 OA
ATOM     10  C   UNL d   1       8.466   3.099 -14.848  0.00  0.00     0.172 C 
ATOM     11  C   UNL d   1       9.173   3.600 -13.613  0.00  0.00     0.284 C 
BRANCH  10  12
ATOM     12  C   UNL d   1       9.280   2.122 -15.630  0.00  0.00     0.026 A 
ATOM     13  C   UNL d   1       9.970   2.517 -16.795  0.00  0.00     0.098 A 
ATOM     14  N   UNL d   1      10.719   1.678 -17.523  0.00  0.00    -0.230 NA
ATOM     15  C   UNL d   1      10.788   0.398 -17.105  0.00  0.00     0.151 A 
ATOM     16  C   UNL d   1      10.177  -0.077 -15.924  0.00  0.00     0.033 A 
ATOM     17  N   UNL d   1      11.460  -0.469 -17.950  0.00  0.00    -0.080 NA
ATOM     18  C   UNL d   1       9.385   0.805 -15.174  0.00  0.00     0.002 A 
ENDBRANCH  10  12
ENDBRANCH   4   5
ENDBRANCH   1   4
BRANCH   3  19
ATOM     19  C   UNL d   1       9.839   5.649  -8.872  0.00  0.00     0.129 C 
BRANCH  19  20
ATOM     20  N   UNL d   1      10.395   6.149  -7.619  0.00  0.00    -0.233 NA
ATOM     21  C   UNL d   1      10.585   7.405  -7.171  0.00  0.00     0.293 C 
ATOM     22  O   UNL d   1      10.395   8.455  -7.791  0.00  0.00    -0.264 OA
BRANCH  21  23
ATOM     23  C   UNL d   1      11.035   7.501  -5.798  0.00  0.00     0.139 A 
ATOM     24  N   UNL d   1      11.025   8.752  -5.243  0.00  0.00    -0.241 NA
ATOM     25  C   UNL d   1      11.565   8.694  -3.989  0.00  0.00     0.082 A 
ATOM     26  C   UNL d   1      11.887   7.331  -3.759  0.00  0.00     0.019 A 
ATOM     27  C   UNL d   1      11.766   9.672  -3.017  0.00  0.00     0.019 A 
ATOM     28  C   UNL d   1      11.571   6.617  -4.922  0.00  0.00     0.025 A 
ATOM     29  C   UNL d   1      12.451   6.960  -2.529  0.00  0.00     0.002 A 
ATOM     30  C   UNL d   1      12.656   7.947  -1.567  0.00  0.00     0.000 A 
ATOM     31  C   UNL d   1      12.267   9.263  -1.802  0.00  0.00     0.002 A 
ENDBRANCH  21  23
ENDBRANCH  19  20
ENDBRANCH   3  19
TORSDOF 6
