REMARK  1 active torsions:
REMARK  status: ('A' for Active; 'I' for Inactive)
REMARK    1  A    between atoms: C_13  and  C_14 
ROOT
ATOM      1  C   UNL d   1       5.913   8.157 -12.443  0.00  0.00     0.285 C 
ATOM      2  N   UNL d   1       6.587   6.865 -12.264  0.00  0.00     0.140 N 
ATOM      3  C   UNL d   1       5.660   5.835 -12.633  0.00  0.00     0.255 C 
ATOM      4  C   UNL d   1       5.949   4.422 -12.247  0.00  0.00     0.061 C 
ATOM      5  C   UNL d   1       7.096   3.839 -13.037  0.00  0.00    -0.023 A 
ATOM      6  C   UNL d   1       6.818   2.646 -13.731  0.00  0.00     0.004 A 
ATOM      7  C   UNL d   1       7.820   2.004 -14.466  0.00  0.00     0.060 A 
ATOM      8 BR   UNL d   1       7.409   0.364 -15.327  0.00  0.00    -0.047 Br
ATOM      9  C   UNL d   1       9.108   2.556 -14.568  0.00  0.00     0.137 A 
ATOM     10  O   UNL d   1      10.071   1.945 -15.315  0.00  0.00    -0.190 OA
ATOM     11  C   UNL d   1       9.392   3.759 -13.891  0.00  0.00     0.024 A 
ATOM     12  C   UNL d   1       8.405   4.400 -13.110  0.00  0.00    -0.018 A 
ATOM     13  C   UNL d   1       8.808   5.716 -12.438  0.00  0.00     0.078 C 
ATOM     14  C   UNL d   1       7.913   6.882 -12.844  0.00  0.00     0.259 C 
ENDROOT
BRANCH  13  15
ATOM     15  C   UNL d   1       9.135   5.675 -10.944  0.00  0.00    -0.017 A 
ATOM     16  C   UNL d   1       8.494   4.784 -10.071  0.00  0.00    -0.004 A 
ATOM     17  C   UNL d   1       8.748   4.778  -8.692  0.00  0.00    -0.000 A 
ATOM     18  C   UNL d   1       9.690   5.656  -8.158  0.00  0.00    -0.000 A 
ATOM     19  C   UNL d   1      10.385   6.537  -9.014  0.00  0.00    -0.000 A 
ATOM     20  C   UNL d   1      10.075   6.562 -10.398  0.00  0.00    -0.004 A 
ENDBRANCH  13  15
TORSDOF 1
