REMARK  7 active torsions:
REMARK  status: ('A' for Active; 'I' for Inactive)
REMARK    1  A    between atoms: C_2  and  C_3 
REMARK    2  A    between atoms: C_3  and  C_5 
REMARK    3  A    between atoms: C_5  and  O_7 
REMARK    4  A    between atoms: O_7  and  C_8 
REMARK    5  A    between atoms: C_17  and  C_18 
REMARK    6  A    between atoms: C_18  and  C_19 
REMARK    7  A    between atoms: C_19  and  C_20 
ROOT
ATOM      1  C   UNL d   1       6.553   0.597 -18.628  0.00  0.00     0.129 C 
ATOM      2  C   UNL d   1       5.485   0.517 -19.715  0.00  0.00     0.035 C 
ATOM      3  C   UNL d   1       4.955  -0.918 -19.869  0.00  0.00     0.028 C 
ATOM      4  C   UNL d   1       4.736  -1.603 -18.527  0.00  0.00    -0.030 C 
ATOM      5  C   UNL d   1       5.196  -1.156 -17.355  0.00  0.00    -0.025 C 
ATOM      6  C   UNL d   1       4.908  -1.866 -16.126  0.00  0.00    -0.009 C 
ATOM      7  C   UNL d   1       5.425  -1.508 -14.943  0.00  0.00    -0.027 C 
ATOM      8  C   UNL d   1       6.440  -0.385 -14.766  0.00  0.00     0.022 C 
ATOM      9  C   UNL d   1       5.780   0.771 -14.012  0.00  0.00     0.005 C 
ATOM     10  C   UNL d   1       7.084   0.009 -16.125  0.00  0.00     0.011 C 
ATOM     11  C   UNL d   1       6.038   0.141 -17.264  0.00  0.00     0.050 C 
ENDROOT
BRANCH  10  12
ATOM     12  C   UNL d   1       7.978   1.257 -16.009  0.00  0.00     0.003 C 
BRANCH  12  13
ATOM     13  C   UNL d   1       9.178   1.050 -15.067  0.00  0.00     0.030 C 
BRANCH  13  14
ATOM     14  C   UNL d   1      10.105   2.281 -15.004  0.00  0.00     0.127 C 
ATOM     15  O   UNL d   1      10.629   2.561 -16.307  0.00  0.00    -0.304 OA
ATOM     16  C   UNL d   1      11.139   3.757 -16.697  0.00  0.00     0.274 C 
ATOM     17  C   UNL d   1      10.766   4.988 -15.865  0.00  0.00     0.129 C 
ATOM     18  O   UNL d   1      11.818   3.891 -17.720  0.00  0.00    -0.264 OA
ATOM     19  C   UNL d   1      10.364   4.694 -14.413  0.00  0.00     0.165 C 
ATOM     20  C   UNL d   1       9.424   3.501 -14.357  0.00  0.00     0.064 C 
ATOM     21  O   UNL d   1      11.521   4.450 -13.637  0.00  0.00    -0.223 OA
ENDBRANCH  13  14
ENDBRANCH  12  13
ENDBRANCH  10  12
BRANCH   1  22
ATOM     22  O   UNL d   1       7.656  -0.209 -19.037  0.00  0.00    -0.304 OA
BRANCH  22  23
ATOM     23  C   UNL d   1       8.834   0.331 -19.403  0.00  0.00     0.271 C 
ATOM     24  O   UNL d   1       9.095   1.541 -19.446  0.00  0.00    -0.264 OA
BRANCH  23  25
ATOM     25  C   UNL d   1       9.856  -0.744 -19.814  0.00  0.00     0.086 C 
ATOM     26  C   UNL d   1       9.480  -1.202 -21.235  0.00  0.00     0.010 C 
BRANCH  25  27
ATOM     27  C   UNL d   1      11.327  -0.267 -19.741  0.00  0.00     0.010 C 
ATOM     28  C   UNL d   1      11.817   0.026 -18.319  0.00  0.00     0.001 C 
ENDBRANCH  25  27
ENDBRANCH  23  25
ENDBRANCH  22  23
ENDBRANCH   1  22
TORSDOF 7
