REMARK  8 active torsions:
REMARK  status: ('A' for Active; 'I' for Inactive)
REMARK    1  A    between atoms: C_2  and  C_3 
REMARK    2  A    between atoms: C_7  and  N_8 
REMARK    3  A    between atoms: N_11  and  C_12 
REMARK    4  A    between atoms: C_12  and  C_13 
REMARK    5  A    between atoms: C_13  and  C_14 
REMARK    6  A    between atoms: C_14  and  C_15 
REMARK    7  A    between atoms: C_15  and  N_16 
REMARK       I    between atoms: N_16  and  C_17 
REMARK    8  A    between atoms: C_17  and  C_19 
ROOT
ATOM      1  N   UNL d   1      10.672   9.203  -6.738  0.00  0.00    -0.344 N 
ATOM      2  C   UNL d   1      11.706   9.420  -7.722  0.00  0.00     0.137 C 
ATOM      3  C   UNL d   1      11.657   8.351  -8.825  0.00  0.00     0.274 C 
ATOM      4  N   UNL d   1      10.281   8.239  -9.357  0.00  0.00     0.141 N 
ATOM      5  C   UNL d   1       9.420   7.786  -8.262  0.00  0.00     0.274 C 
ATOM      6  C   UNL d   1       9.346   8.882  -7.206  0.00  0.00     0.137 C 
ENDROOT
BRANCH   4   7
ATOM      7  C   UNL d   1      10.312   7.246 -10.417  0.00  0.00     0.251 C 
BRANCH   7   8
ATOM      8  C   UNL d   1       8.979   7.035 -11.152  0.00  0.00     0.037 C 
BRANCH   8   9
ATOM      9  C   UNL d   1       8.992   6.062 -12.318  0.00  0.00     0.029 C 
BRANCH   9  10
ATOM     10  C   UNL d   1       9.222   4.601 -11.829  0.00  0.00     0.129 C 
BRANCH  10  11
ATOM     11  N   UNL d   1       9.531   3.687 -12.914  0.00  0.00    -0.232 NA
ATOM     12  C   UNL d   1      10.590   3.798 -13.736  0.00  0.00     0.311 C 
ATOM     13  O   UNL d   1      11.436   4.689 -13.650  0.00  0.00    -0.262 OA
BRANCH  12  14
ATOM     14  C   UNL d   1      10.686   2.782 -14.810  0.00  0.00     0.221 A 
ATOM     15  N   UNL d   1       9.997   1.634 -14.770  0.00  0.00    -0.226 NA
ATOM     16  C   UNL d   1      10.321   0.912 -15.902  0.00  0.00     0.080 A 
ATOM     17  C   UNL d   1      11.224   1.685 -16.594  0.00  0.00     0.116 A 
ATOM     18  C   UNL d   1       9.762  -0.429 -16.183  0.00  0.00     0.054 C 
ATOM     19  N   UNL d   1      11.454   2.863 -15.894  0.00  0.00    -0.220 NA
ENDBRANCH  12  14
ENDBRANCH  10  11
ENDBRANCH   9  10
ENDBRANCH   8   9
ENDBRANCH   7   8
ENDBRANCH   4   7
BRANCH   1  20
ATOM     20  C   UNL d   1      11.030   9.044  -5.415  0.00  0.00     0.067 A 
ATOM     21  C   UNL d   1      11.191  10.190  -4.649  0.00  0.00     0.018 A 
ATOM     22  C   UNL d   1      11.629  10.076  -3.322  0.00  0.00     0.001 A 
ATOM     23  C   UNL d   1      11.841   8.862  -2.704  0.00  0.00    -0.003 A 
ATOM     24  C   UNL d   1      11.604   7.686  -3.440  0.00  0.00    -0.010 A 
ATOM     25  C   UNL d   1      11.267   7.771  -4.816  0.00  0.00     0.069 A 
ATOM     26 CL   UNL d   1      11.070   6.378  -5.801  0.00  0.00    -0.081 Cl
BRANCH  24  27
ATOM     27  C   UNL d   1      11.575   6.396  -2.668  0.00  0.00     0.027 C 
ATOM     28  C   UNL d   1      12.850   6.221  -1.924  0.00  0.00     0.005 C 
ENDBRANCH  24  27
ENDBRANCH   1  20
TORSDOF 8
