REMARK  4 active torsions:
REMARK  status: ('A' for Active; 'I' for Inactive)
REMARK    1  A    between atoms: C_2  and  C_3 
REMARK    2  A    between atoms: N_12  and  C_13 
REMARK    3  A    between atoms: C_13  and  C_14 
REMARK    4  A    between atoms: C_15  and  C_16 
ROOT
ATOM      1  O   UNL d   1      12.676   8.153  -8.373  0.00  0.00    -0.221 OA
ATOM      2  C   UNL d   1      11.387   7.999  -7.809  0.00  0.00     0.149 C 
ATOM      3  C   UNL d   1      10.541   9.157  -8.306  0.00  0.00     0.070 C 
ATOM      4  C   UNL d   1      10.274   9.107  -9.808  0.00  0.00     0.254 C 
ATOM      5  N   UNL d   1       9.670   7.835 -10.188  0.00  0.00     0.150 N 
ATOM      6  C   UNL d   1      10.557   6.723  -9.847  0.00  0.00     0.254 C 
ATOM      7  C   UNL d   1      10.768   6.701  -8.332  0.00  0.00     0.070 C 
ENDROOT
BRANCH   5   8
ATOM      8  C   UNL d   1       9.281   7.893 -11.600  0.00  0.00     0.326 C 
BRANCH   8   9
ATOM      9  C   UNL d   1       8.551   6.696 -12.052  0.00  0.00    -0.051 C 
ATOM     10  C   UNL d   1       7.994   5.668 -12.402  0.00  0.00    -0.062 C 
BRANCH  10  11
ATOM     11  C   UNL d   1       7.342   4.436 -12.815  0.00  0.00     0.042 A 
ATOM     12  C   UNL d   1       7.878   3.665 -13.869  0.00  0.00     0.011 A 
ATOM     13  C   UNL d   1       7.220   2.491 -14.295  0.00  0.00     0.030 A 
ATOM     14  C   UNL d   1       6.048   2.071 -13.648  0.00  0.00     0.140 A 
ATOM     15  C   UNL d   1       5.511   2.835 -12.588  0.00  0.00     0.030 A 
ATOM     16  F   UNL d   1       5.457   0.909 -14.011  0.00  0.00    -0.204 F 
ATOM     17  C   UNL d   1       6.161   4.011 -12.172  0.00  0.00     0.011 A 
ENDBRANCH  10  11
ENDBRANCH   8   9
ENDBRANCH   5   8
BRANCH   2  18
ATOM     18  C   UNL d   1      11.466   8.016  -6.271  0.00  0.00     0.005 A 
ATOM     19  C   UNL d   1      11.795   9.216  -5.585  0.00  0.00    -0.001 A 
ATOM     20  C   UNL d   1      11.981   9.209  -4.187  0.00  0.00     0.011 A 
ATOM     21  C   UNL d   1      11.905   8.006  -3.470  0.00  0.00     0.058 A 
ATOM     22  C   UNL d   1      11.570   6.813  -4.124  0.00  0.00     0.011 A 
ATOM     23 CL   UNL d   1      12.324   7.994  -1.804  0.00  0.00    -0.082 Cl
ATOM     24  C   UNL d   1      11.364   6.819  -5.516  0.00  0.00    -0.001 A 
ENDBRANCH   2  18
TORSDOF 4
