REMARK  4 active torsions:
REMARK  status: ('A' for Active; 'I' for Inactive)
REMARK    1  A    between atoms: C_2  and  C_3 
REMARK    2  A    between atoms: C_3  and  S_4 
REMARK    3  A    between atoms: S_4  and  C_5 
REMARK    4  A    between atoms: C_8  and  C_9 
ROOT
ATOM      1  C   UNL d   1       9.102   6.637 -11.566  0.00  0.00     0.193 A 
ATOM      2  N   UNL d   1       9.354   7.886 -11.947  0.00  0.00    -0.122 NA
ATOM      3  N   UNL d   1       9.860   8.502 -10.824  0.00  0.00    -0.128 NA
ATOM      4  C   UNL d   1       9.858   7.586  -9.850  0.00  0.00     0.167 A 
ATOM      5  N   UNL d   1       9.422   6.377 -10.282  0.00  0.00    -0.289 N 
ATOM      6  C   UNL d   1       9.286   5.118  -9.563  0.00  0.00     0.134 C 
ENDROOT
BRANCH   4   7
ATOM      7  C   UNL d   1      10.308   7.899  -8.492  0.00  0.00     0.036 A 
ATOM      8  C   UNL d   1      11.416   8.756  -8.293  0.00  0.00     0.003 A 
ATOM      9  C   UNL d   1      11.854   9.057  -6.987  0.00  0.00     0.000 A 
ATOM     10  C   UNL d   1      11.206   8.487  -5.875  0.00  0.00     0.000 A 
ATOM     11  C   UNL d   1      10.112   7.626  -6.072  0.00  0.00     0.000 A 
ATOM     12  C   UNL d   1       9.645   7.357  -7.368  0.00  0.00     0.003 A 
ENDBRANCH   4   7
BRANCH   1  13
ATOM     13  S   UNL d   1       8.438   5.414 -12.639  0.00  0.00    -0.076 SA
BRANCH  13  14
ATOM     14  C   UNL d   1       6.723   5.490 -12.051  0.00  0.00     0.065 C 
BRANCH  14  15
ATOM     15  C   UNL d   1       6.040   4.120 -12.142  0.00  0.00     0.012 C 
ATOM     16  C   UNL d   1       5.866   3.622 -13.583  0.00  0.00     0.001 C 
ENDBRANCH  14  15
ENDBRANCH  13  14
ENDBRANCH   1  13
TORSDOF 4
