REMARK  7 active torsions:
REMARK  status: ('A' for Active; 'I' for Inactive)
REMARK    1  A    between atoms: C_2  and  C_3 
REMARK    2  A    between atoms: C_3  and  C_5 
REMARK       I    between atoms: C_5  and  N_7 
REMARK    3  A    between atoms: N_7  and  C_8 
REMARK    4  A    between atoms: C_11  and  C_12 
REMARK    5  A    between atoms: C_12  and  C_13 
REMARK    6  A    between atoms: C_13  and  N_14 
REMARK    7  A    between atoms: C_17  and  C_18 
ROOT
ATOM      1  N   UNL d   1       9.547   7.091  -9.994  0.00  0.00     0.137 N 
ATOM      2  C   UNL d   1      11.003   7.155  -9.877  0.00  0.00     0.251 C 
ATOM      3  C   UNL d   1      11.404   7.938  -8.643  0.00  0.00     0.040 C 
ATOM      4  C   UNL d   1      10.784   7.309  -7.374  0.00  0.00     0.026 C 
ATOM      5  C   UNL d   1       9.278   7.093  -7.564  0.00  0.00     0.040 C 
ATOM      6  C   UNL d   1       9.017   6.322  -8.858  0.00  0.00     0.251 C 
ENDROOT
BRANCH   1   7
ATOM      7  C   UNL d   1       9.271   6.401 -11.256  0.00  0.00     0.250 C 
BRANCH   7   8
ATOM      8  C   UNL d   1       7.773   6.370 -11.635  0.00  0.00     0.035 C 
BRANCH   8   9
ATOM      9  C   UNL d   1       7.374   5.329 -12.698  0.00  0.00     0.002 C 
ATOM     10  C   UNL d   1       8.275   4.084 -12.669  0.00  0.00     0.002 C 
ATOM     11  C   UNL d   1       7.825   3.038 -13.685  0.00  0.00     0.024 C 
ATOM     12  C   UNL d   1       6.371   2.644 -13.439  0.00  0.00     0.106 C 
ATOM     13  C   UNL d   1       5.442   3.866 -13.521  0.00  0.00     0.024 C 
ATOM     14  C   UNL d   1       5.888   4.943 -12.515  0.00  0.00     0.002 C 
BRANCH  12  15
ATOM     15  N   UNL d   1       6.024   1.628 -14.434  0.00  0.00    -0.240 NA
ATOM     16  C   UNL d   1       5.435   0.462 -14.195  0.00  0.00     0.251 C 
ATOM     17  O   UNL d   1       5.316  -0.008 -13.049  0.00  0.00    -0.271 OA
BRANCH  16  18
ATOM     18  C   UNL d   1       4.806  -0.257 -15.393  0.00  0.00     0.081 C 
ATOM     19  C   UNL d   1       3.381  -0.726 -15.056  0.00  0.00     0.010 C 
BRANCH  18  20
ATOM     20  C   UNL d   1       5.713  -1.401 -15.865  0.00  0.00     0.009 C 
ATOM     21  C   UNL d   1       5.212  -2.131 -17.117  0.00  0.00     0.001 C 
ENDBRANCH  18  20
ENDBRANCH  16  18
ENDBRANCH  12  15
ENDBRANCH   8   9
ENDBRANCH   7   8
ENDBRANCH   1   7
BRANCH   4  22
ATOM     22  C   UNL d   1      11.031   8.189  -6.149  0.00  0.00    -0.024 A 
ATOM     23  C   UNL d   1      11.463   7.668  -4.913  0.00  0.00    -0.001 A 
ATOM     24  C   UNL d   1      11.696   8.475  -3.807  0.00  0.00     0.090 A 
ATOM     25  C   UNL d   1      11.770   6.268  -4.550  0.00  0.00     0.061 A 
ATOM     26  C   UNL d   1      11.459   9.851  -3.871  0.00  0.00     0.024 A 
ATOM     27  O   UNL d   1      12.128   7.795  -2.708  0.00  0.00    -0.331 OA
ATOM     28  C   UNL d   1      11.042  10.394  -5.097  0.00  0.00     0.002 A 
ATOM     29  C   UNL d   1      10.804   9.568  -6.223  0.00  0.00    -0.004 A 
ATOM     30  C   UNL d   1      12.133   6.405  -3.046  0.00  0.00     0.154 A 
ENDBRANCH   4  22
TORSDOF 7
