REMARK  7 active torsions:
REMARK  status: ('A' for Active; 'I' for Inactive)
REMARK    1  A    between atoms: C_2  and  C_3 
REMARK       I    between atoms: C_2  and  N_10 
REMARK    2  A    between atoms: C_3  and  C_4 
REMARK    3  A    between atoms: N_10  and  C_11 
REMARK    4  A    between atoms: C_14  and  C_15 
REMARK    5  A    between atoms: C_15  and  C_16 
REMARK    6  A    between atoms: C_16  and  N_17 
REMARK    7  A    between atoms: C_20  and  C_21 
ROOT
ATOM      1  C   UNL d   1       8.267   4.962 -11.668  0.00  0.00     0.035 C 
ENDROOT
BRANCH   1   2
ATOM      2  C   UNL d   1       7.697   3.854 -12.562  0.00  0.00     0.002 C 
ATOM      3  C   UNL d   1       6.822   4.489 -13.632  0.00  0.00     0.002 C 
ATOM      4  C   UNL d   1       6.175   3.403 -14.496  0.00  0.00     0.024 C 
ATOM      5  C   UNL d   1       7.255   2.554 -15.201  0.00  0.00     0.106 C 
ATOM      6  C   UNL d   1       8.163   1.906 -14.179  0.00  0.00     0.024 C 
ATOM      7  C   UNL d   1       8.794   2.985 -13.259  0.00  0.00     0.002 C 
BRANCH   5   8
ATOM      8  N   UNL d   1       6.687   1.548 -16.065  0.00  0.00    -0.240 NA
ATOM      9  C   UNL d   1       6.883   1.373 -17.383  0.00  0.00     0.254 C 
ATOM     10  O   UNL d   1       7.704   2.029 -18.033  0.00  0.00    -0.271 OA
BRANCH   9  11
ATOM     11  C   UNL d   1       6.003   0.347 -18.074  0.00  0.00     0.122 C 
BRANCH  11  12
ATOM     12  C   UNL d   1       5.572   0.733 -19.514  0.00  0.00     0.154 C 
ATOM     13  O   UNL d   1       4.328   0.118 -19.830  0.00  0.00    -0.351 OA
ATOM     14  C   UNL d   1       4.417  -1.303 -19.862  0.00  0.00     0.174 C 
ATOM     15  C   UNL d   1       5.478  -1.705 -20.900  0.00  0.00     0.174 C 
ATOM     16  O   UNL d   1       6.721  -1.085 -20.592  0.00  0.00    -0.349 OA
ATOM     17  C   UNL d   1       6.608   0.334 -20.585  0.00  0.00     0.172 C 
ENDBRANCH  11  12
ENDBRANCH   9  11
ENDBRANCH   5   8
ENDBRANCH   1   2
BRANCH   1  18
ATOM     18  C   UNL d   1       8.859   4.427 -10.365  0.00  0.00     0.250 C 
BRANCH  18  19
ATOM     19  N   UNL d   1       9.388   5.481  -9.526  0.00  0.00     0.137 N 
ATOM     20  C   UNL d   1       8.256   6.020  -8.768  0.00  0.00     0.251 C 
ATOM     21  C   UNL d   1       8.717   7.139  -7.884  0.00  0.00     0.040 C 
ATOM     22  C   UNL d   1       9.726   6.672  -6.828  0.00  0.00     0.026 C 
ATOM     23  C   UNL d   1      10.796   5.857  -7.561  0.00  0.00     0.040 C 
ATOM     24  C   UNL d   1      10.137   4.804  -8.478  0.00  0.00     0.251 C 
BRANCH  22  25
ATOM     25  C   UNL d   1      10.347   7.818  -6.050  0.00  0.00    -0.020 A 
ATOM     26  C   UNL d   1      11.105   7.568  -4.872  0.00  0.00     0.021 A 
ATOM     27  C   UNL d   1      11.630   8.668  -4.168  0.00  0.00     0.100 A 
ATOM     28  C   UNL d   1      11.495   6.453  -4.120  0.00  0.00     0.028 A 
ATOM     29  C   UNL d   1      11.432   9.985  -4.581  0.00  0.00     0.025 A 
ATOM     30  O   UNL d   1      12.304   8.254  -3.043  0.00  0.00    -0.305 OA
ATOM     31  C   UNL d   1      10.761  10.182  -5.781  0.00  0.00     0.002 A 
ATOM     32  C   UNL d   1      10.196   9.159  -6.506  0.00  0.00    -0.004 A 
ATOM     33  C   UNL d   1      12.210   6.885  -3.029  0.00  0.00     0.123 A 
ENDBRANCH  22  25
ENDBRANCH  18  19
ENDBRANCH   1  18
TORSDOF 7
