REMARK  7 active torsions:
REMARK  status: ('A' for Active; 'I' for Inactive)
REMARK    1  A    between atoms: C_8  and  O_9 
REMARK    2  A    between atoms: O_9  and  C_10 
REMARK    3  A    between atoms: C_10  and  C_11 
REMARK    4  A    between atoms: C_11  and  C_12 
REMARK    5  A    between atoms: C_12  and  C_13 
REMARK    6  A    between atoms: C_13  and  N_14 
REMARK    7  A    between atoms: N_17  and  C_18 
ROOT
ATOM      1  C   UNL d   1       8.027   5.821 -11.250  0.00  0.00     0.035 C 
ENDROOT
BRANCH   1   2
ATOM      2  C   UNL d   1       7.271   6.094 -12.554  0.00  0.00     0.149 C 
BRANCH   2   3
ATOM      3  O   UNL d   1       6.325   5.056 -12.805  0.00  0.00    -0.331 OA
BRANCH   3   4
ATOM      4  C   UNL d   1       6.774   3.887 -13.380  0.00  0.00     0.096 A 
ATOM      5  C   UNL d   1       5.887   2.784 -13.418  0.00  0.00     0.024 A 
ATOM      6  C   UNL d   1       6.261   1.570 -14.040  0.00  0.00    -0.001 A 
ATOM      7  C   UNL d   1       7.541   1.457 -14.615  0.00  0.00    -0.004 A 
ATOM      8  C   UNL d   1       7.997   0.191 -15.321  0.00  0.00     0.038 C 
ATOM      9  C   UNL d   1       8.439   2.550 -14.569  0.00  0.00     0.082 A 
ATOM     10  C   UNL d   1       9.537   0.018 -15.243  0.00  0.00     0.095 C 
ATOM     11  C   UNL d   1      10.288   1.317 -15.542  0.00  0.00     0.256 C 
ATOM     12  O   UNL d   1      11.390   1.296 -16.086  0.00  0.00    -0.270 OA
ATOM     13  N   UNL d   1       9.721   2.459 -15.155  0.00  0.00    -0.212 NA
ATOM     14  C   UNL d   1       8.057   3.751 -13.956  0.00  0.00     0.043 A 
ENDBRANCH   3   4
ENDBRANCH   2   3
ENDBRANCH   1   2
BRANCH   1  15
ATOM     15  C   UNL d   1       9.079   6.894 -10.974  0.00  0.00     0.038 C 
BRANCH  15  16
ATOM     16  C   UNL d   1       9.450   6.910  -9.499  0.00  0.00     0.251 C 
BRANCH  16  17
ATOM     17  N   UNL d   1      10.254   8.089  -9.158  0.00  0.00     0.141 N 
ATOM     18  C   UNL d   1      11.597   7.728  -8.712  0.00  0.00     0.274 C 
ATOM     19  C   UNL d   1      11.546   6.920  -7.387  0.00  0.00     0.137 C 
ATOM     20  N   UNL d   1      10.801   7.676  -6.406  0.00  0.00    -0.344 N 
ATOM     21  C   UNL d   1       9.490   8.161  -6.784  0.00  0.00     0.137 C 
ATOM     22  C   UNL d   1       9.602   8.908  -8.127  0.00  0.00     0.274 C 
BRANCH  20  23
ATOM     23  C   UNL d   1      11.319   7.889  -5.104  0.00  0.00     0.056 A 
ATOM     24  C   UNL d   1      11.770   6.798  -4.356  0.00  0.00     0.017 A 
ATOM     25  C   UNL d   1      12.261   6.998  -3.045  0.00  0.00     0.002 A 
ATOM     26  C   UNL d   1      12.312   8.298  -2.512  0.00  0.00     0.000 A 
ATOM     27  C   UNL d   1      11.861   9.394  -3.275  0.00  0.00     0.002 A 
ATOM     28  C   UNL d   1      11.356   9.186  -4.577  0.00  0.00     0.017 A 
ENDBRANCH  20  23
ENDBRANCH  16  17
ENDBRANCH  15  16
ENDBRANCH   1  15
TORSDOF 7
