REMARK  5 active torsions:
REMARK  status: ('A' for Active; 'I' for Inactive)
REMARK    1  A    between atoms: C_2  and  C_3 
REMARK    2  A    between atoms: C_3  and  N_4 
REMARK    3  A    between atoms: C_19  and  O_20 
REMARK    4  A    between atoms: O_20  and  C_21 
REMARK       I    between atoms: C_21  and  N_23 
REMARK    5  A    between atoms: N_23  and  C_24 
ROOT
ATOM      1  N   UNL d   1      10.022   4.821 -13.633  0.00  0.00     0.140 N 
ATOM      2  C   UNL d   1      11.344   4.252 -13.880  0.00  0.00     0.255 C 
ATOM      3  C   UNL d   1      11.463   3.827 -15.334  0.00  0.00     0.061 C 
ATOM      4  C   UNL d   1      10.393   2.864 -15.775  0.00  0.00    -0.022 A 
ATOM      5  C   UNL d   1      10.481   2.035 -16.902  0.00  0.00    -0.004 A 
ATOM      6  C   UNL d   1       9.378   1.251 -17.256  0.00  0.00    -0.000 A 
ATOM      7  C   UNL d   1       8.216   1.251 -16.481  0.00  0.00    -0.000 A 
ATOM      8  C   UNL d   1       8.094   2.009 -15.313  0.00  0.00    -0.001 A 
ATOM      9  C   UNL d   1       9.184   2.853 -15.019  0.00  0.00     0.005 A 
ATOM     10  C   UNL d   1       9.054   3.734 -13.774  0.00  0.00     0.245 C 
ATOM     11  C   UNL d   1       7.639   4.324 -13.655  0.00  0.00     0.064 C 
ATOM     12  C   UNL d   1       6.659   3.197 -13.683  0.00  0.00    -0.018 C 
ATOM     13  C   UNL d   1       5.512   3.338 -12.845  0.00  0.00    -0.004 C 
ATOM     14  C   UNL d   1       4.662   2.261 -12.827  0.00  0.00     0.002 C 
ATOM     15  C   UNL d   1       4.890   1.040 -13.454  0.00  0.00     0.025 C 
ATOM     16  C   UNL d   1       5.983   0.915 -14.320  0.00  0.00     0.104 C 
ATOM     17  C   UNL d   1       6.872   2.024 -14.440  0.00  0.00     0.019 C 
ENDROOT
BRANCH  16  18
ATOM     18  O   UNL d   1       6.040  -0.297 -14.943  0.00  0.00    -0.258 OA
BRANCH  18  19
ATOM     19  C   UNL d   1       5.487  -0.491 -16.158  0.00  0.00     0.392 C 
ATOM     20  O   UNL d   1       5.024   0.393 -16.853  0.00  0.00    -0.236 OA
ATOM     21  N   UNL d   1       5.590  -1.810 -16.468  0.00  0.00    -0.186 NA
BRANCH  21  22
ATOM     22  C   UNL d   1       5.256  -2.465 -17.682  0.00  0.00     0.087 A 
ATOM     23  C   UNL d   1       5.377  -3.869 -17.747  0.00  0.00     0.018 A 
ATOM     24  C   UNL d   1       4.992  -4.556 -18.926  0.00  0.00     0.002 A 
ATOM     25  C   UNL d   1       5.861  -4.634 -16.644  0.00  0.00     0.002 A 
ATOM     26  C   UNL d   1       4.507  -3.836 -20.038  0.00  0.00     0.000 A 
ATOM     27  C   UNL d   1       5.067  -5.959 -18.988  0.00  0.00     0.000 A 
ATOM     28  C   UNL d   1       4.410  -2.439 -19.986  0.00  0.00     0.002 A 
ATOM     29  C   UNL d   1       4.785  -1.754 -18.822  0.00  0.00     0.019 A 
ATOM     30  C   UNL d   1       5.533  -6.699 -17.885  0.00  0.00     0.000 A 
ATOM     31  C   UNL d   1       5.932  -6.032 -16.715  0.00  0.00     0.000 A 
ENDBRANCH  21  22
ENDBRANCH  18  19
ENDBRANCH  16  18
BRANCH   1  32
ATOM     32  C   UNL d   1       9.890   5.457 -12.308  0.00  0.00     0.251 C 
BRANCH  32  33
ATOM     33  C   UNL d   1       9.576   4.505 -11.127  0.00  0.00     0.035 C 
ATOM     34  C   UNL d   1       9.672   5.212  -9.777  0.00  0.00     0.002 C 
ENDBRANCH  32  33
ENDBRANCH   1  32
TORSDOF 5
