REMARK  4 active torsions:
REMARK  status: ('A' for Active; 'I' for Inactive)
REMARK    1  A    between atoms: C_8  and  C_9 
REMARK    2  A    between atoms: C_9  and  C_10 
REMARK    3  A    between atoms: N_16  and  C_17 
REMARK    4  A    between atoms: C_17  and  C_18 
ROOT
ATOM      1  C   UNL d   1       8.387   4.341 -12.608  0.00  0.00     0.008 C 
ATOM      2  C   UNL d   1       7.716   4.418 -11.250  0.00  0.00     0.034 C 
ATOM      3  C   UNL d   1       6.766   5.605 -11.399  0.00  0.00     0.002 C 
ATOM      4  C   UNL d   1       7.420   6.566 -12.379  0.00  0.00     0.002 C 
ATOM      5  C   UNL d   1       8.695   5.837 -12.729  0.00  0.00     0.034 C 
ATOM      6  C   UNL d   1       9.841   6.191 -11.771  0.00  0.00     0.250 C 
ATOM      7  N   UNL d   1       9.614   5.845 -10.361  0.00  0.00     0.140 N 
ATOM      8  C   UNL d   1       8.823   4.625 -10.170  0.00  0.00     0.250 C 
ENDROOT
BRANCH   7   9
ATOM      9  C   UNL d   1       9.202   6.969  -9.525  0.00  0.00     0.283 C 
BRANCH   9  10
ATOM     10  C   UNL d   1      10.172   7.161  -8.328  0.00  0.00     0.185 C 
ATOM     11  O   UNL d   1       9.978   8.452  -7.801  0.00  0.00    -0.327 OA
ATOM     12  C   UNL d   1      10.549   8.678  -6.571  0.00  0.00     0.116 A 
ATOM     13  C   UNL d   1      10.957   7.656  -5.698  0.00  0.00     0.114 A 
ATOM     14  C   UNL d   1      10.676  10.014  -6.199  0.00  0.00     0.028 A 
ATOM     15  O   UNL d   1      10.784   6.351  -6.079  0.00  0.00    -0.326 OA
ATOM     16  C   UNL d   1      11.518   8.035  -4.470  0.00  0.00     0.029 A 
ATOM     17  C   UNL d   1       9.878   6.188  -7.183  0.00  0.00     0.181 C 
ATOM     18  C   UNL d   1      11.614   9.382  -4.146  0.00  0.00     0.083 A 
ATOM     19  C   UNL d   1      12.082   7.245  -3.261  0.00  0.00     0.120 A 
ATOM     20  C   UNL d   1      11.171  10.387  -4.978  0.00  0.00     0.021 A 
ATOM     21  N   UNL d   1      12.177   9.587  -2.915  0.00  0.00    -0.212 NA
ATOM     22  C   UNL d   1      12.488   8.431  -2.361  0.00  0.00     0.260 A 
ATOM     23  O   UNL d   1      13.051   8.320  -1.289  0.00  0.00    -0.270 OA
ENDBRANCH   9  10
ENDBRANCH   7   9
BRANCH   1  24
ATOM     24  C   UNL d   1       7.487   3.801 -13.735  0.00  0.00     0.026 C 
BRANCH  24  25
ATOM     25  C   UNL d   1       8.283   3.155 -14.854  0.00  0.00    -0.021 A 
ATOM     26  C   UNL d   1       9.456   3.774 -15.366  0.00  0.00    -0.004 A 
ATOM     27  C   UNL d   1      10.153   3.224 -16.447  0.00  0.00    -0.003 A 
ATOM     28  C   UNL d   1       9.700   2.030 -17.029  0.00  0.00    -0.004 A 
ATOM     29  C   UNL d   1      10.436   1.415 -18.202  0.00  0.00     0.038 C 
ATOM     30  C   UNL d   1       8.537   1.398 -16.535  0.00  0.00     0.080 A 
ATOM     31  C   UNL d   1      10.278  -0.114 -18.222  0.00  0.00     0.095 C 
ATOM     32  C   UNL d   1       8.830  -0.552 -17.967  0.00  0.00     0.256 C 
ATOM     33  O   UNL d   1       8.403  -1.578 -18.483  0.00  0.00    -0.270 OA
ATOM     34  N   UNL d   1       8.086   0.198 -17.135  0.00  0.00    -0.212 NA
ATOM     35  C   UNL d   1       7.823   1.964 -15.457  0.00  0.00     0.015 A 
ENDBRANCH  24  25
ENDBRANCH   1  24
TORSDOF 4
