REMARK  3 active torsions:
REMARK  status: ('A' for Active; 'I' for Inactive)
REMARK    1  A    between atoms: C_2  and  C_3 
REMARK    2  A    between atoms: C_3  and  N_4 
REMARK    3  A    between atoms: C_7  and  N_8 
ROOT
ATOM      1  N   UNL d   1       8.446   3.978 -12.915  0.00  0.00     0.137 N 
ATOM      2  C   UNL d   1       9.093   3.360 -14.078  0.00  0.00     0.252 C 
ATOM      3  C   UNL d   1       8.428   2.017 -14.437  0.00  0.00     0.058 C 
ATOM      4  C   UNL d   1       6.923   2.190 -14.694  0.00  0.00     0.091 C 
ATOM      5  C   UNL d   1       6.276   2.973 -13.533  0.00  0.00     0.058 C 
ATOM      6  C   UNL d   1       7.040   4.257 -13.211  0.00  0.00     0.252 C 
ENDROOT
BRANCH   4   7
ATOM      7  N   UNL d   1       6.258   0.915 -14.919  0.00  0.00    -0.311 N 
ATOM      8  C   UNL d   1       5.859   0.350 -16.127  0.00  0.00     0.079 A 
ATOM      9  C   UNL d   1       5.245  -0.886 -15.765  0.00  0.00     0.099 A 
ATOM     10  C   UNL d   1       5.925   0.770 -17.471  0.00  0.00     0.019 A 
ATOM     11  N   UNL d   1       5.279  -1.086 -14.402  0.00  0.00    -0.224 NA
ATOM     12  C   UNL d   1       4.707  -1.696 -16.786  0.00  0.00     0.021 A 
ATOM     13  C   UNL d   1       5.915   0.005 -13.989  0.00  0.00     0.179 A 
ATOM     14  C   UNL d   1       4.771  -1.281 -18.133  0.00  0.00     0.002 A 
ATOM     15  C   UNL d   1       5.373  -0.052 -18.474  0.00  0.00     0.002 A 
ENDBRANCH   4   7
BRANCH   1  16
ATOM     16  C   UNL d   1       9.133   5.207 -12.553  0.00  0.00     0.250 C 
BRANCH  16  17
ATOM     17  C   UNL d   1       8.818   5.632 -11.109  0.00  0.00     0.035 C 
ATOM     18  C   UNL d   1       9.520   6.938 -10.732  0.00  0.00     0.002 C 
ENDBRANCH  16  17
ENDBRANCH   1  16
TORSDOF 3
