REMARK  5 active torsions:
REMARK  status: ('A' for Active; 'I' for Inactive)
REMARK    1  A    between atoms: C_6  and  C_7 
REMARK    2  A    between atoms: C_7  and  N_8 
REMARK    3  A    between atoms: C_12  and  C_13 
REMARK    4  A    between atoms: C_13  and  O_14 
REMARK    5  A    between atoms: O_14  and  C_15 
ROOT
ATOM      1  N   UNL d   1      10.467   8.181  -7.758  0.00  0.00     0.147 N 
ATOM      2  C   UNL d   1      11.576   8.921  -8.345  0.00  0.00     0.283 C 
ATOM      3  C   UNL d   1      12.235   8.123  -9.448  0.00  0.00     0.178 C 
ATOM      4  O   UNL d   1      11.223   7.788 -10.383  0.00  0.00    -0.350 OA
ATOM      5  C   UNL d   1      10.196   6.952  -9.870  0.00  0.00     0.179 C 
ATOM      6  C   UNL d   1       9.513   7.780  -8.788  0.00  0.00     0.283 C 
ENDROOT
BRANCH   1   7
ATOM      7  C   UNL d   1       9.822   9.007  -6.777  0.00  0.00     0.279 C 
BRANCH   7   8
ATOM      8  C   UNL d   1      10.557   9.313  -5.513  0.00  0.00     0.032 A 
ATOM      9  C   UNL d   1      11.178   8.384  -4.634  0.00  0.00     0.017 A 
ATOM     10  C   UNL d   1      11.308   6.999  -4.653  0.00  0.00     0.004 A 
ATOM     11  C   UNL d   1      11.661   9.081  -3.478  0.00  0.00     0.083 A 
ATOM     12  C   UNL d   1      11.952   6.390  -3.577  0.00  0.00     0.030 A 
ATOM     13  C   UNL d   1      12.431   7.066  -2.470  0.00  0.00     0.142 A 
ATOM     14  F   UNL d   1      13.052   6.315  -1.538  0.00  0.00    -0.204 F 
ATOM     15  C   UNL d   1      12.289   8.450  -2.381  0.00  0.00     0.049 A 
ATOM     16  N   UNL d   1      11.325  10.370  -3.689  0.00  0.00    -0.244 NA
ATOM     17  C   UNL d   1      10.669  10.515  -4.894  0.00  0.00     0.097 A 
ENDBRANCH   7   8
ENDBRANCH   1   7
BRANCH   5  18
ATOM     18  C   UNL d   1       9.217   6.585 -10.986  0.00  0.00     0.182 C 
BRANCH  18  19
ATOM     19  O   UNL d   1       9.851   5.686 -11.900  0.00  0.00    -0.312 OA
BRANCH  19  20
ATOM     20  C   UNL d   1       9.084   4.839 -12.674  0.00  0.00     0.179 A 
ATOM     21  N   UNL d   1       7.756   4.813 -12.468  0.00  0.00    -0.211 NA
ATOM     22  C   UNL d   1       7.006   3.943 -13.169  0.00  0.00     0.141 A 
ATOM     23  C   UNL d   1       7.550   3.071 -14.137  0.00  0.00     0.031 A 
ATOM     24 CL   UNL d   1       5.314   3.872 -12.840  0.00  0.00    -0.061 Cl
ATOM     25  C   UNL d   1       8.939   3.112 -14.373  0.00  0.00     0.006 A 
ATOM     26  C   UNL d   1       9.722   4.014 -13.624  0.00  0.00     0.044 A 
ENDBRANCH  19  20
ENDBRANCH  18  19
ENDBRANCH   5  18
TORSDOF 5
