REMARK  7 active torsions:
REMARK  status: ('A' for Active; 'I' for Inactive)
REMARK    1  A    between atoms: C_2  and  C_5 
REMARK    2  A    between atoms: C_5  and  C_6 
REMARK       I    between atoms: C_6  and  N_8 
REMARK    3  A    between atoms: N_8  and  C_9 
REMARK    4  A    between atoms: C_12  and  C_13 
REMARK    5  A    between atoms: C_13  and  C_14 
REMARK    6  A    between atoms: C_14  and  N_15 
REMARK    7  A    between atoms: C_18  and  C_19 
ROOT
ATOM      1  C   UNL d   1       8.320   4.284 -14.184  0.00  0.00     0.250 C 
ENDROOT
BRANCH   1   2
ATOM      2  C   UNL d   1       8.337   3.958 -12.687  0.00  0.00     0.035 C 
BRANCH   2   3
ATOM      3  C   UNL d   1       8.427   5.161 -11.732  0.00  0.00     0.002 C 
ATOM      4  C   UNL d   1       8.600   4.656 -10.278  0.00  0.00     0.002 C 
ATOM      5  C   UNL d   1       8.703   5.803  -9.285  0.00  0.00     0.024 C 
ATOM      6  C   UNL d   1       9.813   6.793  -9.671  0.00  0.00     0.106 C 
ATOM      7  C   UNL d   1       9.661   7.303 -11.103  0.00  0.00     0.024 C 
ATOM      8  C   UNL d   1       9.578   6.130 -12.081  0.00  0.00     0.002 C 
BRANCH   6   9
ATOM      9  N   UNL d   1       9.767   7.922  -8.763  0.00  0.00    -0.240 NA
ATOM     10  C   UNL d   1      10.733   8.172  -7.861  0.00  0.00     0.254 C 
ATOM     11  O   UNL d   1      11.828   7.623  -7.933  0.00  0.00    -0.271 OA
BRANCH  10  12
ATOM     12  C   UNL d   1      10.366   9.097  -6.702  0.00  0.00     0.120 C 
BRANCH  12  13
ATOM     13  C   UNL d   1      11.341   9.137  -5.501  0.00  0.00     0.136 C 
ATOM     14  C   UNL d   1      12.660   9.808  -5.880  0.00  0.00     0.034 C 
ATOM     15  C   UNL d   1      11.572   7.764  -4.835  0.00  0.00     0.034 C 
ATOM     16  O   UNL d   1      10.774   9.975  -4.521  0.00  0.00    -0.226 OA
ENDBRANCH  12  13
ENDBRANCH  10  12
ENDBRANCH   6   9
ENDBRANCH   2   3
ENDBRANCH   1   2
BRANCH   1  17
ATOM     17  N   UNL d   1       9.646   4.550 -14.766  0.00  0.00     0.137 N 
ATOM     18  C   UNL d   1      10.479   3.347 -14.777  0.00  0.00     0.251 C 
ATOM     19  C   UNL d   1      11.879   3.692 -15.281  0.00  0.00     0.040 C 
ATOM     20  C   UNL d   1      11.814   4.279 -16.686  0.00  0.00     0.028 C 
ATOM     21  C   UNL d   1      10.855   5.475 -16.715  0.00  0.00     0.040 C 
ATOM     22  C   UNL d   1       9.494   5.059 -16.137  0.00  0.00     0.251 C 
BRANCH  20  23
ATOM     23  C   UNL d   1      13.209   4.673 -17.169  0.00  0.00     0.002 A 
ATOM     24  C   UNL d   1      13.801   4.037 -18.276  0.00  0.00     0.115 A 
ATOM     25  C   UNL d   1      15.061   4.390 -18.721  0.00  0.00     0.119 A 
ATOM     26  O   UNL d   1      13.302   3.049 -19.061  0.00  0.00    -0.300 OA
ATOM     27  C   UNL d   1      15.816   5.388 -18.079  0.00  0.00     0.026 A 
ATOM     28  O   UNL d   1      15.381   3.640 -19.803  0.00  0.00    -0.300 OA
ATOM     29  C   UNL d   1      15.249   6.019 -16.953  0.00  0.00     0.002 A 
ATOM     30  C   UNL d   1      13.947   5.673 -16.511  0.00  0.00    -0.002 A 
ATOM     31  C   UNL d   1      14.283   2.791 -20.026  0.00  0.00     0.304 A 
ENDBRANCH  20  23
ENDBRANCH   1  17
TORSDOF 7
