REMARK  7 active torsions:
REMARK  status: ('A' for Active; 'I' for Inactive)
REMARK    1  A    between atoms: C_4  and  N_5 
REMARK    2  A    between atoms: N_5  and  S_6 
REMARK    3  A    between atoms: S_6  and  C_9 
REMARK    4  A    between atoms: N_20  and  C_21 
REMARK    5  A    between atoms: C_21  and  C_22 
REMARK    6  A    between atoms: C_22  and  C_23 
REMARK    7  A    between atoms: C_23  and  C_24 
ROOT
ATOM      1  C   UNL d   1       5.003   2.066 -12.522  0.00  0.00     0.035 C 
ATOM      2  C   UNL d   1       5.740   3.330 -12.955  0.00  0.00     0.221 C 
ATOM      3  C   UNL d   1       6.121   4.230 -11.774  0.00  0.00     0.060 C 
ATOM      4  C   UNL d   1       7.462   4.835 -12.152  0.00  0.00     0.151 C 
ATOM      5  C   UNL d   1       7.776   4.257 -13.536  0.00  0.00     0.275 C 
ATOM      6  N   UNL d   1       7.030   3.007 -13.571  0.00  0.00     0.137 N 
ENDROOT
BRANCH   4   7
ATOM      7  N   UNL d   1       7.402   6.293 -12.166  0.00  0.00    -0.184 NA
BRANCH   7   8
ATOM      8  S   UNL d   1       8.882   7.162 -12.201  0.00  0.00     0.287 S 
ATOM      9  O   UNL d   1       9.833   6.368 -12.995  0.00  0.00    -0.198 OA
ATOM     10  O   UNL d   1       8.592   8.589 -12.415  0.00  0.00    -0.198 OA
BRANCH   8  11
ATOM     11  C   UNL d   1       9.512   7.224 -10.592  0.00  0.00     0.134 A 
ATOM     12  S   UNL d   1      10.592   8.537 -10.175  0.00  0.00    -0.074 SA
ATOM     13  C   UNL d   1      10.529   8.075  -8.503  0.00  0.00     0.032 A 
ATOM     14  C   UNL d   1       9.656   6.955  -8.327  0.00  0.00     0.007 A 
ATOM     15  C   UNL d   1      11.201   8.678  -7.417  0.00  0.00     0.036 A 
ATOM     16  C   UNL d   1       9.085   6.470  -9.544  0.00  0.00     0.020 A 
ATOM     17  C   UNL d   1       9.478   6.489  -7.014  0.00  0.00     0.003 A 
ATOM     18  C   UNL d   1      10.159   7.070  -5.926  0.00  0.00     0.030 A 
ATOM     19  C   UNL d   1      11.012   8.163  -6.127  0.00  0.00     0.141 A 
ATOM     20  F   UNL d   1      11.650   8.722  -5.072  0.00  0.00    -0.204 F 
ENDBRANCH   8  11
ENDBRANCH   7   8
ENDBRANCH   4   7
BRANCH   6  21
ATOM     21  C   UNL d   1       6.897   2.406 -14.881  0.00  0.00     0.251 C 
BRANCH  21  22
ATOM     22  C   UNL d   1       8.220   1.794 -15.352  0.00  0.00     0.042 C 
BRANCH  22  23
ATOM     23  C   UNL d   1       8.101   1.239 -16.778  0.00  0.00     0.050 C 
BRANCH  23  24
ATOM     24  C   UNL d   1       9.378   0.602 -17.250  0.00  0.00     0.088 A 
ATOM     25  C   UNL d   1      10.509   1.167 -17.869  0.00  0.00     0.041 A 
ATOM     26  C   UNL d   1      11.434   0.158 -18.133  0.00  0.00     0.129 A 
ATOM     27  C   UNL d   1      10.805   2.498 -18.238  0.00  0.00     0.006 A 
ATOM     28  O   UNL d   1      10.851  -1.002 -17.656  0.00  0.00    -0.211 OA
ATOM     29  C   UNL d   1      12.664   0.395 -18.759  0.00  0.00     0.057 A 
ATOM     30  N   UNL d   1       9.578  -0.705 -17.101  0.00  0.00    -0.131 NA
ATOM     31  C   UNL d   1      12.968   1.724 -19.125  0.00  0.00     0.142 A 
ATOM     32  F   UNL d   1      14.149   2.002 -19.727  0.00  0.00    -0.204 F 
ATOM     33  C   UNL d   1      12.043   2.765 -18.868  0.00  0.00     0.030 A 
ENDBRANCH  23  24
ENDBRANCH  22  23
ENDBRANCH  21  22
ENDBRANCH   6  21
TORSDOF 7
