REMARK  3 active torsions:
REMARK  status: ('A' for Active; 'I' for Inactive)
REMARK    1  A    between atoms: C_2  and  O_4 
REMARK    2  A    between atoms: O_4  and  C_5 
REMARK    3  A    between atoms: C_5  and  C_6 
ROOT
ATOM      1  C   UNL d   1       7.488  -0.950 -19.997  0.00  0.00     0.152 C 
ATOM      2  C   UNL d   1       6.370  -1.742 -19.256  0.00  0.00     0.035 C 
ATOM      3  C   UNL d   1       6.301  -1.230 -17.799  0.00  0.00     0.003 C 
ATOM      4  C   UNL d   1       7.293  -0.062 -17.749  0.00  0.00     0.007 C 
ATOM      5  C   UNL d   1       7.877   0.403 -16.392  0.00  0.00     0.022 C 
ATOM      6  C   UNL d   1       6.828   0.673 -15.325  0.00  0.00    -0.031 C 
ATOM      7  C   UNL d   1       6.847   1.709 -14.461  0.00  0.00    -0.030 C 
ATOM      8  C   UNL d   1       5.721   1.840 -13.436  0.00  0.00     0.030 C 
ATOM      9  C   UNL d   1       7.963   2.660 -14.505  0.00  0.00    -0.024 C 
ATOM     10  C   UNL d   1       7.854   3.820 -13.811  0.00  0.00     0.033 C 
ATOM     11  C   UNL d   1       8.909   4.833 -13.768  0.00  0.00     0.173 C 
ATOM     12  O   UNL d   1       8.761   5.910 -13.205  0.00  0.00    -0.291 OA
ATOM     13  C   UNL d   1      10.241   4.527 -14.447  0.00  0.00     0.070 C 
ATOM     14  C   UNL d   1      10.030   3.617 -15.662  0.00  0.00     0.012 C 
ATOM     15  C   UNL d   1       9.221   2.331 -15.344  0.00  0.00     0.019 C 
ATOM     16  C   UNL d   1      10.137   1.393 -14.533  0.00  0.00     0.004 C 
ATOM     17  C   UNL d   1       8.748   1.661 -16.665  0.00  0.00     0.008 C 
ATOM     18  C   UNL d   1       9.856   1.363 -17.712  0.00  0.00     0.001 C 
ATOM     19  C   UNL d   1       9.271   0.790 -19.027  0.00  0.00     0.003 C 
ATOM     20  C   UNL d   1       8.376  -0.452 -18.782  0.00  0.00     0.030 C 
ATOM     21  C   UNL d   1       9.303  -1.593 -18.233  0.00  0.00     0.003 C 
ENDROOT
BRANCH   1  22
ATOM     22  O   UNL d   1       6.896   0.218 -20.595  0.00  0.00    -0.300 OA
BRANCH  22  23
ATOM     23  C   UNL d   1       6.165   0.282 -21.752  0.00  0.00     0.273 C 
ATOM     24  C   UNL d   1       5.745   1.698 -22.062  0.00  0.00     0.106 C 
ATOM     25  O   UNL d   1       5.832  -0.643 -22.509  0.00  0.00    -0.264 OA
ENDBRANCH  22  23
ENDBRANCH   1  22
BRANCH   1  26
ATOM     26  C   UNL d   1       8.274  -1.767 -21.066  0.00  0.00     0.176 C 
ATOM     27  C   UNL d   1       7.561  -2.878 -21.839  0.00  0.00     0.075 C 
ATOM     28  O   UNL d   1       9.436  -1.484 -21.370  0.00  0.00    -0.294 OA
ENDBRANCH   1  26
TORSDOF 3
