REMARK  8 active torsions:
REMARK  status: ('A' for Active; 'I' for Inactive)
REMARK    1  A    between atoms: O_2  and  C_3 
REMARK    2  A    between atoms: C_8  and  N_9 
REMARK    3  A    between atoms: N_12  and  C_13 
REMARK    4  A    between atoms: C_13  and  C_14 
REMARK    5  A    between atoms: C_14  and  C_15 
REMARK    6  A    between atoms: C_15  and  C_16 
REMARK    7  A    between atoms: C_16  and  C_17 
REMARK    8  A    between atoms: C_17  and  C_18 
REMARK       I    between atoms: C_18  and  N_20 
ROOT
ATOM      1  C   UNL d   1       5.856   4.686 -12.396  0.00  0.00     0.250 C 
ENDROOT
BRANCH   1   2
ATOM      2  N   UNL d   1       6.254   3.337 -12.780  0.00  0.00     0.141 N 
ATOM      3  C   UNL d   1       6.625   3.276 -14.194  0.00  0.00     0.274 C 
ATOM      4  C   UNL d   1       7.061   1.880 -14.574  0.00  0.00     0.137 C 
ATOM      5  N   UNL d   1       6.016   0.907 -14.293  0.00  0.00    -0.343 N 
ATOM      6  C   UNL d   1       5.491   0.966 -12.935  0.00  0.00     0.137 C 
ATOM      7  C   UNL d   1       5.114   2.428 -12.580  0.00  0.00     0.274 C 
BRANCH   5   8
ATOM      8  C   UNL d   1       5.543   0.015 -15.273  0.00  0.00     0.079 A 
ATOM      9  C   UNL d   1       6.393  -0.442 -16.328  0.00  0.00     0.110 A 
ATOM     10  C   UNL d   1       5.867  -1.311 -17.311  0.00  0.00     0.026 A 
ATOM     11  C   UNL d   1       4.530  -1.740 -17.263  0.00  0.00     0.002 A 
ATOM     12  C   UNL d   1       3.696  -1.291 -16.223  0.00  0.00     0.002 A 
ATOM     13  C   UNL d   1       4.200  -0.426 -15.239  0.00  0.00     0.019 A 
BRANCH   9  14
ATOM     14  O   UNL d   1       7.727  -0.081 -16.298  0.00  0.00    -0.327 OA
ATOM     15  C   UNL d   1       8.526  -0.287 -17.440  0.00  0.00     0.181 C 
ENDBRANCH   9  14
ENDBRANCH   5   8
ENDBRANCH   1   2
BRANCH   1  16
ATOM     16  C   UNL d   1       6.899   5.797 -12.690  0.00  0.00     0.035 C 
BRANCH  16  17
ATOM     17  C   UNL d   1       7.922   5.888 -11.577  0.00  0.00     0.003 C 
BRANCH  17  18
ATOM     18  C   UNL d   1       9.069   6.871 -11.874  0.00  0.00     0.010 C 
BRANCH  18  19
ATOM     19  C   UNL d   1       9.706   7.520 -10.621  0.00  0.00     0.088 C 
BRANCH  19  20
ATOM     20  C   UNL d   1       9.965   6.590  -9.418  0.00  0.00     0.234 C 
ATOM     21  O   UNL d   1       9.873   5.370  -9.519  0.00  0.00    -0.272 OA
ATOM     22  N   UNL d   1      10.330   7.157  -8.248  0.00  0.00    -0.312 N 
ATOM     23  C   UNL d   1      10.665   6.342  -7.080  0.00  0.00     0.131 A 
ATOM     24  C   UNL d   1      10.455   8.592  -7.977  0.00  0.00     0.131 A 
ATOM     25  C   UNL d   1      11.037   7.349  -6.035  0.00  0.00    -0.002 A 
ATOM     26  C   UNL d   1      10.919   8.630  -6.548  0.00  0.00    -0.002 A 
ATOM     27  C   UNL d   1      11.463   7.106  -4.723  0.00  0.00    -0.003 A 
ATOM     28  C   UNL d   1      11.208   9.755  -5.765  0.00  0.00    -0.003 A 
ATOM     29  C   UNL d   1      11.636   9.538  -4.436  0.00  0.00    -0.000 A 
ATOM     30  C   UNL d   1      11.778   8.229  -3.922  0.00  0.00    -0.000 A 
ENDBRANCH  19  20
ENDBRANCH  18  19
ENDBRANCH  17  18
ENDBRANCH  16  17
ENDBRANCH   1  16
TORSDOF 8
