REMARK  7 active torsions:
REMARK  status: ('A' for Active; 'I' for Inactive)
REMARK    1  A    between atoms: S_2  and  N_4 
REMARK    2  A    between atoms: S_2  and  C_24 
REMARK    3  A    between atoms: N_4  and  C_5 
REMARK    4  A    between atoms: C_5  and  C_6 
REMARK    5  A    between atoms: C_6  and  C_7 
REMARK    6  A    between atoms: C_7  and  N_8 
REMARK    7  A    between atoms: C_11  and  C_12 
ROOT
ATOM      1  N   UNL d   1       8.371   5.071 -12.214  0.00  0.00     0.137 N 
ATOM      2  C   UNL d   1       8.821   4.665 -13.549  0.00  0.00     0.251 C 
ATOM      3  C   UNL d   1       8.276   3.274 -13.923  0.00  0.00     0.041 C 
ATOM      4  C   UNL d   1       6.737   3.223 -13.850  0.00  0.00     0.047 C 
ATOM      5  C   UNL d   1       6.257   3.834 -12.512  0.00  0.00     0.041 C 
ATOM      6  C   UNL d   1       6.909   5.185 -12.209  0.00  0.00     0.251 C 
ENDROOT
BRANCH   1   7
ATOM      7  C   UNL d   1       8.945   6.367 -11.852  0.00  0.00     0.252 C 
BRANCH   7   8
ATOM      8  C   UNL d   1       9.172   6.495 -10.332  0.00  0.00     0.062 C 
BRANCH   8   9
ATOM      9  C   UNL d   1       9.730   7.887  -9.967  0.00  0.00     0.141 C 
BRANCH   9  10
ATOM     10  N   UNL d   1       9.762   8.116  -8.520  0.00  0.00    -0.185 NA
BRANCH  10  11
ATOM     11  S   UNL d   1      11.014   7.392  -7.591  0.00  0.00     0.283 S 
ATOM     12  O   UNL d   1      10.585   6.014  -7.322  0.00  0.00    -0.199 OA
ATOM     13  O   UNL d   1      12.276   7.678  -8.284  0.00  0.00    -0.199 OA
BRANCH  11  14
ATOM     14  C   UNL d   1      11.028   8.325  -6.078  0.00  0.00     0.123 A 
ATOM     15  C   UNL d   1      11.454   7.769  -4.844  0.00  0.00     0.100 A 
ATOM     16  C   UNL d   1      11.534   8.660  -3.725  0.00  0.00     0.049 A 
ATOM     17  N   UNL d   1      11.857   6.478  -4.550  0.00  0.00    -0.236 NA
ATOM     18  C   UNL d   1      11.134   9.981  -3.805  0.00  0.00     0.008 A 
ATOM     19  S   UNL d   1      12.196   7.871  -2.313  0.00  0.00    -0.064 SA
ATOM     20  C   UNL d   1      10.689  10.485  -5.029  0.00  0.00     0.001 A 
ATOM     21  C   UNL d   1      10.675   9.679  -6.174  0.00  0.00     0.015 A 
ATOM     22  C   UNL d   1      12.261   6.425  -3.274  0.00  0.00     0.135 A 
ENDBRANCH  11  14
ENDBRANCH  10  11
ENDBRANCH   9  10
ENDBRANCH   8   9
ENDBRANCH   7   8
ENDBRANCH   1   7
BRANCH   4  23
ATOM     23  C   UNL d   1       6.204   1.822 -14.103  0.00  0.00     0.087 A 
ATOM     24  C   UNL d   1       6.275   0.999 -15.254  0.00  0.00     0.041 A 
ATOM     25  C   UNL d   1       5.588  -0.193 -15.002  0.00  0.00     0.129 A 
ATOM     26  C   UNL d   1       6.852   1.200 -16.530  0.00  0.00     0.006 A 
ATOM     27  O   UNL d   1       5.117  -0.085 -13.711  0.00  0.00    -0.211 OA
ATOM     28  C   UNL d   1       5.453  -1.218 -15.949  0.00  0.00     0.057 A 
ATOM     29  N   UNL d   1       5.509   1.164 -13.165  0.00  0.00    -0.131 NA
ATOM     30  C   UNL d   1       6.042  -1.022 -17.215  0.00  0.00     0.142 A 
ATOM     31  F   UNL d   1       5.960  -1.997 -18.154  0.00  0.00    -0.204 F 
ATOM     32  C   UNL d   1       6.731   0.182 -17.503  0.00  0.00     0.030 A 
ENDBRANCH   4  23
TORSDOF 7
