REMARK  6 active torsions:
REMARK  status: ('A' for Active; 'I' for Inactive)
REMARK    1  A    between atoms: C_2  and  C_3 
REMARK    2  A    between atoms: N_12  and  C_13 
REMARK    3  A    between atoms: C_13  and  C_14 
REMARK    4  A    between atoms: C_20  and  O_21 
REMARK    5  A    between atoms: O_21  and  C_22 
REMARK    6  A    between atoms: C_22  and  C_23 
ROOT
ATOM      1  O   UNL d   1      11.980   7.642 -10.027  0.00  0.00    -0.221 OA
ATOM      2  C   UNL d   1      10.755   7.553  -9.318  0.00  0.00     0.149 C 
ATOM      3  C   UNL d   1       9.816   8.556  -9.989  0.00  0.00     0.070 C 
ATOM      4  C   UNL d   1       9.392   8.123 -11.414  0.00  0.00     0.254 C 
ATOM      5  N   UNL d   1       8.796   6.790 -11.421  0.00  0.00     0.142 N 
ATOM      6  C   UNL d   1       9.733   5.799 -10.927  0.00  0.00     0.254 C 
ATOM      7  C   UNL d   1      10.113   6.155  -9.479  0.00  0.00     0.070 C 
ENDROOT
BRANCH   5   8
ATOM      8  C   UNL d   1       8.389   6.419 -12.760  0.00  0.00     0.278 C 
BRANCH   8   9
ATOM      9  C   UNL d   1       7.453   5.261 -12.894  0.00  0.00     0.032 A 
ATOM     10  C   UNL d   1       7.668   4.014 -13.570  0.00  0.00     0.019 A 
ATOM     11  C   UNL d   1       6.459   3.271 -13.486  0.00  0.00     0.081 A 
ATOM     12  C   UNL d   1       8.762   3.404 -14.272  0.00  0.00     0.025 A 
ATOM     13  N   UNL d   1       5.574   4.040 -12.774  0.00  0.00    -0.244 NA
ATOM     14  C   UNL d   1       6.324   1.994 -14.025  0.00  0.00     0.021 A 
ATOM     15  C   UNL d   1       6.160   5.233 -12.412  0.00  0.00     0.097 A 
ATOM     16  C   UNL d   1       7.405   1.388 -14.657  0.00  0.00     0.026 A 
ATOM     17  C   UNL d   1       8.636   2.074 -14.822  0.00  0.00     0.094 A 
BRANCH  17  18
ATOM     18  O   UNL d   1       9.715   1.556 -15.482  0.00  0.00    -0.328 OA
BRANCH  18  19
ATOM     19  C   UNL d   1       9.740   0.211 -15.974  0.00  0.00     0.187 C 
BRANCH  19  20
ATOM     20  C   UNL d   1      10.263   0.136 -17.410  0.00  0.00     0.226 C 
ATOM     21  F   UNL d   1      11.565   0.315 -17.498  0.00  0.00    -0.232 F 
ENDBRANCH  19  20
ENDBRANCH  18  19
ENDBRANCH  17  18
ENDBRANCH   8   9
ENDBRANCH   5   8
BRANCH   2  22
ATOM     22  C   UNL d   1      11.002   7.905  -7.842  0.00  0.00     0.005 A 
ATOM     23  C   UNL d   1      11.363   9.227  -7.502  0.00  0.00    -0.001 A 
ATOM     24  C   UNL d   1      11.617   9.608  -6.172  0.00  0.00     0.006 A 
ATOM     25  C   UNL d   1      11.501   8.655  -5.142  0.00  0.00     0.035 A 
ATOM     26  C   UNL d   1      11.139   7.327  -5.450  0.00  0.00     0.006 A 
ATOM     27 BR   UNL d   1      11.882   9.153  -3.346  0.00  0.00    -0.049 Br
ATOM     28  C   UNL d   1      10.893   6.958  -6.782  0.00  0.00    -0.001 A 
ENDBRANCH   2  22
TORSDOF 6
