REMARK  6 active torsions:
REMARK  status: ('A' for Active; 'I' for Inactive)
REMARK       I    between atoms: C_2  and  N_3 
REMARK    1  A    between atoms: C_2  and  C_27 
REMARK    2  A    between atoms: N_3  and  C_4 
REMARK    3  A    between atoms: C_7  and  C_8 
REMARK    4  A    between atoms: C_8  and  C_9 
REMARK    5  A    between atoms: C_9  and  N_10 
REMARK    6  A    between atoms: C_13  and  C_14 
ROOT
ATOM      1  C   UNL d   1       9.171   5.661 -10.546  0.00  0.00     0.250 C 
ENDROOT
BRANCH   1   2
ATOM      2  C   UNL d   1       7.863   6.061 -11.246  0.00  0.00     0.035 C 
BRANCH   2   3
ATOM      3  C   UNL d   1       7.567   5.320 -12.561  0.00  0.00     0.002 C 
ATOM      4  C   UNL d   1       8.863   4.794 -13.219  0.00  0.00     0.002 C 
ATOM      5  C   UNL d   1       8.596   4.121 -14.535  0.00  0.00     0.024 C 
ATOM      6  C   UNL d   1       7.592   2.953 -14.312  0.00  0.00     0.106 C 
ATOM      7  C   UNL d   1       6.270   3.447 -13.704  0.00  0.00     0.024 C 
ATOM      8  C   UNL d   1       6.517   4.206 -12.381  0.00  0.00     0.002 C 
BRANCH   6   9
ATOM      9  N   UNL d   1       7.368   2.199 -15.534  0.00  0.00    -0.240 NA
ATOM     10  C   UNL d   1       8.255   1.404 -16.148  0.00  0.00     0.256 C 
ATOM     11  O   UNL d   1       7.932   0.871 -17.215  0.00  0.00    -0.270 OA
BRANCH  10  12
ATOM     12  C   UNL d   1       9.602   1.213 -15.515  0.00  0.00     0.147 A 
ATOM     13  C   UNL d   1      10.822   1.196 -16.413  0.00  0.00     0.273 A 
ATOM     14  C   UNL d   1      10.358  -0.080 -15.748  0.00  0.00     0.082 A 
ATOM     15  F   UNL d   1      10.661   1.305 -17.789  0.00  0.00    -0.204 F 
ATOM     16  F   UNL d   1      11.945   1.851 -15.936  0.00  0.00    -0.204 F 
ENDBRANCH  10  12
ENDBRANCH   6   9
ENDBRANCH   2   3
ENDBRANCH   1   2
BRANCH   1  17
ATOM     17  N   UNL d   1       9.494   6.544  -9.449  0.00  0.00     0.137 N 
ATOM     18  C   UNL d   1       8.684   6.219  -8.292  0.00  0.00     0.251 C 
ATOM     19  C   UNL d   1       9.000   7.209  -7.168  0.00  0.00     0.040 C 
ATOM     20  C   UNL d   1      10.485   7.126  -6.772  0.00  0.00     0.028 C 
ATOM     21  C   UNL d   1      11.362   7.287  -8.016  0.00  0.00     0.040 C 
ATOM     22  C   UNL d   1      10.882   6.337  -9.111  0.00  0.00     0.251 C 
BRANCH  20  23
ATOM     23  C   UNL d   1      10.848   8.149  -5.773  0.00  0.00     0.004 A 
ATOM     24  C   UNL d   1      11.456   7.957  -4.497  0.00  0.00     0.021 A 
ATOM     25  C   UNL d   1      11.589   9.246  -3.933  0.00  0.00     0.100 A 
ATOM     26  C   UNL d   1      11.896   6.862  -3.717  0.00  0.00     0.002 A 
ATOM     27  O   UNL d   1      11.080  10.188  -4.803  0.00  0.00    -0.305 OA
ATOM     28  C   UNL d   1      12.155   9.472  -2.682  0.00  0.00     0.025 A 
ATOM     29  C   UNL d   1      10.676   9.512  -5.910  0.00  0.00     0.118 A 
ATOM     30  C   UNL d   1      12.607   8.373  -1.927  0.00  0.00     0.002 A 
ATOM     31  C   UNL d   1      12.462   7.067  -2.442  0.00  0.00     0.000 A 
ENDBRANCH  20  23
ENDBRANCH   1  17
TORSDOF 6
