REMARK  4 active torsions:
REMARK  status: ('A' for Active; 'I' for Inactive)
REMARK    1  A    between atoms: C_8  and  C_9 
REMARK    2  A    between atoms: C_9  and  C_10 
REMARK    3  A    between atoms: C_10  and  N_11 
REMARK    4  A    between atoms: N_14  and  C_15 
ROOT
ATOM      1  N   UNL d   1       9.111   5.896  -9.546  0.00  0.00     0.141 N 
ATOM      2  C   UNL d   1       9.914   5.310  -8.473  0.00  0.00     0.274 C 
ATOM      3  C   UNL d   1       9.748   6.074  -7.170  0.00  0.00     0.137 C 
ATOM      4  N   UNL d   1      10.069   7.477  -7.344  0.00  0.00    -0.344 N 
ATOM      5  C   UNL d   1       9.345   8.120  -8.450  0.00  0.00     0.137 C 
ATOM      6  C   UNL d   1       9.571   7.281  -9.726  0.00  0.00     0.274 C 
ENDROOT
BRANCH   1   7
ATOM      7  C   UNL d   1       9.331   5.127 -10.749  0.00  0.00     0.255 C 
BRANCH   7   8
ATOM      8  C   UNL d   1       8.201   5.417 -11.746  0.00  0.00     0.068 C 
BRANCH   8   9
ATOM      9  C   UNL d   1       8.095   4.389 -12.871  0.00  0.00     0.050 A 
ATOM     10  C   UNL d   1       6.947   3.708 -13.129  0.00  0.00     0.061 A 
ATOM     11  C   UNL d   1       5.668   3.886 -12.333  0.00  0.00     0.052 C 
ATOM     12  N   UNL d   1       6.880   2.765 -14.149  0.00  0.00    -0.234 NA
ATOM     13  C   UNL d   1       7.923   2.514 -14.869  0.00  0.00     0.155 A 
ATOM     14  C   UNL d   1       7.815   1.525 -16.039  0.00  0.00     0.217 C 
ATOM     15  N   UNL d   1       9.158   3.190 -14.678  0.00  0.00    -0.282 N 
ATOM     16  C   UNL d   1       9.142   0.986 -16.570  0.00  0.00     0.045 C 
ATOM     17  F   UNL d   1       7.043   0.485 -15.721  0.00  0.00    -0.229 F 
ATOM     18  C   UNL d   1      10.085   2.149 -16.822  0.00  0.00     0.028 C 
ATOM     19  C   UNL d   1      10.353   2.871 -15.498  0.00  0.00     0.111 C 
ATOM     20  C   UNL d   1       9.298   4.123 -13.689  0.00  0.00     0.259 A 
ATOM     21  O   UNL d   1      10.375   4.704 -13.512  0.00  0.00    -0.267 OA
ENDBRANCH   8   9
ENDBRANCH   7   8
ENDBRANCH   1   7
BRANCH   4  22
ATOM     22  C   UNL d   1      10.939   8.165  -6.473  0.00  0.00     0.057 C 
ATOM     23  C   UNL d   1      11.312   7.671  -5.162  0.00  0.00     0.022 A 
ATOM     24  C   UNL d   1      12.244   8.416  -4.389  0.00  0.00     0.031 A 
ATOM     25  C   UNL d   1      10.951   6.527  -4.392  0.00  0.00     0.009 A 
ATOM     26  C   UNL d   1      12.786   9.596  -4.872  0.00  0.00     0.007 C 
ATOM     27  S   UNL d   1      12.600   7.766  -2.799  0.00  0.00    -0.086 SA
ATOM     28  C   UNL d   1      12.342  10.097  -6.090  0.00  0.00     0.002 C 
ATOM     29  C   UNL d   1      11.493   9.389  -6.913  0.00  0.00     0.017 C 
ATOM     30  C   UNL d   1      11.573   6.439  -3.176  0.00  0.00     0.035 A 
ENDBRANCH   4  22
TORSDOF 4
