REMARK  7 active torsions:
REMARK  status: ('A' for Active; 'I' for Inactive)
REMARK    1  A    between atoms: O_2  and  C_3 
REMARK    2  A    between atoms: C_8  and  N_9 
REMARK    3  A    between atoms: N_12  and  C_13 
REMARK    4  A    between atoms: C_13  and  C_14 
REMARK    5  A    between atoms: C_14  and  C_16 
REMARK    6  A    between atoms: C_16  and  N_17 
REMARK    7  A    between atoms: C_21  and  C_23 
ROOT
ATOM      1  C   UNL d   1       8.368   5.410 -11.499  0.00  0.00     0.208 C 
ATOM      2  O   UNL d   1       7.078   5.933 -11.308  0.00  0.00    -0.219 OA
ENDROOT
BRANCH   1   3
ATOM      3  C   UNL d   1       8.174   4.218 -12.439  0.00  0.00     0.285 C 
BRANCH   3   4
ATOM      4  N   UNL d   1       9.268   3.999 -13.375  0.00  0.00     0.144 N 
ATOM      5  C   UNL d   1       9.200   2.673 -13.993  0.00  0.00     0.274 C 
ATOM      6  C   UNL d   1      10.362   2.404 -14.965  0.00  0.00     0.137 C 
ATOM      7  N   UNL d   1      10.364   3.455 -15.984  0.00  0.00    -0.343 N 
ATOM      8  C   UNL d   1      10.376   4.823 -15.434  0.00  0.00     0.137 C 
ATOM      9  C   UNL d   1       9.214   4.988 -14.439  0.00  0.00     0.274 C 
BRANCH   7  10
ATOM     10  C   UNL d   1      10.317   3.147 -17.364  0.00  0.00     0.079 A 
ATOM     11  C   UNL d   1       9.626   3.967 -18.303  0.00  0.00     0.110 A 
ATOM     12  C   UNL d   1       9.634   3.646 -19.678  0.00  0.00     0.026 A 
ATOM     13  C   UNL d   1      10.316   2.508 -20.138  0.00  0.00     0.002 A 
ATOM     14  C   UNL d   1      11.001   1.688 -19.222  0.00  0.00     0.002 A 
ATOM     15  C   UNL d   1      10.997   2.001 -17.848  0.00  0.00     0.019 A 
BRANCH  11  16
ATOM     16  O   UNL d   1       8.900   5.030 -17.834  0.00  0.00    -0.327 OA
ATOM     17  C   UNL d   1       8.651   6.139 -18.683  0.00  0.00     0.181 C 
ENDBRANCH  11  16
ENDBRANCH   7  10
ENDBRANCH   3   4
ENDBRANCH   1   3
BRANCH   1  18
ATOM     18  C   UNL d   1       9.079   5.003 -10.172  0.00  0.00     0.148 C 
BRANCH  18  19
ATOM     19  N   UNL d   1       9.442   6.153  -9.339  0.00  0.00    -0.247 N 
ATOM     20  C   UNL d   1       8.982   6.336  -8.086  0.00  0.00     0.265 A 
ATOM     21  C   UNL d   1       9.605   7.640  -7.539  0.00  0.00     0.179 A 
ATOM     22  O   UNL d   1       8.150   5.591  -7.537  0.00  0.00    -0.269 OA
ATOM     23  N   UNL d   1      10.316   8.059  -8.684  0.00  0.00    -0.209 NA
ATOM     24  C   UNL d   1       8.515   8.617  -7.224  0.00  0.00     0.039 C 
ATOM     25  C   UNL d   1      10.152   7.213  -9.677  0.00  0.00     0.348 A 
ATOM     26  O   UNL d   1      10.614   7.439 -10.809  0.00  0.00    -0.245 OA
BRANCH  21  27
ATOM     27  C   UNL d   1      10.569   7.496  -6.368  0.00  0.00     0.006 C 
ATOM     28  C   UNL d   1      10.693   8.452  -5.330  0.00  0.00    -0.002 C 
ATOM     29  C   UNL d   1      11.519   8.233  -4.208  0.00  0.00    -0.000 C 
ATOM     30  C   UNL d   1      12.216   7.021  -4.103  0.00  0.00    -0.000 C 
ATOM     31  C   UNL d   1      12.090   6.101  -5.146  0.00  0.00    -0.000 C 
ATOM     32  C   UNL d   1      11.395   6.383  -6.307  0.00  0.00    -0.002 C 
ENDBRANCH  21  27
ENDBRANCH  18  19
ENDBRANCH   1  18
TORSDOF 7
