REMARK  9 active torsions:
REMARK  status: ('A' for Active; 'I' for Inactive)
REMARK    1  A    between atoms: O_2  and  C_3 
REMARK    2  A    between atoms: C_8  and  N_9 
REMARK    3  A    between atoms: N_12  and  C_13 
REMARK    4  A    between atoms: C_13  and  C_14 
REMARK    5  A    between atoms: C_14  and  C_15 
REMARK    6  A    between atoms: C_15  and  C_16 
REMARK    7  A    between atoms: C_16  and  N_17 
REMARK       I    between atoms: N_17  and  C_18 
REMARK    8  A    between atoms: C_18  and  C_20 
REMARK    9  A    between atoms: C_21  and  C_22 
ROOT
ATOM      1  C   UNL d   1       8.868   4.292 -14.246  0.00  0.00     0.251 C 
ENDROOT
BRANCH   1   2
ATOM      2  N   UNL d   1       8.170   3.055 -13.899  0.00  0.00     0.141 N 
ATOM      3  C   UNL d   1       8.610   1.990 -14.813  0.00  0.00     0.274 C 
ATOM      4  C   UNL d   1       7.972   0.634 -14.421  0.00  0.00     0.137 C 
ATOM      5  N   UNL d   1       6.526   0.777 -14.365  0.00  0.00    -0.343 N 
ATOM      6  C   UNL d   1       6.024   1.865 -13.544  0.00  0.00     0.137 C 
ATOM      7  C   UNL d   1       6.704   3.183 -13.927  0.00  0.00     0.274 C 
BRANCH   5   8
ATOM      8  C   UNL d   1       5.640   0.015 -15.161  0.00  0.00     0.079 A 
ATOM      9  C   UNL d   1       5.912  -0.271 -16.529  0.00  0.00     0.110 A 
ATOM     10  C   UNL d   1       5.010  -1.111 -17.245  0.00  0.00     0.026 A 
ATOM     11  C   UNL d   1       3.852  -1.604 -16.625  0.00  0.00     0.002 A 
ATOM     12  C   UNL d   1       3.548  -1.228 -15.296  0.00  0.00     0.002 A 
ATOM     13  C   UNL d   1       4.456  -0.441 -14.570  0.00  0.00     0.019 A 
BRANCH   9  14
ATOM     14  O   UNL d   1       7.013   0.307 -17.111  0.00  0.00    -0.327 OA
ATOM     15  C   UNL d   1       7.393  -0.118 -18.403  0.00  0.00     0.181 C 
ENDBRANCH   9  14
ENDBRANCH   5   8
ENDBRANCH   1   2
BRANCH   1  16
ATOM     16  C   UNL d   1       8.475   5.495 -13.373  0.00  0.00     0.037 C 
BRANCH  16  17
ATOM     17  C   UNL d   1       9.246   5.521 -12.056  0.00  0.00     0.029 C 
BRANCH  17  18
ATOM     18  C   UNL d   1       9.304   6.932 -11.465  0.00  0.00     0.129 C 
BRANCH  18  19
ATOM     19  N   UNL d   1      10.139   7.029 -10.277  0.00  0.00    -0.234 NA
ATOM     20  C   UNL d   1       9.898   6.421  -9.110  0.00  0.00     0.275 C 
ATOM     21  O   UNL d   1       9.133   5.463  -8.970  0.00  0.00    -0.266 OA
BRANCH  20  22
ATOM     22  C   UNL d   1      10.627   7.079  -8.046  0.00  0.00     0.062 C 
ATOM     23  C   UNL d   1      10.382   6.706  -6.787  0.00  0.00     0.005 C 
BRANCH  23  24
ATOM     24  C   UNL d   1      10.982   7.304  -5.601  0.00  0.00     0.000 A 
ATOM     25  C   UNL d   1      11.110   6.473  -4.488  0.00  0.00     0.000 A 
ATOM     26  C   UNL d   1      11.709   6.869  -3.288  0.00  0.00     0.006 A 
ATOM     27  C   UNL d   1      12.205   8.166  -3.209  0.00  0.00     0.030 A 
ATOM     28  C   UNL d   1      12.090   9.029  -4.321  0.00  0.00     0.006 A 
ATOM     29  I   UNL d   1      13.046   8.760  -1.405  0.00  0.00    -0.043 I 
ATOM     30  C   UNL d   1      11.480   8.609  -5.532  0.00  0.00     0.000 A 
ENDBRANCH  23  24
ENDBRANCH  20  22
ENDBRANCH  18  19
ENDBRANCH  17  18
ENDBRANCH  16  17
ENDBRANCH   1  16
TORSDOF 9
