REMARK  9 active torsions:
REMARK  status: ('A' for Active; 'I' for Inactive)
REMARK    1  A    between atoms: C_6  and  C_7 
REMARK    2  A    between atoms: C_10  and  S_11 
REMARK    3  A    between atoms: S_11  and  C_12 
REMARK    4  A    between atoms: C_12  and  C_13 
REMARK    5  A    between atoms: C_13  and  C_14 
REMARK    6  A    between atoms: C_14  and  N_15 
REMARK    7  A    between atoms: C_19  and  C_20 
REMARK    8  A    between atoms: C_23  and  O_24 
REMARK    9  A    between atoms: O_24  and  C_25 
ROOT
ATOM      1  N   UNL d   1       9.880   4.305 -13.427  0.00  0.00     0.137 N 
ATOM      2  C   UNL d   1       8.760   4.980 -14.112  0.00  0.00     0.251 C 
ATOM      3  C   UNL d   1       8.193   5.900 -13.055  0.00  0.00     0.039 A 
ATOM      4  C   UNL d   1       7.159   5.468 -12.041  0.00  0.00     0.008 A 
ATOM      5  C   UNL d   1       8.631   5.348 -11.731  0.00  0.00     0.052 A 
ATOM      6  C   UNL d   1       9.413   4.083 -12.063  0.00  0.00     0.254 C 
ENDROOT
BRANCH   1   7
ATOM      7  C   UNL d   1      10.312   3.042 -14.025  0.00  0.00     0.251 C 
BRANCH   7   8
ATOM      8  C   UNL d   1      10.918   3.307 -15.402  0.00  0.00     0.047 C 
BRANCH   8   9
ATOM      9  C   UNL d   1      11.952   4.488 -15.435  0.00  0.00     0.067 C 
BRANCH   9  10
ATOM     10  S   UNL d   1      12.579   4.769 -17.117  0.00  0.00    -0.075 SA
BRANCH  10  11
ATOM     11  C   UNL d   1      11.103   5.193 -17.966  0.00  0.00     0.193 A 
ATOM     12  N   UNL d   1      10.008   4.426 -18.021  0.00  0.00    -0.122 NA
ATOM     13  N   UNL d   1       9.085   5.131 -18.699  0.00  0.00    -0.126 NA
ATOM     14  C   UNL d   1       9.676   6.234 -19.131  0.00  0.00     0.191 A 
ATOM     15  N   UNL d   1      10.988   6.303 -18.700  0.00  0.00    -0.287 N 
ATOM     16  C   UNL d   1      12.028   7.282 -19.036  0.00  0.00     0.134 C 
BRANCH  14  17
ATOM     17  C   UNL d   1       8.976   7.166 -20.017  0.00  0.00     0.151 A 
ATOM     18  C   UNL d   1       9.317   7.990 -21.065  0.00  0.00     0.087 A 
ATOM     19  C   UNL d   1      10.652   8.285 -21.668  0.00  0.00     0.054 C 
ATOM     20  N   UNL d   1       8.156   8.598 -21.569  0.00  0.00    -0.221 NA
ATOM     21  C   UNL d   1       7.176   8.102 -20.821  0.00  0.00     0.225 A 
ATOM     22  O   UNL d   1       7.619   7.225 -19.860  0.00  0.00    -0.282 OA
ENDBRANCH  14  17
ENDBRANCH  10  11
ENDBRANCH   9  10
ENDBRANCH   8   9
ENDBRANCH   7   8
ENDBRANCH   1   7
BRANCH   5  23
ATOM     23  C   UNL d   1       9.266   6.218 -10.695  0.00  0.00    -0.021 A 
ATOM     24  C   UNL d   1       9.289   5.828  -9.342  0.00  0.00    -0.002 A 
ATOM     25  C   UNL d   1       9.862   6.673  -8.360  0.00  0.00     0.024 A 
ATOM     26  C   UNL d   1      10.443   7.911  -8.722  0.00  0.00     0.102 A 
ATOM     27  C   UNL d   1      10.415   8.291 -10.076  0.00  0.00     0.024 A 
ATOM     28  C   UNL d   1       9.824   7.468 -11.039  0.00  0.00    -0.002 A 
BRANCH  26  29
ATOM     29  O   UNL d   1      11.073   8.782  -7.855  0.00  0.00    -0.253 OA
BRANCH  29  30
ATOM     30  C   UNL d   1      10.960   8.622  -6.514  0.00  0.00     0.530 C 
ATOM     31  F   UNL d   1      11.676   9.585  -5.883  0.00  0.00    -0.144 F 
ATOM     32  F   UNL d   1       9.676   8.740  -6.102  0.00  0.00    -0.144 F 
ATOM     33  F   UNL d   1      11.446   7.425  -6.099  0.00  0.00    -0.144 F 
ENDBRANCH  29  30
ENDBRANCH  26  29
ENDBRANCH   5  23
TORSDOF 9
