REMARK  10 active torsions:
REMARK  status: ('A' for Active; 'I' for Inactive)
REMARK    1  A    between atoms: O_2  and  C_3 
REMARK    2  A    between atoms: C_8  and  N_9 
REMARK    3  A    between atoms: N_12  and  C_13 
REMARK    4  A    between atoms: C_13  and  C_14 
REMARK    5  A    between atoms: C_14  and  C_15 
REMARK    6  A    between atoms: C_15  and  N_16 
REMARK       I    between atoms: N_16  and  C_17 
REMARK       I    between atoms: C_17  and  N_19 
REMARK    7  A    between atoms: N_19  and  N_20 
REMARK    8  A    between atoms: N_20  and  C_21 
REMARK    9  A    between atoms: N_20  and  C_29 
REMARK   10  A    between atoms: C_21  and  C_22 
ROOT
ATOM      1  N   UNL d   1      10.437   4.341 -13.389  0.00  0.00    -0.216 NA
ATOM      2  C   UNL d   1       9.784   4.708 -14.499  0.00  0.00     0.381 C 
ATOM      3  O   UNL d   1       8.832   5.508 -14.472  0.00  0.00    -0.241 OA
ATOM      4  N   UNL d   1      10.190   4.057 -15.540  0.00  0.00    -0.110 NA
ENDROOT
BRANCH   1   5
ATOM      5  C   UNL d   1      10.067   4.775 -12.077  0.00  0.00     0.133 C 
BRANCH   5   6
ATOM      6  C   UNL d   1       8.591   4.964 -11.687  0.00  0.00     0.062 C 
BRANCH   6   7
ATOM      7  C   UNL d   1       8.361   4.920 -10.181  0.00  0.00     0.253 C 
BRANCH   7   8
ATOM      8  N   UNL d   1       8.800   6.078  -9.417  0.00  0.00     0.141 N 
ATOM      9  C   UNL d   1       8.288   5.968  -8.043  0.00  0.00     0.274 C 
ATOM     10  C   UNL d   1       8.635   7.246  -7.220  0.00  0.00     0.137 C 
ATOM     11  N   UNL d   1      10.061   7.476  -7.278  0.00  0.00    -0.343 N 
ATOM     12  C   UNL d   1      10.641   7.456  -8.607  0.00  0.00     0.137 C 
ATOM     13  C   UNL d   1      10.250   6.176  -9.333  0.00  0.00     0.274 C 
BRANCH  11  14
ATOM     14  C   UNL d   1      10.844   7.674  -6.142  0.00  0.00     0.079 A 
ATOM     15  C   UNL d   1      11.446   8.916  -5.917  0.00  0.00     0.110 A 
ATOM     16  C   UNL d   1      12.250   9.069  -4.763  0.00  0.00     0.026 A 
ATOM     17  C   UNL d   1      12.447   8.013  -3.862  0.00  0.00     0.002 A 
ATOM     18  C   UNL d   1      11.851   6.785  -4.112  0.00  0.00     0.002 A 
ATOM     19  C   UNL d   1      11.063   6.614  -5.252  0.00  0.00     0.019 A 
BRANCH  15  20
ATOM     20  O   UNL d   1      11.226   9.924  -6.830  0.00  0.00    -0.327 OA
ATOM     21  C   UNL d   1      11.802  11.172  -6.531  0.00  0.00     0.181 C 
ENDBRANCH  15  20
ENDBRANCH  11  14
ENDBRANCH   7   8
ENDBRANCH   6   7
ENDBRANCH   5   6
ENDBRANCH   1   5
BRANCH   4  22
ATOM     22  N   UNL d   1       9.533   4.186 -16.761  0.00  0.00    -0.243 N 
BRANCH  22  23
ATOM     23  C   UNL d   1       8.916   2.943 -17.252  0.00  0.00     0.154 C 
BRANCH  23  24
ATOM     24  C   UNL d   1       8.081   2.088 -16.270  0.00  0.00     0.002 C 
ATOM     25  C   UNL d   1       7.722   0.739 -16.639  0.00  0.00    -0.000 C 
ATOM     26  C   UNL d   1       6.932  -0.027 -15.723  0.00  0.00     0.029 C 
ATOM     27  C   UNL d   1       6.541   0.490 -14.457  0.00  0.00     0.140 C 
ATOM     28  C   UNL d   1       6.894   1.832 -14.162  0.00  0.00     0.029 C 
ATOM     29  F   UNL d   1       5.796  -0.253 -13.572  0.00  0.00    -0.204 F 
ATOM     30  C   UNL d   1       7.573   2.622 -15.072  0.00  0.00    -0.000 C 
ENDBRANCH  23  24
ENDBRANCH  22  23
BRANCH  22  31
ATOM     31  C   UNL d   1       9.990   5.200 -17.637  0.00  0.00     0.079 A 
ATOM     32  C   UNL d   1      11.271   5.773 -17.458  0.00  0.00     0.021 A 
ATOM     33  C   UNL d   1      11.716   6.795 -18.315  0.00  0.00     0.031 A 
ATOM     34  C   UNL d   1      10.879   7.259 -19.343  0.00  0.00     0.140 A 
ATOM     35  C   UNL d   1       9.603   6.699 -19.518  0.00  0.00     0.031 A 
ATOM     36  F   UNL d   1      11.298   8.252 -20.158  0.00  0.00    -0.204 F 
ATOM     37  C   UNL d   1       9.163   5.666 -18.670  0.00  0.00     0.021 A 
ENDBRANCH  22  31
ENDBRANCH   4  22
TORSDOF 10
