REMARK  5 active torsions:
REMARK  status: ('A' for Active; 'I' for Inactive)
REMARK       I    between atoms: N_2  and  C_4 
REMARK    1  A    between atoms: C_4  and  C_6 
REMARK    2  A    between atoms: C_9  and  C_10 
REMARK    3  A    between atoms: N_18  and  C_19 
REMARK    4  A    between atoms: C_19  and  C_20 
REMARK    5  A    between atoms: C_20  and  N_21 
ROOT
ATOM      1  C   UNL d   1      12.077   1.973 -17.579  0.00  0.00    -0.000 A 
ATOM      2  C   UNL d   1      12.507   3.279 -17.246  0.00  0.00     0.000 A 
ATOM      3  C   UNL d   1      11.892   3.993 -16.216  0.00  0.00     0.004 A 
ATOM      4  C   UNL d   1      10.842   3.412 -15.477  0.00  0.00     0.052 A 
ATOM      5  C   UNL d   1      10.423   2.102 -15.769  0.00  0.00    -0.016 A 
ATOM      6  C   UNL d   1      11.026   1.396 -16.815  0.00  0.00    -0.004 A 
ATOM      7  C   UNL d   1       9.311   1.472 -14.961  0.00  0.00     0.051 C 
ATOM      8  C   UNL d   1       8.345   2.535 -14.412  0.00  0.00     0.109 C 
ATOM      9  N   UNL d   1       9.042   3.709 -13.869  0.00  0.00    -0.314 N 
ATOM     10  C   UNL d   1      10.212   4.177 -14.366  0.00  0.00     0.257 C 
ATOM     11  O   UNL d   1      10.783   5.184 -13.951  0.00  0.00    -0.267 OA
ENDROOT
BRANCH   1  12
ATOM     12  C   UNL d   1      12.715   1.229 -18.684  0.00  0.00    -0.000 A 
ATOM     13  C   UNL d   1      13.420   1.895 -19.717  0.00  0.00     0.000 A 
ATOM     14  C   UNL d   1      14.051   1.174 -20.751  0.00  0.00     0.005 A 
ATOM     15  C   UNL d   1      13.973  -0.231 -20.772  0.00  0.00     0.056 A 
ATOM     16  C   UNL d   1      13.308  -0.905 -19.735  0.00  0.00     0.005 A 
ATOM     17  C   UNL d   1      12.659  -0.184 -18.721  0.00  0.00     0.000 A 
BRANCH  15  18
ATOM     18  C   UNL d   1      14.652  -1.008 -21.853  0.00  0.00     0.257 C 
ATOM     19  N   UNL d   1      13.906  -1.914 -22.535  0.00  0.00    -0.313 N 
ATOM     20  C   UNL d   1      14.564  -2.935 -23.353  0.00  0.00     0.129 C 
ATOM     21  C   UNL d   1      12.433  -1.923 -22.614  0.00  0.00     0.129 C 
ATOM     22  O   UNL d   1      15.853  -0.826 -22.044  0.00  0.00    -0.267 OA
ENDBRANCH  15  18
ENDBRANCH   1  12
BRANCH   9  23
ATOM     23  C   UNL d   1       8.372   4.380 -12.755  0.00  0.00     0.140 C 
BRANCH  23  24
ATOM     24  C   UNL d   1       9.290   4.421 -11.513  0.00  0.00     0.274 C 
BRANCH  24  25
ATOM     25  N   UNL d   1       8.533   4.659 -10.293  0.00  0.00     0.139 N 
ATOM     26  C   UNL d   1       8.020   5.994 -10.208  0.00  0.00     0.250 C 
ATOM     27  C   UNL d   1       9.192   6.866  -9.750  0.00  0.00     0.037 C 
ATOM     28  C   UNL d   1      10.126   5.903  -9.041  0.00  0.00     0.037 C 
ATOM     29  C   UNL d   1       9.401   4.545  -9.128  0.00  0.00     0.250 C 
ENDBRANCH  24  25
ENDBRANCH  23  24
ENDBRANCH   9  23
TORSDOF 5
