REMARK  10 active torsions:
REMARK  status: ('A' for Active; 'I' for Inactive)
REMARK    1  A    between atoms: O_2  and  C_3 
REMARK    2  A    between atoms: C_8  and  N_9 
REMARK    3  A    between atoms: N_12  and  C_13 
REMARK    4  A    between atoms: C_13  and  C_14 
REMARK    5  A    between atoms: C_14  and  C_15 
REMARK    6  A    between atoms: C_15  and  C_16 
REMARK    7  A    between atoms: C_16  and  N_17 
REMARK       I    between atoms: N_17  and  C_18 
REMARK    8  A    between atoms: C_18  and  C_20 
REMARK    9  A    between atoms: C_20  and  C_21 
REMARK   10  A    between atoms: C_21  and  C_22 
ROOT
ATOM      1  C   UNL d   1       8.896   4.904 -11.807  0.00  0.00     0.251 C 
ENDROOT
BRANCH   1   2
ATOM      2  N   UNL d   1       8.291   4.424 -13.052  0.00  0.00     0.141 N 
ATOM      3  C   UNL d   1       9.051   3.283 -13.569  0.00  0.00     0.274 C 
ATOM      4  C   UNL d   1       8.441   2.756 -14.876  0.00  0.00     0.137 C 
ATOM      5  N   UNL d   1       7.024   2.436 -14.681  0.00  0.00    -0.343 N 
ATOM      6  C   UNL d   1       6.226   3.505 -14.069  0.00  0.00     0.137 C 
ATOM      7  C   UNL d   1       6.903   4.019 -12.790  0.00  0.00     0.274 C 
BRANCH   5   8
ATOM      8  C   UNL d   1       6.466   1.190 -15.004  0.00  0.00     0.079 A 
ATOM      9  C   UNL d   1       6.848   0.437 -16.164  0.00  0.00     0.110 A 
ATOM     10  C   UNL d   1       6.214  -0.785 -16.445  0.00  0.00     0.026 A 
ATOM     11  C   UNL d   1       5.189  -1.282 -15.622  0.00  0.00     0.002 A 
ATOM     12  C   UNL d   1       4.801  -0.550 -14.488  0.00  0.00     0.002 A 
ATOM     13  C   UNL d   1       5.451   0.655 -14.171  0.00  0.00     0.019 A 
BRANCH   9  14
ATOM     14  O   UNL d   1       7.866   0.812 -17.012  0.00  0.00    -0.327 OA
ATOM     15  C   UNL d   1       7.523   1.824 -17.949  0.00  0.00     0.181 C 
ENDBRANCH   9  14
ENDBRANCH   5   8
ENDBRANCH   1   2
BRANCH   1  16
ATOM     16  C   UNL d   1       9.055   6.434 -11.834  0.00  0.00     0.037 C 
BRANCH  16  17
ATOM     17  C   UNL d   1       9.642   6.963 -10.514  0.00  0.00     0.029 C 
BRANCH  17  18
ATOM     18  C   UNL d   1       9.981   8.465 -10.548  0.00  0.00     0.129 C 
BRANCH  18  19
ATOM     19  N   UNL d   1      10.389   8.952  -9.242  0.00  0.00    -0.238 NA
ATOM     20  C   UNL d   1      11.551   8.653  -8.643  0.00  0.00     0.252 C 
ATOM     21  O   UNL d   1      12.464   8.034  -9.188  0.00  0.00    -0.271 OA
BRANCH  20  22
ATOM     22  C   UNL d   1      11.690   9.084  -7.190  0.00  0.00     0.094 C 
BRANCH  22  23
ATOM     23  C   UNL d   1      11.031   8.043  -6.263  0.00  0.00     0.036 C 
BRANCH  23  24
ATOM     24  C   UNL d   1      11.460   8.181  -4.815  0.00  0.00    -0.022 A 
ATOM     25  C   UNL d   1      11.458   9.449  -4.199  0.00  0.00    -0.004 A 
ATOM     26  C   UNL d   1      11.873   9.578  -2.865  0.00  0.00    -0.000 A 
ATOM     27  C   UNL d   1      12.266   8.446  -2.129  0.00  0.00    -0.000 A 
ATOM     28  C   UNL d   1      12.258   7.175  -2.733  0.00  0.00    -0.000 A 
ATOM     29  C   UNL d   1      11.854   7.044  -4.077  0.00  0.00    -0.004 A 
ENDBRANCH  23  24
ENDBRANCH  22  23
ENDBRANCH  20  22
ENDBRANCH  18  19
ENDBRANCH  17  18
ENDBRANCH  16  17
ENDBRANCH   1  16
TORSDOF 10
