REMARK  5 active torsions:
REMARK  status: ('A' for Active; 'I' for Inactive)
REMARK    1  A    between atoms: C_2  and  C_3 
REMARK    2  A    between atoms: C_3  and  C_4 
REMARK    3  A    between atoms: C_4  and  C_5 
REMARK    4  A    between atoms: C_4  and  N_14 
REMARK    5  A    between atoms: C_5  and  C_7 
ROOT
ATOM      1  C   UNL d   1      11.288   3.388 -15.743  0.00  0.00     0.280 C 
ENDROOT
BRANCH   1   2
ATOM      2  C   UNL d   1      11.187   4.463 -16.858  0.00  0.00     0.041 C 
BRANCH   2   3
ATOM      3  C   UNL d   1      12.117   5.680 -16.639  0.00  0.00     0.003 C 
ATOM      4  C   UNL d   1      13.612   5.301 -16.619  0.00  0.00     0.000 C 
ENDBRANCH   2   3
ENDBRANCH   1   2
BRANCH   1   5
ATOM      5  C   UNL d   1      10.892   4.029 -14.378  0.00  0.00     0.204 C 
ATOM      6  O   UNL d   1      11.784   4.485 -13.654  0.00  0.00    -0.289 OA
BRANCH   5   7
ATOM      7  C   UNL d   1       9.438   4.106 -13.965  0.00  0.00     0.037 A 
ATOM      8  C   UNL d   1       9.064   5.023 -12.939  0.00  0.00     0.003 A 
ATOM      9  C   UNL d   1       7.719   5.054 -12.472  0.00  0.00    -0.004 A 
ATOM     10  C   UNL d   1       6.780   4.144 -13.036  0.00  0.00    -0.022 A 
ATOM     11  C   UNL d   1       7.166   3.240 -14.025  0.00  0.00    -0.004 A 
ATOM     12  C   UNL d   1       5.334   4.142 -12.588  0.00  0.00     0.031 C 
ATOM     13  C   UNL d   1       8.452   3.270 -14.529  0.00  0.00     0.003 A 
ENDBRANCH   5   7
ENDBRANCH   1   5
BRANCH   1  14
ATOM     14  N   UNL d   1      10.651   2.119 -16.119  0.00  0.00     0.142 N 
ATOM     15  C   UNL d   1      10.498   1.145 -15.015  0.00  0.00     0.251 C 
ATOM     16  C   UNL d   1       9.941  -0.061 -15.748  0.00  0.00     0.037 C 
ATOM     17  C   UNL d   1      10.445   0.075 -17.193  0.00  0.00     0.037 C 
ATOM     18  C   UNL d   1      11.211   1.392 -17.212  0.00  0.00     0.251 C 
ENDBRANCH   1  14
TORSDOF 5
