REMARK  8 active torsions:
REMARK  status: ('A' for Active; 'I' for Inactive)
REMARK    1  A    between atoms: C_2  and  C_4 
REMARK    2  A    between atoms: C_8  and  O_9 
REMARK    3  A    between atoms: O_9  and  C_10 
REMARK    4  A    between atoms: C_10  and  C_11 
REMARK    5  A    between atoms: C_11  and  N_12 
REMARK    6  A    between atoms: C_18  and  N_19 
REMARK    7  A    between atoms: N_19  and  S_20 
REMARK    8  A    between atoms: S_20  and  C_23 
ROOT
ATOM      1  N   UNL d   1       9.154   3.493 -14.860  0.00  0.00     0.136 N 
ATOM      2  C   UNL d   1       9.980   2.404 -14.324  0.00  0.00     0.221 C 
ATOM      3  C   UNL d   1      11.355   2.611 -14.991  0.00  0.00     0.035 C 
ATOM      4  C   UNL d   1      11.030   3.333 -16.308  0.00  0.00     0.035 C 
ATOM      5  C   UNL d   1       9.498   3.470 -16.273  0.00  0.00     0.221 C 
ATOM      6  C   UNL d   1       8.757   2.269 -16.888  0.00  0.00     0.058 C 
ATOM      7  C   UNL d   1       9.156   0.905 -16.267  0.00  0.00     0.120 C 
ATOM      8  C   UNL d   1       9.310   1.056 -14.734  0.00  0.00     0.058 C 
ENDROOT
BRANCH   1   9
ATOM      9  C   UNL d   1       9.465   4.786 -14.253  0.00  0.00     0.282 C 
BRANCH   9  10
ATOM     10  C   UNL d   1       8.550   5.005 -13.050  0.00  0.00     0.184 C 
BRANCH  10  11
ATOM     11  O   UNL d   1       9.004   6.179 -12.384  0.00  0.00    -0.329 OA
BRANCH  11  12
ATOM     12  C   UNL d   1       9.160   6.182 -11.013  0.00  0.00     0.094 A 
ATOM     13  C   UNL d   1       8.650   5.181 -10.151  0.00  0.00     0.024 A 
ATOM     14  C   UNL d   1       8.891   5.239  -8.769  0.00  0.00     0.002 A 
ATOM     15  C   UNL d   1       9.610   6.310  -8.214  0.00  0.00    -0.004 A 
ATOM     16  C   UNL d   1      10.090   7.340  -9.048  0.00  0.00    -0.021 A 
ATOM     17  C   UNL d   1       9.860   7.264 -10.444  0.00  0.00     0.020 A 
BRANCH  16  18
ATOM     18  C   UNL d   1      10.838   8.529  -8.462  0.00  0.00     0.022 C 
ATOM     19  C   UNL d   1      12.259   8.133  -8.039  0.00  0.00     0.005 C 
ATOM     20  C   UNL d   1      10.061   9.176  -7.304  0.00  0.00     0.005 C 
ENDBRANCH  16  18
ENDBRANCH  11  12
ENDBRANCH  10  11
ENDBRANCH   9  10
ENDBRANCH   1   9
BRANCH   7  21
ATOM     21  N   UNL d   1      10.417   0.410 -16.838  0.00  0.00    -0.187 NA
BRANCH  21  22
ATOM     22  S   UNL d   1      10.518  -0.563 -18.243  0.00  0.00     0.281 S 
ATOM     23  O   UNL d   1      11.950  -0.825 -18.446  0.00  0.00    -0.199 OA
ATOM     24  O   UNL d   1       9.559  -1.665 -18.090  0.00  0.00    -0.199 OA
BRANCH  22  25
ATOM     25  C   UNL d   1       9.966   0.519 -19.552  0.00  0.00     0.107 A 
ATOM     26  C   UNL d   1       8.582   0.670 -19.781  0.00  0.00     0.043 A 
ATOM     27  C   UNL d   1       8.136   1.557 -20.773  0.00  0.00     0.141 A 
ATOM     28  C   UNL d   1       9.067   2.238 -21.587  0.00  0.00     0.030 A 
ATOM     29  F   UNL d   1       6.808   1.758 -20.948  0.00  0.00    -0.204 F 
ATOM     30  C   UNL d   1      10.449   2.068 -21.370  0.00  0.00     0.003 A 
ATOM     31  C   UNL d   1      10.902   1.211 -20.345  0.00  0.00     0.013 A 
ENDBRANCH  22  25
ENDBRANCH  21  22
ENDBRANCH   7  21
TORSDOF 8
