REMARK  11 active torsions:
REMARK  status: ('A' for Active; 'I' for Inactive)
REMARK    1  A    between atoms: C_2  and  C_4 
REMARK    2  A    between atoms: C_7  and  C_8 
REMARK    3  A    between atoms: C_11  and  C_12 
REMARK       I    between atoms: C_12  and  N_14 
REMARK    4  A    between atoms: N_14  and  C_15 
REMARK    5  A    between atoms: C_15  and  C_16 
REMARK    6  A    between atoms: C_16  and  C_17 
REMARK    7  A    between atoms: C_17  and  C_18 
REMARK    8  A    between atoms: C_18  and  N_19 
REMARK    9  A    between atoms: C_25  and  O_26 
REMARK   10  A    between atoms: O_26  and  S_27 
REMARK   11  A    between atoms: S_27  and  C_30 
ROOT
ATOM      1  C   UNL d   1       9.045  -0.488 -19.292  0.00  0.00     0.029 C 
ENDROOT
BRANCH   1   2
ATOM      2  C   UNL d   1       9.613   0.317 -20.471  0.00  0.00     0.129 C 
BRANCH   2   3
ATOM      3  N   UNL d   1      10.694   1.202 -20.044  0.00  0.00    -0.234 NA
ATOM      4  C   UNL d   1      10.597   2.535 -19.925  0.00  0.00     0.275 C 
ATOM      5  O   UNL d   1       9.547   3.157 -20.074  0.00  0.00    -0.266 OA
BRANCH   4   6
ATOM      6  C   UNL d   1      11.891   3.261 -19.686  0.00  0.00     0.058 A 
ATOM      7  C   UNL d   1      12.127   4.486 -20.346  0.00  0.00     0.005 A 
ATOM      8  C   UNL d   1      13.329   5.190 -20.139  0.00  0.00     0.000 A 
ATOM      9  C   UNL d   1      14.307   4.699 -19.251  0.00  0.00     0.000 A 
ATOM     10  C   UNL d   1      14.059   3.482 -18.582  0.00  0.00     0.000 A 
ATOM     11  C   UNL d   1      12.866   2.760 -18.797  0.00  0.00     0.005 A 
BRANCH   9  12
ATOM     12  C   UNL d   1      15.562   5.440 -19.026  0.00  0.00     0.000 A 
ATOM     13  C   UNL d   1      15.996   5.745 -17.718  0.00  0.00     0.000 A 
ATOM     14  C   UNL d   1      17.203   6.440 -17.506  0.00  0.00     0.003 A 
ATOM     15  C   UNL d   1      18.008   6.836 -18.594  0.00  0.00     0.035 A 
ATOM     16  C   UNL d   1      17.578   6.537 -19.904  0.00  0.00     0.003 A 
ATOM     17  C   UNL d   1      16.366   5.848 -20.113  0.00  0.00     0.000 A 
BRANCH  15  18
ATOM     18  C   UNL d   1      19.248   7.620 -18.339  0.00  0.00     0.173 C 
ATOM     19  C   UNL d   1      20.349   7.563 -19.398  0.00  0.00     0.077 C 
ATOM     20  O   UNL d   1      19.440   8.261 -17.306  0.00  0.00    -0.291 OA
ENDBRANCH  15  18
ENDBRANCH   9  12
ENDBRANCH   4   6
ENDBRANCH   2   3
ENDBRANCH   1   2
BRANCH   1  21
ATOM     21  C   UNL d   1       8.235   0.372 -18.315  0.00  0.00     0.037 C 
BRANCH  21  22
ATOM     22  C   UNL d   1       7.786  -0.418 -17.082  0.00  0.00     0.251 C 
BRANCH  22  23
ATOM     23  N   UNL d   1       6.948   0.392 -16.198  0.00  0.00     0.142 N 
ATOM     24  C   UNL d   1       7.813   1.192 -15.326  0.00  0.00     0.277 C 
ATOM     25  C   UNL d   1       7.045   1.972 -14.264  0.00  0.00     0.009 A 
ATOM     26  C   UNL d   1       5.783   1.536 -13.853  0.00  0.00    -0.022 A 
ATOM     27  C   UNL d   1       7.636   3.076 -13.645  0.00  0.00     0.023 A 
ATOM     28  C   UNL d   1       5.122   0.373 -14.558  0.00  0.00     0.061 C 
ATOM     29  C   UNL d   1       5.093   2.289 -12.882  0.00  0.00    -0.002 A 
ATOM     30  C   UNL d   1       6.122  -0.479 -15.358  0.00  0.00     0.255 C 
ATOM     31  C   UNL d   1       5.645   3.444 -12.282  0.00  0.00     0.025 A 
ATOM     32  C   UNL d   1       6.935   3.827 -12.644  0.00  0.00     0.113 A 
BRANCH  32  33
ATOM     33  O   UNL d   1       7.529   4.831 -11.972  0.00  0.00    -0.224 OA
BRANCH  33  34
ATOM     34  S   UNL d   1       7.983   6.131 -12.926  0.00  0.00     0.374 S 
ATOM     35  O   UNL d   1       8.365   5.591 -14.239  0.00  0.00    -0.189 OA
ATOM     36  O   UNL d   1       7.010   7.224 -12.812  0.00  0.00    -0.189 OA
BRANCH  34  37
ATOM     37  C   UNL d   1       9.525   6.566 -12.139  0.00  0.00     0.524 C 
ATOM     38  F   UNL d   1       9.844   7.755 -12.643  0.00  0.00    -0.155 F 
ATOM     39  F   UNL d   1       9.379   6.642 -10.817  0.00  0.00    -0.155 F 
ATOM     40  F   UNL d   1      10.370   5.594 -12.490  0.00  0.00    -0.155 F 
ENDBRANCH  34  37
ENDBRANCH  33  34
ENDBRANCH  32  33
ENDBRANCH  22  23
ENDBRANCH  21  22
ENDBRANCH   1  21
TORSDOF 11
