REMARK  7 active torsions:
REMARK  status: ('A' for Active; 'I' for Inactive)
REMARK    1  A    between atoms: C_2  and  C_3 
REMARK    2  A    between atoms: C_2  and  C_19 
REMARK    3  A    between atoms: C_3  and  C_4 
REMARK    4  A    between atoms: C_4  and  C_5 
REMARK    5  A    between atoms: C_5  and  C_6 
REMARK    6  A    between atoms: C_6  and  N_7 
REMARK    7  A    between atoms: C_10  and  C_11 
ROOT
ATOM      1  C   UNL d   1       8.952   5.645 -10.879  0.00  0.00     0.036 C 
ENDROOT
BRANCH   1   2
ATOM      2  C   UNL d   1       8.595   5.558 -12.369  0.00  0.00     0.010 C 
BRANCH   2   3
ATOM      3  C   UNL d   1       7.746   4.306 -12.714  0.00  0.00     0.071 C 
BRANCH   3   4
ATOM      4  C   UNL d   1       8.145   3.580 -14.009  0.00  0.00     0.197 C 
ATOM      5  O   UNL d   1       9.115   3.948 -14.677  0.00  0.00    -0.289 OA
BRANCH   4   6
ATOM      6  C   UNL d   1       7.330   2.400 -14.434  0.00  0.00     0.145 A 
ATOM      7  S   UNL d   1       7.810   1.548 -15.913  0.00  0.00    -0.064 SA
ATOM      8  C   UNL d   1       6.465   0.445 -15.662  0.00  0.00     0.049 A 
ATOM      9  C   UNL d   1       5.774   0.789 -14.463  0.00  0.00     0.088 A 
ATOM     10  C   UNL d   1       6.051  -0.629 -16.468  0.00  0.00     0.008 A 
ATOM     11  N   UNL d   1       6.262   1.904 -13.789  0.00  0.00    -0.236 NA
ATOM     12  C   UNL d   1       4.645   0.017 -14.110  0.00  0.00     0.020 A 
ATOM     13  C   UNL d   1       4.219  -1.052 -14.920  0.00  0.00     0.002 A 
ATOM     14  C   UNL d   1       4.927  -1.384 -16.090  0.00  0.00     0.001 A 
ENDBRANCH   4   6
ENDBRANCH   3   4
ENDBRANCH   2   3
ENDBRANCH   1   2
BRANCH   1  15
ATOM     15  C   UNL d   1       9.700   6.949 -10.557  0.00  0.00     0.250 C 
BRANCH  15  16
ATOM     16  N   UNL d   1      10.184   6.973  -9.179  0.00  0.00     0.137 N 
ATOM     17  C   UNL d   1      11.316   7.893  -9.070  0.00  0.00     0.251 C 
ATOM     18  C   UNL d   1      11.857   7.888  -7.631  0.00  0.00     0.040 C 
ATOM     19  C   UNL d   1      10.771   8.279  -6.617  0.00  0.00     0.026 C 
ATOM     20  C   UNL d   1       9.522   7.412  -6.844  0.00  0.00     0.040 C 
ATOM     21  C   UNL d   1       9.098   7.430  -8.312  0.00  0.00     0.251 C 
BRANCH  19  22
ATOM     22  C   UNL d   1      11.278   8.171  -5.184  0.00  0.00    -0.022 A 
ATOM     23  C   UNL d   1      11.476   9.331  -4.406  0.00  0.00    -0.004 A 
ATOM     24  C   UNL d   1      11.944   9.221  -3.080  0.00  0.00    -0.000 A 
ATOM     25  C   UNL d   1      12.216   7.956  -2.524  0.00  0.00    -0.000 A 
ATOM     26  C   UNL d   1      12.014   6.796  -3.295  0.00  0.00    -0.000 A 
ATOM     27  C   UNL d   1      11.551   6.905  -4.619  0.00  0.00    -0.004 A 
ENDBRANCH  19  22
ENDBRANCH  15  16
ENDBRANCH   1  15
TORSDOF 7
