REMARK  4 active torsions:
REMARK  status: ('A' for Active; 'I' for Inactive)
REMARK    1  A    between atoms: N_5  and  C_6 
REMARK    2  A    between atoms: N_15  and  N_16 
REMARK       I    between atoms: N_16  and  C_17 
REMARK    3  A    between atoms: C_17  and  C_19 
REMARK    4  A    between atoms: C_23  and  C_24 
ROOT
ATOM      1  C   UNL d   1       7.926   2.335 -14.444  0.00  0.00     0.142 C 
ATOM      2  N   UNL d   1       9.075   2.295 -15.063  0.00  0.00    -0.227 NA
ATOM      3  C   UNL d   1       9.897   3.404 -15.275  0.00  0.00     0.101 A 
ATOM      4  C   UNL d   1      10.676   3.379 -16.457  0.00  0.00     0.032 A 
ATOM      5  C   UNL d   1      11.594   4.410 -16.743  0.00  0.00     0.059 A 
ATOM      6 CL   UNL d   1      12.542   4.349 -18.184  0.00  0.00    -0.082 Cl
ATOM      7  C   UNL d   1      11.730   5.493 -15.860  0.00  0.00     0.013 A 
ATOM      8  C   UNL d   1      10.952   5.510 -14.694  0.00  0.00     0.022 A 
ATOM      9  C   UNL d   1      10.046   4.494 -14.366  0.00  0.00     0.101 A 
ATOM     10  N   UNL d   1       9.242   4.697 -13.229  0.00  0.00    -0.225 N 
ATOM     11  C   UNL d   1       7.873   4.719 -13.319  0.00  0.00     0.086 A 
ATOM     12  C   UNL d   1       7.102   5.774 -12.750  0.00  0.00     0.019 A 
ATOM     13  C   UNL d   1       5.702   5.720 -12.785  0.00  0.00     0.002 A 
ATOM     14  C   UNL d   1       5.104   4.646 -13.456  0.00  0.00     0.000 A 
ATOM     15  C   UNL d   1       5.889   3.643 -13.999  0.00  0.00     0.004 A 
ATOM     16  C   UNL d   1       7.271   3.616 -13.936  0.00  0.00     0.051 A 
ENDROOT
BRANCH  10  17
ATOM     17  N   UNL d   1       9.790   4.956 -11.970  0.00  0.00    -0.123 NA
ATOM     18  C   UNL d   1       9.142   4.955 -10.768  0.00  0.00     0.295 C 
ATOM     19  O   UNL d   1       8.070   4.410 -10.527  0.00  0.00    -0.264 OA
BRANCH  18  20
ATOM     20  C   UNL d   1       9.737   5.776  -9.680  0.00  0.00     0.059 A 
ATOM     21  C   UNL d   1      10.633   6.812  -9.948  0.00  0.00     0.009 A 
ATOM     22  C   UNL d   1      11.239   7.505  -8.898  0.00  0.00     0.072 A 
ATOM     23  C   UNL d   1      10.879   7.252  -7.564  0.00  0.00     0.004 A 
ATOM     24  C   UNL d   1       9.922   6.265  -7.305  0.00  0.00     0.000 A 
ATOM     25  C   UNL d   1       9.366   5.518  -8.357  0.00  0.00     0.005 A 
BRANCH  22  26
ATOM     26  C   UNL d   1      12.339   8.461  -9.226  0.00  0.00     0.419 C 
ATOM     27  F   UNL d   1      11.738   9.489  -9.814  0.00  0.00    -0.166 F 
ATOM     28  F   UNL d   1      12.966   8.786  -8.097  0.00  0.00    -0.166 F 
ATOM     29  F   UNL d   1      13.258   7.964 -10.051  0.00  0.00    -0.166 F 
ENDBRANCH  22  26
ENDBRANCH  18  20
ENDBRANCH  10  17
BRANCH   1  30
ATOM     30  N   UNL d   1       7.190   1.141 -14.196  0.00  0.00    -0.330 N 
ATOM     31  C   UNL d   1       6.255   0.863 -13.075  0.00  0.00     0.138 C 
ATOM     32  C   UNL d   1       4.952   0.302 -13.618  0.00  0.00     0.274 C 
ATOM     33  N   UNL d   1       5.200  -0.949 -14.297  0.00  0.00     0.143 N 
ATOM     34  C   UNL d   1       3.920  -1.443 -14.777  0.00  0.00     0.286 C 
ATOM     35  C   UNL d   1       6.074  -0.669 -15.432  0.00  0.00     0.274 C 
ATOM     36  C   UNL d   1       7.407  -0.098 -14.939  0.00  0.00     0.138 C 
ENDBRANCH   1  30
TORSDOF 4
