REMARK  3 active torsions:
REMARK  status: ('A' for Active; 'I' for Inactive)
REMARK    1  A    between atoms: C_2  and  C_3 
REMARK    2  A    between atoms: C_3  and  N_4 
REMARK    3  A    between atoms: C_7  and  C_8 
ROOT
ATOM      1  N   UNL d   1       9.261   5.366  -8.349  0.00  0.00     0.137 N 
ATOM      2  C   UNL d   1       8.254   6.237  -7.794  0.00  0.00     0.251 C 
ATOM      3  C   UNL d   1       8.823   7.145  -6.705  0.00  0.00     0.040 C 
ATOM      4  C   UNL d   1      10.064   7.920  -7.189  0.00  0.00     0.028 C 
ATOM      5  C   UNL d   1      11.062   6.965  -7.826  0.00  0.00     0.040 C 
ATOM      6  C   UNL d   1      10.364   6.147  -8.897  0.00  0.00     0.251 C 
ENDROOT
BRANCH   4   7
ATOM      7  C   UNL d   1      10.708   8.659  -6.067  0.00  0.00     0.004 A 
ATOM      8  C   UNL d   1      11.272   8.099  -4.881  0.00  0.00     0.021 A 
ATOM      9  C   UNL d   1      11.699   9.206  -4.094  0.00  0.00     0.100 A 
ATOM     10  C   UNL d   1      11.458   6.819  -4.319  0.00  0.00     0.002 A 
ATOM     11  O   UNL d   1      11.417  10.368  -4.764  0.00  0.00    -0.305 OA
ATOM     12  C   UNL d   1      12.283   9.066  -2.837  0.00  0.00     0.025 A 
ATOM     13  C   UNL d   1      10.889  10.002  -5.967  0.00  0.00     0.118 A 
ATOM     14  C   UNL d   1      12.450   7.779  -2.306  0.00  0.00     0.002 A 
ATOM     15  C   UNL d   1      12.027   6.655  -3.046  0.00  0.00     0.000 A 
ENDBRANCH   4   7
BRANCH   1  16
ATOM     16  C   UNL d   1       8.684   4.482  -9.358  0.00  0.00     0.250 C 
BRANCH  16  17
ATOM     17  C   UNL d   1       8.165   5.199 -10.642  0.00  0.00     0.035 C 
ATOM     18  C   UNL d   1       7.567   4.275 -11.682  0.00  0.00     0.002 C 
ENDBRANCH  16  17
ENDBRANCH   1  16
TORSDOF 3
