REMARK  4 active torsions:
REMARK  status: ('A' for Active; 'I' for Inactive)
REMARK    1  A    between atoms: C_2  and  C_3 
REMARK    2  A    between atoms: C_3  and  N_4 
REMARK    3  A    between atoms: C_16  and  O_17 
REMARK    4  A    between atoms: C_19  and  O_20 
ROOT
ATOM      1  N   UNL d   1       8.482   5.331 -12.268  0.00  0.00     0.142 N 
ATOM      2  C   UNL d   1       7.895   3.992 -12.308  0.00  0.00     0.255 C 
ATOM      3  C   UNL d   1       7.008   3.726 -13.553  0.00  0.00     0.061 C 
ATOM      4  C   UNL d   1       6.739   2.254 -13.850  0.00  0.00    -0.024 A 
ATOM      5  C   UNL d   1       5.461   1.730 -13.568  0.00  0.00    -0.004 A 
ATOM      6  C   UNL d   1       5.147   0.383 -13.811  0.00  0.00    -0.000 A 
ATOM      7  C   UNL d   1       6.144  -0.485 -14.282  0.00  0.00    -0.000 A 
ATOM      8  C   UNL d   1       7.435   0.005 -14.530  0.00  0.00    -0.004 A 
ATOM      9  C   UNL d   1       7.756   1.363 -14.319  0.00  0.00    -0.022 A 
ATOM     10  C   UNL d   1       9.219   1.776 -14.511  0.00  0.00     0.052 C 
ATOM     11  C   UNL d   1       9.459   2.806 -15.601  0.00  0.00    -0.020 A 
ATOM     12  C   UNL d   1       9.135   2.407 -16.911  0.00  0.00     0.022 A 
ATOM     13  C   UNL d   1       9.301   3.284 -18.006  0.00  0.00     0.116 A 
ATOM     14  C   UNL d   1       9.831   4.572 -17.785  0.00  0.00     0.116 A 
ATOM     15  C   UNL d   1      10.159   4.973 -16.468  0.00  0.00     0.022 A 
ATOM     16  C   UNL d   1       9.972   4.111 -15.365  0.00  0.00    -0.022 A 
ATOM     17  C   UNL d   1      10.295   4.664 -13.976  0.00  0.00     0.061 C 
ATOM     18  C   UNL d   1       9.237   5.683 -13.473  0.00  0.00     0.255 C 
ENDROOT
BRANCH   1  19
ATOM     19  C   UNL d   1       9.292   5.495 -11.051  0.00  0.00     0.277 C 
BRANCH  19  20
ATOM     20  C   UNL d   1       9.625   6.952 -10.738  0.00  0.00     0.009 C 
ATOM     21  C   UNL d   1       9.522   7.501  -9.521  0.00  0.00    -0.003 C 
ENDBRANCH  19  20
ENDBRANCH   1  19
BRANCH  14  22
ATOM     22  O   UNL d   1       9.977   5.382 -18.890  0.00  0.00    -0.326 OA
ATOM     23  C   UNL d   1      10.881   6.470 -18.805  0.00  0.00     0.181 C 
ENDBRANCH  14  22
BRANCH  13  24
ATOM     24  O   UNL d   1       8.973   2.950 -19.303  0.00  0.00    -0.326 OA
ATOM     25  C   UNL d   1       8.498   1.640 -19.560  0.00  0.00     0.181 C 
ENDBRANCH  13  24
TORSDOF 4
