REMARK  9 active torsions:
REMARK  status: ('A' for Active; 'I' for Inactive)
REMARK    1  A    between atoms: O_2  and  C_3 
REMARK    2  A    between atoms: C_5  and  C_6 
REMARK       I    between atoms: C_6  and  N_8 
REMARK    3  A    between atoms: N_8  and  C_9 
REMARK    4  A    between atoms: C_9  and  C_10 
REMARK    5  A    between atoms: C_10  and  C_11 
REMARK    6  A    between atoms: C_11  and  C_12 
REMARK    7  A    between atoms: C_12  and  N_13 
REMARK    8  A    between atoms: C_28  and  O_29 
REMARK    9  A    between atoms: C_31  and  O_32 
ROOT
ATOM      1  C   UNL d   1       8.320   4.642 -12.528  0.00  0.00     0.029 C 
ENDROOT
BRANCH   1   2
ATOM      2  C   UNL d   1       7.498   4.739 -11.229  0.00  0.00     0.129 C 
BRANCH   2   3
ATOM      3  N   UNL d   1       8.159   5.624 -10.283  0.00  0.00    -0.234 NA
ATOM      4  C   UNL d   1       8.933   5.283  -9.250  0.00  0.00     0.275 C 
ATOM      5  O   UNL d   1       9.052   4.121  -8.829  0.00  0.00    -0.266 OA
BRANCH   4   6
ATOM      6  C   UNL d   1       9.697   6.387  -8.601  0.00  0.00     0.062 A 
ATOM      7  C   UNL d   1       9.863   6.442  -7.209  0.00  0.00     0.031 A 
ATOM      8  C   UNL d   1      10.645   7.447  -6.589  0.00  0.00     0.118 A 
ATOM      9  C   UNL d   1      11.223   8.438  -7.398  0.00  0.00     0.138 A 
ATOM     10  C   UNL d   1      11.079   8.394  -8.790  0.00  0.00     0.118 A 
ATOM     11  C   UNL d   1      10.324   7.368  -9.411  0.00  0.00     0.031 A 
BRANCH   8  12
ATOM     12  O   UNL d   1      10.909   7.543  -5.240  0.00  0.00    -0.326 OA
ATOM     13  C   UNL d   1      10.697   6.403  -4.449  0.00  0.00     0.181 C 
ENDBRANCH   8  12
BRANCH   9  14
ATOM     14  O   UNL d   1      11.977   9.450  -6.846  0.00  0.00    -0.324 OA
ATOM     15  C   UNL d   1      11.230  10.373  -6.074  0.00  0.00     0.182 C 
ENDBRANCH   9  14
BRANCH  10  16
ATOM     16  O   UNL d   1      11.685   9.402  -9.489  0.00  0.00    -0.326 OA
ATOM     17  C   UNL d   1      12.181   9.071 -10.739  0.00  0.00     0.181 C 
ENDBRANCH  10  16
ENDBRANCH   4   6
ENDBRANCH   2   3
ENDBRANCH   1   2
BRANCH   1  18
ATOM     18  C   UNL d   1       9.746   4.084 -12.307  0.00  0.00     0.037 C 
BRANCH  18  19
ATOM     19  C   UNL d   1      10.664   4.199 -13.542  0.00  0.00     0.251 C 
BRANCH  19  20
ATOM     20  N   UNL d   1      10.416   3.299 -14.667  0.00  0.00     0.143 N 
ATOM     21  C   UNL d   1      11.498   3.340 -15.671  0.00  0.00     0.280 C 
ATOM     22  C   UNL d   1      11.187   2.362 -16.822  0.00  0.00     0.173 C 
ATOM     23  C   UNL d   1      11.833   4.716 -16.291  0.00  0.00     0.185 C 
ATOM     24  O   UNL d   1      11.066   1.034 -16.326  0.00  0.00    -0.348 OA
ATOM     25  C   UNL d   1      12.217   2.442 -17.919  0.00  0.00     0.029 A 
ATOM     26  C   UNL d   1      10.030   0.928 -15.356  0.00  0.00     0.178 C 
ATOM     27  C   UNL d   1      10.266   1.915 -14.216  0.00  0.00     0.282 C 
ATOM     28  C   UNL d   1      13.055   3.578 -18.022  0.00  0.00     0.092 A 
ATOM     29  C   UNL d   1      12.323   1.381 -18.844  0.00  0.00     0.000 A 
ATOM     30  C   UNL d   1      14.017   3.616 -19.052  0.00  0.00     0.024 A 
ATOM     31  O   UNL d   1      12.984   4.636 -17.137  0.00  0.00    -0.329 OA
ATOM     32  C   UNL d   1      14.127   2.556 -19.974  0.00  0.00     0.002 A 
ATOM     33  C   UNL d   1      13.279   1.438 -19.873  0.00  0.00    -0.000 A 
ENDBRANCH  19  20
ENDBRANCH  18  19
ENDBRANCH   1  18
TORSDOF 9
