REMARK  7 active torsions:
REMARK  status: ('A' for Active; 'I' for Inactive)
REMARK    1  A    between atoms: C_3  and  C_4 
REMARK    2  A    between atoms: N_15  and  C_16 
REMARK    3  A    between atoms: C_16  and  C_17 
REMARK    4  A    between atoms: C_17  and  C_18 
REMARK    5  A    between atoms: C_18  and  C_19 
REMARK    6  A    between atoms: C_19  and  N_20 
REMARK    7  A    between atoms: C_24  and  C_25 
ROOT
ATOM      1  O   UNL d   1       9.645   6.782 -18.340  0.00  0.00    -0.267 OA
ATOM      2  C   UNL d   1       9.678   5.648 -18.811  0.00  0.00     0.265 A 
ATOM      3  C   UNL d   1       9.196   5.332 -20.163  0.00  0.00     0.068 A 
ATOM      4  C   UNL d   1       9.296   4.055 -20.622  0.00  0.00     0.046 A 
ATOM      5  N   UNL d   1       9.799   3.006 -19.855  0.00  0.00    -0.285 N 
ATOM      6  C   UNL d   1      10.271   3.236 -18.539  0.00  0.00     0.333 A 
ATOM      7  O   UNL d   1      10.729   2.326 -17.841  0.00  0.00    -0.246 OA
ATOM      8  N   UNL d   1      10.190   4.559 -18.068  0.00  0.00    -0.249 N 
ATOM      9  C   UNL d   1       9.868   1.663 -20.386  0.00  0.00     0.110 C 
ATOM     10  C   UNL d   1       8.540   1.266 -21.047  0.00  0.00     0.025 C 
ATOM     11  C   UNL d   1       8.004   2.337 -22.011  0.00  0.00     0.008 C 
ATOM     12  C   UNL d   1       8.837   3.625 -22.023  0.00  0.00     0.044 C 
ENDROOT
BRANCH   8  13
ATOM     13  C   UNL d   1      10.588   4.828 -16.692  0.00  0.00     0.114 C 
BRANCH  13  14
ATOM     14  C   UNL d   1       9.385   4.920 -15.741  0.00  0.00     0.027 C 
BRANCH  14  15
ATOM     15  C   UNL d   1       9.803   5.048 -14.270  0.00  0.00     0.037 C 
BRANCH  15  16
ATOM     16  C   UNL d   1       8.627   5.400 -13.331  0.00  0.00     0.250 C 
BRANCH  16  17
ATOM     17  N   UNL d   1       9.047   5.379 -11.927  0.00  0.00     0.137 N 
ATOM     18  C   UNL d   1       7.931   5.909 -11.118  0.00  0.00     0.255 C 
ATOM     19  C   UNL d   1       8.329   6.025  -9.617  0.00  0.00     0.057 C 
ATOM     20  C   UNL d   1       8.647   4.607  -9.067  0.00  0.00     0.009 C 
ATOM     21  C   UNL d   1       9.801   4.088  -9.912  0.00  0.00     0.036 C 
ATOM     22  C   UNL d   1       9.367   4.046 -11.434  0.00  0.00     0.250 C 
BRANCH  19  23
ATOM     23  C   UNL d   1       9.460   6.995  -9.379  0.00  0.00     0.000 A 
ATOM     24  C   UNL d   1      10.038   7.359  -8.123  0.00  0.00     0.015 A 
ATOM     25  C   UNL d   1      11.084   8.294  -8.359  0.00  0.00     0.081 A 
ATOM     26  C   UNL d   1       9.792   6.974  -6.783  0.00  0.00     0.001 A 
ATOM     27  N   UNL d   1      11.123   8.474  -9.728  0.00  0.00    -0.244 NA
ATOM     28  C   UNL d   1      11.843   8.842  -7.311  0.00  0.00     0.019 A 
ATOM     29  C   UNL d   1      10.151   7.729 -10.336  0.00  0.00     0.095 A 
ATOM     30  C   UNL d   1      11.557   8.461  -5.981  0.00  0.00     0.002 A 
ATOM     31  C   UNL d   1      10.561   7.504  -5.727  0.00  0.00     0.000 A 
ENDBRANCH  19  23
ENDBRANCH  16  17
ENDBRANCH  15  16
ENDBRANCH  14  15
ENDBRANCH  13  14
ENDBRANCH   8  13
BRANCH   3  32
ATOM     32  C   UNL d   1       8.706   6.441 -21.005  0.00  0.00     0.006 A 
ATOM     33  C   UNL d   1       9.361   6.770 -22.215  0.00  0.00     0.003 A 
ATOM     34  C   UNL d   1       8.880   7.817 -23.017  0.00  0.00     0.030 A 
ATOM     35  C   UNL d   1       7.752   8.562 -22.613  0.00  0.00     0.140 A 
ATOM     36  C   UNL d   1       7.108   8.250 -21.397  0.00  0.00     0.030 A 
ATOM     37  F   UNL d   1       7.288   9.567 -23.388  0.00  0.00    -0.204 F 
ATOM     38  C   UNL d   1       7.579   7.198 -20.599  0.00  0.00     0.003 A 
ENDBRANCH   3  32
TORSDOF 7
