REMARK  8 active torsions:
REMARK  status: ('A' for Active; 'I' for Inactive)
REMARK    1  A    between atoms: C_6  and  C_7 
REMARK    2  A    between atoms: C_10  and  S_11 
REMARK    3  A    between atoms: S_11  and  C_12 
REMARK    4  A    between atoms: C_12  and  C_13 
REMARK    5  A    between atoms: C_13  and  C_14 
REMARK    6  A    between atoms: C_14  and  N_15 
REMARK    7  A    between atoms: C_19  and  C_20 
REMARK    8  A    between atoms: C_23  and  C_24 
ROOT
ATOM      1  N   UNL d   1      10.029   6.587  -9.757  0.00  0.00     0.137 N 
ATOM      2  C   UNL d   1      11.063   7.434 -10.338  0.00  0.00     0.251 C 
ATOM      3  C   UNL d   1      11.566   8.264  -9.213  0.00  0.00     0.039 A 
ATOM      4  C   UNL d   1      10.928   9.564  -8.835  0.00  0.00     0.008 A 
ATOM      5  C   UNL d   1      10.479   8.281  -8.197  0.00  0.00     0.052 A 
ATOM      6  C   UNL d   1       9.365   7.440  -8.767  0.00  0.00     0.254 C 
ENDROOT
BRANCH   1   7
ATOM      7  C   UNL d   1       9.111   6.073 -10.786  0.00  0.00     0.251 C 
BRANCH   7   8
ATOM      8  C   UNL d   1       9.813   5.068 -11.712  0.00  0.00     0.047 C 
BRANCH   8   9
ATOM      9  C   UNL d   1       8.977   4.547 -12.870  0.00  0.00     0.067 C 
BRANCH   9  10
ATOM     10  S   UNL d   1       9.789   3.157 -13.719  0.00  0.00    -0.075 SA
BRANCH  10  11
ATOM     11  C   UNL d   1      10.999   4.025 -14.662  0.00  0.00     0.193 A 
ATOM     12  N   UNL d   1      12.238   4.259 -14.232  0.00  0.00    -0.122 NA
ATOM     13  N   UNL d   1      12.863   4.906 -15.270  0.00  0.00    -0.126 NA
ATOM     14  C   UNL d   1      11.953   5.037 -16.241  0.00  0.00     0.191 A 
ATOM     15  N   UNL d   1      10.763   4.488 -15.903  0.00  0.00    -0.287 N 
ATOM     16  C   UNL d   1       9.540   4.401 -16.682  0.00  0.00     0.134 C 
BRANCH  14  17
ATOM     17  C   UNL d   1      12.264   5.703 -17.507  0.00  0.00     0.151 A 
ATOM     18  C   UNL d   1      13.430   6.223 -18.023  0.00  0.00     0.087 A 
ATOM     19  C   UNL d   1      14.806   6.277 -17.435  0.00  0.00     0.054 C 
ATOM     20  N   UNL d   1      13.161   6.744 -19.281  0.00  0.00    -0.221 NA
ATOM     21  C   UNL d   1      11.863   6.526 -19.464  0.00  0.00     0.225 A 
ATOM     22  O   UNL d   1      11.262   5.891 -18.424  0.00  0.00    -0.282 OA
ENDBRANCH  14  17
ENDBRANCH  10  11
ENDBRANCH   9  10
ENDBRANCH   8   9
ENDBRANCH   7   8
ENDBRANCH   1   7
BRANCH   5  23
ATOM     23  C   UNL d   1      10.818   8.010  -6.774  0.00  0.00    -0.021 A 
ATOM     24  C   UNL d   1      11.120   6.714  -6.344  0.00  0.00    -0.005 A 
ATOM     25  C   UNL d   1      11.477   6.490  -5.005  0.00  0.00    -0.005 A 
ATOM     26  C   UNL d   1      11.547   7.506  -4.038  0.00  0.00    -0.023 A 
ATOM     27  C   UNL d   1      11.279   8.826  -4.507  0.00  0.00    -0.005 A 
ATOM     28  C   UNL d   1      10.903   9.067  -5.836  0.00  0.00    -0.005 A 
BRANCH  26  29
ATOM     29  C   UNL d   1      11.842   7.172  -2.548  0.00  0.00     0.019 C 
ATOM     30  C   UNL d   1      12.290   8.457  -1.846  0.00  0.00     0.004 C 
ATOM     31  C   UNL d   1      13.024   6.197  -2.433  0.00  0.00     0.004 C 
ATOM     32  C   UNL d   1      10.644   6.499  -1.852  0.00  0.00     0.004 C 
ENDBRANCH  26  29
ENDBRANCH   5  23
TORSDOF 8
