REMARK  6 active torsions:
REMARK  status: ('A' for Active; 'I' for Inactive)
REMARK    1  A    between atoms: C_5  and  C_6 
REMARK    2  A    between atoms: C_6  and  N_7 
REMARK    3  A    between atoms: C_10  and  N_11 
REMARK    4  A    between atoms: C_22  and  N_23 
REMARK       I    between atoms: N_23  and  C_24 
REMARK    5  A    between atoms: C_24  and  C_26 
REMARK    6  A    between atoms: C_29  and  C_30 
ROOT
ATOM      1  C   UNL d   1       6.033   5.019 -12.300  0.00  0.00     0.033 C 
ATOM      2  C   UNL d   1       7.255   4.369 -12.912  0.00  0.00    -0.004 A 
ATOM      3  C   UNL d   1       7.109   3.503 -14.014  0.00  0.00    -0.003 A 
ATOM      4  C   UNL d   1       8.229   2.852 -14.569  0.00  0.00    -0.003 A 
ATOM      5  C   UNL d   1       9.515   3.067 -14.034  0.00  0.00     0.004 A 
ATOM      6  C   UNL d   1       9.666   3.938 -12.933  0.00  0.00     0.017 A 
ATOM      7  C   UNL d   1       8.542   4.588 -12.371  0.00  0.00     0.080 A 
ENDROOT
BRANCH   5   8
ATOM      8  C   UNL d   1      10.710   2.341 -14.637  0.00  0.00     0.157 C 
BRANCH   8   9
ATOM      9  N   UNL d   1      11.340   3.101 -15.717  0.00  0.00    -0.211 N 
ATOM     10  C   UNL d   1      12.237   4.090 -15.440  0.00  0.00     0.289 A 
ATOM     11  C   UNL d   1      12.768   4.767 -16.635  0.00  0.00     0.132 A 
ATOM     12  O   UNL d   1      12.562   4.384 -14.288  0.00  0.00    -0.265 OA
ATOM     13  C   UNL d   1      12.374   4.443 -17.899  0.00  0.00     0.093 A 
ATOM     14 CL   UNL d   1      13.965   5.982 -16.337  0.00  0.00    -0.076 Cl
ATOM     15  C   UNL d   1      11.422   3.348 -18.004  0.00  0.00     0.138 A 
ATOM     16  N   UNL d   1      10.945   2.727 -16.980  0.00  0.00    -0.164 NA
BRANCH  13  17
ATOM     17  N   UNL d   1      12.820   5.096 -19.050  0.00  0.00    -0.342 N 
ATOM     18  C   UNL d   1      13.319   4.420 -20.244  0.00  0.00     0.140 C 
ATOM     19  C   UNL d   1      14.703   4.973 -20.646  0.00  0.00     0.314 C 
ATOM     20  N   UNL d   1      14.626   6.414 -20.885  0.00  0.00     0.343 N 
ATOM     21  C   UNL d   1      14.190   7.064 -19.651  0.00  0.00     0.314 C 
ATOM     22  C   UNL d   1      12.796   6.545 -19.244  0.00  0.00     0.140 C 
ENDBRANCH  13  17
ENDBRANCH   8   9
ENDBRANCH   5   8
BRANCH   7  23
ATOM     23  N   UNL d   1       8.697   5.341 -11.180  0.00  0.00    -0.208 NA
ATOM     24  C   UNL d   1       9.302   6.532 -11.082  0.00  0.00     0.279 C 
ATOM     25  O   UNL d   1       9.456   7.274 -12.055  0.00  0.00    -0.265 OA
BRANCH  24  26
ATOM     26  C   UNL d   1       9.747   6.918  -9.687  0.00  0.00     0.058 A 
ATOM     27  C   UNL d   1       9.095   6.396  -8.541  0.00  0.00     0.005 A 
ATOM     28  C   UNL d   1       9.528   6.731  -7.244  0.00  0.00     0.000 A 
ATOM     29  C   UNL d   1      10.621   7.596  -7.046  0.00  0.00     0.000 A 
ATOM     30  C   UNL d   1      11.257   8.142  -8.181  0.00  0.00     0.000 A 
ATOM     31  C   UNL d   1      10.826   7.812  -9.486  0.00  0.00     0.005 A 
BRANCH  29  32
ATOM     32  C   UNL d   1      11.060   7.934  -5.682  0.00  0.00     0.000 A 
ATOM     33  C   UNL d   1      11.457   6.922  -4.783  0.00  0.00     0.000 A 
ATOM     34  C   UNL d   1      11.875   7.232  -3.473  0.00  0.00     0.000 A 
ATOM     35  C   UNL d   1      11.880   8.573  -3.043  0.00  0.00     0.000 A 
ATOM     36  C   UNL d   1      11.465   9.589  -3.921  0.00  0.00     0.000 A 
ATOM     37  C   UNL d   1      11.066   9.275  -5.237  0.00  0.00     0.000 A 
ENDBRANCH  29  32
ENDBRANCH  24  26
ENDBRANCH   7  23
TORSDOF 6
