REMARK  6 active torsions:
REMARK  status: ('A' for Active; 'I' for Inactive)
REMARK       I    between atoms: C_2  and  N_3 
REMARK    1  A    between atoms: C_2  and  C_27 
REMARK    2  A    between atoms: N_3  and  C_4 
REMARK    3  A    between atoms: C_4  and  C_5 
REMARK    4  A    between atoms: C_5  and  C_6 
REMARK    5  A    between atoms: C_6  and  C_7 
REMARK    6  A    between atoms: C_7  and  N_8 
ROOT
ATOM      1  N   UNL d   1       9.222   3.375 -14.481  0.00  0.00     0.141 N 
ATOM      2  C   UNL d   1       8.209   2.378 -14.149  0.00  0.00     0.274 C 
ATOM      3  C   UNL d   1       7.479   1.929 -15.418  0.00  0.00     0.137 C 
ATOM      4  N   UNL d   1       8.433   1.369 -16.366  0.00  0.00    -0.343 N 
ATOM      5  C   UNL d   1       7.917   0.495 -17.344  0.00  0.00     0.053 A 
ATOM      6  C   UNL d   1       6.589   0.612 -17.821  0.00  0.00     0.017 A 
ATOM      7  C   UNL d   1       6.087  -0.302 -18.768  0.00  0.00     0.002 A 
ATOM      8  C   UNL d   1       6.904  -1.344 -19.241  0.00  0.00    -0.000 A 
ATOM      9  C   UNL d   1       8.224  -1.466 -18.773  0.00  0.00    -0.003 A 
ATOM     10  C   UNL d   1       8.730  -0.551 -17.828  0.00  0.00    -0.002 A 
ATOM     11  C   UNL d   1      10.159  -0.672 -17.341  0.00  0.00     0.054 C 
ATOM     12  C   UNL d   1      10.975   0.459 -17.924  0.00  0.00    -0.020 A 
ATOM     13  C   UNL d   1      12.037   0.147 -18.800  0.00  0.00    -0.004 A 
ATOM     14  C   UNL d   1      12.781   1.170 -19.413  0.00  0.00    -0.000 A 
ATOM     15  C   UNL d   1      12.461   2.514 -19.158  0.00  0.00    -0.000 A 
ATOM     16  C   UNL d   1      11.403   2.831 -18.287  0.00  0.00    -0.003 A 
ATOM     17  C   UNL d   1      10.649   1.816 -17.657  0.00  0.00    -0.004 A 
ATOM     18  C   UNL d   1       9.551   2.271 -16.683  0.00  0.00     0.137 C 
ATOM     19  C   UNL d   1      10.214   2.747 -15.366  0.00  0.00     0.277 C 
ENDROOT
BRANCH   1  20
ATOM     20  C   UNL d   1       9.860   3.860 -13.268  0.00  0.00     0.251 C 
BRANCH  20  21
ATOM     21  C   UNL d   1       8.980   4.934 -12.615  0.00  0.00     0.037 C 
BRANCH  21  22
ATOM     22  C   UNL d   1       9.674   5.552 -11.409  0.00  0.00     0.029 C 
BRANCH  22  23
ATOM     23  C   UNL d   1       8.883   6.662 -10.735  0.00  0.00     0.129 C 
BRANCH  23  24
ATOM     24  N   UNL d   1       9.565   7.244  -9.587  0.00  0.00    -0.234 NA
ATOM     25  C   UNL d   1      10.022   6.591  -8.513  0.00  0.00     0.275 C 
ATOM     26  O   UNL d   1      10.088   5.354  -8.456  0.00  0.00    -0.266 OA
BRANCH  25  27
ATOM     27  C   UNL d   1      10.447   7.442  -7.345  0.00  0.00     0.058 A 
ATOM     28  C   UNL d   1      10.981   6.805  -6.203  0.00  0.00     0.005 A 
ATOM     29  C   UNL d   1      11.345   7.548  -5.061  0.00  0.00     0.000 A 
ATOM     30  C   UNL d   1      11.197   8.944  -5.071  0.00  0.00     0.000 A 
ATOM     31  C   UNL d   1      11.856   6.885  -3.924  0.00  0.00     0.000 A 
ATOM     32  C   UNL d   1      10.688   9.601  -6.210  0.00  0.00     0.000 A 
ATOM     33  C   UNL d   1      11.564   9.685  -3.935  0.00  0.00     0.000 A 
ATOM     34  C   UNL d   1      10.299   8.851  -7.343  0.00  0.00     0.005 A 
ATOM     35  C   UNL d   1      12.105   9.034  -2.807  0.00  0.00     0.000 A 
ATOM     36  C   UNL d   1      12.252   7.636  -2.800  0.00  0.00     0.000 A 
ENDBRANCH  25  27
ENDBRANCH  23  24
ENDBRANCH  22  23
ENDBRANCH  21  22
ENDBRANCH  20  21
ENDBRANCH   1  20
TORSDOF 6
