REMARK  2 active torsions:
REMARK  status: ('A' for Active; 'I' for Inactive)
REMARK    1  A    between atoms: C_5  and  C_6 
REMARK    2  A    between atoms: C_6  and  C_7 
ROOT
ATOM      1  C   UNL d   1       8.291   4.622 -12.100  0.00  0.00     0.283 C 
ATOM      2  N   UNL d   1       6.926   5.129 -12.036  0.00  0.00     0.342 N 
ATOM      3  C   UNL d   1       5.977   4.030 -12.199  0.00  0.00     0.295 C 
ATOM      4  C   UNL d   1       6.072   3.502 -13.643  0.00  0.00     0.064 C 
ATOM      5  C   UNL d   1       7.498   3.202 -14.059  0.00  0.00    -0.020 A 
ATOM      6  C   UNL d   1       7.759   2.382 -15.174  0.00  0.00     0.025 A 
ATOM      7  C   UNL d   1       9.086   2.094 -15.556  0.00  0.00     0.156 A 
ATOM      8  O   UNL d   1       9.313   1.314 -16.650  0.00  0.00    -0.188 OA
ATOM      9  C   UNL d   1      10.160   2.632 -14.807  0.00  0.00     0.156 A 
ATOM     10  O   UNL d   1      11.461   2.402 -15.131  0.00  0.00    -0.188 OA
ATOM     11  C   UNL d   1       9.894   3.450 -13.685  0.00  0.00     0.027 A 
ATOM     12  C   UNL d   1       8.572   3.769 -13.335  0.00  0.00     0.010 A 
ENDROOT
BRANCH   1  13
ATOM     13  C   UNL d   1       9.260   5.805 -11.963  0.00  0.00     0.067 C 
BRANCH  13  14
ATOM     14  C   UNL d   1       9.417   6.346 -10.546  0.00  0.00    -0.018 A 
ATOM     15  C   UNL d   1       8.887   5.666  -9.430  0.00  0.00    -0.002 A 
ATOM     16  C   UNL d   1       9.072   6.194  -8.132  0.00  0.00     0.029 A 
ATOM     17  C   UNL d   1       9.802   7.386  -7.945  0.00  0.00     0.156 A 
ATOM     18  O   UNL d   1       9.947   7.888  -6.688  0.00  0.00    -0.188 OA
ATOM     19  C   UNL d   1      10.354   8.047  -9.062  0.00  0.00     0.156 A 
ATOM     20  C   UNL d   1      10.153   7.530 -10.355  0.00  0.00     0.025 A 
ATOM     21  O   UNL d   1      11.088   9.191  -8.915  0.00  0.00    -0.188 OA
ENDBRANCH  13  14
ENDBRANCH   1  13
TORSDOF 2
