REMARK  8 active torsions:
REMARK  status: ('A' for Active; 'I' for Inactive)
REMARK    1  A    between atoms: C_2  and  C_3 
REMARK    2  A    between atoms: C_3  and  C_4 
REMARK    3  A    between atoms: C_4  and  C_5 
REMARK    4  A    between atoms: C_5  and  C_8 
REMARK       I    between atoms: C_8  and  N_10 
REMARK    5  A    between atoms: N_10  and  C_11 
REMARK    6  A    between atoms: C_11  and  C_12 
REMARK    7  A    between atoms: C_12  and  N_13 
REMARK    8  A    between atoms: N_16  and  C_17 
ROOT
ATOM      1  N   UNL d   1       9.501   6.559 -10.848  0.00  0.00     0.143 N 
ATOM      2  C   UNL d   1       8.207   6.742 -11.497  0.00  0.00     0.274 C 
ATOM      3  C   UNL d   1       8.116   6.007 -12.831  0.00  0.00     0.137 C 
ATOM      4  N   UNL d   1       8.453   4.605 -12.664  0.00  0.00    -0.344 N 
ATOM      5  C   UNL d   1       9.683   4.343 -11.923  0.00  0.00     0.137 C 
ATOM      6  C   UNL d   1       9.649   5.127 -10.579  0.00  0.00     0.274 C 
ENDROOT
BRANCH   1   7
ATOM      7  C   UNL d   1       9.481   7.306  -9.589  0.00  0.00     0.277 C 
BRANCH   7   8
ATOM      8  C   UNL d   1      10.899   7.519  -9.051  0.00  0.00     0.164 C 
BRANCH   8   9
ATOM      9  N   UNL d   1      10.840   8.177  -7.766  0.00  0.00    -0.236 NA
ATOM     10  C   UNL d   1      11.898   8.788  -7.207  0.00  0.00     0.251 C 
ATOM     11  O   UNL d   1      12.970   8.864  -7.795  0.00  0.00    -0.271 OA
BRANCH  10  12
ATOM     12  C   UNL d   1      11.711   9.452  -5.826  0.00  0.00     0.073 C 
ATOM     13  C   UNL d   1      10.334   9.120  -5.244  0.00  0.00     0.009 C 
ATOM     14  C   UNL d   1      11.673  10.945  -6.095  0.00  0.00     0.009 C 
BRANCH  12  15
ATOM     15  C   UNL d   1      12.866   9.186  -4.796  0.00  0.00     0.009 C 
BRANCH  15  16
ATOM     16  C   UNL d   1      12.787   7.860  -4.021  0.00  0.00     0.001 C 
BRANCH  16  17
ATOM     17  C   UNL d   1      11.932   7.961  -2.733  0.00  0.00     0.000 C 
ATOM     18  C   UNL d   1      11.372   6.574  -2.363  0.00  0.00     0.000 C 
ENDBRANCH  16  17
ENDBRANCH  15  16
ENDBRANCH  12  15
ENDBRANCH  10  12
ENDBRANCH   8   9
ENDBRANCH   7   8
ENDBRANCH   1   7
BRANCH   4  19
ATOM     19  C   UNL d   1       7.626   3.616 -13.188  0.00  0.00     0.056 A 
ATOM     20  C   UNL d   1       8.165   2.667 -14.085  0.00  0.00     0.018 A 
ATOM     21  C   UNL d   1       7.355   1.614 -14.547  0.00  0.00     0.013 A 
ATOM     22  C   UNL d   1       6.031   1.484 -14.095  0.00  0.00     0.058 A 
ATOM     23  C   UNL d   1       5.478   2.447 -13.224  0.00  0.00     0.013 A 
ATOM     24 CL   UNL d   1       5.101   0.126 -14.627  0.00  0.00    -0.082 Cl
ATOM     25  C   UNL d   1       6.277   3.527 -12.788  0.00  0.00     0.018 A 
ENDBRANCH   4  19
TORSDOF 8
