REMARK  11 active torsions:
REMARK  status: ('A' for Active; 'I' for Inactive)
REMARK    1  A    between atoms: O_2  and  C_3 
REMARK    2  A    between atoms: C_3  and  C_4 
REMARK    3  A    between atoms: C_4  and  N_5 
REMARK    4  A    between atoms: N_5  and  C_6 
REMARK    5  A    between atoms: C_6  and  C_7 
REMARK    6  A    between atoms: C_11  and  C_12 
REMARK    7  A    between atoms: C_12  and  C_13 
REMARK    8  A    between atoms: C_13  and  N_14 
REMARK    9  A    between atoms: N_14  and  C_15 
REMARK   10  A    between atoms: C_15  and  C_16 
REMARK   11  A    between atoms: C_16  and  C_18 
ROOT
ATOM      1  N   UNL d   1       8.758   4.269 -14.412  0.00  0.00     0.343 N 
ENDROOT
BRANCH   1   2
ATOM      2  C   UNL d   1       9.140   4.450 -13.016  0.00  0.00     0.295 C 
BRANCH   2   3
ATOM      3  C   UNL d   1       8.461   5.683 -12.415  0.00  0.00     0.065 C 
BRANCH   3   4
ATOM      4  C   UNL d   1       8.989   5.979 -11.028  0.00  0.00    -0.020 A 
ATOM      5  C   UNL d   1       8.600   5.166  -9.951  0.00  0.00    -0.004 A 
ATOM      6  C   UNL d   1       9.079   5.440  -8.660  0.00  0.00    -0.001 A 
ATOM      7  C   UNL d   1       9.953   6.514  -8.438  0.00  0.00    -0.002 A 
ATOM      8  C   UNL d   1      10.345   7.351  -9.517  0.00  0.00     0.013 A 
ATOM      9  C   UNL d   1       9.856   7.068 -10.809  0.00  0.00    -0.006 A 
BRANCH   8  10
ATOM     10  C   UNL d   1      11.270   8.548  -9.321  0.00  0.00     0.317 C 
BRANCH  10  11
ATOM     11  N   UNL d   1      11.953   8.548  -8.036  0.00  0.00     0.347 N 
BRANCH  11  12
ATOM     12  C   UNL d   1      11.210   9.210  -6.965  0.00  0.00     0.322 C 
BRANCH  12  13
ATOM     13  C   UNL d   1      11.884   8.990  -5.604  0.00  0.00     0.181 C 
BRANCH  13  14
ATOM     14  O   UNL d   1      11.252   9.790  -4.620  0.00  0.00    -0.349 OA
ATOM     15  C   UNL d   1      11.849   9.632  -3.346  0.00  0.00     0.174 C 
ENDBRANCH  13  14
ENDBRANCH  12  13
ENDBRANCH  11  12
ENDBRANCH  10  11
ENDBRANCH   8  10
ENDBRANCH   3   4
ENDBRANCH   2   3
ENDBRANCH   1   2
BRANCH   1  16
ATOM     16  C   UNL d   1       9.479   3.183 -15.061  0.00  0.00     0.327 C 
BRANCH  16  17
ATOM     17  C   UNL d   1       8.904   1.782 -14.697  0.00  0.00     0.211 C 
ATOM     18  O   UNL d   1       9.972   0.893 -14.450  0.00  0.00    -0.216 OA
BRANCH  17  19
ATOM     19  C   UNL d   1       7.936   1.229 -15.744  0.00  0.00     0.018 A 
ATOM     20  C   UNL d   1       6.710   0.614 -15.395  0.00  0.00     0.052 A 
ATOM     21  C   UNL d   1       5.841   0.106 -16.364  0.00  0.00     0.116 A 
ATOM     22  S   UNL d   1       6.065   0.372 -13.783  0.00  0.00    -0.024 SA
ATOM     23  C   UNL d   1       6.146   0.203 -17.734  0.00  0.00     0.149 A 
ATOM     24  N   UNL d   1       4.678  -0.470 -15.810  0.00  0.00    -0.200 NA
ATOM     25  C   UNL d   1       7.371   0.797 -18.102  0.00  0.00     0.029 A 
ATOM     26  O   UNL d   1       5.301  -0.262 -18.698  0.00  0.00    -0.189 OA
ATOM     27  C   UNL d   1       8.263   1.284 -17.122  0.00  0.00     0.001 A 
ATOM     28  C   UNL d   1       4.574  -0.411 -14.432  0.00  0.00     0.311 A 
ATOM     29  O   UNL d   1       3.643  -0.803 -13.729  0.00  0.00    -0.258 OA
ENDBRANCH  17  19
ENDBRANCH  16  17
ENDBRANCH   1  16
TORSDOF 11
