REMARK  7 active torsions:
REMARK  status: ('A' for Active; 'I' for Inactive)
REMARK    1  A    between atoms: C_3  and  S_4 
REMARK    2  A    between atoms: S_4  and  C_5 
REMARK    3  A    between atoms: C_5  and  C_6 
REMARK    4  A    between atoms: C_6  and  C_7 
REMARK    5  A    between atoms: C_7  and  N_8 
REMARK    6  A    between atoms: N_13  and  C_14 
REMARK    7  A    between atoms: C_26  and  C_27 
ROOT
ATOM      1  C   UNL d   1      10.383   7.610  -8.842  0.00  0.00     0.056 A 
ATOM      2  C   UNL d   1       9.909   6.791  -7.800  0.00  0.00     0.018 A 
ATOM      3  C   UNL d   1      10.228   7.082  -6.449  0.00  0.00     0.012 A 
ATOM      4  C   UNL d   1      11.072   8.161  -6.149  0.00  0.00     0.068 A 
ATOM      5  C   UNL d   1      11.477   8.444  -4.768  0.00  0.00     0.101 C 
ATOM      6  N   UNL d   1      11.837   8.667  -3.701  0.00  0.00    -0.191 NA
ATOM      7  C   UNL d   1      11.521   9.012  -7.158  0.00  0.00     0.012 A 
ATOM      8  C   UNL d   1      11.188   8.734  -8.508  0.00  0.00     0.018 A 
ENDROOT
BRANCH   1   9
ATOM      9  N   UNL d   1      10.079   7.301 -10.191  0.00  0.00    -0.348 N 
ATOM     10  C   UNL d   1      10.155   8.402 -11.115  0.00  0.00     0.102 C 
ATOM     11  C   UNL d   1       9.514   7.934 -12.410  0.00  0.00     0.028 C 
ATOM     12  C   UNL d   1       8.426   6.968 -11.926  0.00  0.00     0.058 C 
ATOM     13  C   UNL d   1       8.246   5.695 -12.738  0.00  0.00     0.252 C 
ATOM     14  C   UNL d   1       8.921   6.486 -10.559  0.00  0.00     0.117 C 
ATOM     15  N   UNL d   1       9.323   4.863 -12.231  0.00  0.00     0.139 N 
ATOM     16  C   UNL d   1       9.278   5.026 -10.765  0.00  0.00     0.272 C 
BRANCH  15  17
ATOM     17  C   UNL d   1       9.116   3.492 -12.645  0.00  0.00     0.251 C 
BRANCH  17  18
ATOM     18  C   UNL d   1       9.727   3.175 -13.996  0.00  0.00     0.047 C 
BRANCH  18  19
ATOM     19  C   UNL d   1       9.323   1.785 -14.520  0.00  0.00     0.067 C 
BRANCH  19  20
ATOM     20  S   UNL d   1      10.375   1.244 -15.899  0.00  0.00    -0.075 SA
BRANCH  20  21
ATOM     21  C   UNL d   1      10.063   2.577 -17.002  0.00  0.00     0.193 A 
ATOM     22  N   UNL d   1      10.911   3.617 -17.168  0.00  0.00    -0.287 N 
ATOM     23  C   UNL d   1      12.179   3.856 -16.493  0.00  0.00     0.134 C 
ATOM     24  C   UNL d   1      10.248   4.375 -18.088  0.00  0.00     0.186 A 
ATOM     25  N   UNL d   1       9.074   3.831 -18.427  0.00  0.00    -0.127 NA
ATOM     26  N   UNL d   1       8.944   2.668 -17.713  0.00  0.00    -0.122 NA
BRANCH  24  27
ATOM     27  C   UNL d   1      10.691   5.652 -18.695  0.00  0.00     0.136 A 
ATOM     28  N   UNL d   1      11.935   6.121 -18.402  0.00  0.00    -0.238 NA
ATOM     29  C   UNL d   1      12.330   7.253 -19.012  0.00  0.00     0.120 A 
ATOM     30  C   UNL d   1      11.480   7.963 -19.890  0.00  0.00     0.120 A 
ATOM     31  N   UNL d   1      10.226   7.540 -20.152  0.00  0.00    -0.239 NA
ATOM     32  C   UNL d   1       9.834   6.393 -19.545  0.00  0.00     0.121 A 
ENDBRANCH  24  27
ENDBRANCH  20  21
ENDBRANCH  19  20
ENDBRANCH  18  19
ENDBRANCH  17  18
ENDBRANCH  15  17
ENDBRANCH   1   9
TORSDOF 7
