REMARK  6 active torsions:
REMARK  status: ('A' for Active; 'I' for Inactive)
REMARK    1  A    between atoms: O_2  and  C_3 
REMARK    2  A    between atoms: C_10  and  C_11 
REMARK       I    between atoms: C_11  and  N_13 
REMARK    3  A    between atoms: N_13  and  C_14 
REMARK    4  A    between atoms: C_14  and  C_15 
REMARK    5  A    between atoms: N_18  and  C_19 
REMARK    6  A    between atoms: C_19  and  C_20 
ROOT
ATOM      1  C   UNL d   1       7.788   4.638 -12.368  0.00  0.00     0.277 C 
ATOM      2  O   UNL d   1       6.647   5.046 -12.581  0.00  0.00    -0.266 OA
ATOM      3  N   UNL d   1       8.474   4.866 -11.239  0.00  0.00    -0.234 NA
ENDROOT
BRANCH   3   4
ATOM      4  C   UNL d   1       8.130   5.906 -10.283  0.00  0.00     0.131 C 
BRANCH   4   5
ATOM      5  C   UNL d   1       8.817   5.700  -8.924  0.00  0.00     0.060 C 
ATOM      6  C   UNL d   1       8.541   6.783  -7.889  0.00  0.00     0.253 C 
ATOM      7  N   UNL d   1       9.755   6.900  -7.118  0.00  0.00     0.141 N 
ATOM      8  C   UNL d   1      10.805   6.850  -8.105  0.00  0.00     0.251 C 
ATOM      9  C   UNL d   1      10.321   5.738  -9.030  0.00  0.00     0.039 C 
BRANCH   7  10
ATOM     10  C   UNL d   1       9.787   8.128  -6.347  0.00  0.00     0.277 C 
BRANCH  10  11
ATOM     11  C   UNL d   1      10.831   8.095  -5.246  0.00  0.00     0.011 A 
ATOM     12  C   UNL d   1      11.335   9.296  -4.717  0.00  0.00    -0.002 A 
ATOM     13  C   UNL d   1      12.251   9.253  -3.647  0.00  0.00    -0.000 A 
ATOM     14  C   UNL d   1      12.651   8.025  -3.094  0.00  0.00    -0.000 A 
ATOM     15  C   UNL d   1      12.136   6.824  -3.607  0.00  0.00    -0.000 A 
ATOM     16  C   UNL d   1      11.227   6.864  -4.676  0.00  0.00    -0.002 A 
ENDBRANCH  10  11
ENDBRANCH   7  10
ENDBRANCH   4   5
ENDBRANCH   3   4
BRANCH   1  17
ATOM     17  C   UNL d   1       8.543   3.843 -13.392  0.00  0.00     0.081 A 
ATOM     18  C   UNL d   1       7.934   2.776 -14.101  0.00  0.00     0.100 A 
ATOM     19  C   UNL d   1       8.707   2.064 -15.056  0.00  0.00     0.039 A 
ATOM     20  C   UNL d   1      10.040   2.425 -15.329  0.00  0.00     0.083 A 
ATOM     21  N   UNL d   1      10.761   1.712 -16.289  0.00  0.00    -0.100 NA
ATOM     22  C   UNL d   1      10.628   3.506 -14.637  0.00  0.00     0.071 A 
ATOM     23 CL   UNL d   1      12.252   4.004 -14.956  0.00  0.00    -0.081 Cl
ATOM     24  C   UNL d   1       9.877   4.205 -13.678  0.00  0.00     0.019 A 
BRANCH  18  25
ATOM     25  O   UNL d   1       6.623   2.453 -13.810  0.00  0.00    -0.328 OA
ATOM     26  C   UNL d   1       6.087   1.245 -14.327  0.00  0.00     0.181 C 
ENDBRANCH  18  25
ENDBRANCH   1  17
TORSDOF 6
