REMARK  7 active torsions:
REMARK  status: ('A' for Active; 'I' for Inactive)
REMARK    1  A    between atoms: N_2  and  S_4 
REMARK    2  A    between atoms: S_4  and  N_7 
REMARK    3  A    between atoms: N_7  and  C_8 
REMARK    4  A    between atoms: C_11  and  C_12 
REMARK    5  A    between atoms: C_12  and  C_13 
REMARK    6  A    between atoms: C_13  and  N_14 
REMARK    7  A    between atoms: C_17  and  C_18 
ROOT
ATOM      1  N   UNL d   1       8.356   6.662 -11.898  0.00  0.00     0.137 N 
ATOM      2  C   UNL d   1       9.199   5.645 -12.541  0.00  0.00     0.251 C 
ATOM      3  C   UNL d   1       8.459   4.306 -12.610  0.00  0.00     0.040 C 
ATOM      4  C   UNL d   1       7.171   4.431 -13.429  0.00  0.00     0.028 C 
ATOM      5  C   UNL d   1       6.311   5.551 -12.811  0.00  0.00     0.040 C 
ATOM      6  C   UNL d   1       7.131   6.846 -12.669  0.00  0.00     0.251 C 
ENDROOT
BRANCH   1   7
ATOM      7  C   UNL d   1       8.987   7.983 -11.785  0.00  0.00     0.250 C 
BRANCH   7   8
ATOM      8  C   UNL d   1      10.249   7.915 -10.909  0.00  0.00     0.035 C 
BRANCH   8   9
ATOM      9  C   UNL d   1      10.036   7.863  -9.400  0.00  0.00     0.002 C 
ATOM     10  C   UNL d   1      11.039   6.908  -8.736  0.00  0.00     0.002 C 
ATOM     11  C   UNL d   1      10.865   6.863  -7.221  0.00  0.00     0.025 C 
ATOM     12  C   UNL d   1      11.028   8.277  -6.678  0.00  0.00     0.117 C 
ATOM     13  C   UNL d   1      10.049   9.256  -7.295  0.00  0.00     0.025 C 
ATOM     14  C   UNL d   1      10.198   9.259  -8.819  0.00  0.00     0.002 C 
BRANCH  12  15
ATOM     15  N   UNL d   1      10.821   8.253  -5.251  0.00  0.00    -0.173 NA
BRANCH  15  16
ATOM     16  S   UNL d   1      11.703   9.262  -4.188  0.00  0.00     0.340 S 
ATOM     17  O   UNL d   1      10.842  10.375  -3.852  0.00  0.00    -0.181 OA
ATOM     18  O   UNL d   1      13.042   9.490  -4.753  0.00  0.00    -0.181 OA
BRANCH  16  19
ATOM     19  N   UNL d   1      11.844   8.181  -2.822  0.00  0.00    -0.257 N 
ATOM     20  C   UNL d   1      12.086   6.753  -3.080  0.00  0.00     0.140 C 
ATOM     21  C   UNL d   1      12.643   8.683  -1.702  0.00  0.00     0.140 C 
ENDBRANCH  16  19
ENDBRANCH  15  16
ENDBRANCH  12  15
ENDBRANCH   8   9
ENDBRANCH   7   8
ENDBRANCH   1   7
BRANCH   4  22
ATOM     22  C   UNL d   1       6.423   3.125 -13.489  0.00  0.00     0.004 A 
ATOM     23  C   UNL d   1       6.617   2.043 -14.417  0.00  0.00     0.021 A 
ATOM     24  C   UNL d   1       5.737   1.008 -13.999  0.00  0.00     0.100 A 
ATOM     25  C   UNL d   1       7.410   1.790 -15.562  0.00  0.00     0.002 A 
ATOM     26  O   UNL d   1       5.062   1.394 -12.861  0.00  0.00    -0.305 OA
ATOM     27  C   UNL d   1       5.585  -0.199 -14.694  0.00  0.00     0.025 A 
ATOM     28  C   UNL d   1       5.469   2.673 -12.594  0.00  0.00     0.118 A 
ATOM     29  C   UNL d   1       6.344  -0.401 -15.857  0.00  0.00     0.002 A 
ATOM     30  C   UNL d   1       7.265   0.582 -16.281  0.00  0.00     0.000 A 
ENDBRANCH   4  22
TORSDOF 7
