REMARK  14 active torsions:
REMARK  status: ('A' for Active; 'I' for Inactive)
REMARK    1  A    between atoms: O_2  and  C_3 
REMARK    2  A    between atoms: C_8  and  N_9 
REMARK    3  A    between atoms: N_12  and  C_13 
REMARK    4  A    between atoms: C_13  and  C_14 
REMARK    5  A    between atoms: N_16  and  C_17 
REMARK    6  A    between atoms: C_20  and  O_21 
REMARK    7  A    between atoms: O_21  and  C_22 
REMARK    8  A    between atoms: C_22  and  C_23 
REMARK    9  A    between atoms: C_23  and  O_24 
REMARK   10  A    between atoms: O_24  and  C_25 
REMARK   11  A    between atoms: C_25  and  C_26 
REMARK   12  A    between atoms: C_26  and  O_27 
REMARK   13  A    between atoms: O_27  and  C_28 
REMARK   14  A    between atoms: C_28  and  C_29 
ROOT
ATOM      1  C   UNL d   1      12.284  -0.392 -19.163  0.00  0.00     0.135 A 
ATOM      2  C   UNL d   1      12.550   0.717 -18.417  0.00  0.00     0.121 A 
ATOM      3  N   UNL d   1      11.482   0.819 -17.557  0.00  0.00    -0.209 N 
ATOM      4  N   UNL d   1      10.602  -0.188 -17.770  0.00  0.00    -0.060 NA
ATOM      5  N   UNL d   1      11.061  -0.915 -18.737  0.00  0.00    -0.131 NA
ENDROOT
BRANCH   3   6
ATOM      6  C   UNL d   1      11.287   1.801 -16.564  0.00  0.00     0.085 A 
ATOM      7  C   UNL d   1      10.369   1.559 -15.530  0.00  0.00     0.021 A 
ATOM      8  C   UNL d   1      10.162   2.520 -14.538  0.00  0.00     0.026 A 
ATOM      9  C   UNL d   1      10.857   3.745 -14.560  0.00  0.00     0.094 A 
ATOM     10  C   UNL d   1      11.794   3.981 -15.588  0.00  0.00     0.026 A 
ATOM     11  C   UNL d   1      12.014   3.017 -16.588  0.00  0.00     0.021 A 
BRANCH   9  12
ATOM     12  O   UNL d   1      10.689   4.747 -13.634  0.00  0.00    -0.328 OA
BRANCH  12  13
ATOM     13  C   UNL d   1       9.718   4.613 -12.605  0.00  0.00     0.181 C 
BRANCH  13  14
ATOM     14  C   UNL d   1       8.790   5.821 -12.666  0.00  0.00     0.175 C 
BRANCH  14  15
ATOM     15  O   UNL d   1       9.433   6.981 -12.186  0.00  0.00    -0.349 OA
BRANCH  15  16
ATOM     16  C   UNL d   1       9.606   6.969 -10.781  0.00  0.00     0.174 C 
BRANCH  16  17
ATOM     17  C   UNL d   1      10.176   8.298 -10.291  0.00  0.00     0.174 C 
BRANCH  17  18
ATOM     18  O   UNL d   1      10.439   8.227  -8.896  0.00  0.00    -0.349 OA
BRANCH  18  19
ATOM     19  C   UNL d   1       9.261   8.212  -8.102  0.00  0.00     0.180 C 
BRANCH  19  20
ATOM     20  C   UNL d   1       9.626   8.108  -6.630  0.00  0.00     0.225 C 
ATOM     21  F   UNL d   1      10.271   9.196  -6.222  0.00  0.00    -0.232 F 
ENDBRANCH  19  20
ENDBRANCH  18  19
ENDBRANCH  17  18
ENDBRANCH  16  17
ENDBRANCH  15  16
ENDBRANCH  14  15
ENDBRANCH  13  14
ENDBRANCH  12  13
ENDBRANCH   9  12
ENDBRANCH   3   6
BRANCH   1  22
ATOM     22  C   UNL d   1      13.063  -1.000 -20.294  0.00  0.00     0.299 C 
BRANCH  22  23
ATOM     23  N   UNL d   1      14.001  -0.182 -21.067  0.00  0.00     0.147 N 
ATOM     24  C   UNL d   1      13.330   1.034 -21.552  0.00  0.00     0.275 C 
ATOM     25  C   UNL d   1      14.288   1.911 -22.368  0.00  0.00     0.137 C 
ATOM     26  N   UNL d   1      15.508   2.166 -21.588  0.00  0.00    -0.343 N 
ATOM     27  C   UNL d   1      16.181   0.962 -21.095  0.00  0.00     0.137 C 
ATOM     28  C   UNL d   1      15.202   0.116 -20.282  0.00  0.00     0.275 C 
BRANCH  26  29
ATOM     29  C   UNL d   1      16.028   3.431 -21.426  0.00  0.00     0.079 A 
ATOM     30  C   UNL d   1      17.417   3.706 -21.651  0.00  0.00     0.110 A 
ATOM     31  C   UNL d   1      17.924   5.005 -21.422  0.00  0.00     0.026 A 
ATOM     32  C   UNL d   1      17.080   6.040 -20.977  0.00  0.00     0.002 A 
ATOM     33  C   UNL d   1      15.710   5.787 -20.767  0.00  0.00     0.002 A 
ATOM     34  C   UNL d   1      15.196   4.500 -20.993  0.00  0.00     0.019 A 
BRANCH  30  35
ATOM     35  O   UNL d   1      18.197   2.655 -22.099  0.00  0.00    -0.327 OA
ATOM     36  C   UNL d   1      19.573   2.886 -22.350  0.00  0.00     0.181 C 
ENDBRANCH  30  35
ENDBRANCH  26  29
ENDBRANCH  22  23
ENDBRANCH   1  22
TORSDOF 14
