REMARK  4 active torsions:
REMARK  status: ('A' for Active; 'I' for Inactive)
REMARK    1  A    between atoms: N_2  and  C_3 
REMARK    2  A    between atoms: C_3  and  C_4 
REMARK    3  A    between atoms: N_13  and  S_14 
REMARK    4  A    between atoms: S_14  and  C_17 
ROOT
ATOM      1  C   UNL d   1      10.473   7.914  -6.146  0.00  0.00     0.062 A 
ATOM      2  C   UNL d   1      11.133   9.315  -6.589  0.00  0.00     0.033 A 
ATOM      3  C   UNL d   1      10.883   8.891  -8.011  0.00  0.00    -0.026 A 
ATOM      4  C   UNL d   1      11.034   9.290  -9.341  0.00  0.00    -0.003 A 
ATOM      5  C   UNL d   1      10.563   8.364 -10.305  0.00  0.00     0.018 A 
ATOM      6  C   UNL d   1       9.991   7.112  -9.932  0.00  0.00     0.075 A 
ATOM      7  C   UNL d   1       9.862   6.771  -8.599  0.00  0.00     0.014 A 
ATOM      8  C   UNL d   1       9.258   5.527  -8.431  0.00  0.00     0.021 A 
ATOM      9  C   UNL d   1       9.044   5.077  -9.710  0.00  0.00     0.092 A 
ATOM     10  N   UNL d   1       9.467   6.032 -10.636  0.00  0.00    -0.231 N 
ATOM     11  C   UNL d   1      10.300   7.651  -7.628  0.00  0.00    -0.023 A 
ENDROOT
BRANCH  10  12
ATOM     12  S   UNL d   1       9.263   5.922 -12.352  0.00  0.00     0.271 S 
ATOM     13  O   UNL d   1       8.941   7.284 -12.788  0.00  0.00    -0.200 OA
ATOM     14  O   UNL d   1      10.413   5.185 -12.902  0.00  0.00    -0.200 OA
BRANCH  12  15
ATOM     15  C   UNL d   1       7.826   4.923 -12.621  0.00  0.00     0.104 A 
ATOM     16  C   UNL d   1       6.667   5.193 -11.884  0.00  0.00     0.013 A 
ATOM     17  C   UNL d   1       5.550   4.361 -12.061  0.00  0.00     0.001 A 
ATOM     18  C   UNL d   1       5.588   3.303 -12.983  0.00  0.00     0.000 A 
ATOM     19  C   UNL d   1       6.754   3.053 -13.737  0.00  0.00     0.001 A 
ATOM     20  C   UNL d   1       7.888   3.861 -13.544  0.00  0.00     0.013 A 
ENDBRANCH  12  15
ENDBRANCH  10  12
BRANCH   1  21
ATOM     21  C   UNL d   1      11.306   6.858  -5.424  0.00  0.00     0.295 C 
BRANCH  21  22
ATOM     22  N   UNL d   1      11.825   7.430  -4.186  0.00  0.00     0.342 N 
ATOM     23  C   UNL d   1      11.988   6.415  -3.164  0.00  0.00     0.328 C 
ENDBRANCH  21  22
ENDBRANCH   1  21
TORSDOF 4
