REMARK  1 active torsions:
REMARK  status: ('A' for Active; 'I' for Inactive)
REMARK    1  A    between atoms: C_11  and  C_12 
ROOT
ATOM      1  C   UNL d   1       5.518   7.699 -12.138  0.00  0.00     0.285 C 
ATOM      2  N   UNL d   1       6.541   6.652 -12.084  0.00  0.00     0.140 N 
ATOM      3  C   UNL d   1       5.986   5.413 -12.608  0.00  0.00     0.255 C 
ATOM      4  C   UNL d   1       6.825   4.178 -12.289  0.00  0.00     0.061 C 
ATOM      5  C   UNL d   1       8.085   4.059 -13.179  0.00  0.00    -0.022 A 
ATOM      6  C   UNL d   1       8.222   2.892 -13.964  0.00  0.00     0.021 A 
ATOM      7  C   UNL d   1       9.346   2.654 -14.770  0.00  0.00     0.112 A 
ATOM      8  C   UNL d   1      10.341   3.645 -14.862  0.00  0.00     0.106 A 
ATOM      9  C   UNL d   1      10.223   4.829 -14.116  0.00  0.00     0.017 A 
ATOM     10  C   UNL d   1       9.118   5.046 -13.246  0.00  0.00    -0.019 A 
ATOM     11  C   UNL d   1       9.055   6.367 -12.474  0.00  0.00     0.078 C 
ATOM     12  C   UNL d   1       7.750   7.155 -12.733  0.00  0.00     0.259 C 
ATOM     13  N   UNL d   1      11.418   3.446 -15.754  0.00  0.00    -0.208 NA
ATOM     14  C   UNL d   1      11.636   2.269 -16.352  0.00  0.00     0.286 C 
ATOM     15  O   UNL d   1      12.510   2.121 -17.199  0.00  0.00    -0.267 OA
ATOM     16  C   UNL d   1      10.759   1.084 -15.905  0.00  0.00     0.238 C 
ATOM     17  O   UNL d   1       9.445   1.485 -15.491  0.00  0.00    -0.319 OA
ENDROOT
BRANCH  11  18
ATOM     18  C   UNL d   1       9.480   6.302 -10.995  0.00  0.00    -0.017 A 
ATOM     19  C   UNL d   1       9.169   5.155 -10.195  0.00  0.00    -0.004 A 
ATOM     20  C   UNL d   1       9.491   5.179  -8.819  0.00  0.00    -0.000 A 
ATOM     21  C   UNL d   1      10.232   6.226  -8.246  0.00  0.00    -0.000 A 
ATOM     22  C   UNL d   1      10.628   7.317  -9.070  0.00  0.00    -0.000 A 
ATOM     23  C   UNL d   1      10.219   7.367 -10.429  0.00  0.00    -0.004 A 
ENDBRANCH  11  18
TORSDOF 1
