REMARK  6 active torsions:
REMARK  status: ('A' for Active; 'I' for Inactive)
REMARK       I    between atoms: C_2  and  N_3 
REMARK    1  A    between atoms: C_2  and  C_24 
REMARK    2  A    between atoms: N_3  and  C_4 
REMARK    3  A    between atoms: C_7  and  C_8 
REMARK    4  A    between atoms: C_8  and  C_9 
REMARK    5  A    between atoms: C_9  and  N_10 
REMARK    6  A    between atoms: N_13  and  C_14 
ROOT
ATOM      1  C   UNL d   1      11.026   6.646  -7.347  0.00  0.00     0.107 C 
ATOM      2  C   UNL d   1      11.614   7.661  -8.353  0.00  0.00     0.024 C 
ATOM      3  C   UNL d   1      11.211   7.331  -9.784  0.00  0.00     0.002 C 
ATOM      4  C   UNL d   1       9.691   7.151  -9.937  0.00  0.00     0.002 C 
ATOM      5  C   UNL d   1       9.163   6.097  -8.923  0.00  0.00     0.002 C 
ATOM      6  C   UNL d   1       9.517   6.472  -7.497  0.00  0.00     0.024 C 
ENDROOT
BRANCH   4   7
ATOM      7  C   UNL d   1       9.347   6.806 -11.397  0.00  0.00     0.035 C 
BRANCH   7   8
ATOM      8  C   UNL d   1       8.030   6.026 -11.501  0.00  0.00     0.250 C 
BRANCH   8   9
ATOM      9  N   UNL d   1       7.459   6.028 -12.838  0.00  0.00     0.141 N 
ATOM     10  C   UNL d   1       6.094   5.473 -12.725  0.00  0.00     0.274 C 
ATOM     11  C   UNL d   1       6.129   3.980 -12.364  0.00  0.00     0.137 C 
ATOM     12  N   UNL d   1       7.021   3.290 -13.298  0.00  0.00    -0.344 N 
ATOM     13  C   UNL d   1       8.381   3.812 -13.436  0.00  0.00     0.137 C 
ATOM     14  C   UNL d   1       8.298   5.307 -13.802  0.00  0.00     0.274 C 
BRANCH  12  15
ATOM     15  C   UNL d   1       6.626   2.106 -13.969  0.00  0.00     0.056 A 
ATOM     16  C   UNL d   1       7.246   1.731 -15.180  0.00  0.00     0.017 A 
ATOM     17  C   UNL d   1       6.893   0.534 -15.821  0.00  0.00     0.002 A 
ATOM     18  C   UNL d   1       5.902  -0.299 -15.277  0.00  0.00     0.000 A 
ATOM     19  C   UNL d   1       5.280   0.059 -14.069  0.00  0.00     0.002 A 
ATOM     20  C   UNL d   1       5.646   1.249 -13.409  0.00  0.00     0.017 A 
ENDBRANCH  12  15
ENDBRANCH   8   9
ENDBRANCH   7   8
ENDBRANCH   4   7
BRANCH   1  21
ATOM     21  N   UNL d   1      11.371   7.005  -5.988  0.00  0.00    -0.236 NA
ATOM     22  C   UNL d   1      11.078   8.158  -5.367  0.00  0.00     0.281 C 
ATOM     23  O   UNL d   1      10.411   9.068  -5.862  0.00  0.00    -0.265 OA
BRANCH  22  24
ATOM     24  C   UNL d   1      11.647   8.323  -4.030  0.00  0.00     0.087 A 
ATOM     25  S   UNL d   1      12.245   6.912  -3.188  0.00  0.00    -0.082 SA
ATOM     26  C   UNL d   1      12.619   7.881  -1.797  0.00  0.00     0.036 A 
ATOM     27  C   UNL d   1      12.260   9.184  -1.978  0.00  0.00     0.008 A 
ATOM     28  C   UNL d   1      11.715   9.448  -3.259  0.00  0.00     0.012 A 
ENDBRANCH  22  24
ENDBRANCH   1  21
TORSDOF 6
