REMARK  4 active torsions:
REMARK  status: ('A' for Active; 'I' for Inactive)
REMARK    1  A    between atoms: C_2  and  C_3 
REMARK    2  A    between atoms: C_3  and  C_4 
REMARK    3  A    between atoms: C_3  and  C_8 
REMARK    4  A    between atoms: C_4  and  C_5 
ROOT
ATOM      1  C   UNL d   1      10.917   8.602  -5.825  0.00  0.00    -0.020 A 
ATOM      2  C   UNL d   1      11.076   9.743  -5.002  0.00  0.00    -0.003 A 
ATOM      3  C   UNL d   1      11.607   9.598  -3.708  0.00  0.00     0.011 A 
ATOM      4  C   UNL d   1      11.984   8.327  -3.233  0.00  0.00     0.058 A 
ATOM      5 CL   UNL d   1      12.663   8.196  -1.640  0.00  0.00    -0.082 Cl
ATOM      6  C   UNL d   1      11.815   7.187  -4.042  0.00  0.00     0.011 A 
ATOM      7  C   UNL d   1      11.262   7.330  -5.330  0.00  0.00    -0.003 A 
ENDROOT
BRANCH   1   8
ATOM      8  C   UNL d   1      10.291   8.753  -7.205  0.00  0.00     0.072 C 
BRANCH   8   9
ATOM      9  C   UNL d   1       8.815   8.327  -7.143  0.00  0.00     0.343 C 
ATOM     10  N   UNL d   1       8.666   6.889  -7.154  0.00  0.00     0.618 N 
ENDBRANCH   8   9
BRANCH   8  11
ATOM     11  C   UNL d   1      11.131   8.099  -8.350  0.00  0.00     0.104 C 
BRANCH  11  12
ATOM     12  C   UNL d   1      10.365   7.875  -9.653  0.00  0.00     0.186 C 
ATOM     13  O   UNL d   1      10.353   6.778 -10.230  0.00  0.00    -0.647 OA
ATOM     14  O   UNL d   1       9.580   8.932  -9.993  0.00  0.00    -0.647 OA
ENDBRANCH  11  12
ENDBRANCH   8  11
ENDBRANCH   1   8
TORSDOF 4
