REMARK  4 active torsions:
REMARK  status: ('A' for Active; 'I' for Inactive)
REMARK    1  A    between atoms: O_2  and  C_3 
REMARK       I    between atoms: C_3  and  N_5 
REMARK    2  A    between atoms: N_5  and  C_6 
REMARK    3  A    between atoms: C_10  and  S_11 
REMARK    4  A    between atoms: S_11  and  C_13 
ROOT
ATOM      1  C   UNL d   1       9.117   5.952  -9.306  0.00  0.00     0.755 C 
ATOM      2  N   UNL d   1       8.787   6.430  -8.117  0.00  0.00    -0.058 NA
ATOM      3  C   UNL d   1       9.768   7.386  -7.913  0.00  0.00     0.119 A 
ATOM      4  C   UNL d   1       9.965   8.323  -6.875  0.00  0.00     0.030 A 
ATOM      5  C   UNL d   1      11.181   9.026  -6.805  0.00  0.00     0.062 A 
ATOM      6  C   UNL d   1      12.211   8.820  -7.753  0.00  0.00     0.011 A 
ATOM      7  C   UNL d   1      11.979   8.015  -8.874  0.00  0.00     0.022 A 
ATOM      8  C   UNL d   1      10.767   7.313  -8.935  0.00  0.00     0.118 A 
ATOM      9  N   UNL d   1      10.261   6.400  -9.834  0.00  0.00    -0.058 NA
ENDROOT
BRANCH   5  10
ATOM     10  S   UNL d   1      11.547  10.017  -5.330  0.00  0.00     0.088 S 
ATOM     11  O   UNL d   1      10.263  10.639  -4.834  0.00  0.00    -0.247 OA
BRANCH  10  12
ATOM     12  C   UNL d   1      11.907   8.721  -4.136  0.00  0.00     0.060 A 
ATOM     13  C   UNL d   1      12.205   9.097  -2.810  0.00  0.00     0.009 A 
ATOM     14  C   UNL d   1      12.458   8.102  -1.849  0.00  0.00     0.001 A 
ATOM     15  C   UNL d   1      12.406   6.746  -2.223  0.00  0.00     0.000 A 
ATOM     16  C   UNL d   1      12.138   6.405  -3.550  0.00  0.00     0.001 A 
ATOM     17  C   UNL d   1      11.859   7.368  -4.504  0.00  0.00     0.009 A 
ENDBRANCH  10  12
ENDBRANCH   5  10
BRANCH   1  18
ATOM     18  N   UNL d   1       8.277   5.063 -10.014  0.00  0.00     0.005 NA
ATOM     19  C   UNL d   1       8.345   4.831 -11.383  0.00  0.00     0.403 C 
ATOM     20  O   UNL d   1       9.274   5.118 -12.150  0.00  0.00    -0.235 OA
BRANCH  19  21
ATOM     21  O   UNL d   1       7.222   4.213 -11.759  0.00  0.00    -0.280 OA
ATOM     22  C   UNL d   1       7.015   3.908 -13.129  0.00  0.00     0.186 C 
ENDBRANCH  19  21
ENDBRANCH   1  18
TORSDOF 4
