REMARK  2 active torsions:
REMARK  status: ('A' for Active; 'I' for Inactive)
REMARK    1  A    between atoms: C_6  and  C_7 
REMARK    2  A    between atoms: C_7  and  N_8 
ROOT
ATOM      1  C   UNL d   1       9.453   4.821 -10.960  0.00  0.00     0.277 C 
ENDROOT
BRANCH   1   2
ATOM      2  C   UNL d   1       9.419   5.747  -9.759  0.00  0.00     0.013 A 
ATOM      3  C   UNL d   1       8.773   5.378  -8.562  0.00  0.00    -0.002 A 
ATOM      4  C   UNL d   1       8.686   6.297  -7.491  0.00  0.00     0.002 A 
ATOM      5  C   UNL d   1       9.257   7.578  -7.604  0.00  0.00     0.030 A 
ATOM      6  C   UNL d   1       9.908   7.946  -8.797  0.00  0.00     0.140 A 
ATOM      7  F   UNL d   1      10.427   9.187  -8.934  0.00  0.00    -0.204 F 
ATOM      8  C   UNL d   1       9.991   7.033  -9.865  0.00  0.00     0.027 A 
ENDBRANCH   1   2
BRANCH   1   9
ATOM      9  N   UNL d   1       8.139   4.548 -11.546  0.00  0.00     0.137 N 
ATOM     10  C   UNL d   1       8.163   4.010 -12.904  0.00  0.00     0.220 C 
ATOM     11  C   UNL d   1       8.664   5.186 -13.770  0.00  0.00     0.035 C 
ATOM     12  C   UNL d   1       6.652   3.818 -13.134  0.00  0.00     0.035 C 
ATOM     13  C   UNL d   1       8.128   6.395 -12.998  0.00  0.00     0.035 C 
ATOM     14  C   UNL d   1       7.341   5.723 -11.873  0.00  0.00     0.220 C 
ATOM     15  C   UNL d   1       6.077   5.041 -12.417  0.00  0.00     0.035 C 
ENDBRANCH   1   9
TORSDOF 2
