REMARK  4 active torsions:
REMARK  status: ('A' for Active; 'I' for Inactive)
REMARK    1  A    between atoms: S_2  and  C_4 
REMARK    2  A    between atoms: S_2  and  N_10 
REMARK    3  A    between atoms: C_16  and  N_17 
REMARK    4  A    between atoms: N_20  and  C_21 
ROOT
ATOM      1  N   UNL d   1       8.800   2.945 -14.073  0.00  0.00    -0.254 N 
ATOM      2  C   UNL d   1       7.716   2.411 -14.936  0.00  0.00     0.123 A 
ATOM      3  C   UNL d   1       6.378   2.947 -14.398  0.00  0.00     0.053 A 
ATOM      4  C   UNL d   1       6.820   3.836 -13.312  0.00  0.00    -0.004 A 
ATOM      5  C   UNL d   1       6.029   4.711 -12.541  0.00  0.00    -0.001 A 
ATOM      6  C   UNL d   1       6.692   5.474 -11.562  0.00  0.00     0.017 A 
ATOM      7  C   UNL d   1       8.071   5.309 -11.329  0.00  0.00     0.058 A 
ATOM      8  C   UNL d   1       8.841   4.444 -12.117  0.00  0.00     0.034 A 
ATOM      9  C   UNL d   1       8.180   3.756 -13.142  0.00  0.00     0.068 A 
ENDROOT
BRANCH   7  10
ATOM     10  N   UNL d   1       8.731   6.011 -10.329  0.00  0.00    -0.344 N 
ATOM     11  C   UNL d   1       8.697   5.539  -8.953  0.00  0.00     0.137 C 
ATOM     12  C   UNL d   1      10.144   5.514  -8.438  0.00  0.00     0.274 C 
ATOM     13  N   UNL d   1      10.825   6.792  -8.596  0.00  0.00     0.139 N 
ATOM     14  C   UNL d   1      10.884   7.175 -10.012  0.00  0.00     0.274 C 
ATOM     15  C   UNL d   1       9.483   7.230 -10.652  0.00  0.00     0.137 C 
BRANCH  13  16
ATOM     16  C   UNL d   1      10.214   7.816  -7.753  0.00  0.00     0.220 C 
ATOM     17  C   UNL d   1      10.008   7.508  -6.270  0.00  0.00     0.033 C 
ATOM     18  C   UNL d   1      10.372   8.960  -5.976  0.00  0.00     0.004 C 
ATOM     19  C   UNL d   1      11.036   9.040  -7.356  0.00  0.00     0.033 C 
ENDBRANCH  13  16
ENDBRANCH   7  10
BRANCH   1  20
ATOM     20  S   UNL d   1      10.452   3.142 -14.582  0.00  0.00     0.268 S 
ATOM     21  O   UNL d   1      11.174   1.968 -14.072  0.00  0.00    -0.200 OA
ATOM     22  O   UNL d   1      10.893   4.502 -14.242  0.00  0.00    -0.200 OA
BRANCH  20  23
ATOM     23  C   UNL d   1      10.331   3.028 -16.345  0.00  0.00     0.104 A 
ATOM     24  C   UNL d   1      10.505   1.784 -16.973  0.00  0.00     0.013 A 
ATOM     25  C   UNL d   1      10.357   1.696 -18.369  0.00  0.00     0.001 A 
ATOM     26  C   UNL d   1      10.042   2.851 -19.116  0.00  0.00     0.000 A 
ATOM     27  C   UNL d   1       9.866   4.096 -18.477  0.00  0.00     0.001 A 
ATOM     28  C   UNL d   1      10.013   4.187 -17.081  0.00  0.00     0.013 A 
ENDBRANCH  20  23
ENDBRANCH   1  20
TORSDOF 4
