REMARK  7 active torsions:
REMARK  status: ('A' for Active; 'I' for Inactive)
REMARK       I    between atoms: C_2  and  N_3 
REMARK    1  A    between atoms: C_2  and  C_22 
REMARK    2  A    between atoms: N_3  and  C_4 
REMARK    3  A    between atoms: C_4  and  C_5 
REMARK    4  A    between atoms: C_6  and  C_7 
REMARK    5  A    between atoms: C_7  and  N_8 
REMARK    6  A    between atoms: N_11  and  C_12 
REMARK    7  A    between atoms: C_27  and  N_28 
ROOT
ATOM      1  C   UNL d   1       8.200   0.996 -15.905  0.00  0.00    -0.003 C 
ATOM      2  C   UNL d   1       7.213   1.880 -15.713  0.00  0.00     0.006 C 
ENDROOT
BRANCH   2   3
ATOM      3  C   UNL d   1       6.668   2.236 -14.346  0.00  0.00     0.276 C 
BRANCH   3   4
ATOM      4  N   UNL d   1       7.077   3.567 -13.898  0.00  0.00     0.145 N 
ATOM      5  C   UNL d   1       8.531   3.595 -13.656  0.00  0.00     0.275 C 
ATOM      6  C   UNL d   1       8.977   4.987 -13.184  0.00  0.00     0.137 C 
ATOM      7  N   UNL d   1       8.210   5.371 -12.016  0.00  0.00    -0.344 N 
ATOM      8  C   UNL d   1       6.766   5.308 -12.161  0.00  0.00     0.137 C 
ATOM      9  C   UNL d   1       6.357   3.907 -12.660  0.00  0.00     0.275 C 
BRANCH   7  10
ATOM     10  C   UNL d   1       8.829   5.837 -10.848  0.00  0.00     0.068 A 
ATOM     11  C   UNL d   1       9.463   7.099 -10.799  0.00  0.00     0.084 A 
ATOM     12  C   UNL d   1      10.104   7.538  -9.619  0.00  0.00     0.070 A 
ATOM     13 CL   UNL d   1       9.377   8.154 -12.159  0.00  0.00    -0.080 Cl
ATOM     14  C   UNL d   1      10.094   6.724  -8.476  0.00  0.00     0.012 A 
ATOM     15 CL   UNL d   1      10.884   9.075  -9.538  0.00  0.00    -0.081 Cl
ATOM     16  C   UNL d   1       9.448   5.479  -8.516  0.00  0.00     0.002 A 
ATOM     17  C   UNL d   1       8.815   5.033  -9.689  0.00  0.00     0.018 A 
ENDBRANCH   7  10
ENDBRANCH   3   4
ENDBRANCH   2   3
BRANCH   1  18
ATOM     18  C   UNL d   1       8.732   0.596 -17.261  0.00  0.00     0.155 C 
BRANCH  18  19
ATOM     19  N   UNL d   1      10.025   1.237 -17.535  0.00  0.00    -0.229 NA
ATOM     20  C   UNL d   1      11.146   0.583 -17.930  0.00  0.00     0.277 C 
ATOM     21  O   UNL d   1      11.220  -0.636 -17.999  0.00  0.00    -0.266 OA
BRANCH  20  22
ATOM     22  C   UNL d   1      12.309   1.461 -18.324  0.00  0.00     0.079 A 
ATOM     23  C   UNL d   1      13.328   1.070 -19.271  0.00  0.00     0.131 A 
ATOM     24  C   UNL d   1      14.343   2.002 -19.594  0.00  0.00     0.024 A 
ATOM     25  C   UNL d   1      14.408   3.267 -19.014  0.00  0.00     0.002 A 
ATOM     26  C   UNL d   1      13.440   3.645 -18.073  0.00  0.00     0.000 A 
ATOM     27  C   UNL d   1      12.414   2.744 -17.736  0.00  0.00     0.006 A 
BRANCH  23  28
ATOM     28  N   UNL d   1      13.421  -0.222 -19.958  0.00  0.00    -0.114 N 
ATOM     29  O   UNL d   1      13.408  -1.246 -19.279  0.00  0.00    -0.532 OA
ATOM     30  O   UNL d   1      13.620  -0.201 -21.171  0.00  0.00    -0.532 OA
ENDBRANCH  23  28
ENDBRANCH  20  22
ENDBRANCH  18  19
ENDBRANCH   1  18
TORSDOF 7
