REMARK  9 active torsions:
REMARK  status: ('A' for Active; 'I' for Inactive)
REMARK    1  A    between atoms: C_2  and  C_5 
REMARK    2  A    between atoms: C_8  and  C_9 
REMARK    3  A    between atoms: C_9  and  C_11 
REMARK    4  A    between atoms: C_11  and  C_12 
REMARK    5  A    between atoms: C_12  and  C_13 
REMARK    6  A    between atoms: C_13  and  N_14 
REMARK    7  A    between atoms: C_17  and  C_18 
REMARK    8  A    between atoms: C_18  and  C_20 
REMARK    9  A    between atoms: C_18  and  C_26 
ROOT
ATOM      1  N   UNL d   1       8.382   3.710 -13.874  0.00  0.00     0.137 N 
ATOM      2  C   UNL d   1       7.210   2.818 -13.878  0.00  0.00     0.250 C 
ATOM      3  C   UNL d   1       6.927   2.197 -15.238  0.00  0.00     0.038 C 
ATOM      4  C   UNL d   1       8.194   1.581 -15.896  0.00  0.00     0.040 C 
ATOM      5  C   UNL d   1       9.441   2.481 -15.719  0.00  0.00     0.038 C 
ATOM      6  C   UNL d   1       9.585   2.975 -14.281  0.00  0.00     0.250 C 
ENDROOT
BRANCH   1   7
ATOM      7  C   UNL d   1       8.569   4.242 -12.521  0.00  0.00     0.250 C 
BRANCH   7   8
ATOM      8  C   UNL d   1       9.272   5.611 -12.527  0.00  0.00     0.038 C 
BRANCH   8   9
ATOM      9  C   UNL d   1       9.429   6.180 -11.099  0.00  0.00     0.040 C 
BRANCH   9  10
ATOM     10  C   UNL d   1       9.801   7.679 -11.028  0.00  0.00     0.174 C 
ATOM     11  O   UNL d   1       8.780   8.441 -11.657  0.00  0.00    -0.219 OA
BRANCH  10  12
ATOM     12  C   UNL d   1      10.214   8.110  -9.633  0.00  0.00     0.008 A 
ATOM     13  C   UNL d   1      11.577   8.377  -9.357  0.00  0.00    -0.002 A 
ATOM     14  C   UNL d   1      11.956   8.762  -8.056  0.00  0.00    -0.004 A 
ATOM     15  C   UNL d   1      11.006   8.907  -7.006  0.00  0.00    -0.023 A 
ATOM     16  C   UNL d   1       9.661   8.621  -7.291  0.00  0.00    -0.004 A 
ATOM     17  C   UNL d   1       9.324   8.180  -8.553  0.00  0.00    -0.002 A 
BRANCH  15  18
ATOM     18  C   UNL d   1      11.416   9.305  -5.588  0.00  0.00     0.019 C 
ATOM     19  C   UNL d   1      11.361   8.094  -4.659  0.00  0.00     0.004 C 
ATOM     20  C   UNL d   1      10.456  10.348  -4.993  0.00  0.00     0.004 C 
ATOM     21  C   UNL d   1      12.762   9.975  -5.573  0.00  0.00     0.004 C 
ENDBRANCH  15  18
ENDBRANCH  10  12
ENDBRANCH   9  10
ENDBRANCH   8   9
ENDBRANCH   7   8
ENDBRANCH   1   7
BRANCH   4  22
ATOM     22  C   UNL d   1       7.939   1.159 -17.391  0.00  0.00     0.164 C 
ATOM     23  O   UNL d   1       7.783   2.392 -18.076  0.00  0.00    -0.217 OA
BRANCH  22  24
ATOM     24  C   UNL d   1       9.145   0.457 -18.016  0.00  0.00     0.009 A 
ATOM     25  C   UNL d   1       9.826  -0.565 -17.317  0.00  0.00    -0.002 A 
ATOM     26  C   UNL d   1      10.903  -1.221 -17.932  0.00  0.00    -0.000 A 
ATOM     27  C   UNL d   1      11.380  -0.795 -19.186  0.00  0.00    -0.000 A 
ATOM     28  C   UNL d   1      10.723   0.220 -19.892  0.00  0.00    -0.000 A 
ATOM     29  C   UNL d   1       9.596   0.827 -19.311  0.00  0.00    -0.002 A 
ENDBRANCH  22  24
BRANCH  22  30
ATOM     30  C   UNL d   1       6.673   0.304 -17.558  0.00  0.00     0.009 A 
ATOM     31  C   UNL d   1       5.701   0.586 -18.538  0.00  0.00    -0.002 A 
ATOM     32  C   UNL d   1       4.569  -0.242 -18.661  0.00  0.00    -0.000 A 
ATOM     33  C   UNL d   1       4.401  -1.372 -17.831  0.00  0.00    -0.000 A 
ATOM     34  C   UNL d   1       5.354  -1.644 -16.843  0.00  0.00    -0.000 A 
ATOM     35  C   UNL d   1       6.459  -0.806 -16.711  0.00  0.00    -0.002 A 
ENDBRANCH  22  30
ENDBRANCH   4  22
TORSDOF 9
