REMARK  7 active torsions:
REMARK  status: ('A' for Active; 'I' for Inactive)
REMARK    1  A    between atoms: O_2  and  C_3 
REMARK    2  A    between atoms: C_7  and  C_8 
REMARK       I    between atoms: C_8  and  N_10 
REMARK    3  A    between atoms: N_10  and  C_11 
REMARK    4  A    between atoms: C_11  and  C_12 
REMARK    5  A    between atoms: C_12  and  C_13 
REMARK    6  A    between atoms: C_13  and  N_14 
REMARK    7  A    between atoms: N_17  and  C_18 
ROOT
ATOM      1  C   UNL d   1      10.236   7.133 -10.928  0.00  0.00     0.253 C 
ENDROOT
BRANCH   1   2
ATOM      2  C   UNL d   1       9.094   6.425 -11.667  0.00  0.00     0.062 C 
BRANCH   2   3
ATOM      3  C   UNL d   1       8.982   4.915 -11.311  0.00  0.00     0.131 C 
BRANCH   3   4
ATOM      4  N   UNL d   1       8.755   4.073 -12.467  0.00  0.00    -0.234 NA
ATOM      5  C   UNL d   1       9.616   3.898 -13.454  0.00  0.00     0.275 C 
ATOM      6  O   UNL d   1      10.696   4.500 -13.531  0.00  0.00    -0.266 OA
BRANCH   5   7
ATOM      7  C   UNL d   1       9.248   2.838 -14.438  0.00  0.00     0.059 A 
ATOM      8  C   UNL d   1       7.941   2.285 -14.539  0.00  0.00     0.005 A 
ATOM      9  C   UNL d   1       7.689   1.292 -15.505  0.00  0.00     0.002 A 
ATOM     10  C   UNL d   1       8.705   0.872 -16.384  0.00  0.00     0.024 A 
ATOM     11  C   UNL d   1       9.998   1.427 -16.320  0.00  0.00     0.094 A 
ATOM     12  C   UNL d   1      10.244   2.420 -15.334  0.00  0.00     0.029 A 
BRANCH  11  13
ATOM     13  O   UNL d   1      10.934   0.976 -17.231  0.00  0.00    -0.328 OA
ATOM     14  C   UNL d   1      12.207   1.609 -17.202  0.00  0.00     0.181 C 
ENDBRANCH  11  13
ENDBRANCH   5   7
ENDBRANCH   3   4
ENDBRANCH   2   3
ENDBRANCH   1   2
BRANCH   1  15
ATOM     15  N   UNL d   1       9.835   7.640  -9.627  0.00  0.00     0.141 N 
ATOM     16  C   UNL d   1       9.755   6.572  -8.633  0.00  0.00     0.274 C 
ATOM     17  C   UNL d   1       9.221   7.134  -7.319  0.00  0.00     0.137 C 
ATOM     18  N   UNL d   1      10.063   8.240  -6.895  0.00  0.00    -0.344 N 
ATOM     19  C   UNL d   1      10.277   9.274  -7.900  0.00  0.00     0.137 C 
ATOM     20  C   UNL d   1      10.782   8.663  -9.207  0.00  0.00     0.274 C 
BRANCH  18  21
ATOM     21  C   UNL d   1      10.711   8.277  -5.670  0.00  0.00     0.056 A 
ATOM     22  C   UNL d   1      11.107   7.073  -5.027  0.00  0.00     0.018 A 
ATOM     23  C   UNL d   1      11.726   7.118  -3.768  0.00  0.00     0.013 A 
ATOM     24  C   UNL d   1      11.928   8.360  -3.165  0.00  0.00     0.058 A 
ATOM     25  C   UNL d   1      11.544   9.556  -3.765  0.00  0.00     0.013 A 
ATOM     26 CL   UNL d   1      12.663   8.425  -1.640  0.00  0.00    -0.082 Cl
ATOM     27  C   UNL d   1      10.947   9.524  -5.032  0.00  0.00     0.018 A 
ENDBRANCH  18  21
ENDBRANCH   1  15
TORSDOF 7
