REMARK  6 active torsions:
REMARK  status: ('A' for Active; 'I' for Inactive)
REMARK    1  A    between atoms: C_2  and  C_3 
REMARK       I    between atoms: C_2  and  N_9 
REMARK    2  A    between atoms: N_12  and  C_13 
REMARK    3  A    between atoms: C_13  and  C_14 
REMARK    4  A    between atoms: C_14  and  C_15 
REMARK    5  A    between atoms: C_15  and  N_16 
REMARK    6  A    between atoms: N_19  and  C_20 
ROOT
ATOM      1  C   UNL d   1       8.879   2.425 -14.510  0.00  0.00     0.071 C 
ENDROOT
BRANCH   1   2
ATOM      2  C   UNL d   1       9.518   1.731 -15.711  0.00  0.00     0.253 C 
BRANCH   2   3
ATOM      3  N   UNL d   1       8.875   2.087 -16.983  0.00  0.00     0.141 N 
ATOM      4  C   UNL d   1       7.472   1.671 -17.075  0.00  0.00     0.274 C 
ATOM      5  C   UNL d   1       7.354   0.137 -16.964  0.00  0.00     0.140 C 
ATOM      6  N   UNL d   1       8.121  -0.468 -18.075  0.00  0.00    -0.311 N 
ATOM      7  C   UNL d   1       7.653  -1.397 -18.963  0.00  0.00     0.275 C 
ATOM      8  C   UNL d   1       9.527  -0.027 -18.125  0.00  0.00     0.140 C 
ATOM      9  O   UNL d   1       8.361  -1.907 -19.831  0.00  0.00    -0.266 OA
ATOM     10  C   UNL d   1       9.610   1.520 -18.121  0.00  0.00     0.274 C 
BRANCH   7  11
ATOM     11  C   UNL d   1       6.234  -1.842 -18.812  0.00  0.00     0.137 A 
ATOM     12  N   UNL d   1       6.025  -3.170 -18.635  0.00  0.00    -0.239 NA
ATOM     13  C   UNL d   1       4.766  -3.606 -18.451  0.00  0.00     0.099 A 
ATOM     14  C   UNL d   1       3.645  -2.747 -18.471  0.00  0.00     0.021 A 
ATOM     15  C   UNL d   1       3.864  -1.370 -18.665  0.00  0.00     0.003 A 
ATOM     16  C   UNL d   1       5.168  -0.913 -18.897  0.00  0.00     0.024 A 
ENDBRANCH   7  11
ENDBRANCH   2   3
ENDBRANCH   1   2
BRANCH   1  17
ATOM     17  C   UNL d   1       9.266   3.904 -14.459  0.00  0.00     0.253 C 
BRANCH  17  18
ATOM     18  N   UNL d   1       8.761   4.518 -13.238  0.00  0.00     0.141 N 
ATOM     19  C   UNL d   1       8.849   5.972 -13.371  0.00  0.00     0.274 C 
ATOM     20  C   UNL d   1       8.351   6.688 -12.105  0.00  0.00     0.137 C 
ATOM     21  N   UNL d   1       9.116   6.210 -10.963  0.00  0.00    -0.344 N 
ATOM     22  C   UNL d   1       9.140   4.763 -10.828  0.00  0.00     0.137 C 
ATOM     23  C   UNL d   1       9.616   4.109 -12.128  0.00  0.00     0.274 C 
BRANCH  21  24
ATOM     24  C   UNL d   1       9.690   7.095 -10.031  0.00  0.00     0.068 A 
ATOM     25  C   UNL d   1       9.591   6.896  -8.629  0.00  0.00     0.084 A 
ATOM     26  C   UNL d   1      10.236   7.788  -7.740  0.00  0.00     0.070 A 
ATOM     27 CL   UNL d   1       8.658   5.588  -8.003  0.00  0.00    -0.080 Cl
ATOM     28  C   UNL d   1      10.968   8.878  -8.231  0.00  0.00     0.012 A 
ATOM     29 CL   UNL d   1      10.164   7.559  -6.033  0.00  0.00    -0.081 Cl
ATOM     30  C   UNL d   1      11.051   9.093  -9.619  0.00  0.00     0.002 A 
ATOM     31  C   UNL d   1      10.393   8.216 -10.500  0.00  0.00     0.018 A 
ENDBRANCH  21  24
ENDBRANCH  17  18
ENDBRANCH   1  17
TORSDOF 6
