REMARK  7 active torsions:
REMARK  status: ('A' for Active; 'I' for Inactive)
REMARK    1  A    between atoms: O_2  and  N_3 
REMARK    2  A    between atoms: C_4  and  C_5 
REMARK    3  A    between atoms: C_4  and  C_12 
REMARK    4  A    between atoms: C_12  and  C_13 
REMARK    5  A    between atoms: C_12  and  O_26 
REMARK    6  A    between atoms: C_13  and  N_14 
REMARK    7  A    between atoms: N_17  and  C_18 
ROOT
ATOM      1  C   UNL d   1       8.245   4.464 -12.840  0.00  0.00     0.191 C 
ENDROOT
BRANCH   1   2
ATOM      2  C   UNL d   1       9.433   4.285 -13.819  0.00  0.00     0.114 C 
ATOM      3  N   UNL d   1      10.256   5.256 -13.967  0.00  0.00    -0.133 NA
BRANCH   3   4
ATOM      4  O   UNL d   1      11.356   4.993 -14.819  0.00  0.00    -0.234 OA
ATOM      5  C   UNL d   1      11.685   6.180 -15.537  0.00  0.00     0.211 C 
ENDBRANCH   3   4
BRANCH   2   6
ATOM      6  C   UNL d   1       9.539   2.971 -14.535  0.00  0.00     0.018 A 
ATOM      7  C   UNL d   1      10.786   2.302 -14.652  0.00  0.00     0.002 A 
ATOM      8  C   UNL d   1      10.893   1.131 -15.433  0.00  0.00     0.011 A 
ATOM      9  C   UNL d   1       9.757   0.579 -16.050  0.00  0.00     0.058 A 
ATOM     10  C   UNL d   1       8.514   1.197 -15.889  0.00  0.00     0.011 A 
ATOM     11 CL   UNL d   1       9.885  -0.804 -17.077  0.00  0.00    -0.082 Cl
ATOM     12  C   UNL d   1       8.403   2.402 -15.172  0.00  0.00     0.002 A 
ENDBRANCH   2   6
ENDBRANCH   1   2
BRANCH   1  13
ATOM     13  C   UNL d   1       8.265   5.787 -12.037  0.00  0.00     0.286 C 
BRANCH  13  14
ATOM     14  N   UNL d   1       9.356   5.894 -11.058  0.00  0.00     0.144 N 
ATOM     15  C   UNL d   1       9.844   7.259 -11.003  0.00  0.00     0.274 C 
ATOM     16  C   UNL d   1      11.029   7.386 -10.026  0.00  0.00     0.138 C 
ATOM     17  N   UNL d   1      10.639   6.888  -8.708  0.00  0.00    -0.330 N 
ATOM     18  C   UNL d   1       9.977   5.568  -8.671  0.00  0.00     0.138 C 
ATOM     19  C   UNL d   1       8.874   5.488  -9.736  0.00  0.00     0.274 C 
BRANCH  17  20
ATOM     20  C   UNL d   1      10.809   7.667  -7.559  0.00  0.00     0.140 A 
ATOM     21  N   UNL d   1      10.898   9.008  -7.721  0.00  0.00    -0.227 NA
ATOM     22  C   UNL d   1      11.059   9.792  -6.625  0.00  0.00     0.101 A 
ATOM     23  C   UNL d   1      11.123   9.280  -5.320  0.00  0.00     0.021 A 
ATOM     24  C   UNL d   1      11.067   7.886  -5.149  0.00  0.00     0.005 A 
ATOM     25  C   UNL d   1      10.903   7.069  -6.293  0.00  0.00     0.037 A 
ENDBRANCH  17  20
ENDBRANCH  13  14
ENDBRANCH   1  13
BRANCH   1  26
ATOM     26  O   UNL d   1       7.019   4.441 -13.570  0.00  0.00    -0.346 OA
ATOM     27  C   UNL d   1       5.831   4.260 -12.798  0.00  0.00     0.175 C 
ENDBRANCH   1  26
TORSDOF 7
