REMARK  7 active torsions:
REMARK  status: ('A' for Active; 'I' for Inactive)
REMARK    1  A    between atoms: C_5  and  S_6 
REMARK    2  A    between atoms: S_6  and  C_7 
REMARK    3  A    between atoms: C_7  and  C_8 
REMARK    4  A    between atoms: C_8  and  C_9 
REMARK    5  A    between atoms: C_9  and  N_10 
REMARK    6  A    between atoms: N_13  and  C_14 
REMARK    7  A    between atoms: C_17  and  C_18 
ROOT
ATOM      1  N   UNL d   1       8.298   5.476 -11.095  0.00  0.00     0.141 N 
ATOM      2  C   UNL d   1       9.269   4.587 -11.726  0.00  0.00     0.274 C 
ATOM      3  C   UNL d   1       9.021   4.474 -13.237  0.00  0.00     0.137 C 
ATOM      4  N   UNL d   1       7.656   4.044 -13.485  0.00  0.00    -0.344 N 
ATOM      5  C   UNL d   1       6.631   4.841 -12.816  0.00  0.00     0.137 C 
ATOM      6  C   UNL d   1       6.957   4.944 -11.313  0.00  0.00     0.274 C 
ENDROOT
BRANCH   1   7
ATOM      7  C   UNL d   1       8.535   5.609  -9.666  0.00  0.00     0.251 C 
BRANCH   7   8
ATOM      8  C   UNL d   1       9.588   6.691  -9.369  0.00  0.00     0.047 C 
BRANCH   8   9
ATOM      9  C   UNL d   1       9.733   6.924  -7.858  0.00  0.00     0.064 C 
BRANCH   9  10
ATOM     10  S   UNL d   1      10.788   8.361  -7.472  0.00  0.00    -0.114 SA
BRANCH  10  11
ATOM     11  C   UNL d   1      11.245   8.263  -5.764  0.00  0.00     0.025 A 
ATOM     12  C   UNL d   1      11.457   7.016  -5.145  0.00  0.00     0.009 A 
ATOM     13  C   UNL d   1      11.860   6.954  -3.795  0.00  0.00     0.030 A 
ATOM     14  C   UNL d   1      12.059   8.137  -3.060  0.00  0.00     0.140 A 
ATOM     15  F   UNL d   1      12.429   8.066  -1.760  0.00  0.00    -0.204 F 
ATOM     16  C   UNL d   1      11.855   9.387  -3.676  0.00  0.00     0.030 A 
ATOM     17  C   UNL d   1      11.453   9.456  -5.030  0.00  0.00     0.009 A 
ENDBRANCH  10  11
ENDBRANCH   9  10
ENDBRANCH   8   9
ENDBRANCH   7   8
ENDBRANCH   1   7
BRANCH   4  18
ATOM     18  C   UNL d   1       7.387   2.883 -14.250  0.00  0.00     0.056 A 
ATOM     19  C   UNL d   1       8.214   2.542 -15.345  0.00  0.00     0.017 A 
ATOM     20  C   UNL d   1       7.878   1.470 -16.192  0.00  0.00     0.005 A 
ATOM     21  C   UNL d   1       6.736   0.691 -15.933  0.00  0.00     0.072 A 
ATOM     22  C   UNL d   1       5.939   0.980 -14.809  0.00  0.00     0.005 A 
ATOM     23  C   UNL d   1       6.258   2.076 -13.984  0.00  0.00     0.017 A 
BRANCH  21  24
ATOM     24  C   UNL d   1       6.338  -0.430 -16.878  0.00  0.00     0.419 C 
ATOM     25  F   UNL d   1       5.820  -1.438 -16.182  0.00  0.00    -0.166 F 
ATOM     26  F   UNL d   1       5.436  -0.002 -17.763  0.00  0.00    -0.166 F 
ATOM     27  F   UNL d   1       7.413  -0.857 -17.538  0.00  0.00    -0.166 F 
ENDBRANCH  21  24
ENDBRANCH   4  18
TORSDOF 7
