REMARK  1 active torsions:
REMARK  status: ('A' for Active; 'I' for Inactive)
REMARK    1  A    between atoms: O_2  and  C_3 
ROOT
ATOM      1  C   UNL d   1       5.492   0.116 -19.131  0.00  0.00     0.094 A 
ATOM      2  C   UNL d   1       5.125  -0.692 -18.052  0.00  0.00     0.024 A 
ATOM      3  C   UNL d   1       5.836  -0.650 -16.835  0.00  0.00    -0.002 A 
ATOM      4  C   UNL d   1       6.936   0.234 -16.670  0.00  0.00    -0.020 A 
ATOM      5  C   UNL d   1       7.310   1.062 -17.761  0.00  0.00    -0.022 A 
ATOM      6  C   UNL d   1       6.601   0.991 -18.981  0.00  0.00     0.020 A 
ATOM      7  C   UNL d   1       8.419   2.092 -17.713  0.00  0.00     0.061 C 
ATOM      8  C   UNL d   1       9.830   1.508 -17.607  0.00  0.00     0.255 C 
ATOM      9  N   UNL d   1      10.657   2.563 -17.027  0.00  0.00     0.140 N 
ATOM     10  C   UNL d   1      11.507   3.181 -18.035  0.00  0.00     0.285 C 
ATOM     11  C   UNL d   1      11.435   2.171 -15.851  0.00  0.00     0.255 C 
ATOM     12  C   UNL d   1      10.629   1.476 -14.725  0.00  0.00     0.063 C 
ATOM     13  C   UNL d   1       9.271   2.073 -14.444  0.00  0.00    -0.005 A 
ATOM     14  C   UNL d   1       8.043   1.503 -14.714  0.00  0.00     0.059 A 
ATOM     15  N   UNL d   1       7.049   2.384 -14.324  0.00  0.00    -0.250 NA
ATOM     16  C   UNL d   1       7.591   3.524 -13.767  0.00  0.00     0.081 A 
ATOM     17  C   UNL d   1       7.004   4.672 -13.208  0.00  0.00     0.019 A 
ATOM     18  C   UNL d   1       7.830   5.696 -12.711  0.00  0.00     0.002 A 
ATOM     19  C   UNL d   1       9.230   5.559 -12.775  0.00  0.00     0.000 A 
ATOM     20  C   UNL d   1       9.808   4.398 -13.330  0.00  0.00     0.001 A 
ATOM     21  C   UNL d   1       9.003   3.352 -13.840  0.00  0.00     0.015 A 
ATOM     22  C   UNL d   1       7.702   0.179 -15.340  0.00  0.00     0.071 C 
ENDROOT
BRANCH   1  23
ATOM     23  O   UNL d   1       4.759   0.030 -20.301  0.00  0.00    -0.328 OA
ATOM     24  C   UNL d   1       5.203   0.806 -21.410  0.00  0.00     0.181 C 
ENDBRANCH   1  23
TORSDOF 1
