REMARK  2 active torsions:
REMARK  status: ('A' for Active; 'I' for Inactive)
REMARK    1  A    between atoms: C_2  and  C_3 
REMARK    2  A    between atoms: C_3  and  N_4 
ROOT
ATOM      1  N   UNL d   1      10.250   6.725  -9.066  0.00  0.00     0.143 N 
ATOM      2  C   UNL d   1      11.168   7.462  -9.936  0.00  0.00     0.282 C 
ATOM      3  C   UNL d   1      11.922   8.572  -9.210  0.00  0.00     0.178 C 
ATOM      4  O   UNL d   1      10.974   9.455  -8.635  0.00  0.00    -0.348 OA
ATOM      5  C   UNL d   1      10.055   8.828  -7.745  0.00  0.00     0.173 C 
ATOM      6  C   UNL d   1      10.710   8.385  -6.463  0.00  0.00     0.031 C 
ATOM      7  C   UNL d   1      11.652   9.208  -5.841  0.00  0.00     0.028 C 
ATOM      8  C   UNL d   1      12.180   8.800  -4.599  0.00  0.00     0.131 C 
ATOM      9  O   UNL d   1      13.047   9.582  -3.980  0.00  0.00    -0.190 OA
ATOM     10  C   UNL d   1      11.882   7.569  -4.004  0.00  0.00     0.029 C 
ATOM     11  C   UNL d   1      10.991   6.740  -4.663  0.00  0.00     0.026 C 
ATOM     12  C   UNL d   1      10.357   7.188  -5.820  0.00  0.00     0.092 C 
ATOM     13  O   UNL d   1       9.321   6.437  -6.291  0.00  0.00    -0.329 OA
ATOM     14  C   UNL d   1       8.501   6.983  -7.290  0.00  0.00     0.185 C 
ATOM     15  C   UNL d   1       9.334   7.645  -8.395  0.00  0.00     0.280 C 
ENDROOT
BRANCH   1  16
ATOM     16  C   UNL d   1       9.584   5.603  -9.745  0.00  0.00     0.251 C 
BRANCH  16  17
ATOM     17  C   UNL d   1       8.894   5.933 -11.081  0.00  0.00     0.035 C 
ATOM     18  C   UNL d   1       8.160   4.739 -11.674  0.00  0.00     0.002 C 
ENDBRANCH  16  17
ENDBRANCH   1  16
TORSDOF 2
