REMARK  3 active torsions:
REMARK  status: ('A' for Active; 'I' for Inactive)
REMARK    1  A    between atoms: N_2  and  C_4 
REMARK    2  A    between atoms: C_4  and  C_5 
REMARK    3  A    between atoms: C_5  and  C_6 
ROOT
ATOM      1  C   UNL d   1       8.523   5.227 -13.675  0.00  0.00     0.149 C 
ATOM      2  C   UNL d   1       9.954   4.749 -13.834  0.00  0.00     0.062 C 
ATOM      3  C   UNL d   1       9.762   3.453 -14.604  0.00  0.00     0.134 C 
ATOM      4  C   UNL d   1       9.792   3.567 -16.134  0.00  0.00    -0.003 A 
ATOM      5  C   UNL d   1       9.897   4.804 -16.822  0.00  0.00    -0.003 A 
ATOM      6  C   UNL d   1       9.925   4.844 -18.229  0.00  0.00    -0.000 A 
ATOM      7  C   UNL d   1       9.852   3.652 -18.968  0.00  0.00    -0.000 A 
ATOM      8  C   UNL d   1       9.738   2.419 -18.302  0.00  0.00    -0.004 A 
ATOM      9  C   UNL d   1       9.707   2.378 -16.892  0.00  0.00    -0.020 A 
ATOM     10  C   UNL d   1       9.506   1.056 -16.180  0.00  0.00     0.054 C 
ATOM     11  C   UNL d   1       8.122   0.996 -15.557  0.00  0.00    -0.000 A 
ATOM     12  C   UNL d   1       7.237  -0.013 -15.998  0.00  0.00    -0.002 A 
ATOM     13  C   UNL d   1       5.945  -0.131 -15.453  0.00  0.00    -0.000 A 
ATOM     14  C   UNL d   1       5.524   0.775 -14.459  0.00  0.00     0.002 A 
ATOM     15  C   UNL d   1       6.386   1.794 -14.036  0.00  0.00     0.019 A 
ATOM     16  C   UNL d   1       7.689   1.926 -14.574  0.00  0.00     0.079 A 
ATOM     17  N   UNL d   1       8.504   2.951 -14.045  0.00  0.00    -0.237 N 
ATOM     18  O   UNL d   1       7.789   4.043 -13.448  0.00  0.00    -0.260 OA
ENDROOT
BRANCH   1  19
ATOM     19  C   UNL d   1       8.293   6.246 -12.546  0.00  0.00     0.068 C 
BRANCH  19  20
ATOM     20  C   UNL d   1       8.451   5.674 -11.117  0.00  0.00     0.253 C 
BRANCH  20  21
ATOM     21  N   UNL d   1       9.738   5.985 -10.505  0.00  0.00     0.141 N 
ATOM     22  C   UNL d   1       9.815   5.319  -9.213  0.00  0.00     0.285 C 
ATOM     23  C   UNL d   1       9.898   7.416 -10.291  0.00  0.00     0.285 C 
ENDBRANCH  20  21
ENDBRANCH  19  20
ENDBRANCH   1  19
TORSDOF 3
