REMARK  6 active torsions:
REMARK  status: ('A' for Active; 'I' for Inactive)
REMARK    1  A    between atoms: O_2  and  C_3 
REMARK    2  A    between atoms: C_7  and  C_8 
REMARK       I    between atoms: C_8  and  N_10 
REMARK    3  A    between atoms: N_10  and  C_11 
REMARK    4  A    between atoms: C_11  and  C_12 
REMARK    5  A    between atoms: C_12  and  N_13 
REMARK    6  A    between atoms: N_16  and  C_17 
ROOT
ATOM      1  N   UNL d   1       9.029   6.159  -9.497  0.00  0.00     0.143 N 
ATOM      2  C   UNL d   1       9.349   5.537  -8.211  0.00  0.00     0.274 C 
ATOM      3  C   UNL d   1       9.098   6.522  -7.053  0.00  0.00     0.138 C 
ATOM      4  N   UNL d   1       9.893   7.729  -7.257  0.00  0.00    -0.330 N 
ATOM      5  C   UNL d   1       9.671   8.367  -8.558  0.00  0.00     0.138 C 
ATOM      6  C   UNL d   1       9.871   7.342  -9.700  0.00  0.00     0.274 C 
ENDROOT
BRANCH   1   7
ATOM      7  C   UNL d   1       9.153   5.195 -10.583  0.00  0.00     0.277 C 
BRANCH   7   8
ATOM      8  C   UNL d   1       8.310   5.595 -11.810  0.00  0.00     0.164 C 
BRANCH   8   9
ATOM      9  N   UNL d   1       7.956   4.418 -12.607  0.00  0.00    -0.232 NA
ATOM     10  C   UNL d   1       6.716   4.049 -12.971  0.00  0.00     0.275 C 
ATOM     11  O   UNL d   1       5.702   4.717 -12.760  0.00  0.00    -0.266 OA
BRANCH  10  12
ATOM     12  C   UNL d   1       6.612   2.707 -13.637  0.00  0.00     0.059 A 
ATOM     13  C   UNL d   1       7.572   2.318 -14.609  0.00  0.00     0.005 A 
ATOM     14  C   UNL d   1       7.486   1.060 -15.222  0.00  0.00     0.002 A 
ATOM     15  C   UNL d   1       6.440   0.180 -14.901  0.00  0.00     0.024 A 
ATOM     16  C   UNL d   1       5.443   0.563 -13.964  0.00  0.00     0.094 A 
ATOM     17  C   UNL d   1       5.563   1.812 -13.312  0.00  0.00     0.029 A 
BRANCH  16  18
ATOM     18  O   UNL d   1       4.360  -0.231 -13.652  0.00  0.00    -0.328 OA
ATOM     19  C   UNL d   1       3.835  -1.062 -14.684  0.00  0.00     0.181 C 
ENDBRANCH  16  18
ENDBRANCH  10  12
ENDBRANCH   8   9
ENDBRANCH   7   8
ENDBRANCH   1   7
BRANCH   4  20
ATOM     20  C   UNL d   1      10.786   8.240  -6.295  0.00  0.00     0.140 A 
ATOM     21  N   UNL d   1      11.361   9.426  -6.585  0.00  0.00    -0.227 NA
ATOM     22  C   UNL d   1      12.248   9.961  -5.723  0.00  0.00     0.100 A 
ATOM     23  C   UNL d   1      12.594   9.365  -4.495  0.00  0.00     0.017 A 
ATOM     24  C   UNL d   1      11.990   8.137  -4.173  0.00  0.00    -0.017 A 
ATOM     25  C   UNL d   1      11.086   7.557  -5.091  0.00  0.00     0.033 A 
ATOM     26  C   UNL d   1      12.313   7.408  -2.885  0.00  0.00     0.031 C 
ENDBRANCH   4  20
TORSDOF 6
