REMARK  7 active torsions:
REMARK  status: ('A' for Active; 'I' for Inactive)
REMARK    1  A    between atoms: C_6  and  C_7 
REMARK    2  A    between atoms: C_10  and  S_11 
REMARK    3  A    between atoms: S_11  and  C_12 
REMARK    4  A    between atoms: C_12  and  C_13 
REMARK    5  A    between atoms: C_13  and  C_14 
REMARK    6  A    between atoms: C_14  and  N_15 
REMARK    7  A    between atoms: C_23  and  C_24 
ROOT
ATOM      1  N   UNL d   1      10.343   4.966 -18.934  0.00  0.00     0.138 N 
ATOM      2  C   UNL d   1      11.523   4.430 -18.231  0.00  0.00     0.255 C 
ATOM      3  C   UNL d   1      11.625   2.898 -18.287  0.00  0.00     0.061 C 
ATOM      4  C   UNL d   1      10.794   2.205 -17.227  0.00  0.00    -0.022 A 
ATOM      5  C   UNL d   1      11.443   1.403 -16.267  0.00  0.00    -0.002 A 
ATOM      6  C   UNL d   1      10.698   0.754 -15.261  0.00  0.00     0.026 A 
ATOM      7  C   UNL d   1       9.316   0.926 -15.246  0.00  0.00     0.119 A 
ATOM      8  O   UNL d   1       8.401   0.389 -14.372  0.00  0.00    -0.285 OA
ATOM      9  C   UNL d   1       7.210   0.887 -14.819  0.00  0.00     0.256 A 
ATOM     10  N   UNL d   1       7.277   1.691 -15.892  0.00  0.00    -0.217 NA
ATOM     11  C   UNL d   1       8.628   1.722 -16.182  0.00  0.00     0.102 A 
ATOM     12  C   UNL d   1       9.390   2.368 -17.189  0.00  0.00    -0.004 A 
ATOM     13  C   UNL d   1       8.691   3.222 -18.223  0.00  0.00     0.063 C 
ATOM     14  C   UNL d   1       9.104   4.703 -18.200  0.00  0.00     0.255 C 
ENDROOT
BRANCH   1  15
ATOM     15  C   UNL d   1      10.439   6.417 -19.131  0.00  0.00     0.251 C 
BRANCH  15  16
ATOM     16  C   UNL d   1      11.476   6.775 -20.204  0.00  0.00     0.047 C 
BRANCH  16  17
ATOM     17  C   UNL d   1      11.688   8.290 -20.379  0.00  0.00     0.067 C 
BRANCH  17  18
ATOM     18  S   UNL d   1      13.008   8.676 -21.582  0.00  0.00    -0.075 SA
BRANCH  18  19
ATOM     19  C   UNL d   1      14.428   8.219 -20.636  0.00  0.00     0.193 A 
ATOM     20  N   UNL d   1      14.718   6.963 -20.305  0.00  0.00    -0.122 NA
ATOM     21  N   UNL d   1      15.831   7.020 -19.522  0.00  0.00    -0.126 NA
ATOM     22  C   UNL d   1      16.191   8.304 -19.506  0.00  0.00     0.191 A 
ATOM     23  N   UNL d   1      15.341   9.107 -20.193  0.00  0.00    -0.287 N 
ATOM     24  C   UNL d   1      15.401  10.547 -20.410  0.00  0.00     0.134 C 
BRANCH  22  25
ATOM     25  C   UNL d   1      17.408   8.717 -18.819  0.00  0.00     0.151 A 
ATOM     26  C   UNL d   1      18.290   8.041 -18.004  0.00  0.00     0.087 A 
ATOM     27  C   UNL d   1      18.257   6.622 -17.526  0.00  0.00     0.054 C 
ATOM     28  N   UNL d   1      19.303   8.909 -17.625  0.00  0.00    -0.221 NA
ATOM     29  C   UNL d   1      18.996  10.050 -18.233  0.00  0.00     0.225 A 
ATOM     30  O   UNL d   1      17.861   9.990 -18.975  0.00  0.00    -0.282 OA
ENDBRANCH  22  25
ENDBRANCH  18  19
ENDBRANCH  17  18
ENDBRANCH  16  17
ENDBRANCH  15  16
ENDBRANCH   1  15
BRANCH   9  31
ATOM     31  C   UNL d   1       5.975   0.513 -14.066  0.00  0.00     0.458 C 
ATOM     32  F   UNL d   1       5.470   1.579 -13.445  0.00  0.00    -0.163 F 
ATOM     33  F   UNL d   1       5.052   0.022 -14.893  0.00  0.00    -0.163 F 
ATOM     34  F   UNL d   1       6.248  -0.411 -13.147  0.00  0.00    -0.163 F 
ENDBRANCH   9  31
TORSDOF 7
