REMARK  7 active torsions:
REMARK  status: ('A' for Active; 'I' for Inactive)
REMARK    1  A    between atoms: C_2  and  C_3 
REMARK       I    between atoms: C_2  and  N_10 
REMARK    2  A    between atoms: C_3  and  C_4 
REMARK    3  A    between atoms: N_10  and  C_11 
REMARK    4  A    between atoms: C_14  and  C_15 
REMARK    5  A    between atoms: C_15  and  C_16 
REMARK    6  A    between atoms: C_16  and  N_17 
REMARK    7  A    between atoms: N_20  and  C_21 
ROOT
ATOM      1  C   UNL d   1       8.798   4.596 -11.187  0.00  0.00     0.035 C 
ENDROOT
BRANCH   1   2
ATOM      2  C   UNL d   1       8.910   5.876 -10.352  0.00  0.00     0.002 C 
ATOM      3  C   UNL d   1       9.180   5.550  -8.878  0.00  0.00     0.002 C 
ATOM      4  C   UNL d   1       9.208   6.823  -8.037  0.00  0.00     0.024 C 
ATOM      5  C   UNL d   1      10.286   7.812  -8.556  0.00  0.00     0.106 C 
ATOM      6  C   UNL d   1      10.059   8.141 -10.038  0.00  0.00     0.024 C 
ATOM      7  C   UNL d   1       9.982   6.862 -10.862  0.00  0.00     0.002 C 
BRANCH   5   8
ATOM      8  N   UNL d   1      10.297   9.058  -7.801  0.00  0.00    -0.240 NA
ATOM      9  C   UNL d   1      10.732   9.240  -6.552  0.00  0.00     0.251 C 
ATOM     10  O   UNL d   1      11.050  10.365  -6.164  0.00  0.00    -0.271 OA
BRANCH   9  11
ATOM     11  C   UNL d   1      10.769   8.021  -5.613  0.00  0.00     0.090 C 
BRANCH  11  12
ATOM     12  C   UNL d   1      11.688   8.082  -4.407  0.00  0.00     0.014 C 
ATOM     13  C   UNL d   1      11.466   9.261  -3.450  0.00  0.00     0.033 C 
ATOM     14  C   UNL d   1      12.456   9.177  -2.298  0.00  0.00     0.142 C 
ATOM     15  O   UNL d   1      12.345   7.921  -1.635  0.00  0.00    -0.354 OA
ATOM     16  C   UNL d   1      12.652   6.801  -2.457  0.00  0.00     0.142 C 
ATOM     17  C   UNL d   1      11.656   6.747  -3.620  0.00  0.00     0.033 C 
ENDBRANCH  11  12
ENDBRANCH   9  11
ENDBRANCH   5   8
ENDBRANCH   1   2
BRANCH   1  18
ATOM     18  C   UNL d   1       8.665   4.858 -12.698  0.00  0.00     0.250 C 
BRANCH  18  19
ATOM     19  N   UNL d   1       8.725   3.597 -13.437  0.00  0.00     0.141 N 
ATOM     20  C   UNL d   1       7.360   3.213 -13.787  0.00  0.00     0.274 C 
ATOM     21  C   UNL d   1       7.344   1.895 -14.564  0.00  0.00     0.138 C 
ATOM     22  N   UNL d   1       8.215   1.973 -15.731  0.00  0.00    -0.330 N 
ATOM     23  C   UNL d   1       9.572   2.445 -15.454  0.00  0.00     0.138 C 
ATOM     24  C   UNL d   1       9.510   3.766 -14.665  0.00  0.00     0.274 C 
BRANCH  22  25
ATOM     25  C   UNL d   1       7.781   1.612 -17.025  0.00  0.00     0.141 A 
ATOM     26  C   UNL d   1       6.720   0.679 -17.275  0.00  0.00     0.040 A 
ATOM     27  C   UNL d   1       6.360   0.465 -18.647  0.00  0.00     0.034 A 
ATOM     28  C   UNL d   1       5.911  -0.153 -16.390  0.00  0.00     0.011 A 
ATOM     29  C   UNL d   1       7.053   1.106 -19.683  0.00  0.00     0.027 A 
ATOM     30  S   UNL d   1       5.005  -0.646 -18.796  0.00  0.00    -0.086 SA
ATOM     31  C   UNL d   1       8.106   1.962 -19.337  0.00  0.00     0.101 A 
ATOM     32  N   UNL d   1       8.427   2.219 -18.061  0.00  0.00    -0.227 NA
ATOM     33  C   UNL d   1       4.961  -0.868 -17.072  0.00  0.00     0.035 A 
ENDBRANCH  22  25
ENDBRANCH  18  19
ENDBRANCH   1  18
TORSDOF 7
