REMARK  6 active torsions:
REMARK  status: ('A' for Active; 'I' for Inactive)
REMARK    1  A    between atoms: N_10  and  C_11 
REMARK    2  A    between atoms: C_11  and  C_12 
REMARK    3  A    between atoms: C_12  and  C_13 
REMARK    4  A    between atoms: C_13  and  C_14 
REMARK    5  A    between atoms: C_14  and  N_15 
REMARK    6  A    between atoms: N_18  and  C_19 
ROOT
ATOM      1  C   UNL d   1       8.607   6.286  -9.838  0.00  0.00     0.037 C 
ENDROOT
BRANCH   1   2
ATOM      2  C   UNL d   1       9.030   6.597  -8.401  0.00  0.00     0.026 C 
BRANCH   2   3
ATOM      3  C   UNL d   1      10.523   6.888  -8.281  0.00  0.00     0.105 C 
BRANCH   3   4
ATOM      4  N   UNL d   1      10.877   7.338  -6.955  0.00  0.00    -0.313 N 
ATOM      5  C   UNL d   1      10.802   8.592  -6.495  0.00  0.00     0.257 A 
ATOM      6  O   UNL d   1      10.420   9.588  -7.098  0.00  0.00    -0.267 OA
ATOM      7  C   UNL d   1      11.281   8.549  -5.099  0.00  0.00     0.054 A 
ATOM      8  C   UNL d   1      11.630   7.264  -4.763  0.00  0.00     0.005 A 
ATOM      9  C   UNL d   1      11.395   9.602  -4.187  0.00  0.00     0.004 A 
ATOM     10  C   UNL d   1      12.113   6.923  -3.492  0.00  0.00    -0.002 A 
ATOM     11  C   UNL d   1      11.402   6.391  -5.965  0.00  0.00     0.131 A 
ATOM     12  C   UNL d   1      12.249   7.966  -2.552  0.00  0.00    -0.000 A 
ATOM     13  C   UNL d   1      11.890   9.292  -2.898  0.00  0.00     0.000 A 
ENDBRANCH   3   4
ENDBRANCH   2   3
ENDBRANCH   1   2
BRANCH   1  14
ATOM     14  C   UNL d   1       9.356   5.140 -10.506  0.00  0.00     0.251 C 
BRANCH  14  15
ATOM     15  N   UNL d   1       8.914   4.857 -11.881  0.00  0.00     0.141 N 
ATOM     16  C   UNL d   1       7.504   4.444 -11.905  0.00  0.00     0.274 C 
ATOM     17  C   UNL d   1       7.041   4.180 -13.333  0.00  0.00     0.137 C 
ATOM     18  N   UNL d   1       7.879   3.179 -13.980  0.00  0.00    -0.344 N 
ATOM     19  C   UNL d   1       9.317   3.439 -13.895  0.00  0.00     0.137 C 
ATOM     20  C   UNL d   1       9.727   3.768 -12.447  0.00  0.00     0.274 C 
BRANCH  18  21
ATOM     21  C   UNL d   1       7.345   1.996 -14.497  0.00  0.00     0.056 A 
ATOM     22  C   UNL d   1       6.166   1.417 -13.951  0.00  0.00     0.017 A 
ATOM     23  C   UNL d   1       5.598   0.265 -14.510  0.00  0.00     0.002 A 
ATOM     24  C   UNL d   1       6.204  -0.343 -15.623  0.00  0.00     0.000 A 
ATOM     25  C   UNL d   1       7.382   0.209 -16.168  0.00  0.00     0.002 A 
ATOM     26  C   UNL d   1       7.952   1.363 -15.608  0.00  0.00     0.017 A 
ENDBRANCH  18  21
ENDBRANCH  14  15
ENDBRANCH   1  14
TORSDOF 6
