REMARK  2 active torsions:
REMARK  status: ('A' for Active; 'I' for Inactive)
REMARK    1  A    between atoms: N_11  and  C_12 
REMARK    2  A    between atoms: C_12  and  C_13 
ROOT
ATOM      1  N   UNL d   1      15.126   5.977 -17.253  0.00  0.00    -0.191 NA
ATOM      2  C   UNL d   1      14.630   5.002 -17.634  0.00  0.00     0.101 C 
ATOM      3  C   UNL d   1      14.008   3.777 -18.110  0.00  0.00     0.068 A 
ATOM      4  C   UNL d   1      14.515   3.121 -19.251  0.00  0.00     0.012 A 
ATOM      5  C   UNL d   1      13.934   1.917 -19.696  0.00  0.00     0.025 A 
ATOM      6  C   UNL d   1      12.842   1.354 -19.007  0.00  0.00     0.090 A 
ATOM      7  C   UNL d   1      12.328   2.025 -17.865  0.00  0.00     0.003 A 
ATOM      8  C   UNL d   1      12.911   3.228 -17.415  0.00  0.00     0.008 A 
ATOM      9  C   UNL d   1      11.176   1.382 -17.130  0.00  0.00     0.062 C 
ATOM     10  C   UNL d   1      10.080   2.247 -16.514  0.00  0.00     0.255 C 
ATOM     11  N   UNL d   1       9.044   1.241 -16.244  0.00  0.00     0.142 N 
ATOM     12  C   UNL d   1       9.173   0.176 -17.259  0.00  0.00     0.254 C 
ATOM     13  C   UNL d   1      10.364   0.588 -18.101  0.00  0.00     0.070 C 
ATOM     14  C   UNL d   1      11.250  -0.463 -18.759  0.00  0.00     0.151 C 
ATOM     15  O   UNL d   1      12.298   0.176 -19.500  0.00  0.00    -0.331 OA
ENDROOT
BRANCH  11  16
ATOM     16  C   UNL d   1       7.708   1.830 -16.191  0.00  0.00     0.277 C 
BRANCH  16  17
ATOM     17  C   UNL d   1       6.653   0.911 -15.593  0.00  0.00     0.011 A 
ATOM     18  C   UNL d   1       6.262   1.081 -14.248  0.00  0.00    -0.002 A 
ATOM     19  C   UNL d   1       5.283   0.242 -13.675  0.00  0.00    -0.000 A 
ATOM     20  C   UNL d   1       4.699  -0.783 -14.444  0.00  0.00    -0.000 A 
ATOM     21  C   UNL d   1       5.081  -0.954 -15.789  0.00  0.00    -0.000 A 
ATOM     22  C   UNL d   1       6.033  -0.098 -16.367  0.00  0.00    -0.002 A 
ENDBRANCH  16  17
ENDBRANCH  11  16
TORSDOF 2
