REMARK  2 active torsions:
REMARK  status: ('A' for Active; 'I' for Inactive)
REMARK    1  A    between atoms: C_2  and  N_3 
REMARK    2  A    between atoms: C_7  and  C_8 
ROOT
ATOM      1  C   UNL d   1      10.839   8.286  -6.742  0.00  0.00     0.038 A 
ATOM      2  C   UNL d   1      11.185   9.593  -6.990  0.00  0.00     0.100 A 
ATOM      3  N   UNL d   1      11.829  10.145  -5.920  0.00  0.00    -0.244 NA
ATOM      4  C   UNL d   1      11.895   9.252  -4.879  0.00  0.00     0.082 A 
ATOM      5  C   UNL d   1      12.392   9.397  -3.577  0.00  0.00     0.021 A 
ATOM      6  C   UNL d   1      12.336   8.315  -2.685  0.00  0.00     0.031 A 
ATOM      7  C   UNL d   1      11.784   7.104  -3.125  0.00  0.00     0.140 A 
ATOM      8  F   UNL d   1      11.691   6.107  -2.208  0.00  0.00    -0.204 F 
ATOM      9  C   UNL d   1      11.285   6.955  -4.447  0.00  0.00     0.031 A 
ATOM     10  C   UNL d   1      11.304   8.046  -5.372  0.00  0.00     0.023 A 
ENDROOT
BRANCH   1  11
ATOM     11  C   UNL d   1      10.145   7.336  -7.615  0.00  0.00     0.082 A 
ATOM     12  N   UNL d   1      10.059   7.360  -9.022  0.00  0.00    -0.309 N 
ATOM     13  C   UNL d   1       9.327   6.281  -9.376  0.00  0.00     0.179 A 
ATOM     14  N   UNL d   1       8.956   5.544  -8.348  0.00  0.00    -0.223 NA
ATOM     15  C   UNL d   1       9.413   6.251  -7.250  0.00  0.00     0.118 A 
BRANCH  12  16
ATOM     16  C   UNL d   1      10.613   8.301  -9.950  0.00  0.00     0.108 C 
ATOM     17  C   UNL d   1       9.534   8.617 -10.980  0.00  0.00     0.027 C 
ENDBRANCH  12  16
ENDBRANCH   1  11
TORSDOF 2
