REMARK  8 active torsions:
REMARK  status: ('A' for Active; 'I' for Inactive)
REMARK    1  A    between atoms: O_2  and  C_3 
REMARK    2  A    between atoms: C_8  and  N_9 
REMARK    3  A    between atoms: N_12  and  C_13 
REMARK    4  A    between atoms: C_13  and  C_14 
REMARK    5  A    between atoms: C_14  and  C_15 
REMARK    6  A    between atoms: C_15  and  C_16 
REMARK    7  A    between atoms: C_16  and  N_17 
REMARK       I    between atoms: N_17  and  C_18 
REMARK    8  A    between atoms: C_18  and  C_20 
ROOT
ATOM      1  C   UNL d   1       8.178   4.040 -13.121  0.00  0.00     0.037 C 
ENDROOT
BRANCH   1   2
ATOM      2  C   UNL d   1       6.902   3.210 -13.366  0.00  0.00     0.251 C 
BRANCH   2   3
ATOM      3  N   UNL d   1       7.191   1.986 -14.108  0.00  0.00     0.141 N 
ATOM      4  C   UNL d   1       6.056   1.058 -14.004  0.00  0.00     0.274 C 
ATOM      5  C   UNL d   1       6.330  -0.247 -14.777  0.00  0.00     0.137 C 
ATOM      6  N   UNL d   1       6.679   0.061 -16.158  0.00  0.00    -0.343 N 
ATOM      7  C   UNL d   1       7.756   1.032 -16.309  0.00  0.00     0.137 C 
ATOM      8  C   UNL d   1       7.446   2.301 -15.514  0.00  0.00     0.274 C 
BRANCH   6   9
ATOM      9  C   UNL d   1       6.067  -0.570 -17.261  0.00  0.00     0.079 A 
ATOM     10  C   UNL d   1       6.819  -0.940 -18.410  0.00  0.00     0.110 A 
ATOM     11  C   UNL d   1       6.144  -1.506 -19.524  0.00  0.00     0.026 A 
ATOM     12  C   UNL d   1       4.756  -1.729 -19.489  0.00  0.00     0.002 A 
ATOM     13  C   UNL d   1       4.023  -1.399 -18.341  0.00  0.00     0.002 A 
ATOM     14  C   UNL d   1       4.676  -0.821 -17.234  0.00  0.00     0.019 A 
BRANCH  10  15
ATOM     15  O   UNL d   1       8.189  -0.762 -18.379  0.00  0.00    -0.327 OA
ATOM     16  C   UNL d   1       8.939  -0.977 -19.560  0.00  0.00     0.181 C 
ENDBRANCH  10  15
ENDBRANCH   6   9
ENDBRANCH   2   3
ENDBRANCH   1   2
BRANCH   1  17
ATOM     17  C   UNL d   1       8.049   4.971 -11.905  0.00  0.00     0.029 C 
BRANCH  17  18
ATOM     18  C   UNL d   1       9.173   6.016 -11.829  0.00  0.00     0.129 C 
BRANCH  18  19
ATOM     19  N   UNL d   1       9.456   6.391 -10.450  0.00  0.00    -0.233 NA
ATOM     20  C   UNL d   1       9.874   7.594 -10.035  0.00  0.00     0.293 C 
ATOM     21  O   UNL d   1       9.949   8.582 -10.767  0.00  0.00    -0.264 OA
BRANCH  20  22
ATOM     22  C   UNL d   1      10.331   7.654  -8.634  0.00  0.00     0.139 A 
ATOM     23  N   UNL d   1      10.881   8.834  -8.164  0.00  0.00    -0.241 NA
ATOM     24  C   UNL d   1      11.269   8.718  -6.843  0.00  0.00     0.082 A 
ATOM     25  C   UNL d   1      10.947   7.378  -6.474  0.00  0.00     0.020 A 
ATOM     26  C   UNL d   1      11.860   9.617  -5.935  0.00  0.00     0.020 A 
ATOM     27  C   UNL d   1      10.361   6.730  -7.615  0.00  0.00     0.025 A 
ATOM     28  C   UNL d   1      11.252   6.981  -5.150  0.00  0.00     0.008 A 
ATOM     29  C   UNL d   1      11.846   7.872  -4.234  0.00  0.00     0.035 A 
ATOM     30 BR   UNL d   1      12.228   7.295  -2.461  0.00  0.00    -0.049 Br
ATOM     31  C   UNL d   1      12.143   9.190  -4.622  0.00  0.00     0.008 A 
ENDBRANCH  20  22
ENDBRANCH  18  19
ENDBRANCH  17  18
ENDBRANCH   1  17
TORSDOF 8
