REMARK  6 active torsions:
REMARK  status: ('A' for Active; 'I' for Inactive)
REMARK    1  A    between atoms: S_2  and  N_5 
REMARK    2  A    between atoms: N_5  and  C_6 
REMARK    3  A    between atoms: C_9  and  C_10 
REMARK    4  A    between atoms: C_10  and  C_11 
REMARK    5  A    between atoms: C_11  and  N_12 
REMARK    6  A    between atoms: C_15  and  C_16 
ROOT
ATOM      1  N   UNL d   1       9.053   6.128  -9.546  0.00  0.00     0.137 N 
ATOM      2  C   UNL d   1      10.508   6.236  -9.485  0.00  0.00     0.251 C 
ATOM      3  C   UNL d   1      10.948   7.300  -8.493  0.00  0.00     0.040 C 
ATOM      4  C   UNL d   1      10.441   6.970  -7.096  0.00  0.00     0.028 C 
ATOM      5  C   UNL d   1       8.925   6.740  -7.149  0.00  0.00     0.040 C 
ATOM      6  C   UNL d   1       8.555   5.709  -8.228  0.00  0.00     0.251 C 
ENDROOT
BRANCH   1   7
ATOM      7  C   UNL d   1       8.620   5.150 -10.545  0.00  0.00     0.250 C 
BRANCH   7   8
ATOM      8  C   UNL d   1       9.242   5.382 -11.945  0.00  0.00     0.035 C 
BRANCH   8   9
ATOM      9  C   UNL d   1       9.335   4.095 -12.782  0.00  0.00     0.002 C 
ATOM     10  C   UNL d   1       8.000   3.815 -13.469  0.00  0.00     0.002 C 
ATOM     11  C   UNL d   1       8.073   2.549 -14.313  0.00  0.00     0.025 C 
ATOM     12  C   UNL d   1       9.211   2.622 -15.351  0.00  0.00     0.116 C 
ATOM     13  C   UNL d   1      10.560   2.897 -14.672  0.00  0.00     0.025 C 
ATOM     14  C   UNL d   1      10.475   4.171 -13.818  0.00  0.00     0.002 C 
BRANCH  12  15
ATOM     15  N   UNL d   1       9.288   1.378 -16.119  0.00  0.00    -0.190 NA
BRANCH  15  16
ATOM     16  S   UNL d   1       8.257   1.058 -17.460  0.00  0.00     0.262 S 
ATOM     17  C   UNL d   1       6.778   0.268 -16.697  0.00  0.00     0.165 C 
ATOM     18  O   UNL d   1       8.936   0.051 -18.287  0.00  0.00    -0.203 OA
ATOM     19  O   UNL d   1       7.857   2.348 -18.035  0.00  0.00    -0.203 OA
ENDBRANCH  15  16
ENDBRANCH  12  15
ENDBRANCH   8   9
ENDBRANCH   7   8
ENDBRANCH   1   7
BRANCH   4  20
ATOM     20  C   UNL d   1      10.806   8.067  -6.138  0.00  0.00     0.004 A 
ATOM     21  C   UNL d   1      11.374   7.940  -4.832  0.00  0.00     0.021 A 
ATOM     22  C   UNL d   1      11.511   9.256  -4.328  0.00  0.00     0.100 A 
ATOM     23  C   UNL d   1      11.770   6.877  -3.981  0.00  0.00     0.002 A 
ATOM     24  O   UNL d   1      11.063  10.158  -5.271  0.00  0.00    -0.305 OA
ATOM     25  C   UNL d   1      12.011   9.535  -3.053  0.00  0.00     0.025 A 
ATOM     26  C   UNL d   1      10.660   9.421  -6.347  0.00  0.00     0.118 A 
ATOM     27  C   UNL d   1      12.395   8.461  -2.228  0.00  0.00     0.002 A 
ATOM     28  C   UNL d   1      12.263   7.136  -2.688  0.00  0.00     0.000 A 
ENDBRANCH   4  20
TORSDOF 6
