REMARK  5 active torsions:
REMARK  status: ('A' for Active; 'I' for Inactive)
REMARK    1  A    between atoms: C_7  and  C_8 
REMARK    2  A    between atoms: C_8  and  C_9 
REMARK    3  A    between atoms: C_9  and  C_10 
REMARK    4  A    between atoms: C_10  and  C_11 
REMARK    5  A    between atoms: C_11  and  N_12 
ROOT
ATOM      1  C   UNL d   1       8.997   4.351 -11.956  0.00  0.00     0.009 C 
ENDROOT
BRANCH   1   2
ATOM      2  C   UNL d   1       9.069   5.873 -11.930  0.00  0.00     0.053 C 
BRANCH   2   3
ATOM      3  C   UNL d   1       9.379   6.389 -10.570  0.00  0.00     0.088 A 
ATOM      4  S   UNL d   1       8.800   5.601  -9.093  0.00  0.00    -0.071 SA
ATOM      5  C   UNL d   1       9.562   6.889  -8.178  0.00  0.00     0.048 A 
ATOM      6  C   UNL d   1       9.575   7.082  -6.792  0.00  0.00     0.009 A 
ATOM      7  C   UNL d   1      10.233   7.789  -9.059  0.00  0.00     0.088 A 
ATOM      8  C   UNL d   1      10.287   8.162  -6.258  0.00  0.00     0.012 A 
ATOM      9  C   UNL d   1      10.965   9.056  -7.100  0.00  0.00     0.059 A 
ATOM     10 CL   UNL d   1      11.810  10.371  -6.386  0.00  0.00    -0.082 Cl
ATOM     11  C   UNL d   1      10.941   8.868  -8.494  0.00  0.00     0.031 A 
ATOM     12  N   UNL d   1      10.134   7.478 -10.408  0.00  0.00    -0.243 NA
ENDBRANCH   2   3
ENDBRANCH   1   2
BRANCH   1  13
ATOM     13  C   UNL d   1       8.931   3.795 -13.368  0.00  0.00     0.036 C 
BRANCH  13  14
ATOM     14  C   UNL d   1      10.271   3.911 -14.116  0.00  0.00     0.250 C 
BRANCH  14  15
ATOM     15  N   UNL d   1      10.437   2.915 -15.182  0.00  0.00     0.137 N 
ATOM     16  C   UNL d   1       9.332   2.969 -16.134  0.00  0.00     0.250 C 
ATOM     17  C   UNL d   1       9.563   1.984 -17.293  0.00  0.00     0.033 C 
ATOM     18  C   UNL d   1       9.759   0.558 -16.739  0.00  0.00     0.004 C 
ATOM     19  C   UNL d   1       8.386   2.024 -18.287  0.00  0.00     0.002 C 
ATOM     20  C   UNL d   1      10.917   0.566 -15.736  0.00  0.00     0.035 C 
ATOM     21  C   UNL d   1       9.987  -0.444 -17.881  0.00  0.00     0.000 C 
ATOM     22  C   UNL d   1      10.649   1.583 -14.625  0.00  0.00     0.250 C 
ATOM     23  C   UNL d   1       8.829  -0.401 -18.894  0.00  0.00     0.000 C 
ATOM     24  C   UNL d   1       8.603   1.023 -19.432  0.00  0.00     0.000 C 
ENDBRANCH  14  15
ENDBRANCH  13  14
ENDBRANCH   1  13
TORSDOF 5
