REMARK  6 active torsions:
REMARK  status: ('A' for Active; 'I' for Inactive)
REMARK    1  A    between atoms: S_2  and  C_5 
REMARK    2  A    between atoms: N_11  and  C_12 
REMARK    3  A    between atoms: C_12  and  C_13 
REMARK    4  A    between atoms: C_13  and  C_14 
REMARK    5  A    between atoms: C_14  and  N_15 
REMARK    6  A    between atoms: C_18  and  C_19 
ROOT
ATOM      1  C   UNL d   1      11.689   3.308 -16.803  0.00  0.00     0.085 A 
ATOM      2  C   UNL d   1      11.698   2.217 -17.683  0.00  0.00     0.012 A 
ATOM      3  C   UNL d   1      10.603   1.337 -17.678  0.00  0.00     0.009 A 
ATOM      4  C   UNL d   1       9.518   1.538 -16.801  0.00  0.00     0.045 A 
ATOM      5  C   UNL d   1       9.491   2.635 -15.902  0.00  0.00     0.067 A 
ATOM      6  C   UNL d   1      10.608   3.519 -15.931  0.00  0.00     0.029 A 
ATOM      7  N   UNL d   1       8.392   2.849 -15.031  0.00  0.00    -0.327 N 
ATOM      8  C   UNL d   1       7.348   1.927 -14.752  0.00  0.00     0.066 A 
ATOM      9  C   UNL d   1       6.439   2.131 -13.677  0.00  0.00     0.018 A 
ATOM     10  C   UNL d   1       5.451   1.188 -13.357  0.00  0.00     0.002 A 
ATOM     11  C   UNL d   1       5.293   0.035 -14.144  0.00  0.00     0.001 A 
ATOM     12  C   UNL d   1       6.156  -0.174 -15.230  0.00  0.00     0.008 A 
ATOM     13  C   UNL d   1       7.175   0.755 -15.531  0.00  0.00     0.045 A 
ATOM     14  S   UNL d   1       8.195   0.387 -16.917  0.00  0.00    -0.084 SA
ENDROOT
BRANCH   7  15
ATOM     15  C   UNL d   1       8.279   4.190 -14.432  0.00  0.00     0.108 C 
BRANCH  15  16
ATOM     16  C   UNL d   1       9.153   4.381 -13.183  0.00  0.00     0.060 C 
BRANCH  16  17
ATOM     17  C   UNL d   1       8.329   4.682 -11.922  0.00  0.00     0.252 C 
BRANCH  17  18
ATOM     18  N   UNL d   1       9.153   5.280 -10.878  0.00  0.00     0.137 N 
ATOM     19  C   UNL d   1       9.323   6.708 -11.166  0.00  0.00     0.251 C 
ATOM     20  C   UNL d   1      10.211   7.364 -10.100  0.00  0.00     0.045 C 
ATOM     21  C   UNL d   1       9.609   7.206  -8.697  0.00  0.00     0.087 C 
ATOM     22  C   UNL d   1       9.309   5.720  -8.454  0.00  0.00     0.045 C 
ATOM     23  C   UNL d   1       8.461   5.133  -9.595  0.00  0.00     0.251 C 
BRANCH  21  24
ATOM     24  C   UNL d   1      10.537   7.775  -7.618  0.00  0.00     0.273 C 
ATOM     25  N   UNL d   1       9.988   8.593  -6.721  0.00  0.00    -0.107 N 
ATOM     26  O   UNL d   1      11.733   7.499  -7.582  0.00  0.00    -0.269 OA
ENDBRANCH  21  24
ENDBRANCH  17  18
ENDBRANCH  16  17
ENDBRANCH  15  16
ENDBRANCH   7  15
BRANCH   1  27
ATOM     27  S   UNL d   1      13.042   4.471 -16.797  0.00  0.00     0.191 S 
ATOM     28  C   UNL d   1      12.348   5.974 -17.577  0.00  0.00     0.145 C 
ATOM     29  O   UNL d   1      14.106   3.965 -17.677  0.00  0.00    -0.222 OA
ATOM     30  O   UNL d   1      13.335   4.785 -15.391  0.00  0.00    -0.222 OA
ENDBRANCH   1  27
TORSDOF 6
