REMARK  4 active torsions:
REMARK  status: ('A' for Active; 'I' for Inactive)
REMARK    1  A    between atoms: C_7  and  C_8 
REMARK    2  A    between atoms: C_8  and  N_9 
REMARK    3  A    between atoms: N_12  and  C_13 
REMARK    4  A    between atoms: C_13  and  C_14 
REMARK       I    between atoms: C_14  and  N_16 
ROOT
ATOM      1  N   UNL d   1       8.591   5.267 -11.991  0.00  0.00     0.146 N 
ATOM      2  C   UNL d   1       9.836   5.478 -12.707  0.00  0.00     0.286 C 
ATOM      3  C   UNL d   1      10.248   4.224 -13.460  0.00  0.00     0.286 C 
ATOM      4  N   UNL d   1       9.240   3.867 -14.453  0.00  0.00     0.151 N 
ATOM      5  C   UNL d   1       7.947   3.684 -13.772  0.00  0.00     0.286 C 
ATOM      6  C   UNL d   1       7.546   4.916 -12.945  0.00  0.00     0.286 C 
ENDROOT
BRANCH   4   7
ATOM      7  C   UNL d   1       9.612   2.687 -15.210  0.00  0.00     0.337 C 
BRANCH   7   8
ATOM      8  C   UNL d   1      10.838   2.802 -16.155  0.00  0.00     0.271 C 
ATOM      9  O   UNL d   1      11.711   3.656 -15.918  0.00  0.00    -0.270 OA
ATOM     10  N   UNL d   1      10.972   1.981 -17.221  0.00  0.00    -0.299 N 
ATOM     11  C   UNL d   1      12.282   1.848 -17.907  0.00  0.00     0.093 C 
ATOM     12  C   UNL d   1      10.026   1.086 -17.811  0.00  0.00     0.058 A 
ATOM     13  C   UNL d   1      12.156   0.620 -18.836  0.00  0.00     0.051 C 
ATOM     14  C   UNL d   1      12.647   3.120 -18.707  0.00  0.00     0.025 C 
ATOM     15  C   UNL d   1      10.687   0.269 -18.726  0.00  0.00    -0.004 A 
ATOM     16  C   UNL d   1       9.990  -0.702 -19.468  0.00  0.00    -0.003 A 
ATOM     17  C   UNL d   1       8.592  -0.853 -19.249  0.00  0.00    -0.000 A 
ATOM     18  C   UNL d   1       7.927   0.001 -18.338  0.00  0.00     0.002 A 
ATOM     19  C   UNL d   1       8.619   0.989 -17.657  0.00  0.00     0.017 A 
ENDBRANCH   7   8
ENDBRANCH   4   7
BRANCH   1  20
ATOM     20  C   UNL d   1       8.252   6.443 -11.225  0.00  0.00     0.277 C 
BRANCH  20  21
ATOM     21  C   UNL d   1       9.309   6.826 -10.192  0.00  0.00     0.007 A 
ATOM     22  C   UNL d   1       9.629   5.981  -9.103  0.00  0.00    -0.024 A 
ATOM     23  C   UNL d   1       8.965   4.628  -8.936  0.00  0.00     0.031 C 
ATOM     24  C   UNL d   1      10.572   6.412  -8.147  0.00  0.00    -0.004 A 
ATOM     25  C   UNL d   1      11.196   7.669  -8.270  0.00  0.00    -0.000 A 
ATOM     26  C   UNL d   1      10.861   8.519  -9.339  0.00  0.00    -0.000 A 
ATOM     27  C   UNL d   1       9.917   8.099 -10.293  0.00  0.00    -0.003 A 
ENDBRANCH  20  21
ENDBRANCH   1  20
TORSDOF 4
