REMARK  8 active torsions:
REMARK  status: ('A' for Active; 'I' for Inactive)
REMARK       I    between atoms: N_2  and  C_3 
REMARK    1  A    between atoms: C_3  and  C_5 
REMARK    2  A    between atoms: C_8  and  O_9 
REMARK    3  A    between atoms: O_9  and  C_10 
REMARK    4  A    between atoms: C_10  and  C_11 
REMARK    5  A    between atoms: C_11  and  C_12 
REMARK    6  A    between atoms: C_12  and  C_13 
REMARK    7  A    between atoms: C_13  and  N_14 
REMARK    8  A    between atoms: N_17  and  C_18 
ROOT
ATOM      1  C   UNL d   1       9.533   7.713 -11.506  0.00  0.00     0.251 C 
ENDROOT
BRANCH   1   2
ATOM      2  C   UNL d   1       8.863   6.356 -11.142  0.00  0.00     0.038 C 
BRANCH   2   3
ATOM      3  C   UNL d   1       8.017   5.876 -12.319  0.00  0.00     0.035 C 
BRANCH   3   4
ATOM      4  C   UNL d   1       7.407   4.519 -11.921  0.00  0.00     0.149 C 
BRANCH   4   5
ATOM      5  O   UNL d   1       6.773   3.874 -13.008  0.00  0.00    -0.331 OA
BRANCH   5   6
ATOM      6  C   UNL d   1       7.548   3.260 -13.951  0.00  0.00     0.094 A 
ATOM      7  C   UNL d   1       6.893   2.240 -14.693  0.00  0.00     0.024 A 
ATOM      8  C   UNL d   1       7.589   1.550 -15.717  0.00  0.00     0.007 A 
ATOM      9  C   UNL d   1       8.934   1.922 -16.011  0.00  0.00     0.058 A 
ATOM     10  C   UNL d   1       9.542   2.964 -15.270  0.00  0.00     0.007 A 
ATOM     11  C   UNL d   1       8.887   3.578 -14.218  0.00  0.00     0.024 A 
BRANCH   9  12
ATOM     12  C   UNL d   1       9.672   1.192 -17.125  0.00  0.00     0.275 C 
ATOM     13  N   UNL d   1      11.024   1.312 -17.040  0.00  0.00    -0.232 NA
ATOM     14  C   UNL d   1      11.936   0.737 -18.018  0.00  0.00     0.155 C 
ATOM     15  O   UNL d   1       9.104   0.542 -17.994  0.00  0.00    -0.266 OA
ENDBRANCH   9  12
ENDBRANCH   5   6
ENDBRANCH   4   5
ENDBRANCH   3   4
ENDBRANCH   2   3
ENDBRANCH   1   2
BRANCH   1  16
ATOM     16  N   UNL d   1      10.354   8.287 -10.437  0.00  0.00     0.141 N 
ATOM     17  C   UNL d   1       9.462   8.703  -9.367  0.00  0.00     0.274 C 
ATOM     18  C   UNL d   1      10.301   9.309  -8.274  0.00  0.00     0.137 C 
ATOM     19  N   UNL d   1      11.288   8.395  -7.785  0.00  0.00    -0.344 N 
ATOM     20  C   UNL d   1      12.205   7.965  -8.810  0.00  0.00     0.137 C 
ATOM     21  C   UNL d   1      11.342   7.323  -9.903  0.00  0.00     0.274 C 
BRANCH  19  22
ATOM     22  C   UNL d   1      11.451   8.111  -6.434  0.00  0.00     0.068 A 
ATOM     23  C   UNL d   1      11.527   9.122  -5.447  0.00  0.00     0.084 A 
ATOM     24  C   UNL d   1      11.737   8.761  -4.105  0.00  0.00     0.070 A 
ATOM     25 CL   UNL d   1      11.414  10.788  -5.880  0.00  0.00    -0.080 Cl
ATOM     26  C   UNL d   1      11.860   7.412  -3.737  0.00  0.00     0.012 A 
ATOM     27 CL   UNL d   1      11.853   9.907  -2.835  0.00  0.00    -0.081 Cl
ATOM     28  C   UNL d   1      11.758   6.436  -4.733  0.00  0.00     0.002 A 
ATOM     29  C   UNL d   1      11.507   6.761  -6.064  0.00  0.00     0.018 A 
ENDBRANCH  19  22
ENDBRANCH   1  16
TORSDOF 8
