REMARK  7 active torsions:
REMARK  status: ('A' for Active; 'I' for Inactive)
REMARK    1  A    between atoms: C_2  and  C_3 
REMARK    2  A    between atoms: C_3  and  O_4 
REMARK    3  A    between atoms: O_4  and  C_5 
REMARK    4  A    between atoms: C_10  and  C_11 
REMARK    5  A    between atoms: C_11  and  N_12 
REMARK    6  A    between atoms: N_15  and  C_16 
REMARK    7  A    between atoms: C_16  and  C_17 
ROOT
ATOM      1  N   UNL d   1       9.440   3.459 -14.977  0.00  0.00     0.146 N 
ATOM      2  C   UNL d   1       8.379   2.793 -14.216  0.00  0.00     0.286 C 
ATOM      3  C   UNL d   1       7.647   3.764 -13.266  0.00  0.00     0.286 C 
ATOM      4  N   UNL d   1       8.571   4.394 -12.325  0.00  0.00     0.148 N 
ATOM      5  C   UNL d   1       9.625   5.060 -13.093  0.00  0.00     0.286 C 
ATOM      6  C   UNL d   1      10.353   4.087 -14.029  0.00  0.00     0.286 C 
ENDROOT
BRANCH   1   7
ATOM      7  C   UNL d   1      10.157   2.534 -15.858  0.00  0.00     0.279 C 
BRANCH   7   8
ATOM      8  C   UNL d   1       9.359   2.116 -17.087  0.00  0.00     0.033 A 
ATOM      9  C   UNL d   1       9.451   2.865 -18.289  0.00  0.00     0.092 A 
ATOM     10  C   UNL d   1       8.716   2.435 -19.422  0.00  0.00     0.024 A 
ATOM     11  C   UNL d   1       7.864   1.317 -19.336  0.00  0.00     0.002 A 
ATOM     12  C   UNL d   1       7.772   0.585 -18.137  0.00  0.00    -0.000 A 
ATOM     13  C   UNL d   1       8.527   0.976 -17.020  0.00  0.00    -0.000 A 
BRANCH   9  14
ATOM     14  O   UNL d   1      10.260   3.986 -18.296  0.00  0.00    -0.331 OA
BRANCH  14  15
ATOM     15  C   UNL d   1      10.349   4.787 -19.470  0.00  0.00     0.149 C 
BRANCH  15  16
ATOM     16  C   UNL d   1       9.063   5.608 -19.728  0.00  0.00     0.033 C 
ATOM     17  C   UNL d   1       8.761   6.605 -18.605  0.00  0.00     0.003 C 
ENDBRANCH  15  16
ENDBRANCH  14  15
ENDBRANCH   9  14
ENDBRANCH   7   8
ENDBRANCH   1   7
BRANCH   4  18
ATOM     18  C   UNL d   1       7.867   5.310 -11.415  0.00  0.00     0.301 C 
BRANCH  18  19
ATOM     19  C   UNL d   1       8.724   5.882 -10.334  0.00  0.00     0.111 A 
ATOM     20  O   UNL d   1       9.614   6.853 -10.707  0.00  0.00    -0.309 OA
ATOM     21  C   UNL d   1      10.301   7.221  -9.572  0.00  0.00     0.100 A 
ATOM     22  C   UNL d   1       9.792   6.506  -8.461  0.00  0.00     0.025 A 
ATOM     23  C   UNL d   1      11.359   8.144  -9.483  0.00  0.00     0.025 A 
ATOM     24  C   UNL d   1       8.773   5.636  -8.983  0.00  0.00     0.024 A 
ATOM     25  C   UNL d   1      10.374   6.790  -7.202  0.00  0.00     0.002 A 
ATOM     26  C   UNL d   1      11.431   7.724  -7.082  0.00  0.00     0.000 A 
ATOM     27  C   UNL d   1      11.930   8.391  -8.221  0.00  0.00     0.002 A 
ENDBRANCH  18  19
ENDBRANCH   4  18
TORSDOF 7
