REMARK  6 active torsions:
REMARK  status: ('A' for Active; 'I' for Inactive)
REMARK       I    between atoms: C_2  and  N_3 
REMARK    1  A    between atoms: C_2  and  C_27 
REMARK    2  A    between atoms: N_3  and  C_4 
REMARK    3  A    between atoms: C_7  and  C_8 
REMARK    4  A    between atoms: C_8  and  C_9 
REMARK    5  A    between atoms: C_9  and  N_10 
REMARK    6  A    between atoms: N_13  and  C_14 
ROOT
ATOM      1  C   UNL d   1       9.435   4.994 -10.643  0.00  0.00     0.035 C 
ENDROOT
BRANCH   1   2
ATOM      2  C   UNL d   1       9.371   6.305  -9.838  0.00  0.00     0.002 C 
ATOM      3  C   UNL d   1       9.411   5.997  -8.341  0.00  0.00     0.002 C 
ATOM      4  C   UNL d   1       9.189   7.304  -7.576  0.00  0.00     0.024 C 
ATOM      5  C   UNL d   1      10.374   8.303  -7.883  0.00  0.00     0.106 C 
ATOM      6  C   UNL d   1      10.364   8.632  -9.351  0.00  0.00     0.024 C 
ATOM      7  C   UNL d   1      10.463   7.338 -10.189  0.00  0.00     0.002 C 
BRANCH   5   8
ATOM      8  N   UNL d   1      10.265   9.500  -7.040  0.00  0.00    -0.240 NA
ATOM      9  C   UNL d   1      10.807   9.695  -5.840  0.00  0.00     0.251 C 
ATOM     10  O   UNL d   1      10.677  10.725  -5.256  0.00  0.00    -0.271 OA
BRANCH   9  11
ATOM     11  C   UNL d   1      11.627   8.592  -5.162  0.00  0.00     0.086 C 
ATOM     12  C   UNL d   1      11.966   8.880  -3.703  0.00  0.00     0.042 C 
ATOM     13  C   UNL d   1      12.696   7.683  -3.087  0.00  0.00     0.143 C 
ATOM     14  O   UNL d   1      11.927   6.497  -3.153  0.00  0.00    -0.354 OA
ATOM     15  C   UNL d   1      11.705   6.141  -4.503  0.00  0.00     0.143 C 
ATOM     16  C   UNL d   1      10.956   7.224  -5.158  0.00  0.00     0.042 C 
ENDBRANCH   9  11
ENDBRANCH   5   8
ENDBRANCH   1   2
BRANCH   1  17
ATOM     17  C   UNL d   1       9.659   5.173 -12.154  0.00  0.00     0.250 C 
BRANCH  17  18
ATOM     18  N   UNL d   1       9.844   3.888 -12.811  0.00  0.00     0.141 N 
ATOM     19  C   UNL d   1       8.604   3.493 -13.476  0.00  0.00     0.274 C 
ATOM     20  C   UNL d   1       8.777   2.125 -14.149  0.00  0.00     0.138 C 
ATOM     21  N   UNL d   1       9.905   2.139 -15.072  0.00  0.00    -0.330 N 
ATOM     22  C   UNL d   1      11.149   2.613 -14.492  0.00  0.00     0.138 C 
ATOM     23  C   UNL d   1      10.913   3.974 -13.813  0.00  0.00     0.274 C 
BRANCH  21  24
ATOM     24  C   UNL d   1       9.800   1.732 -16.422  0.00  0.00     0.142 A 
ATOM     25  C   UNL d   1       8.732   0.919 -16.900  0.00  0.00     0.059 A 
ATOM     26  C   UNL d   1       8.739   0.599 -18.277  0.00  0.00     0.104 A 
ATOM     27  C   UNL d   1       7.572   0.255 -16.364  0.00  0.00     0.032 A 
ATOM     28  C   UNL d   1       9.737   1.043 -19.150  0.00  0.00     0.045 A 
ATOM     29  O   UNL d   1       7.646  -0.187 -18.587  0.00  0.00    -0.305 OA
ATOM     30  C   UNL d   1      10.750   1.828 -18.585  0.00  0.00     0.103 A 
ATOM     31  N   UNL d   1      10.771   2.153 -17.279  0.00  0.00    -0.227 NA
ATOM     32  C   UNL d   1       6.960  -0.369 -17.417  0.00  0.00     0.123 A 
ENDBRANCH  21  24
ENDBRANCH  17  18
ENDBRANCH   1  17
TORSDOF 6
