REMARK  7 active torsions:
REMARK  status: ('A' for Active; 'I' for Inactive)
REMARK       I    between atoms: C_2  and  N_3 
REMARK    1  A    between atoms: C_2  and  C_27 
REMARK    2  A    between atoms: N_3  and  C_4 
REMARK    3  A    between atoms: C_7  and  C_8 
REMARK    4  A    between atoms: C_8  and  C_9 
REMARK    5  A    between atoms: C_9  and  N_10 
REMARK    6  A    between atoms: N_13  and  C_14 
REMARK    7  A    between atoms: C_27  and  C_29 
ROOT
ATOM      1  C   UNL d   1       9.639   6.413 -10.628  0.00  0.00     0.035 C 
ENDROOT
BRANCH   1   2
ATOM      2  C   UNL d   1      10.165   6.773  -9.235  0.00  0.00     0.002 C 
ATOM      3  C   UNL d   1      11.390   7.696  -9.336  0.00  0.00     0.002 C 
ATOM      4  C   UNL d   1      11.895   8.090  -7.941  0.00  0.00     0.024 C 
ATOM      5  C   UNL d   1      10.772   8.717  -7.085  0.00  0.00     0.106 C 
ATOM      6  C   UNL d   1       9.524   7.815  -7.011  0.00  0.00     0.024 C 
ATOM      7  C   UNL d   1       9.062   7.428  -8.391  0.00  0.00     0.002 C 
BRANCH   5   8
ATOM      8  N   UNL d   1      11.235   9.062  -5.747  0.00  0.00    -0.238 NA
ATOM      9  C   UNL d   1      11.499   8.175  -4.777  0.00  0.00     0.291 C 
ATOM     10  O   UNL d   1      11.463   6.956  -4.942  0.00  0.00    -0.268 OA
BRANCH   9  11
ATOM     11  C   UNL d   1      11.876   8.762  -3.423  0.00  0.00     0.325 C 
ATOM     12  O   UNL d   1      13.002   9.579  -3.613  0.00  0.00    -0.204 OA
BRANCH  11  13
ATOM     13  C   UNL d   1      12.175   7.682  -2.366  0.00  0.00     0.434 C 
ATOM     14  F   UNL d   1      13.057   6.779  -2.788  0.00  0.00    -0.167 F 
ATOM     15  F   UNL d   1      12.653   8.280  -1.269  0.00  0.00    -0.167 F 
ATOM     16  F   UNL d   1      11.058   7.029  -2.041  0.00  0.00    -0.167 F 
ENDBRANCH  11  13
ENDBRANCH   9  11
ENDBRANCH   5   8
ENDBRANCH   1   2
BRANCH   1  17
ATOM     17  C   UNL d   1       8.506   5.364 -10.612  0.00  0.00     0.250 C 
BRANCH  17  18
ATOM     18  N   UNL d   1       8.080   5.043 -11.968  0.00  0.00     0.141 N 
ATOM     19  C   UNL d   1       6.760   4.393 -11.927  0.00  0.00     0.274 C 
ATOM     20  C   UNL d   1       6.292   4.010 -13.348  0.00  0.00     0.138 C 
ATOM     21  N   UNL d   1       7.325   3.236 -14.040  0.00  0.00    -0.330 N 
ATOM     22  C   UNL d   1       8.665   3.812 -13.996  0.00  0.00     0.138 C 
ATOM     23  C   UNL d   1       9.054   4.131 -12.569  0.00  0.00     0.274 C 
BRANCH  21  24
ATOM     24  C   UNL d   1       7.053   2.018 -14.669  0.00  0.00     0.138 A 
ATOM     25  C   UNL d   1       7.761   1.560 -15.813  0.00  0.00     0.036 A 
ATOM     26  C   UNL d   1       7.416   0.371 -16.420  0.00  0.00     0.095 A 
ATOM     27  C   UNL d   1       8.896   2.172 -16.578  0.00  0.00     0.064 C 
ATOM     28  C   UNL d   1       6.362  -0.404 -15.907  0.00  0.00     0.045 A 
ATOM     29  O   UNL d   1       8.183   0.085 -17.520  0.00  0.00    -0.331 OA
ATOM     30  C   UNL d   1       5.705   0.103 -14.765  0.00  0.00     0.103 A 
ATOM     31  N   UNL d   1       6.038   1.268 -14.166  0.00  0.00    -0.228 NA
ATOM     32  C   UNL d   1       9.003   1.234 -17.792  0.00  0.00     0.154 C 
ENDBRANCH  21  24
ENDBRANCH  17  18
ENDBRANCH   1  17
TORSDOF 7
