REMARK  9 active torsions:
REMARK  status: ('A' for Active; 'I' for Inactive)
REMARK    1  A    between atoms: C_2  and  C_3 
REMARK    2  A    between atoms: C_3  and  N_4 
REMARK    3  A    between atoms: N_4  and  C_5 
REMARK    4  A    between atoms: N_4  and  C_8 
REMARK    5  A    between atoms: C_5  and  C_6 
REMARK    6  A    between atoms: C_13  and  C_14 
REMARK    7  A    between atoms: C_14  and  N_15 
REMARK       I    between atoms: N_15  and  C_16 
REMARK    8  A    between atoms: N_15  and  C_19 
REMARK    9  A    between atoms: C_22  and  O_23 
ROOT
ATOM      1  C   UNL d   1       9.857   3.772 -14.441  0.00  0.00     0.224 C 
ATOM      2  C   UNL d   1      10.600   2.504 -13.971  0.00  0.00     0.038 C 
ATOM      3  C   UNL d   1       9.805   1.215 -14.152  0.00  0.00     0.028 C 
ATOM      4  C   UNL d   1       9.110   1.175 -15.510  0.00  0.00    -0.026 A 
ATOM      5  C   UNL d   1       8.487   0.045 -15.919  0.00  0.00    -0.007 A 
ATOM      6  C   UNL d   1       7.845  -0.079 -17.157  0.00  0.00     0.000 A 
ATOM      7  C   UNL d   1       7.824   1.053 -18.000  0.00  0.00    -0.003 A 
ATOM      8  C   UNL d   1       8.410   2.263 -17.597  0.00  0.00    -0.005 A 
ATOM      9  C   UNL d   1       9.059   2.326 -16.357  0.00  0.00    -0.024 A 
ATOM     10  C   UNL d   1       9.636   3.681 -15.948  0.00  0.00     0.059 C 
ENDROOT
BRANCH   6  11
ATOM     11  C   UNL d   1       7.163  -1.361 -17.634  0.00  0.00     0.137 C 
BRANCH  11  12
ATOM     12  N   UNL d   1       5.930  -1.193 -18.389  0.00  0.00    -0.275 N 
ATOM     13  C   UNL d   1       4.957  -0.362 -17.898  0.00  0.00     0.368 C 
ATOM     14  N   UNL d   1       3.927  -0.189 -18.692  0.00  0.00    -0.085 N 
ATOM     15  O   UNL d   1       4.970   0.215 -16.806  0.00  0.00    -0.243 OA
BRANCH  12  16
ATOM     16  C   UNL d   1       5.748  -2.085 -19.477  0.00  0.00     0.065 A 
ATOM     17  C   UNL d   1       4.568  -2.850 -19.642  0.00  0.00     0.019 A 
ATOM     18  C   UNL d   1       4.424  -3.684 -20.756  0.00  0.00     0.026 A 
ATOM     19  C   UNL d   1       5.497  -3.815 -21.686  0.00  0.00     0.094 A 
ATOM     20  C   UNL d   1       6.668  -3.074 -21.489  0.00  0.00     0.026 A 
ATOM     21  C   UNL d   1       6.807  -2.223 -20.393  0.00  0.00     0.019 A 
BRANCH  19  22
ATOM     22  O   UNL d   1       5.345  -4.671 -22.748  0.00  0.00    -0.328 OA
ATOM     23  C   UNL d   1       6.485  -5.465 -23.068  0.00  0.00     0.181 C 
ENDBRANCH  19  22
ENDBRANCH  12  16
ENDBRANCH  11  12
ENDBRANCH   6  11
BRANCH   1  24
ATOM     24  N   UNL d   1       8.641   4.069 -13.654  0.00  0.00     0.135 N 
BRANCH  24  25
ATOM     25  C   UNL d   1       8.928   4.236 -12.221  0.00  0.00     0.250 C 
BRANCH  25  26
ATOM     26  C   UNL d   1       9.738   5.503 -11.952  0.00  0.00     0.035 C 
ATOM     27  C   UNL d   1       9.851   5.775 -10.436  0.00  0.00     0.002 C 
ENDBRANCH  25  26
ENDBRANCH  24  25
BRANCH  24  28
ATOM     28  C   UNL d   1       7.476   3.191 -13.925  0.00  0.00     0.250 C 
BRANCH  28  29
ATOM     29  C   UNL d   1       6.246   3.434 -13.117  0.00  0.00     0.035 C 
ATOM     30  C   UNL d   1       5.606   4.694 -13.621  0.00  0.00     0.002 C 
ENDBRANCH  28  29
ENDBRANCH  24  28
ENDBRANCH   1  24
TORSDOF 9
