REMARK  7 active torsions:
REMARK  status: ('A' for Active; 'I' for Inactive)
REMARK    1  A    between atoms: C_6  and  N_7 
REMARK    2  A    between atoms: N_10  and  C_11 
REMARK    3  A    between atoms: C_11  and  C_12 
REMARK    4  A    between atoms: C_12  and  C_13 
REMARK    5  A    between atoms: C_13  and  C_14 
REMARK    6  A    between atoms: C_14  and  O_15 
REMARK    7  A    between atoms: O_15  and  C_16 
ROOT
ATOM      1  N   UNL d   1       7.601   3.283 -14.031  0.00  0.00    -0.344 N 
ATOM      2  C   UNL d   1       9.032   3.585 -14.020  0.00  0.00     0.137 C 
ATOM      3  C   UNL d   1       9.516   3.754 -12.559  0.00  0.00     0.274 C 
ATOM      4  N   UNL d   1       8.712   4.776 -11.859  0.00  0.00     0.141 N 
ATOM      5  C   UNL d   1       7.287   4.399 -11.861  0.00  0.00     0.274 C 
ATOM      6  C   UNL d   1       6.782   4.239 -13.304  0.00  0.00     0.137 C 
ENDROOT
BRANCH   4   7
ATOM      7  C   UNL d   1       9.182   4.933 -10.484  0.00  0.00     0.251 C 
BRANCH   7   8
ATOM      8  C   UNL d   1       8.540   6.134  -9.771  0.00  0.00     0.038 C 
BRANCH   8   9
ATOM      9  C   UNL d   1       9.000   6.392  -8.327  0.00  0.00     0.035 C 
BRANCH   9  10
ATOM     10  C   UNL d   1      10.465   6.835  -8.256  0.00  0.00     0.149 C 
BRANCH  10  11
ATOM     11  O   UNL d   1      10.926   6.735  -6.908  0.00  0.00    -0.329 OA
BRANCH  11  12
ATOM     12  C   UNL d   1      10.995   7.845  -6.089  0.00  0.00     0.112 A 
ATOM     13  C   UNL d   1      11.465   7.642  -4.755  0.00  0.00     0.107 A 
ATOM     14  N   UNL d   1      11.621   8.744  -3.900  0.00  0.00    -0.226 N 
ATOM     15  C   UNL d   1      11.867   6.579  -4.021  0.00  0.00     0.044 A 
ATOM     16  C   UNL d   1      11.324   9.998  -4.297  0.00  0.00     0.101 A 
ATOM     17  N   UNL d   1      12.101   8.390  -2.665  0.00  0.00    -0.164 NA
ATOM     18  C   UNL d   1      10.892  10.202  -5.583  0.00  0.00     0.023 A 
ATOM     19  C   UNL d   1      10.686   9.130  -6.480  0.00  0.00     0.027 A 
ATOM     20  C   UNL d   1      12.223   7.088  -2.746  0.00  0.00     0.122 A 
ENDBRANCH  11  12
ENDBRANCH  10  11
ENDBRANCH   9  10
ENDBRANCH   8   9
ENDBRANCH   7   8
ENDBRANCH   4   7
BRANCH   1  21
ATOM     21  C   UNL d   1       7.059   2.157 -14.676  0.00  0.00     0.068 A 
ATOM     22  C   UNL d   1       7.505   1.835 -15.975  0.00  0.00     0.018 A 
ATOM     23  C   UNL d   1       6.960   0.739 -16.675  0.00  0.00     0.002 A 
ATOM     24  C   UNL d   1       5.946  -0.032 -16.089  0.00  0.00     0.012 A 
ATOM     25  C   UNL d   1       5.481   0.277 -14.809  0.00  0.00     0.070 A 
ATOM     26 CL   UNL d   1       4.185  -0.646 -14.133  0.00  0.00    -0.081 Cl
ATOM     27  C   UNL d   1       6.050   1.343 -14.080  0.00  0.00     0.084 A 
ATOM     28 CL   UNL d   1       5.450   1.599 -12.474  0.00  0.00    -0.080 Cl
ENDBRANCH   1  21
TORSDOF 7
