REMARK  9 active torsions:
REMARK  status: ('A' for Active; 'I' for Inactive)
REMARK    1  A    between atoms: C_2  and  C_4 
REMARK    2  A    between atoms: C_9  and  N_10 
REMARK    3  A    between atoms: N_13  and  C_14 
REMARK    4  A    between atoms: C_14  and  C_15 
REMARK    5  A    between atoms: C_15  and  C_16 
REMARK    6  A    between atoms: C_16  and  C_17 
REMARK    7  A    between atoms: C_17  and  C_18 
REMARK    8  A    between atoms: C_18  and  C_19 
REMARK       I    between atoms: C_19  and  N_21 
REMARK    9  A    between atoms: N_21  and  C_22 
ROOT
ATOM      1  C   UNL d   1       7.939   5.284 -11.034  0.00  0.00     0.035 C 
ENDROOT
BRANCH   1   2
ATOM      2  C   UNL d   1       9.360   5.341 -10.471  0.00  0.00     0.250 C 
BRANCH   2   3
ATOM      3  N   UNL d   1       9.416   6.372  -9.445  0.00  0.00     0.141 N 
ATOM      4  C   UNL d   1       8.928   5.847  -8.160  0.00  0.00     0.274 C 
ATOM      5  C   UNL d   1       8.967   6.929  -7.066  0.00  0.00     0.137 C 
ATOM      6  N   UNL d   1      10.326   7.455  -6.957  0.00  0.00    -0.344 N 
ATOM      7  C   UNL d   1      10.896   7.917  -8.223  0.00  0.00     0.137 C 
ATOM      8  C   UNL d   1      10.796   6.832  -9.287  0.00  0.00     0.274 C 
BRANCH   6   9
ATOM      9  C   UNL d   1      10.981   7.612  -5.707  0.00  0.00     0.061 A 
ATOM     10  C   UNL d   1      11.604   8.792  -5.243  0.00  0.00     0.075 A 
ATOM     11  C   UNL d   1      12.278   8.842  -4.007  0.00  0.00     0.006 A 
ATOM     12  C   UNL d   1      12.356   7.701  -3.191  0.00  0.00     0.000 A 
ATOM     13  C   UNL d   1      11.752   6.521  -3.643  0.00  0.00     0.002 A 
ATOM     14  C   UNL d   1      11.078   6.508  -4.871  0.00  0.00     0.017 A 
BRANCH  10  15
ATOM     15  C   UNL d   1      11.583  10.039  -6.033  0.00  0.00     0.298 C 
ATOM     16  N   UNL d   1      12.649  10.737  -6.042  0.00  0.00    -0.102 N 
ATOM     17  O   UNL d   1      10.651  10.350  -6.742  0.00  0.00    -0.264 OA
ENDBRANCH  10  15
ENDBRANCH   6   9
ENDBRANCH   2   3
ENDBRANCH   1   2
BRANCH   1  18
ATOM     18  C   UNL d   1       7.754   4.337 -12.210  0.00  0.00     0.003 C 
BRANCH  18  19
ATOM     19  C   UNL d   1       6.260   4.044 -12.489  0.00  0.00     0.010 C 
BRANCH  19  20
ATOM     20  C   UNL d   1       6.058   3.218 -13.767  0.00  0.00     0.090 C 
BRANCH  20  21
ATOM     21  C   UNL d   1       5.875   1.689 -13.588  0.00  0.00     0.252 C 
ATOM     22  O   UNL d   1       5.465   1.226 -12.523  0.00  0.00    -0.271 OA
ATOM     23  N   UNL d   1       6.252   0.862 -14.567  0.00  0.00    -0.235 NA
BRANCH  23  24
ATOM     24  C   UNL d   1       6.758   1.249 -15.884  0.00  0.00     0.128 C 
ATOM     25  C   UNL d   1       8.282   1.218 -15.956  0.00  0.00    -0.004 A 
ATOM     26  C   UNL d   1       8.936   0.759 -17.123  0.00  0.00    -0.024 A 
ATOM     27  C   UNL d   1       9.058   1.675 -14.862  0.00  0.00    -0.003 A 
ATOM     28  C   UNL d   1       8.155   0.245 -18.324  0.00  0.00     0.026 C 
ATOM     29  C   UNL d   1      10.344   0.733 -17.163  0.00  0.00    -0.004 A 
ATOM     30  C   UNL d   1       6.679   0.656 -18.323  0.00  0.00     0.007 C 
ATOM     31  C   UNL d   1       6.048   0.428 -16.953  0.00  0.00     0.029 C 
ATOM     32  C   UNL d   1      11.098   1.183 -16.064  0.00  0.00    -0.000 A 
ATOM     33  C   UNL d   1      10.458   1.655 -14.908  0.00  0.00    -0.000 A 
ENDBRANCH  23  24
ENDBRANCH  20  21
ENDBRANCH  19  20
ENDBRANCH  18  19
ENDBRANCH   1  18
TORSDOF 9
