REMARK  7 active torsions:
REMARK  status: ('A' for Active; 'I' for Inactive)
REMARK    1  A    between atoms: C_2  and  O_3 
REMARK    2  A    between atoms: O_3  and  C_4 
REMARK    3  A    between atoms: C_5  and  C_6 
REMARK       I    between atoms: C_6  and  N_8 
REMARK    4  A    between atoms: N_8  and  C_9 
REMARK    5  A    between atoms: C_9  and  C_10 
REMARK    6  A    between atoms: C_10  and  N_11 
REMARK    7  A    between atoms: N_14  and  C_15 
ROOT
ATOM      1  C   UNL d   1       9.375   4.698 -13.104  0.00  0.00     0.277 C 
ATOM      2  O   UNL d   1      10.230   5.554 -13.308  0.00  0.00    -0.266 OA
ATOM      3  N   UNL d   1       8.504   4.770 -12.079  0.00  0.00    -0.232 NA
ENDROOT
BRANCH   1   4
ATOM      4  C   UNL d   1       9.271   3.481 -13.989  0.00  0.00     0.080 A 
ATOM      5  C   UNL d   1      10.354   3.047 -14.812  0.00  0.00     0.099 A 
ATOM      6  C   UNL d   1      10.207   1.882 -15.611  0.00  0.00     0.023 A 
ATOM      7  C   UNL d   1       8.971   1.182 -15.641  0.00  0.00     0.008 A 
ATOM      8  C   UNL d   1      11.290   1.395 -16.384  0.00  0.00     0.002 A 
ATOM      9  C   UNL d   1       7.892   1.639 -14.851  0.00  0.00     0.035 A 
ATOM     10  C   UNL d   1       8.831   0.042 -16.466  0.00  0.00     0.001 A 
ATOM     11  C   UNL d   1       8.039   2.785 -14.057  0.00  0.00     0.013 A 
ATOM     12 BR   UNL d   1       6.215   0.732 -14.807  0.00  0.00    -0.049 Br
ATOM     13  C   UNL d   1       9.906  -0.413 -17.251  0.00  0.00     0.000 A 
ATOM     14  C   UNL d   1      11.130   0.277 -17.218  0.00  0.00     0.000 A 
BRANCH   5  15
ATOM     15  O   UNL d   1      11.543   3.747 -14.833  0.00  0.00    -0.331 OA
BRANCH  15  16
ATOM     16  C   UNL d   1      11.825   4.460 -16.043  0.00  0.00     0.149 C 
ATOM     17  C   UNL d   1      11.089   5.795 -16.090  0.00  0.00     0.035 C 
ENDBRANCH  15  16
ENDBRANCH   5  15
ENDBRANCH   1   4
BRANCH   3  18
ATOM     18  C   UNL d   1       8.416   5.870 -11.119  0.00  0.00     0.164 C 
BRANCH  18  19
ATOM     19  C   UNL d   1       9.780   6.165 -10.445  0.00  0.00     0.277 C 
BRANCH  19  20
ATOM     20  N   UNL d   1       9.674   7.105  -9.339  0.00  0.00     0.143 N 
ATOM     21  C   UNL d   1      10.982   7.711  -9.084  0.00  0.00     0.274 C 
ATOM     22  C   UNL d   1      10.896   8.742  -7.942  0.00  0.00     0.137 C 
ATOM     23  N   UNL d   1      10.308   8.125  -6.764  0.00  0.00    -0.344 N 
ATOM     24  C   UNL d   1       9.067   7.389  -6.970  0.00  0.00     0.137 C 
ATOM     25  C   UNL d   1       9.216   6.400  -8.139  0.00  0.00     0.274 C 
BRANCH  23  26
ATOM     26  C   UNL d   1      10.973   8.135  -5.533  0.00  0.00     0.056 A 
ATOM     27  C   UNL d   1      11.220   6.930  -4.840  0.00  0.00     0.017 A 
ATOM     28  C   UNL d   1      11.862   6.951  -3.586  0.00  0.00     0.002 A 
ATOM     29  C   UNL d   1      12.252   8.177  -3.013  0.00  0.00     0.000 A 
ATOM     30  C   UNL d   1      11.993   9.375  -3.694  0.00  0.00     0.002 A 
ATOM     31  C   UNL d   1      11.372   9.360  -4.960  0.00  0.00     0.017 A 
ENDBRANCH  23  26
ENDBRANCH  19  20
ENDBRANCH  18  19
ENDBRANCH   3  18
TORSDOF 7
