REMARK  6 active torsions:
REMARK  status: ('A' for Active; 'I' for Inactive)
REMARK    1  A    between atoms: C_5  and  O_6 
REMARK    2  A    between atoms: O_6  and  C_7 
REMARK    3  A    between atoms: C_7  and  C_8 
REMARK    4  A    between atoms: C_8  and  N_9 
REMARK    5  A    between atoms: N_9  and  C_10 
REMARK    6  A    between atoms: C_10  and  C_11 
ROOT
ATOM      1  S   UNL d   1      12.553   4.001 -16.317  0.00  0.00    -0.009 SA
ATOM      2  C   UNL d   1      11.104   4.050 -15.235  0.00  0.00     0.201 A 
ATOM      3  N   UNL d   1      11.023   4.783 -14.125  0.00  0.00    -0.217 NA
ATOM      4  C   UNL d   1       9.735   4.513 -13.676  0.00  0.00     0.123 A 
ATOM      5  C   UNL d   1       9.036   5.009 -12.550  0.00  0.00     0.114 A 
ATOM      6  C   UNL d   1       7.708   4.566 -12.306  0.00  0.00     0.037 A 
ATOM      7  C   UNL d   1       7.069   3.676 -13.193  0.00  0.00     0.061 A 
ATOM      8 CL   UNL d   1       5.456   3.176 -12.851  0.00  0.00    -0.082 Cl
ATOM      9  C   UNL d   1       7.750   3.178 -14.317  0.00  0.00     0.032 A 
ATOM     10  C   UNL d   1       9.071   3.599 -14.546  0.00  0.00     0.104 A 
ATOM     11  N   UNL d   1      10.006   3.332 -15.528  0.00  0.00    -0.219 NA
ENDROOT
BRANCH   5  12
ATOM     12  O   UNL d   1       9.719   5.911 -11.767  0.00  0.00    -0.327 OA
BRANCH  12  13
ATOM     13  C   UNL d   1       9.054   6.628 -10.734  0.00  0.00     0.187 C 
BRANCH  13  14
ATOM     14  C   UNL d   1       9.611   6.182  -9.378  0.00  0.00     0.323 C 
BRANCH  14  15
ATOM     15  N   UNL d   1       9.064   7.048  -8.352  0.00  0.00     0.347 N 
BRANCH  15  16
ATOM     16  C   UNL d   1       9.363   6.585  -7.007  0.00  0.00     0.317 C 
BRANCH  16  17
ATOM     17  C   UNL d   1      10.265   7.533  -6.228  0.00  0.00     0.014 A 
ATOM     18  C   UNL d   1      11.061   7.038  -5.169  0.00  0.00    -0.002 A 
ATOM     19  C   UNL d   1      11.861   7.915  -4.410  0.00  0.00    -0.000 A 
ATOM     20  C   UNL d   1      11.885   9.289  -4.718  0.00  0.00    -0.000 A 
ATOM     21  C   UNL d   1      11.105   9.787  -5.777  0.00  0.00    -0.000 A 
ATOM     22  C   UNL d   1      10.294   8.912  -6.525  0.00  0.00    -0.002 A 
ENDBRANCH  16  17
ENDBRANCH  15  16
ENDBRANCH  14  15
ENDBRANCH  13  14
ENDBRANCH  12  13
ENDBRANCH   5  12
TORSDOF 6
