REMARK  7 active torsions:
REMARK  status: ('A' for Active; 'I' for Inactive)
REMARK    1  A    between atoms: C_6  and  C_7 
REMARK    2  A    between atoms: C_10  and  S_11 
REMARK    3  A    between atoms: S_11  and  C_12 
REMARK    4  A    between atoms: C_12  and  C_13 
REMARK    5  A    between atoms: C_13  and  C_14 
REMARK    6  A    between atoms: C_14  and  N_15 
REMARK    7  A    between atoms: C_22  and  C_23 
ROOT
ATOM      1  N   UNL d   1       7.409   1.034 -18.421  0.00  0.00     0.138 N 
ATOM      2  C   UNL d   1       6.417   1.337 -17.393  0.00  0.00     0.255 C 
ATOM      3  C   UNL d   1       6.846   0.997 -15.951  0.00  0.00     0.061 C 
ATOM      4  C   UNL d   1       7.749   2.050 -15.331  0.00  0.00    -0.022 A 
ATOM      5  C   UNL d   1       7.296   2.741 -14.181  0.00  0.00     0.017 A 
ATOM      6  C   UNL d   1       8.095   3.738 -13.579  0.00  0.00     0.106 A 
ATOM      7  N   UNL d   1       7.903   4.550 -12.481  0.00  0.00    -0.224 NA
ATOM      8  C   UNL d   1       9.052   5.233 -12.394  0.00  0.00     0.158 A 
ATOM      9  O   UNL d   1       9.971   4.984 -13.384  0.00  0.00    -0.292 OA
ATOM     10  C   UNL d   1       9.356   4.007 -14.147  0.00  0.00     0.119 A 
ATOM     11  C   UNL d   1       9.830   3.348 -15.291  0.00  0.00     0.022 A 
ATOM     12  C   UNL d   1       9.016   2.360 -15.893  0.00  0.00    -0.022 A 
ATOM     13  C   UNL d   1       9.520   1.653 -17.140  0.00  0.00     0.061 C 
ATOM     14  C   UNL d   1       8.621   1.856 -18.379  0.00  0.00     0.255 C 
ENDROOT
BRANCH   1  15
ATOM     15  C   UNL d   1       7.645  -0.403 -18.578  0.00  0.00     0.251 C 
BRANCH  15  16
ATOM     16  C   UNL d   1       7.325  -0.868 -20.007  0.00  0.00     0.047 C 
BRANCH  16  17
ATOM     17  C   UNL d   1       7.805  -2.304 -20.268  0.00  0.00     0.067 C 
BRANCH  17  18
ATOM     18  S   UNL d   1       7.074  -3.499 -19.123  0.00  0.00    -0.075 SA
BRANCH  18  19
ATOM     19  C   UNL d   1       5.492  -3.742 -19.863  0.00  0.00     0.193 A 
ATOM     20  N   UNL d   1       5.045  -3.104 -20.944  0.00  0.00    -0.122 NA
ATOM     21  N   UNL d   1       3.806  -3.650 -21.197  0.00  0.00    -0.126 NA
ATOM     22  C   UNL d   1       3.594  -4.572 -20.257  0.00  0.00     0.191 A 
ATOM     23  N   UNL d   1       4.620  -4.655 -19.377  0.00  0.00    -0.287 N 
ATOM     24  C   UNL d   1       4.780  -5.508 -18.216  0.00  0.00     0.134 C 
BRANCH  22  25
ATOM     25  C   UNL d   1       2.354  -5.351 -20.238  0.00  0.00     0.151 A 
ATOM     26  C   UNL d   1       1.985  -6.575 -19.730  0.00  0.00     0.087 A 
ATOM     27  C   UNL d   1       2.756  -7.607 -18.965  0.00  0.00     0.054 C 
ATOM     28  N   UNL d   1       0.647  -6.806 -20.051  0.00  0.00    -0.221 NA
ATOM     29  C   UNL d   1       0.273  -5.722 -20.721  0.00  0.00     0.225 A 
ATOM     30  O   UNL d   1       1.267  -4.793 -20.866  0.00  0.00    -0.282 OA
ENDBRANCH  22  25
ENDBRANCH  18  19
ENDBRANCH  17  18
ENDBRANCH  16  17
ENDBRANCH  15  16
ENDBRANCH   1  15
BRANCH   8  31
ATOM     31  C   UNL d   1       9.371   6.299 -11.389  0.00  0.00     0.064 C 
ATOM     32  C   UNL d   1       8.773   5.983 -10.010  0.00  0.00     0.009 C 
ATOM     33  C   UNL d   1       8.971   7.693 -11.895  0.00  0.00     0.009 C 
ENDBRANCH   8  31
TORSDOF 7
