REMARK  1 active torsions:
REMARK  status: ('A' for Active; 'I' for Inactive)
REMARK    1  A    between atoms: C_5  and  C_6 
ROOT
ATOM      1  C   UNL d   1       8.085   2.339 -15.128  0.00  0.00    -0.004 C 
ATOM      2  C   UNL d   1       9.111   2.370 -16.014  0.00  0.00    -0.001 C 
ATOM      3  C   UNL d   1      10.245   3.304 -16.109  0.00  0.00    -0.004 A 
ATOM      4  C   UNL d   1      10.698   3.669 -17.395  0.00  0.00    -0.000 A 
ATOM      5  C   UNL d   1      11.760   4.581 -17.550  0.00  0.00    -0.000 A 
ATOM      6  C   UNL d   1      12.383   5.130 -16.414  0.00  0.00    -0.000 A 
ATOM      7  C   UNL d   1      11.942   4.768 -15.128  0.00  0.00    -0.004 A 
ATOM      8  C   UNL d   1      10.871   3.862 -14.974  0.00  0.00    -0.018 A 
ATOM      9  C   UNL d   1      10.409   3.472 -13.592  0.00  0.00     0.053 C 
ATOM     10  C   UNL d   1       8.991   3.919 -13.327  0.00  0.00    -0.018 A 
ATOM     11  C   UNL d   1       8.762   4.876 -12.313  0.00  0.00    -0.004 A 
ATOM     12  C   UNL d   1       7.455   5.278 -11.990  0.00  0.00    -0.000 A 
ATOM     13  C   UNL d   1       6.369   4.711 -12.676  0.00  0.00    -0.000 A 
ATOM     14  C   UNL d   1       6.598   3.757 -13.682  0.00  0.00    -0.000 A 
ATOM     15  C   UNL d   1       7.905   3.347 -14.039  0.00  0.00    -0.004 A 
ENDROOT
BRANCH   1  16
ATOM     16  C   UNL d   1       7.066   1.301 -15.299  0.00  0.00    -0.022 C 
ATOM     17  C   UNL d   1       6.592   0.974 -16.520  0.00  0.00     0.005 C 
ATOM     18  C   UNL d   1       5.513  -0.071 -16.750  0.00  0.00     0.276 C 
ATOM     19  N   UNL d   1       4.813  -0.446 -15.521  0.00  0.00     0.144 N 
ATOM     20  C   UNL d   1       3.971  -1.605 -15.776  0.00  0.00     0.286 C 
ATOM     21  C   UNL d   1       5.773  -0.727 -14.460  0.00  0.00     0.255 C 
ATOM     22  C   UNL d   1       6.526   0.554 -14.082  0.00  0.00     0.061 C 
ENDBRANCH   1  16
TORSDOF 1
