REMARK  7 active torsions:
REMARK  status: ('A' for Active; 'I' for Inactive)
REMARK    1  A    between atoms: C_5  and  C_6 
REMARK    2  A    between atoms: C_6  and  C_7 
REMARK    3  A    between atoms: C_13  and  C_14 
REMARK    4  A    between atoms: N_17  and  C_18 
REMARK    5  A    between atoms: C_18  and  C_19 
REMARK    6  A    between atoms: C_19  and  N_20 
REMARK    7  A    between atoms: N_29  and  C_30 
ROOT
ATOM      1  C   UNL d   1      10.443   2.935 -18.440  0.00  0.00    -0.014 A 
ATOM      2  C   UNL d   1       9.793   2.092 -19.375  0.00  0.00    -0.002 A 
ATOM      3  C   UNL d   1       8.647   1.366 -19.006  0.00  0.00     0.017 A 
ATOM      4  C   UNL d   1       8.125   1.468 -17.690  0.00  0.00     0.064 A 
ATOM      5  C   UNL d   1       8.747   2.309 -16.715  0.00  0.00     0.013 A 
ATOM      6  C   UNL d   1       9.887   3.037 -17.135  0.00  0.00    -0.003 A 
ATOM      7  C   UNL d   1       8.030   2.241 -15.473  0.00  0.00    -0.003 A 
ATOM      8  C   UNL d   1       7.006   1.377 -15.698  0.00  0.00     0.076 A 
ATOM      9  N   UNL d   1       7.038   0.924 -17.018  0.00  0.00    -0.305 N 
ENDROOT
BRANCH   7  10
ATOM     10  C   UNL d   1       8.307   2.998 -14.170  0.00  0.00     0.028 C 
ATOM     11  C   UNL d   1       9.140   4.272 -14.413  0.00  0.00     0.040 C 
ATOM     12  C   UNL d   1       9.321   5.102 -13.151  0.00  0.00     0.251 C 
ATOM     13  N   UNL d   1       8.040   5.446 -12.559  0.00  0.00     0.139 N 
ATOM     14  C   UNL d   1       7.284   4.243 -12.218  0.00  0.00     0.251 C 
ATOM     15  C   UNL d   1       7.005   3.387 -13.466  0.00  0.00     0.040 C 
BRANCH  13  16
ATOM     16  C   UNL d   1       8.252   6.290 -11.393  0.00  0.00     0.274 C 
BRANCH  16  17
ATOM     17  C   UNL d   1       9.290   5.721 -10.381  0.00  0.00     0.141 C 
BRANCH  17  18
ATOM     18  N   UNL d   1       9.420   6.532  -9.192  0.00  0.00    -0.297 N 
ATOM     19  C   UNL d   1      10.002   7.734  -9.124  0.00  0.00     0.342 A 
ATOM     20  N   UNL d   1       9.961   8.124  -7.852  0.00  0.00    -0.217 NA
ATOM     21  O   UNL d   1      10.515   8.373 -10.044  0.00  0.00    -0.245 OA
ATOM     22  C   UNL d   1       9.319   7.160  -6.976  0.00  0.00     0.155 A 
ATOM     23  C   UNL d   1       8.951   6.025  -7.924  0.00  0.00     0.132 A 
ENDBRANCH  17  18
ENDBRANCH  16  17
ENDBRANCH  13  16
ENDBRANCH   7  10
BRANCH   9  24
ATOM     24  C   UNL d   1       6.086   0.042 -17.568  0.00  0.00     0.064 A 
ATOM     25  C   UNL d   1       5.611  -1.049 -16.803  0.00  0.00     0.020 A 
ATOM     26  C   UNL d   1       4.684  -1.948 -17.361  0.00  0.00     0.031 A 
ATOM     27  C   UNL d   1       4.235  -1.763 -18.683  0.00  0.00     0.140 A 
ATOM     28  C   UNL d   1       4.691  -0.667 -19.441  0.00  0.00     0.031 A 
ATOM     29  F   UNL d   1       3.378  -2.644 -19.229  0.00  0.00    -0.204 F 
ATOM     30  C   UNL d   1       5.601   0.242 -18.880  0.00  0.00     0.020 A 
ENDBRANCH   9  24
BRANCH   1  31
ATOM     31  C   UNL d   1      11.718   3.705 -18.793  0.00  0.00     0.096 C 
BRANCH  31  32
ATOM     32  C   UNL d   1      12.229   4.674 -17.744  0.00  0.00     0.188 A 
ATOM     33  N   UNL d   1      12.714   4.270 -16.529  0.00  0.00    -0.112 NA
ATOM     34  N   UNL d   1      12.930   5.365 -15.856  0.00  0.00    -0.045 NA
ATOM     35  N   UNL d   1      12.613   6.380 -16.690  0.00  0.00    -0.149 N 
ATOM     36  C   UNL d   1      12.826   7.765 -16.337  0.00  0.00     0.180 C 
ATOM     37  N   UNL d   1      12.184   5.979 -17.906  0.00  0.00    -0.134 NA
ENDBRANCH  31  32
ENDBRANCH   1  31
TORSDOF 7
