REMARK  7 active torsions:
REMARK  status: ('A' for Active; 'I' for Inactive)
REMARK    1  A    between atoms: S_2  and  N_4 
REMARK    2  A    between atoms: S_2  and  C_22 
REMARK    3  A    between atoms: N_4  and  C_5 
REMARK    4  A    between atoms: N_8  and  C_9 
REMARK    5  A    between atoms: C_9  and  C_10 
REMARK    6  A    between atoms: C_10  and  C_11 
REMARK    7  A    between atoms: C_11  and  C_12 
ROOT
ATOM      1  C   UNL d   1       7.138   4.816 -11.939  0.00  0.00     0.151 C 
ATOM      2  C   UNL d   1       5.641   4.536 -11.918  0.00  0.00     0.063 C 
ATOM      3  C   UNL d   1       5.322   3.725 -13.158  0.00  0.00     0.252 C 
ATOM      4  N   UNL d   1       6.595   3.062 -13.420  0.00  0.00     0.139 N 
ATOM      5  C   UNL d   1       7.581   4.121 -13.230  0.00  0.00     0.275 C 
ENDROOT
BRANCH   1   6
ATOM      6  N   UNL d   1       7.468   6.238 -11.976  0.00  0.00    -0.184 NA
BRANCH   6   7
ATOM      7  S   UNL d   1       9.111   6.739 -12.017  0.00  0.00     0.287 S 
ATOM      8  O   UNL d   1       9.904   5.618 -12.555  0.00  0.00    -0.198 OA
ATOM      9  O   UNL d   1       9.179   8.094 -12.570  0.00  0.00    -0.198 OA
BRANCH   7  10
ATOM     10  C   UNL d   1       9.636   7.001 -10.373  0.00  0.00     0.134 A 
ATOM     11  S   UNL d   1      10.664   8.373 -10.046  0.00  0.00    -0.074 SA
ATOM     12  C   UNL d   1      10.616   8.049  -8.344  0.00  0.00     0.031 A 
ATOM     13  C   UNL d   1       9.760   6.931  -8.099  0.00  0.00     0.007 A 
ATOM     14  C   UNL d   1      11.263   8.742  -7.299  0.00  0.00     0.018 A 
ATOM     15  C   UNL d   1       9.204   6.327  -9.276  0.00  0.00     0.020 A 
ATOM     16  C   UNL d   1       9.585   6.573  -6.768  0.00  0.00     0.001 A 
ATOM     17  C   UNL d   1      10.281   7.188  -5.717  0.00  0.00     0.011 A 
ATOM     18  C   UNL d   1      11.091   8.308  -5.972  0.00  0.00     0.058 A 
ATOM     19 CL   UNL d   1      11.864   9.139  -4.668  0.00  0.00    -0.082 Cl
ENDBRANCH   7  10
ENDBRANCH   6   7
ENDBRANCH   1   6
BRANCH   4  20
ATOM     20  C   UNL d   1       6.646   2.428 -14.729  0.00  0.00     0.251 C 
BRANCH  20  21
ATOM     21  C   UNL d   1       8.068   1.964 -15.112  0.00  0.00     0.042 C 
BRANCH  21  22
ATOM     22  C   UNL d   1       8.106   0.652 -15.898  0.00  0.00     0.050 C 
BRANCH  22  23
ATOM     23  C   UNL d   1       7.249   0.672 -17.129  0.00  0.00     0.088 A 
ATOM     24  C   UNL d   1       6.096  -0.066 -17.450  0.00  0.00     0.041 A 
ATOM     25  C   UNL d   1       5.680   0.279 -18.737  0.00  0.00     0.126 A 
ATOM     26  C   UNL d   1       5.380  -1.046 -16.724  0.00  0.00     0.003 A 
ATOM     27  O   UNL d   1       6.595   1.220 -19.172  0.00  0.00    -0.211 OA
ATOM     28  C   UNL d   1       4.562  -0.291 -19.357  0.00  0.00     0.027 A 
ATOM     29  N   UNL d   1       7.558   1.466 -18.156  0.00  0.00    -0.131 NA
ATOM     30  C   UNL d   1       3.848  -1.267 -18.634  0.00  0.00     0.002 A 
ATOM     31  C   UNL d   1       4.251  -1.642 -17.331  0.00  0.00     0.000 A 
ENDBRANCH  22  23
ENDBRANCH  21  22
ENDBRANCH  20  21
ENDBRANCH   4  20
TORSDOF 7
