REMARK  2 active torsions:
REMARK  status: ('A' for Active; 'I' for Inactive)
REMARK    1  A    between atoms: C_2  and  S_4 
REMARK    2  A    between atoms: S_4  and  C_5 
ROOT
ATOM      1  C   UNL d   1       9.387   0.959 -18.511  0.00  0.00     0.059 C 
ATOM      2  C   UNL d   1       8.854  -0.195 -17.647  0.00  0.00     0.033 C 
ATOM      3  C   UNL d   1       7.909   0.297 -16.556  0.00  0.00    -0.041 C 
ATOM      4  C   UNL d   1       6.691  -0.272 -16.399  0.00  0.00     0.029 C 
ATOM      5  C   UNL d   1       5.834   0.079 -15.275  0.00  0.00     0.172 C 
ATOM      6  O   UNL d   1       4.641  -0.309 -15.187  0.00  0.00    -0.291 OA
ATOM      7  C   UNL d   1       6.409   0.922 -14.161  0.00  0.00     0.070 C 
ATOM      8  C   UNL d   1       7.345   1.990 -14.745  0.00  0.00     0.012 C 
ATOM      9  C   UNL d   1       8.469   1.405 -15.651  0.00  0.00     0.016 C 
ATOM     10  C   UNL d   1       9.553   0.775 -14.754  0.00  0.00     0.004 C 
ATOM     11  C   UNL d   1       9.088   2.550 -16.510  0.00  0.00     0.004 C 
ATOM     12  C   UNL d   1       9.714   3.675 -15.634  0.00  0.00     0.000 C 
ATOM     13  C   UNL d   1      10.383   4.763 -16.473  0.00  0.00     0.002 C 
ATOM     14  C   UNL d   1      11.441   4.138 -17.427  0.00  0.00     0.024 C 
ATOM     15  C   UNL d   1      12.548   3.418 -16.580  0.00  0.00     0.002 C 
ATOM     16  C   UNL d   1      10.722   3.178 -18.383  0.00  0.00     0.003 C 
ATOM     17  C   UNL d   1      11.798   2.894 -19.450  0.00  0.00     0.003 C 
ATOM     18  C   UNL d   1      12.545   4.214 -19.597  0.00  0.00     0.028 C 
ATOM     19  C   UNL d   1      12.137   5.119 -18.413  0.00  0.00     0.102 C 
ATOM     20  C   UNL d   1      11.300   6.348 -18.857  0.00  0.00     0.038 C 
ATOM     21  C   UNL d   1      12.312   7.499 -18.875  0.00  0.00     0.098 C 
ATOM     22  C   UNL d   1      13.392   7.005 -17.950  0.00  0.00     0.272 C 
ATOM     23  O   UNL d   1      14.246   7.731 -17.419  0.00  0.00    -0.264 OA
ATOM     24  O   UNL d   1      13.271   5.694 -17.793  0.00  0.00    -0.307 OA
ATOM     25  C   UNL d   1      10.073   2.013 -17.617  0.00  0.00     0.011 C 
ENDROOT
BRANCH   1  26
ATOM     26  S   UNL d   1       8.054   1.707 -19.491  0.00  0.00    -0.078 SA
BRANCH  26  27
ATOM     27  C   UNL d   1       7.869   0.474 -20.783  0.00  0.00     0.199 C 
ATOM     28  C   UNL d   1       6.760   0.788 -21.767  0.00  0.00     0.085 C 
ATOM     29  O   UNL d   1       8.566  -0.537 -20.878  0.00  0.00    -0.284 OA
ENDBRANCH  26  27
ENDBRANCH   1  26
TORSDOF 2
