REMARK  8 active torsions:
REMARK  status: ('A' for Active; 'I' for Inactive)
REMARK    1  A    between atoms: C_6  and  C_7 
REMARK    2  A    between atoms: C_10  and  S_11 
REMARK    3  A    between atoms: S_11  and  C_12 
REMARK    4  A    between atoms: C_12  and  C_13 
REMARK    5  A    between atoms: C_13  and  C_14 
REMARK    6  A    between atoms: C_14  and  N_15 
REMARK    7  A    between atoms: C_19  and  C_20 
REMARK    8  A    between atoms: C_25  and  C_26 
ROOT
ATOM      1  N   UNL d   1       9.575   4.743 -13.292  0.00  0.00     0.137 N 
ATOM      2  C   UNL d   1       8.317   5.324 -13.768  0.00  0.00     0.251 C 
ATOM      3  C   UNL d   1       7.858   6.175 -12.605  0.00  0.00     0.039 A 
ATOM      4  C   UNL d   1       7.013   5.619 -11.482  0.00  0.00     0.008 A 
ATOM      5  C   UNL d   1       8.518   5.612 -11.391  0.00  0.00     0.052 A 
ATOM      6  C   UNL d   1       9.331   4.453 -11.883  0.00  0.00     0.254 C 
ENDROOT
BRANCH   1   7
ATOM      7  C   UNL d   1       9.944   3.526 -14.019  0.00  0.00     0.251 C 
BRANCH   7   8
ATOM      8  C   UNL d   1      10.605   3.912 -15.342  0.00  0.00     0.047 C 
BRANCH   8   9
ATOM      9  C   UNL d   1      11.175   2.692 -16.096  0.00  0.00     0.067 C 
BRANCH   9  10
ATOM     10  S   UNL d   1      12.118   3.129 -17.593  0.00  0.00    -0.075 SA
BRANCH  10  11
ATOM     11  C   UNL d   1      10.936   4.131 -18.441  0.00  0.00     0.193 A 
ATOM     12  N   UNL d   1       9.624   3.885 -18.455  0.00  0.00    -0.122 NA
ATOM     13  N   UNL d   1       9.068   4.946 -19.131  0.00  0.00    -0.126 NA
ATOM     14  C   UNL d   1      10.082   5.727 -19.512  0.00  0.00     0.191 A 
ATOM     15  N   UNL d   1      11.287   5.244 -19.116  0.00  0.00    -0.287 N 
ATOM     16  C   UNL d   1      12.618   5.790 -19.341  0.00  0.00     0.134 C 
BRANCH  14  17
ATOM     17  C   UNL d   1       9.861   6.955 -20.286  0.00  0.00     0.151 A 
ATOM     18  C   UNL d   1       8.718   7.598 -20.694  0.00  0.00     0.087 A 
ATOM     19  C   UNL d   1       7.283   7.266 -20.435  0.00  0.00     0.054 C 
ATOM     20  N   UNL d   1       9.076   8.713 -21.443  0.00  0.00    -0.221 NA
ATOM     21  C   UNL d   1      10.403   8.688 -21.456  0.00  0.00     0.225 A 
ATOM     22  O   UNL d   1      10.941   7.652 -20.761  0.00  0.00    -0.282 OA
ENDBRANCH  14  17
ENDBRANCH  10  11
ENDBRANCH   9  10
ENDBRANCH   8   9
ENDBRANCH   7   8
ENDBRANCH   1   7
BRANCH   5  23
ATOM     23  C   UNL d   1       9.245   6.492 -10.406  0.00  0.00    -0.019 A 
ATOM     24  C   UNL d   1       9.071   6.314  -9.028  0.00  0.00    -0.000 A 
ATOM     25  C   UNL d   1       9.707   7.205  -8.125  0.00  0.00     0.073 A 
ATOM     26  C   UNL d   1      10.554   8.225  -8.590  0.00  0.00     0.034 A 
ATOM     27  C   UNL d   1      10.735   8.387  -9.961  0.00  0.00     0.140 A 
ATOM     28  C   UNL d   1      10.051   7.551 -10.857  0.00  0.00     0.025 A 
ATOM     29  F   UNL d   1      11.549   9.362 -10.429  0.00  0.00    -0.204 F 
BRANCH  25  30
ATOM     30  C   UNL d   1       9.483   7.072  -6.649  0.00  0.00     0.419 C 
ATOM     31  F   UNL d   1       9.410   8.280  -6.075  0.00  0.00    -0.166 F 
ATOM     32  F   UNL d   1       8.360   6.386  -6.456  0.00  0.00    -0.166 F 
ATOM     33  F   UNL d   1      10.516   6.420  -6.127  0.00  0.00    -0.166 F 
ENDBRANCH  25  30
ENDBRANCH   5  23
TORSDOF 8
