REMARK  5 active torsions:
REMARK  status: ('A' for Active; 'I' for Inactive)
REMARK    1  A    between atoms: C_10  and  O_11 
REMARK    2  A    between atoms: O_11  and  C_12 
REMARK    3  A    between atoms: C_12  and  C_13 
REMARK    4  A    between atoms: C_13  and  C_15 
REMARK    5  A    between atoms: C_15  and  N_16 
ROOT
ATOM      1  C   UNL d   1      11.529   8.456  -3.416  0.00  0.00    -0.034 C 
ATOM      2  B   UNL d   1      11.221   8.004  -4.888  0.00  0.00     0.359 B 
ATOM      3  C   UNL d   1      10.693   6.612  -5.311  0.00  0.00    -0.059 A 
ATOM      4  C   UNL d   1      10.343   6.396  -6.607  0.00  0.00    -0.013 A 
ATOM      5  C   UNL d   1      10.459   7.347  -7.639  0.00  0.00     0.037 A 
ATOM      6  C   UNL d   1      10.898   8.640  -7.263  0.00  0.00     0.060 A 
ATOM      7  C   UNL d   1      11.105   9.547  -8.269  0.00  0.00     0.017 A 
ATOM      8  C   UNL d   1      10.942   9.198  -9.624  0.00  0.00     0.004 A 
ATOM      9  C   UNL d   1      10.475   7.927  -9.992  0.00  0.00     0.024 A 
ATOM     10  C   UNL d   1      10.232   6.951  -8.988  0.00  0.00     0.095 A 
ATOM     11  N   UNL d   1      11.232   9.038  -5.959  0.00  0.00    -0.344 NA
ENDROOT
BRANCH  10  12
ATOM     12  O   UNL d   1       9.885   5.643  -9.281  0.00  0.00    -0.328 OA
BRANCH  12  13
ATOM     13  C   UNL d   1       9.641   5.255 -10.654  0.00  0.00     0.184 C 
BRANCH  13  14
ATOM     14  C   UNL d   1       8.210   5.565 -11.082  0.00  0.00     0.215 C 
ATOM     15  O   UNL d   1       7.473   4.398 -10.940  0.00  0.00    -0.219 OA
BRANCH  14  16
ATOM     16  C   UNL d   1       8.078   5.933 -12.585  0.00  0.00     0.286 C 
BRANCH  16  17
ATOM     17  N   UNL d   1       7.417   7.204 -12.828  0.00  0.00     0.144 N 
ATOM     18  C   UNL d   1       8.182   8.367 -12.383  0.00  0.00     0.286 C 
ATOM     19  C   UNL d   1       5.993   7.210 -12.421  0.00  0.00     0.286 C 
ENDBRANCH  16  17
ENDBRANCH  14  16
ENDBRANCH  13  14
ENDBRANCH  12  13
ENDBRANCH  10  12
TORSDOF 5
