REMARK  3 active torsions:
REMARK  status: ('A' for Active; 'I' for Inactive)
REMARK    1  A    between atoms: C_8  and  C_9 
REMARK    2  A    between atoms: C_9  and  N_10 
REMARK    3  A    between atoms: N_13  and  C_14 
ROOT
ATOM      1  C   UNL d   1       5.871   0.510 -15.177  0.00  0.00     0.083 C 
ATOM      2  C   UNL d   1       6.066   1.480 -14.458  0.00  0.00    -0.108 C 
ATOM      3  C   UNL d   1       6.281   2.665 -13.646  0.00  0.00     0.113 A 
ATOM      4  C   UNL d   1       5.279   3.157 -12.835  0.00  0.00     0.027 A 
ATOM      5  C   UNL d   1       5.497   4.303 -12.038  0.00  0.00     0.004 A 
ATOM      6  C   UNL d   1       6.704   4.944 -12.051  0.00  0.00     0.019 A 
ATOM      7  C   UNL d   1       7.745   4.441 -12.873  0.00  0.00     0.083 A 
ATOM      8  C   UNL d   1       9.037   4.801 -13.092  0.00  0.00     0.044 A 
ATOM      9  C   UNL d   1       9.526   3.835 -14.022  0.00  0.00     0.079 A 
ATOM     10  C   UNL d   1      10.911   3.775 -14.597  0.00  0.00     0.054 C 
ATOM     11  N   UNL d   1       8.616   2.956 -14.383  0.00  0.00    -0.169 NA
ATOM     12  N   UNL d   1       7.492   3.301 -13.662  0.00  0.00    -0.224 N 
ENDROOT
BRANCH   8  13
ATOM     13  C   UNL d   1       9.783   5.936 -12.485  0.00  0.00     0.280 C 
BRANCH  13  14
ATOM     14  N   UNL d   1       9.348   6.559 -11.235  0.00  0.00     0.146 N 
ATOM     15  C   UNL d   1       9.464   5.620 -10.110  0.00  0.00     0.275 C 
ATOM     16  C   UNL d   1       8.925   6.276  -8.829  0.00  0.00     0.137 C 
ATOM     17  N   UNL d   1       9.639   7.538  -8.563  0.00  0.00    -0.344 N 
ATOM     18  C   UNL d   1       9.685   8.483  -9.683  0.00  0.00     0.137 C 
ATOM     19  C   UNL d   1      10.165   7.746 -10.941  0.00  0.00     0.275 C 
BRANCH  17  20
ATOM     20  C   UNL d   1      10.268   7.811  -7.337  0.00  0.00     0.056 A 
ATOM     21  C   UNL d   1      10.775   6.765  -6.535  0.00  0.00     0.018 A 
ATOM     22  C   UNL d   1      11.377   7.032  -5.292  0.00  0.00     0.013 A 
ATOM     23  C   UNL d   1      11.515   8.354  -4.841  0.00  0.00     0.058 A 
ATOM     24  C   UNL d   1      11.044   9.409  -5.642  0.00  0.00     0.013 A 
ATOM     25 CL   UNL d   1      12.254   8.680  -3.322  0.00  0.00    -0.082 Cl
ATOM     26  C   UNL d   1      10.412   9.139  -6.875  0.00  0.00     0.018 A 
ENDBRANCH  17  20
ENDBRANCH  13  14
ENDBRANCH   8  13
TORSDOF 3
