REMARK  6 active torsions:
REMARK  status: ('A' for Active; 'I' for Inactive)
REMARK    1  A    between atoms: O_2  and  C_3 
REMARK    2  A    between atoms: C_6  and  O_7 
REMARK    3  A    between atoms: O_7  and  C_8 
REMARK    4  A    between atoms: C_8  and  C_9 
REMARK    5  A    between atoms: C_9  and  N_10 
REMARK       I    between atoms: N_13  and  C_14 
REMARK    6  A    between atoms: C_14  and  C_16 
ROOT
ATOM      1  N   UNL d   1       8.593   5.964 -11.054  0.00  0.00     0.144 N 
ATOM      2  C   UNL d   1       7.152   5.753 -11.305  0.00  0.00     0.274 C 
ATOM      3  C   UNL d   1       6.908   5.653 -12.792  0.00  0.00     0.140 C 
ATOM      4  N   UNL d   1       7.627   4.487 -13.329  0.00  0.00    -0.312 N 
ATOM      5  C   UNL d   1       6.951   3.504 -13.973  0.00  0.00     0.257 C 
ATOM      6  O   UNL d   1       5.744   3.398 -13.942  0.00  0.00    -0.267 OA
ATOM      7  C   UNL d   1       9.052   4.524 -12.994  0.00  0.00     0.140 C 
ATOM      8  C   UNL d   1       9.223   4.742 -11.507  0.00  0.00     0.274 C 
ENDROOT
BRANCH   1   9
ATOM      9  C   UNL d   1       8.857   6.090  -9.621  0.00  0.00     0.283 C 
BRANCH   9  10
ATOM     10  C   UNL d   1      10.353   6.389  -9.344  0.00  0.00     0.184 C 
BRANCH  10  11
ATOM     11  O   UNL d   1      10.456   7.647  -8.675  0.00  0.00    -0.329 OA
BRANCH  11  12
ATOM     12  C   UNL d   1      10.765   7.742  -7.332  0.00  0.00     0.094 A 
ATOM     13  C   UNL d   1      10.899   9.035  -6.808  0.00  0.00     0.026 A 
ATOM     14  C   UNL d   1      11.263   9.262  -5.474  0.00  0.00     0.026 A 
ATOM     15  C   UNL d   1      11.496   8.152  -4.620  0.00  0.00     0.094 A 
ATOM     16  C   UNL d   1      11.334   6.848  -5.128  0.00  0.00     0.026 A 
ATOM     17  C   UNL d   1      10.965   6.627  -6.481  0.00  0.00     0.026 A 
BRANCH  15  18
ATOM     18  O   UNL d   1      11.866   8.255  -3.292  0.00  0.00    -0.328 OA
ATOM     19  C   UNL d   1      12.186   9.549  -2.803  0.00  0.00     0.181 C 
ENDBRANCH  15  18
ENDBRANCH  11  12
ENDBRANCH  10  11
ENDBRANCH   9  10
ENDBRANCH   1   9
BRANCH   5  20
ATOM     20  C   UNL d   1       7.766   2.507 -14.766  0.00  0.00     0.056 A 
ATOM     21  C   UNL d   1       7.340   1.147 -14.815  0.00  0.00     0.006 A 
ATOM     22  C   UNL d   1       8.070   0.219 -15.569  0.00  0.00     0.012 A 
ATOM     23  C   UNL d   1       9.219   0.608 -16.284  0.00  0.00     0.058 A 
ATOM     24  C   UNL d   1       9.624   1.955 -16.268  0.00  0.00     0.012 A 
ATOM     25 CL   UNL d   1      10.133  -0.552 -17.187  0.00  0.00    -0.082 Cl
ATOM     26  C   UNL d   1       8.886   2.887 -15.538  0.00  0.00     0.006 A 
ENDBRANCH   5  20
TORSDOF 6
