REMARK  6 active torsions:
REMARK  status: ('A' for Active; 'I' for Inactive)
REMARK    1  A    between atoms: O_2  and  C_3 
REMARK    2  A    between atoms: C_4  and  C_5 
REMARK       I    between atoms: C_5  and  N_7 
REMARK    3  A    between atoms: N_7  and  C_8 
REMARK    4  A    between atoms: C_8  and  C_9 
REMARK    5  A    between atoms: C_9  and  N_10 
REMARK    6  A    between atoms: N_13  and  C_14 
ROOT
ATOM      1  C   UNL d   1       9.111   4.947 -13.018  0.00  0.00     0.277 C 
ATOM      2  O   UNL d   1       9.857   5.900 -13.238  0.00  0.00    -0.266 OA
ATOM      3  N   UNL d   1       8.325   4.871 -11.928  0.00  0.00    -0.232 NA
ENDROOT
BRANCH   3   4
ATOM      4  C   UNL d   1       8.283   5.888 -10.884  0.00  0.00     0.164 C 
BRANCH   4   5
ATOM      5  C   UNL d   1       9.586   5.925 -10.068  0.00  0.00     0.277 C 
BRANCH   5   6
ATOM      6  N   UNL d   1       9.641   7.079  -9.175  0.00  0.00     0.143 N 
ATOM      7  C   UNL d   1       8.923   6.797  -7.926  0.00  0.00     0.274 C 
ATOM      8  C   UNL d   1       8.961   8.032  -6.999  0.00  0.00     0.137 C 
ATOM      9  N   UNL d   1      10.336   8.471  -6.792  0.00  0.00    -0.344 N 
ATOM     10  C   UNL d   1      11.152   8.632  -7.979  0.00  0.00     0.137 C 
ATOM     11  C   UNL d   1      11.037   7.377  -8.857  0.00  0.00     0.274 C 
BRANCH   9  12
ATOM     12  C   UNL d   1      10.907   8.576  -5.520  0.00  0.00     0.056 A 
ATOM     13  C   UNL d   1      11.449   7.458  -4.851  0.00  0.00     0.013 A 
ATOM     14  C   UNL d   1      12.003   7.609  -3.553  0.00  0.00    -0.020 A 
ATOM     15  C   UNL d   1      12.016   8.855  -2.929  0.00  0.00    -0.004 A 
ATOM     16  C   UNL d   1      12.583   6.447  -2.808  0.00  0.00     0.031 C 
ATOM     17  C   UNL d   1      11.461   9.949  -3.590  0.00  0.00     0.001 A 
ATOM     18  C   UNL d   1      10.925   9.831  -4.886  0.00  0.00     0.017 A 
ENDBRANCH   9  12
ENDBRANCH   5   6
ENDBRANCH   4   5
ENDBRANCH   3   4
BRANCH   1  19
ATOM     19  C   UNL d   1       9.106   3.748 -13.927  0.00  0.00     0.080 A 
ATOM     20  C   UNL d   1      10.253   3.380 -14.681  0.00  0.00     0.099 A 
ATOM     21  C   UNL d   1      10.217   2.214 -15.486  0.00  0.00     0.023 A 
ATOM     22  C   UNL d   1       9.032   1.431 -15.569  0.00  0.00     0.008 A 
ATOM     23  C   UNL d   1      11.360   1.809 -16.213  0.00  0.00     0.002 A 
ATOM     24  C   UNL d   1       7.889   1.819 -14.837  0.00  0.00     0.035 A 
ATOM     25  C   UNL d   1       9.011   0.274 -16.376  0.00  0.00     0.001 A 
ATOM     26  C   UNL d   1       7.928   2.977 -14.046  0.00  0.00     0.013 A 
ATOM     27 BR   UNL d   1       6.283   0.783 -14.833  0.00  0.00    -0.049 Br
ATOM     28  C   UNL d   1      10.149  -0.105 -17.107  0.00  0.00     0.000 A 
ATOM     29  C   UNL d   1      11.320   0.668 -17.032  0.00  0.00     0.000 A 
BRANCH  20  30
ATOM     30  O   UNL d   1      11.406   4.131 -14.618  0.00  0.00    -0.328 OA
ATOM     31  C   UNL d   1      11.572   5.011 -15.725  0.00  0.00     0.181 C 
ENDBRANCH  20  30
ENDBRANCH   1  19
TORSDOF 6
