REMARK  7 active torsions:
REMARK  status: ('A' for Active; 'I' for Inactive)
REMARK    1  A    between atoms: C_5  and  C_6 
REMARK    2  A    between atoms: C_6  and  C_7 
REMARK    3  A    between atoms: C_7  and  C_8 
REMARK    4  A    between atoms: C_8  and  C_9 
REMARK    5  A    between atoms: C_9  and  N_10 
REMARK    6  A    between atoms: N_13  and  C_14 
REMARK    7  A    between atoms: C_18  and  C_19 
ROOT
ATOM      1  N   UNL d   1       8.501   5.619 -11.317  0.00  0.00     0.141 N 
ATOM      2  C   UNL d   1       7.362   4.749 -11.599  0.00  0.00     0.274 C 
ATOM      3  C   UNL d   1       7.239   4.507 -13.115  0.00  0.00     0.138 C 
ATOM      4  N   UNL d   1       8.485   3.959 -13.659  0.00  0.00    -0.330 N 
ATOM      5  C   UNL d   1       9.664   4.743 -13.319  0.00  0.00     0.138 C 
ATOM      6  C   UNL d   1       9.714   4.977 -11.809  0.00  0.00     0.274 C 
ENDROOT
BRANCH   4   7
ATOM      7  C   UNL d   1       8.532   2.788 -14.441  0.00  0.00     0.140 A 
ATOM      8  N   UNL d   1       7.397   2.057 -14.512  0.00  0.00    -0.229 NA
ATOM      9  C   UNL d   1       7.365   0.914 -15.234  0.00  0.00     0.083 A 
ATOM     10  C   UNL d   1       8.501   0.450 -15.934  0.00  0.00     0.019 A 
ATOM     11  C   UNL d   1       9.688   1.201 -15.873  0.00  0.00     0.005 A 
ATOM     12  C   UNL d   1       9.706   2.391 -15.124  0.00  0.00     0.037 A 
BRANCH   9  13
ATOM     13  C   UNL d   1       6.074   0.190 -15.254  0.00  0.00     0.018 A 
ATOM     14  C   UNL d   1       5.159   0.275 -14.172  0.00  0.00     0.002 A 
ATOM     15  C   UNL d   1       3.927  -0.411 -14.206  0.00  0.00     0.000 A 
ATOM     16  C   UNL d   1       3.601  -1.211 -15.317  0.00  0.00     0.000 A 
ATOM     17  C   UNL d   1       4.496  -1.314 -16.392  0.00  0.00     0.000 A 
ATOM     18  C   UNL d   1       5.716  -0.616 -16.363  0.00  0.00     0.002 A 
ENDBRANCH   9  13
ENDBRANCH   4   7
BRANCH   1  19
ATOM     19  C   UNL d   1       8.617   5.836  -9.874  0.00  0.00     0.250 C 
BRANCH  19  20
ATOM     20  C   UNL d   1       9.485   7.071  -9.543  0.00  0.00     0.036 C 
BRANCH  20  21
ATOM     21  C   UNL d   1       9.607   7.284  -8.030  0.00  0.00     0.007 C 
BRANCH  21  22
ATOM     22  C   UNL d   1      10.652   8.357  -7.661  0.00  0.00     0.026 C 
BRANCH  22  23
ATOM     23  C   UNL d   1      11.059   8.331  -6.193  0.00  0.00    -0.022 A 
ATOM     24  C   UNL d   1      11.078   9.522  -5.436  0.00  0.00    -0.002 A 
ATOM     25  C   UNL d   1      11.476   9.492  -4.082  0.00  0.00     0.029 A 
ATOM     26  C   UNL d   1      11.865   8.280  -3.482  0.00  0.00     0.140 A 
ATOM     27  F   UNL d   1      12.256   8.252  -2.185  0.00  0.00    -0.204 F 
ATOM     28  C   UNL d   1      11.851   7.090  -4.234  0.00  0.00     0.029 A 
ATOM     29  C   UNL d   1      11.456   7.117  -5.583  0.00  0.00    -0.002 A 
ENDBRANCH  22  23
ENDBRANCH  21  22
ENDBRANCH  20  21
ENDBRANCH  19  20
ENDBRANCH   1  19
TORSDOF 7
