REMARK  13 active torsions:
REMARK  status: ('A' for Active; 'I' for Inactive)
REMARK    1  A    between atoms: C_9  and  C_10 
REMARK    2  A    between atoms: C_10  and  C_12 
REMARK    3  A    between atoms: C_12  and  N_13 
REMARK    4  A    between atoms: N_13  and  C_14 
REMARK    5  A    between atoms: C_14  and  C_15 
REMARK    6  A    between atoms: C_15  and  C_16 
REMARK    7  A    between atoms: C_16  and  O_17 
REMARK    8  A    between atoms: O_17  and  C_18 
REMARK    9  A    between atoms: C_18  and  C_19 
REMARK   10  A    between atoms: C_19  and  O_20 
REMARK   11  A    between atoms: O_20  and  C_21 
REMARK   12  A    between atoms: C_21  and  C_22 
REMARK   13  A    between atoms: C_22  and  C_23 
ROOT
ATOM      1  N   UNL d   1       8.749   2.767 -14.060  0.00  0.00     0.342 N 
ENDROOT
BRANCH   1   2
ATOM      2  C   UNL d   1       8.062   2.307 -15.258  0.00  0.00     0.327 C 
BRANCH   2   3
ATOM      3  C   UNL d   1       8.326   0.816 -15.522  0.00  0.00     0.211 C 
ATOM      4  O   UNL d   1       9.614   0.704 -16.102  0.00  0.00    -0.216 OA
BRANCH   3   5
ATOM      5  C   UNL d   1       7.230   0.231 -16.404  0.00  0.00     0.018 A 
ATOM      6  C   UNL d   1       7.378   0.099 -17.806  0.00  0.00     0.001 A 
ATOM      7  C   UNL d   1       6.337  -0.440 -18.599  0.00  0.00     0.029 A 
ATOM      8  C   UNL d   1       5.125  -0.860 -18.007  0.00  0.00     0.149 A 
ATOM      9  C   UNL d   1       4.990  -0.738 -16.617  0.00  0.00     0.116 A 
ATOM     10  O   UNL d   1       4.106  -1.357 -18.767  0.00  0.00    -0.189 OA
ATOM     11  N   UNL d   1       3.863  -1.104 -15.854  0.00  0.00    -0.200 NA
ATOM     12  C   UNL d   1       6.004  -0.192 -15.838  0.00  0.00     0.052 A 
ATOM     13  C   UNL d   1       3.926  -0.811 -14.504  0.00  0.00     0.311 A 
ATOM     14  O   UNL d   1       3.067  -0.976 -13.644  0.00  0.00    -0.258 OA
ATOM     15  S   UNL d   1       5.546  -0.084 -14.156  0.00  0.00    -0.024 SA
ENDBRANCH   3   5
ENDBRANCH   2   3
ENDBRANCH   1   2
BRANCH   1  16
ATOM     16  C   UNL d   1       8.454   4.150 -13.714  0.00  0.00     0.293 C 
BRANCH  16  17
ATOM     17  C   UNL d   1       9.159   4.527 -12.413  0.00  0.00     0.070 C 
BRANCH  17  18
ATOM     18  C   UNL d   1       9.012   6.021 -12.063  0.00  0.00     0.145 C 
BRANCH  18  19
ATOM     19  O   UNL d   1       9.451   6.306 -10.739  0.00  0.00    -0.351 OA
BRANCH  19  20
ATOM     20  C   UNL d   1       8.620   5.738  -9.724  0.00  0.00     0.174 C 
BRANCH  20  21
ATOM     21  C   UNL d   1       8.726   6.535  -8.430  0.00  0.00     0.174 C 
BRANCH  21  22
ATOM     22  O   UNL d   1       9.946   6.245  -7.774  0.00  0.00    -0.351 OA
BRANCH  22  23
ATOM     23  C   UNL d   1      10.024   6.911  -6.528  0.00  0.00     0.147 C 
BRANCH  23  24
ATOM     24  C   UNL d   1      11.491   6.970  -6.141  0.00  0.00     0.058 C 
BRANCH  24  25
ATOM     25  C   UNL d   1      11.706   7.607  -4.782  0.00  0.00    -0.020 A 
ATOM     26  C   UNL d   1      11.627   9.007  -4.622  0.00  0.00    -0.004 A 
ATOM     27  C   UNL d   1      11.860   9.581  -3.357  0.00  0.00    -0.000 A 
ATOM     28  C   UNL d   1      12.192   8.765  -2.259  0.00  0.00    -0.000 A 
ATOM     29  C   UNL d   1      12.264   7.368  -2.419  0.00  0.00    -0.000 A 
ATOM     30  C   UNL d   1      12.017   6.792  -3.675  0.00  0.00    -0.004 A 
ENDBRANCH  24  25
ENDBRANCH  23  24
ENDBRANCH  22  23
ENDBRANCH  21  22
ENDBRANCH  20  21
ENDBRANCH  19  20
ENDBRANCH  18  19
ENDBRANCH  17  18
ENDBRANCH  16  17
ENDBRANCH   1  16
TORSDOF 13
