REMARK  9 active torsions:
REMARK  status: ('A' for Active; 'I' for Inactive)
REMARK    1  A    between atoms: O_2  and  C_3 
REMARK    2  A    between atoms: C_9  and  N_10 
REMARK    3  A    between atoms: N_13  and  C_14 
REMARK    4  A    between atoms: C_14  and  C_15 
REMARK    5  A    between atoms: C_15  and  C_16 
REMARK    6  A    between atoms: C_16  and  C_17 
REMARK    7  A    between atoms: C_17  and  N_18 
REMARK       I    between atoms: N_18  and  C_19 
REMARK    8  A    between atoms: C_19  and  C_21 
REMARK    9  A    between atoms: C_24  and  N_25 
ROOT
ATOM      1  C   UNL d   1      10.178   3.946 -14.475  0.00  0.00     0.251 C 
ENDROOT
BRANCH   1   2
ATOM      2  N   UNL d   1      11.259   2.975 -14.648  0.00  0.00     0.141 N 
ATOM      3  C   UNL d   1      11.993   3.260 -15.884  0.00  0.00     0.274 C 
ATOM      4  C   UNL d   1      11.056   3.126 -17.105  0.00  0.00     0.138 C 
ATOM      5  N   UNL d   1      10.484   1.786 -17.100  0.00  0.00    -0.328 N 
ATOM      6  C   UNL d   1       9.827   1.337 -15.878  0.00  0.00     0.138 C 
ATOM      7  C   UNL d   1      10.776   1.582 -14.686  0.00  0.00     0.274 C 
BRANCH   5   8
ATOM      8  C   UNL d   1      10.569   0.932 -18.207  0.00  0.00     0.169 A 
ATOM      9  N   UNL d   1       9.658  -0.002 -18.453  0.00  0.00    -0.109 NA
ATOM     10  O   UNL d   1      10.060  -0.647 -19.652  0.00  0.00    -0.210 OA
ATOM     11  C   UNL d   1      11.239  -0.097 -20.118  0.00  0.00     0.128 A 
ATOM     12  C   UNL d   1      12.025  -0.407 -21.240  0.00  0.00     0.029 A 
ATOM     13  C   UNL d   1      11.580   0.898 -19.199  0.00  0.00     0.063 A 
ATOM     14  C   UNL d   1      13.202   0.331 -21.444  0.00  0.00     0.026 A 
ATOM     15  C   UNL d   1      13.590   1.356 -20.531  0.00  0.00     0.094 A 
ATOM     16  C   UNL d   1      12.784   1.626 -19.387  0.00  0.00     0.029 A 
BRANCH  15  17
ATOM     17  O   UNL d   1      14.726   2.111 -20.699  0.00  0.00    -0.328 OA
ATOM     18  C   UNL d   1      15.481   1.899 -21.889  0.00  0.00     0.181 C 
ENDBRANCH  15  17
ENDBRANCH   5   8
ENDBRANCH   1   2
BRANCH   1  19
ATOM     19  C   UNL d   1       9.540   3.870 -13.095  0.00  0.00     0.037 C 
BRANCH  19  20
ATOM     20  C   UNL d   1       8.191   4.606 -13.088  0.00  0.00     0.029 C 
BRANCH  20  21
ATOM     21  C   UNL d   1       7.632   4.705 -11.659  0.00  0.00     0.129 C 
BRANCH  21  22
ATOM     22  N   UNL d   1       8.518   5.373 -10.708  0.00  0.00    -0.234 NA
ATOM     23  C   UNL d   1       9.179   6.524 -10.943  0.00  0.00     0.275 C 
ATOM     24  O   UNL d   1       9.312   7.028 -12.053  0.00  0.00    -0.266 OA
BRANCH  23  25
ATOM     25  C   UNL d   1       9.770   7.186  -9.728  0.00  0.00     0.058 A 
ATOM     26  C   UNL d   1      10.872   8.053  -9.881  0.00  0.00     0.006 A 
ATOM     27  C   UNL d   1      11.342   8.800  -8.785  0.00  0.00     0.017 A 
ATOM     28  C   UNL d   1      10.715   8.698  -7.527  0.00  0.00     0.056 A 
ATOM     29  C   UNL d   1       9.597   7.843  -7.367  0.00  0.00     0.017 A 
ATOM     30  C   UNL d   1       9.143   7.082  -8.467  0.00  0.00     0.006 A 
BRANCH  28  31
ATOM     31  N   UNL d   1      11.210   9.473  -6.454  0.00  0.00    -0.343 N 
ATOM     32  C   UNL d   1      10.363   9.953  -5.396  0.00  0.00     0.134 C 
ATOM     33  C   UNL d   1      10.900   9.469  -4.041  0.00  0.00     0.167 C 
ATOM     34  O   UNL d   1      12.262   9.830  -3.876  0.00  0.00    -0.350 OA
ATOM     35  C   UNL d   1      13.062   9.246  -4.891  0.00  0.00     0.167 C 
ATOM     36  C   UNL d   1      12.624   9.711  -6.292  0.00  0.00     0.134 C 
ENDBRANCH  28  31
ENDBRANCH  23  25
ENDBRANCH  21  22
ENDBRANCH  20  21
ENDBRANCH  19  20
ENDBRANCH   1  19
TORSDOF 9
