REMARK  2 active torsions:
REMARK  status: ('A' for Active; 'I' for Inactive)
REMARK    1  A    between atoms: C_2  and  N_3 
REMARK    2  A    between atoms: N_3  and  C_5 
ROOT
ATOM      1  C   UNL d   1      12.581   7.891  -4.008  0.00  0.00     0.224 C 
ATOM      2  C   UNL d   1      12.328   9.392  -4.261  0.00  0.00     0.038 C 
ATOM      3  C   UNL d   1      12.323   9.719  -5.754  0.00  0.00     0.028 C 
ATOM      4  C   UNL d   1      11.538   8.736  -6.613  0.00  0.00    -0.026 A 
ATOM      5  C   UNL d   1      11.125   9.108  -7.916  0.00  0.00    -0.003 A 
ATOM      6  C   UNL d   1      10.443   8.199  -8.742  0.00  0.00     0.027 A 
ATOM      7  C   UNL d   1      10.095   6.940  -8.254  0.00  0.00     0.131 A 
ATOM      8  O   UNL d   1       9.377   6.067  -9.019  0.00  0.00    -0.190 OA
ATOM      9  C   UNL d   1      10.491   6.567  -6.962  0.00  0.00     0.023 A 
ATOM     10  C   UNL d   1      11.235   7.451  -6.154  0.00  0.00    -0.022 A 
ATOM     11  C   UNL d   1      11.559   7.010  -4.752  0.00  0.00     0.059 C 
ENDROOT
BRANCH   1  12
ATOM     12  N   UNL d   1      12.654   7.557  -2.579  0.00  0.00     0.137 N 
ATOM     13  C   UNL d   1      13.059   6.177  -2.331  0.00  0.00     0.285 C 
BRANCH  12  14
ATOM     14  C   UNL d   1      11.456   7.877  -1.809  0.00  0.00     0.250 C 
ATOM     15  C   UNL d   1      10.424   6.700  -1.639  0.00  0.00     0.037 C 
ENDBRANCH  12  14
ENDBRANCH   1  12
TORSDOF 2
