REMARK  6 active torsions:
REMARK  status: ('A' for Active; 'I' for Inactive)
REMARK    1  A    between atoms: O_2  and  C_3 
REMARK    2  A    between atoms: C_3  and  C_5 
REMARK    3  A    between atoms: C_8  and  O_9 
REMARK    4  A    between atoms: O_9  and  C_10 
REMARK    5  A    between atoms: C_10  and  C_11 
REMARK    6  A    between atoms: N_16  and  C_17 
ROOT
ATOM      1  C   UNL d   1       8.524   5.119 -12.181  0.00  0.00     0.064 C 
ATOM      2  C   UNL d   1       9.884   5.286 -12.865  0.00  0.00     0.007 C 
ATOM      3  C   UNL d   1      10.388   3.971 -13.420  0.00  0.00     0.035 C 
ATOM      4  C   UNL d   1       9.354   3.350 -14.372  0.00  0.00     0.242 C 
ATOM      5  C   UNL d   1       9.909   1.994 -14.887  0.00  0.00     0.153 C 
ATOM      6  N   UNL d   1       8.929   1.363 -15.758  0.00  0.00    -0.179 N 
ATOM      7  C   UNL d   1       7.644   1.169 -15.098  0.00  0.00     0.155 C 
ATOM      8  C   UNL d   1       7.121   2.510 -14.519  0.00  0.00     0.275 C 
ATOM      9  N   UNL d   1       8.097   3.165 -13.657  0.00  0.00     0.139 N 
ATOM     10  C   UNL d   1       7.556   4.411 -13.158  0.00  0.00     0.253 C 
ENDROOT
BRANCH   1  11
ATOM     11  C   UNL d   1       7.994   6.490 -11.716  0.00  0.00     0.151 C 
BRANCH  11  12
ATOM     12  O   UNL d   1       9.069   7.386 -11.401  0.00  0.00    -0.331 OA
BRANCH  12  13
ATOM     13  C   UNL d   1       9.593   7.425 -10.125  0.00  0.00     0.094 A 
ATOM     14  C   UNL d   1      10.476   8.485  -9.838  0.00  0.00     0.024 A 
ATOM     15  C   UNL d   1      10.976   8.674  -8.537  0.00  0.00     0.007 A 
ATOM     16  C   UNL d   1      10.604   7.794  -7.497  0.00  0.00     0.063 A 
ATOM     17  C   UNL d   1       9.728   6.722  -7.785  0.00  0.00     0.007 A 
ATOM     18  C   UNL d   1       9.236   6.530  -9.086  0.00  0.00     0.024 A 
BRANCH  16  19
ATOM     19  C   UNL d   1      11.143   8.012  -6.130  0.00  0.00     0.296 C 
ATOM     20  O   UNL d   1      11.735   9.038  -5.783  0.00  0.00    -0.259 OA
BRANCH  19  21
ATOM     21  O   UNL d   1      10.966   6.945  -5.329  0.00  0.00    -0.296 OA
ATOM     22  C   UNL d   1      11.572   6.914  -4.051  0.00  0.00     0.185 C 
ENDBRANCH  19  21
ENDBRANCH  16  19
ENDBRANCH  12  13
ENDBRANCH  11  12
ENDBRANCH   1  11
BRANCH   6  23
ATOM     23  C   UNL d   1       9.198   1.007 -17.093  0.00  0.00     0.727 A 
ATOM     24  N   UNL d   1       8.149   0.930 -17.916  0.00  0.00    -0.060 NA
ATOM     25  C   UNL d   1       8.395   0.567 -19.189  0.00  0.00     0.120 A 
ATOM     26  C   UNL d   1       9.696   0.291 -19.647  0.00  0.00     0.043 A 
ATOM     27  C   UNL d   1      10.724   0.414 -18.694  0.00  0.00     0.120 A 
ATOM     28  N   UNL d   1      10.469   0.772 -17.421  0.00  0.00    -0.060 NA
ENDBRANCH   6  23
TORSDOF 6
