REMARK  3 active torsions:
REMARK  status: ('A' for Active; 'I' for Inactive)
REMARK    1  A    between atoms: C_2  and  C_3 
REMARK    2  A    between atoms: C_2  and  C_9 
REMARK    3  A    between atoms: C_16  and  C_17 
ROOT
ATOM      1  C   UNL d   1      10.407   7.262  -8.404  0.00  0.00     0.099 A 
ATOM      2  C   UNL d   1      10.323   5.924  -8.104  0.00  0.00     0.022 A 
ATOM      3  C   UNL d   1       9.741   5.210  -9.187  0.00  0.00     0.015 A 
ATOM      4  C   UNL d   1       9.563   6.119 -10.172  0.00  0.00     0.047 A 
ATOM      5  N   UNL d   1       9.967   7.340  -9.720  0.00  0.00    -0.328 N 
ATOM      6  C   UNL d   1       9.861   8.395 -10.685  0.00  0.00     0.107 A 
ATOM      7  C   UNL d   1       9.283   7.689 -11.940  0.00  0.00     0.041 A 
ATOM      8  C   UNL d   1       9.095   6.184 -11.576  0.00  0.00     0.127 A 
ENDROOT
BRANCH   1   9
ATOM      9  C   UNL d   1      10.893   8.450  -7.657  0.00  0.00     0.211 C 
ATOM     10  O   UNL d   1      11.005   9.531  -8.227  0.00  0.00    -0.285 OA
BRANCH   9  11
ATOM     11  C   UNL d   1      11.330   8.332  -6.231  0.00  0.00     0.040 C 
ATOM     12  C   UNL d   1      10.929   7.271  -5.382  0.00  0.00     0.003 C 
ATOM     13  C   UNL d   1      11.485   7.101  -4.103  0.00  0.00     0.000 C 
ATOM     14  C   UNL d   1      12.331   8.081  -3.572  0.00  0.00     0.000 C 
ATOM     15  C   UNL d   1      12.664   9.202  -4.358  0.00  0.00     0.000 C 
ATOM     16  C   UNL d   1      12.186   9.328  -5.695  0.00  0.00     0.003 C 
ENDBRANCH   9  11
ENDBRANCH   1   9
BRANCH   8  17
ATOM     17  C   UNL d   1       7.648   5.674 -11.670  0.00  0.00     0.191 C 
ATOM     18  O   UNL d   1       6.760   6.224 -12.315  0.00  0.00    -0.647 OA
ATOM     19  O   UNL d   1       7.461   4.541 -10.935  0.00  0.00    -0.647 OA
ENDBRANCH   8  17
TORSDOF 3
