REMARK  7 active torsions:
REMARK  status: ('A' for Active; 'I' for Inactive)
REMARK    1  A    between atoms: C_2  and  C_4 
REMARK    2  A    between atoms: C_4  and  O_5 
REMARK    3  A    between atoms: O_5  and  C_6 
REMARK       I    between atoms: C_6  and  N_8 
REMARK    4  A    between atoms: N_8  and  C_9 
REMARK    5  A    between atoms: C_12  and  C_13 
REMARK    6  A    between atoms: C_13  and  C_14 
REMARK    7  A    between atoms: C_14  and  N_15 
ROOT
ATOM      1  C   UNL d   1       9.758   6.868  -9.794  0.00  0.00     0.109 C 
ATOM      2  C   UNL d   1       8.659   5.846  -9.471  0.00  0.00     0.025 C 
ATOM      3  C   UNL d   1       8.526   4.798 -10.585  0.00  0.00     0.002 C 
ATOM      4  C   UNL d   1       8.317   5.456 -11.970  0.00  0.00     0.002 C 
ATOM      5  C   UNL d   1       9.442   6.471 -12.250  0.00  0.00     0.002 C 
ATOM      6  C   UNL d   1       9.550   7.528 -11.164  0.00  0.00     0.025 C 
ENDROOT
BRANCH   4   7
ATOM      7  C   UNL d   1       8.202   4.408 -13.095  0.00  0.00     0.035 C 
BRANCH   7   8
ATOM      8  C   UNL d   1       9.446   3.507 -13.238  0.00  0.00     0.251 C 
BRANCH   8   9
ATOM      9  N   UNL d   1       9.492   2.826 -14.537  0.00  0.00     0.142 N 
ATOM     10  C   UNL d   1       8.406   1.850 -14.625  0.00  0.00     0.276 C 
ATOM     11  C   UNL d   1       8.451   1.026 -15.899  0.00  0.00     0.007 A 
ATOM     12  C   UNL d   1       9.667   0.875 -16.604  0.00  0.00    -0.022 A 
ATOM     13  C   UNL d   1       7.286   0.378 -16.355  0.00  0.00    -0.003 A 
ATOM     14  C   UNL d   1      10.907   1.613 -16.125  0.00  0.00     0.061 C 
ATOM     15  C   UNL d   1       9.713   0.076 -17.764  0.00  0.00    -0.004 A 
ATOM     16  C   UNL d   1      10.769   2.127 -14.680  0.00  0.00     0.255 C 
ATOM     17  C   UNL d   1       8.547  -0.572 -18.215  0.00  0.00    -0.000 A 
ATOM     18  C   UNL d   1       7.335  -0.416 -17.516  0.00  0.00    -0.000 A 
ENDBRANCH   8   9
ENDBRANCH   7   8
ENDBRANCH   4   7
BRANCH   1  19
ATOM     19  N   UNL d   1       9.796   7.913  -8.769  0.00  0.00    -0.214 NA
ATOM     20  C   UNL d   1      10.804   8.065  -7.825  0.00  0.00     0.384 C 
ATOM     21  O   UNL d   1      11.777   7.323  -7.667  0.00  0.00    -0.236 OA
BRANCH  20  22
ATOM     22  O   UNL d   1      10.595   9.155  -7.093  0.00  0.00    -0.284 OA
BRANCH  22  23
ATOM     23  C   UNL d   1      11.520   9.484  -6.075  0.00  0.00     0.154 C 
BRANCH  23  24
ATOM     24  C   UNL d   1      11.210   8.744  -4.752  0.00  0.00     0.030 C 
ATOM     25  C   UNL d   1      12.301   8.993  -3.701  0.00  0.00     0.003 C 
ATOM     26  C   UNL d   1      11.022   7.224  -4.947  0.00  0.00     0.003 C 
ENDBRANCH  23  24
ENDBRANCH  22  23
ENDBRANCH  20  22
ENDBRANCH   1  19
TORSDOF 7
