REMARK  0 active torsions:
REMARK  status: ('A' for Active; 'I' for Inactive)
ROOT
ATOM      1  C   UNL d   1      12.426   9.622  -6.245  0.00  0.00     0.038 C 
ATOM      2  C   UNL d   1      11.441   8.680  -6.832  0.00  0.00     0.005 A 
ATOM      3  S   UNL d   1      10.266   7.874  -5.807  0.00  0.00    -0.094 SA
ATOM      4  C   UNL d   1       9.531   7.098  -7.185  0.00  0.00     0.023 A 
ATOM      5  C   UNL d   1       8.367   6.196  -7.089  0.00  0.00     0.040 C 
ATOM      6  C   UNL d   1      10.250   7.381  -8.292  0.00  0.00     0.065 A 
ATOM      7  C   UNL d   1      11.343   8.245  -8.126  0.00  0.00    -0.004 A 
ATOM      8  C   UNL d   1      12.246   8.578  -9.252  0.00  0.00     0.029 C 
ATOM      9  C   UNL d   1      11.540   9.341 -10.369  0.00  0.00     0.013 C 
ATOM     10  C   UNL d   1      10.074   8.929 -10.743  0.00  0.00     0.067 C 
ATOM     11  C   UNL d   1       9.775   7.478 -10.704  0.00  0.00     0.147 A 
ATOM     12  N   UNL d   1       9.430   6.741 -11.757  0.00  0.00    -0.133 NA
ATOM     13  N   UNL d   1       9.220   5.476 -11.246  0.00  0.00    -0.126 NA
ATOM     14  C   UNL d   1       9.500   5.601  -9.942  0.00  0.00     0.207 A 
ATOM     15  N   UNL d   1       9.863   6.831  -9.552  0.00  0.00    -0.275 N 
ENDROOT
TORSDOF 0
