REMARK  7 active torsions:
REMARK  status: ('A' for Active; 'I' for Inactive)
REMARK    1  A    between atoms: O_2  and  C_3 
REMARK    2  A    between atoms: N_11  and  C_12 
REMARK    3  A    between atoms: C_12  and  C_13 
REMARK    4  A    between atoms: C_18  and  C_19 
REMARK    5  A    between atoms: C_19  and  N_20 
REMARK       I    between atoms: N_20  and  C_21 
REMARK    6  A    between atoms: C_21  and  C_23 
REMARK    7  A    between atoms: C_28  and  O_29 
ROOT
ATOM      1  C   UNL d   1       8.201   5.231 -12.768  0.00  0.00     0.009 A 
ATOM      2  C   UNL d   1       6.837   5.494 -12.515  0.00  0.00    -0.003 A 
ATOM      3  C   UNL d   1       5.853   4.572 -12.922  0.00  0.00    -0.000 A 
ATOM      4  C   UNL d   1       6.218   3.382 -13.574  0.00  0.00    -0.000 A 
ATOM      5  C   UNL d   1       7.573   3.120 -13.833  0.00  0.00    -0.003 A 
ATOM      6  C   UNL d   1       8.572   4.024 -13.419  0.00  0.00     0.000 A 
ENDROOT
BRANCH   1   7
ATOM      7  C   UNL d   1       9.239   6.228 -12.272  0.00  0.00     0.277 C 
BRANCH   7   8
ATOM      8  N   UNL d   1       9.220   6.431 -10.821  0.00  0.00     0.146 N 
ATOM      9  C   UNL d   1      10.352   7.288 -10.449  0.00  0.00     0.277 C 
ATOM     10  C   UNL d   1      10.514   7.508  -8.956  0.00  0.00     0.009 A 
ATOM     11  C   UNL d   1       9.915   6.602  -8.063  0.00  0.00    -0.020 A 
ATOM     12  C   UNL d   1      11.314   8.556  -8.454  0.00  0.00     0.027 A 
ATOM     13  C   UNL d   1      10.079   6.770  -6.676  0.00  0.00     0.022 A 
ATOM     14  C   UNL d   1       9.066   5.461  -8.594  0.00  0.00     0.061 C 
ATOM     15  C   UNL d   1      10.883   7.804  -6.162  0.00  0.00     0.119 A 
ATOM     16  C   UNL d   1      11.482   8.707  -7.057  0.00  0.00     0.153 A 
ATOM     17  O   UNL d   1      12.259   9.705  -6.549  0.00  0.00    -0.188 OA
ATOM     18  C   UNL d   1       9.295   5.171 -10.078  0.00  0.00     0.256 C 
BRANCH  15  19
ATOM     19  O   UNL d   1      11.117   7.975  -4.820  0.00  0.00    -0.326 OA
ATOM     20  C   UNL d   1      11.211   6.811  -4.014  0.00  0.00     0.181 C 
ENDBRANCH  15  19
ENDBRANCH   7   8
ENDBRANCH   1   7
BRANCH   6  21
ATOM     21  C   UNL d   1      10.025   3.643 -13.672  0.00  0.00     0.155 C 
BRANCH  21  22
ATOM     22  N   UNL d   1      10.636   4.453 -14.717  0.00  0.00    -0.229 NA
ATOM     23  C   UNL d   1      10.364   4.372 -16.027  0.00  0.00     0.277 C 
ATOM     24  O   UNL d   1       9.539   3.591 -16.503  0.00  0.00    -0.266 OA
BRANCH  23  25
ATOM     25  C   UNL d   1      11.146   5.343 -16.875  0.00  0.00     0.080 A 
ATOM     26  C   UNL d   1      10.576   5.951 -18.027  0.00  0.00     0.099 A 
ATOM     27  C   UNL d   1      11.375   6.840 -18.796  0.00  0.00     0.024 A 
ATOM     28  C   UNL d   1      12.701   7.128 -18.429  0.00  0.00     0.002 A 
ATOM     29  C   UNL d   1      13.260   6.524 -17.292  0.00  0.00     0.000 A 
ATOM     30  C   UNL d   1      12.490   5.632 -16.527  0.00  0.00     0.007 A 
BRANCH  26  31
ATOM     31  O   UNL d   1       9.263   5.664 -18.351  0.00  0.00    -0.328 OA
ATOM     32  C   UNL d   1       8.688   6.293 -19.489  0.00  0.00     0.181 C 
ENDBRANCH  26  31
ENDBRANCH  23  25
ENDBRANCH  21  22
ENDBRANCH   6  21
TORSDOF 7
