REMARK  6 active torsions:
REMARK  status: ('A' for Active; 'I' for Inactive)
REMARK    1  A    between atoms: C_2  and  C_3 
REMARK    2  A    between atoms: C_2  and  C_21 
REMARK    3  A    between atoms: C_3  and  C_4 
REMARK    4  A    between atoms: C_4  and  C_5 
REMARK    5  A    between atoms: C_5  and  N_6 
REMARK    6  A    between atoms: C_9  and  C_11 
ROOT
ATOM      1  N   UNL d   1       9.471   6.649 -10.300  0.00  0.00     0.137 N 
ATOM      2  C   UNL d   1       9.177   7.300 -11.573  0.00  0.00     0.253 C 
ATOM      3  C   UNL d   1       9.067   6.249 -12.664  0.00  0.00     0.070 C 
ATOM      4  C   UNL d   1       7.992   5.179 -12.409  0.00  0.00     0.150 C 
ATOM      5  O   UNL d   1       6.769   5.923 -12.420  0.00  0.00    -0.221 OA
ATOM      6  C   UNL d   1       8.242   4.615 -10.997  0.00  0.00     0.070 C 
ATOM      7  C   UNL d   1       8.406   5.711  -9.937  0.00  0.00     0.253 C 
ENDROOT
BRANCH   1   8
ATOM      8  C   UNL d   1       9.594   7.693  -9.297  0.00  0.00     0.251 C 
BRANCH   8   9
ATOM      9  C   UNL d   1      11.087   8.018  -9.094  0.00  0.00     0.043 C 
BRANCH   9  10
ATOM     10  C   UNL d   1      11.441   8.467  -7.667  0.00  0.00     0.071 C 
BRANCH  10  11
ATOM     11  C   UNL d   1      11.069   7.457  -6.564  0.00  0.00     0.173 C 
ATOM     12  O   UNL d   1      10.580   6.385  -6.842  0.00  0.00    -0.291 OA
BRANCH  11  13
ATOM     13  C   UNL d   1      11.455   7.819  -5.170  0.00  0.00     0.035 A 
ATOM     14  C   UNL d   1      11.456   6.789  -4.198  0.00  0.00     0.005 A 
ATOM     15  C   UNL d   1      11.864   7.046  -2.873  0.00  0.00     0.030 A 
ATOM     16  C   UNL d   1      12.262   8.345  -2.512  0.00  0.00     0.140 A 
ATOM     17  C   UNL d   1      12.246   9.378  -3.473  0.00  0.00     0.030 A 
ATOM     18  F   UNL d   1      12.674   8.591  -1.251  0.00  0.00    -0.204 F 
ATOM     19  C   UNL d   1      11.853   9.119  -4.798  0.00  0.00     0.005 A 
ENDBRANCH  11  13
ENDBRANCH  10  11
ENDBRANCH   9  10
ENDBRANCH   8   9
ENDBRANCH   1   8
BRANCH   4  20
ATOM     20  C   UNL d   1       8.015   4.047 -13.462  0.00  0.00     0.017 A 
ATOM     21  C   UNL d   1       6.911   3.164 -13.655  0.00  0.00     0.056 A 
ATOM     22  C   UNL d   1       6.984   2.139 -14.621  0.00  0.00     0.012 A 
ATOM     23 CL   UNL d   1       5.460   3.232 -12.703  0.00  0.00    -0.083 Cl
ATOM     24  C   UNL d   1       8.134   1.962 -15.409  0.00  0.00     0.012 A 
ATOM     25  C   UNL d   1       9.235   2.811 -15.222  0.00  0.00     0.058 A 
ATOM     26  C   UNL d   1       9.177   3.836 -14.265  0.00  0.00     0.010 A 
ATOM     27 CL   UNL d   1      10.660   2.616 -16.175  0.00  0.00    -0.082 Cl
ENDBRANCH   4  20
TORSDOF 6
