REMARK  7 active torsions:
REMARK  status: ('A' for Active; 'I' for Inactive)
REMARK    1  A    between atoms: C_8  and  N_9 
REMARK    2  A    between atoms: N_12  and  C_13 
REMARK    3  A    between atoms: C_13  and  C_14 
REMARK    4  A    between atoms: C_14  and  C_15 
REMARK    5  A    between atoms: C_15  and  C_16 
REMARK    6  A    between atoms: C_16  and  O_17 
REMARK    7  A    between atoms: O_17  and  C_18 
ROOT
ATOM      1  C   UNL d   1       7.885   5.193 -13.169  0.00  0.00     0.251 C 
ENDROOT
BRANCH   1   2
ATOM      2  N   UNL d   1       9.220   5.759 -13.027  0.00  0.00     0.141 N 
ATOM      3  C   UNL d   1       9.171   7.160 -12.596  0.00  0.00     0.274 C 
ATOM      4  C   UNL d   1       8.540   7.240 -11.236  0.00  0.00     0.137 C 
ATOM      5  N   UNL d   1       9.158   6.399 -10.202  0.00  0.00    -0.344 N 
ATOM      6  C   UNL d   1       9.345   5.029 -10.617  0.00  0.00     0.137 C 
ATOM      7  C   UNL d   1      10.026   5.056 -12.026  0.00  0.00     0.274 C 
BRANCH   5   8
ATOM      8  C   UNL d   1       9.482   6.874  -8.921  0.00  0.00     0.053 A 
ATOM      9  C   UNL d   1      10.255   8.059  -8.746  0.00  0.00     0.004 A 
ATOM     10  C   UNL d   1      10.760   8.879  -9.919  0.00  0.00     0.033 C 
ATOM     11  C   UNL d   1      10.555   8.502  -7.435  0.00  0.00     0.055 A 
ATOM     12 CL   UNL d   1      11.400   9.979  -7.101  0.00  0.00    -0.083 Cl
ATOM     13  C   UNL d   1      10.173   7.778  -6.301  0.00  0.00     0.011 A 
ATOM     14  C   UNL d   1       9.423   6.621  -6.479  0.00  0.00     0.002 A 
ATOM     15  C   UNL d   1       9.080   6.170  -7.761  0.00  0.00     0.017 A 
ENDBRANCH   5   8
ENDBRANCH   1   2
BRANCH   1  16
ATOM     16  C   UNL d   1       7.938   3.671 -13.242  0.00  0.00     0.038 C 
BRANCH  16  17
ATOM     17  C   UNL d   1       7.261   3.171 -14.480  0.00  0.00     0.035 C 
BRANCH  17  18
ATOM     18  C   UNL d   1       6.968   1.672 -14.383  0.00  0.00     0.151 C 
BRANCH  18  19
ATOM     19  O   UNL d   1       6.395   1.136 -15.579  0.00  0.00    -0.315 OA
BRANCH  19  20
ATOM     20  C   UNL d   1       7.264   0.749 -16.572  0.00  0.00     0.179 A 
ATOM     21  N   UNL d   1       8.474   1.323 -16.560  0.00  0.00    -0.204 NA
ATOM     22  C   UNL d   1       9.384   0.939 -17.449  0.00  0.00     0.163 A 
ATOM     23  C   UNL d   1       9.141  -0.059 -18.418  0.00  0.00     0.014 A 
ATOM     24  N   UNL d   1      10.609   1.605 -17.407  0.00  0.00    -0.193 NA
ATOM     25  C   UNL d   1       7.863  -0.650 -18.448  0.00  0.00     0.002 A 
ATOM     26  C   UNL d   1      10.214  -0.415 -19.424  0.00  0.00     0.039 C 
ATOM     27  C   UNL d   1       6.899  -0.228 -17.514  0.00  0.00     0.044 A 
ATOM     28  C   UNL d   1      11.635   0.002 -18.969  0.00  0.00     0.095 C 
ATOM     29  C   UNL d   1      11.690   1.286 -18.124  0.00  0.00     0.257 C 
ATOM     30  O   UNL d   1      12.717   1.964 -18.101  0.00  0.00    -0.270 OA
ENDBRANCH  19  20
ENDBRANCH  18  19
ENDBRANCH  17  18
ENDBRANCH  16  17
ENDBRANCH   1  16
TORSDOF 7
