REMARK  7 active torsions:
REMARK  status: ('A' for Active; 'I' for Inactive)
REMARK       I    between atoms: C_2  and  N_3 
REMARK    1  A    between atoms: C_2  and  C_27 
REMARK    2  A    between atoms: N_3  and  C_4 
REMARK    3  A    between atoms: C_7  and  C_8 
REMARK    4  A    between atoms: C_8  and  C_9 
REMARK    5  A    between atoms: C_9  and  N_10 
REMARK    6  A    between atoms: C_13  and  C_14 
REMARK    7  A    between atoms: C_27  and  C_29 
ROOT
ATOM      1  C   UNL d   1       8.073   5.399 -11.288  0.00  0.00     0.035 C 
ENDROOT
BRANCH   1   2
ATOM      2  C   UNL d   1       7.777   4.766 -12.662  0.00  0.00     0.002 C 
ATOM      3  C   UNL d   1       8.953   3.883 -13.142  0.00  0.00     0.002 C 
ATOM      4  C   UNL d   1       8.641   3.169 -14.461  0.00  0.00     0.024 C 
ATOM      5  C   UNL d   1       7.345   2.365 -14.370  0.00  0.00     0.106 C 
ATOM      6  C   UNL d   1       6.163   3.222 -13.876  0.00  0.00     0.024 C 
ATOM      7  C   UNL d   1       6.481   3.941 -12.562  0.00  0.00     0.002 C 
BRANCH   5   8
ATOM      8  N   UNL d   1       7.063   1.734 -15.655  0.00  0.00    -0.238 NA
ATOM      9  C   UNL d   1       6.274   0.671 -15.820  0.00  0.00     0.291 C 
ATOM     10  O   UNL d   1       5.593   0.203 -14.906  0.00  0.00    -0.268 OA
BRANCH   9  11
ATOM     11  C   UNL d   1       6.300   0.025 -17.212  0.00  0.00     0.325 C 
ATOM     12  O   UNL d   1       6.070   1.018 -18.210  0.00  0.00    -0.204 OA
BRANCH  11  13
ATOM     13  C   UNL d   1       5.374  -1.205 -17.410  0.00  0.00     0.434 C 
ATOM     14  F   UNL d   1       5.750  -1.827 -18.524  0.00  0.00    -0.167 F 
ATOM     15  F   UNL d   1       5.461  -2.085 -16.406  0.00  0.00    -0.167 F 
ATOM     16  F   UNL d   1       4.099  -0.839 -17.512  0.00  0.00    -0.167 F 
ENDBRANCH  11  13
ENDBRANCH   9  11
ENDBRANCH   5   8
ENDBRANCH   1   2
BRANCH   1  17
ATOM     17  C   UNL d   1       9.416   6.143 -11.243  0.00  0.00     0.250 C 
BRANCH  17  18
ATOM     18  N   UNL d   1       9.672   6.799  -9.973  0.00  0.00     0.137 N 
ATOM     19  C   UNL d   1       9.681   5.867  -8.845  0.00  0.00     0.251 C 
ATOM     20  C   UNL d   1       9.830   6.659  -7.543  0.00  0.00     0.040 C 
ATOM     21  C   UNL d   1      11.120   7.486  -7.528  0.00  0.00     0.026 C 
ATOM     22  C   UNL d   1      11.166   8.331  -8.822  0.00  0.00     0.040 C 
ATOM     23  C   UNL d   1      10.962   7.477 -10.069  0.00  0.00     0.251 C 
BRANCH  21  24
ATOM     24  C   UNL d   1      11.217   8.336  -6.251  0.00  0.00    -0.024 A 
ATOM     25  C   UNL d   1      11.483   7.758  -4.984  0.00  0.00    -0.001 A 
ATOM     26  C   UNL d   1      11.580   8.518  -3.826  0.00  0.00     0.090 A 
ATOM     27  C   UNL d   1      11.718   6.336  -4.636  0.00  0.00     0.061 A 
ATOM     28  C   UNL d   1      11.348   9.891  -3.855  0.00  0.00     0.024 A 
ATOM     29  O   UNL d   1      11.873   7.779  -2.715  0.00  0.00    -0.331 OA
ATOM     30  C   UNL d   1      11.070  10.484  -5.098  0.00  0.00     0.002 A 
ATOM     31  C   UNL d   1      11.026   9.722  -6.289  0.00  0.00    -0.004 A 
ATOM     32  C   UNL d   1      12.061   6.425  -3.128  0.00  0.00     0.154 A 
ENDBRANCH  21  24
ENDBRANCH  17  18
ENDBRANCH   1  17
TORSDOF 7
