REMARK  1 active torsions:
REMARK  status: ('A' for Active; 'I' for Inactive)
REMARK    1  A    between atoms: C_4  and  C_5 
ROOT
ATOM      1  C   UNL d   1       9.576   2.458 -14.618  0.00  0.00     0.058 C 
ATOM      2  C   UNL d   1       9.014   1.041 -14.755  0.00  0.00     0.046 C 
ATOM      3  C   UNL d   1       9.296   0.631 -16.214  0.00  0.00     0.259 C 
ATOM      4  C   UNL d   1       8.048   0.440 -17.027  0.00  0.00     0.086 A 
ATOM      5  N   UNL d   1       6.996  -0.399 -16.710  0.00  0.00    -0.248 NA
ATOM      6  C   UNL d   1       6.029  -0.356 -17.695  0.00  0.00     0.081 A 
ATOM      7  C   UNL d   1       4.791  -1.007 -17.838  0.00  0.00     0.019 A 
ATOM      8  C   UNL d   1       4.006  -0.759 -18.979  0.00  0.00     0.002 A 
ATOM      9  C   UNL d   1       4.465   0.139 -19.962  0.00  0.00     0.000 A 
ATOM     10  C   UNL d   1       5.706   0.789 -19.813  0.00  0.00     0.001 A 
ATOM     11  C   UNL d   1       6.518   0.557 -18.678  0.00  0.00     0.015 A 
ATOM     12  C   UNL d   1       7.797   1.034 -18.230  0.00  0.00    -0.003 A 
ATOM     13  C   UNL d   1       8.768   1.993 -18.842  0.00  0.00     0.063 C 
ATOM     14  C   UNL d   1      10.170   1.826 -18.198  0.00  0.00     0.255 C 
ATOM     15  N   UNL d   1      10.124   1.736 -16.731  0.00  0.00     0.141 N 
ATOM     16  C   UNL d   1       9.670   2.946 -16.061  0.00  0.00     0.255 C 
ENDROOT
BRANCH   1  17
ATOM     17  C   UNL d   1       8.792   3.381 -13.696  0.00  0.00    -0.021 A 
ATOM     18  C   UNL d   1       7.395   3.534 -13.846  0.00  0.00    -0.004 A 
ATOM     19  C   UNL d   1       6.676   4.388 -12.990  0.00  0.00    -0.000 A 
ATOM     20  C   UNL d   1       7.349   5.097 -11.977  0.00  0.00    -0.000 A 
ATOM     21  C   UNL d   1       8.740   4.949 -11.820  0.00  0.00    -0.000 A 
ATOM     22  C   UNL d   1       9.460   4.093 -12.677  0.00  0.00    -0.004 A 
ENDBRANCH   1  17
TORSDOF 1
