REMARK  11 active torsions:
REMARK  status: ('A' for Active; 'I' for Inactive)
REMARK    1  A    between atoms: O_2  and  C_3 
REMARK    2  A    between atoms: C_8  and  C_9 
REMARK    3  A    between atoms: C_9  and  N_10 
REMARK    4  A    between atoms: N_10  and  C_11 
REMARK    5  A    between atoms: C_11  and  C_12 
REMARK    6  A    between atoms: C_16  and  C_17 
REMARK    7  A    between atoms: C_17  and  C_18 
REMARK    8  A    between atoms: C_18  and  N_19 
REMARK    9  A    between atoms: N_19  and  C_20 
REMARK   10  A    between atoms: C_20  and  C_21 
REMARK   11  A    between atoms: C_21  and  C_23 
ROOT
ATOM      1  C   UNL d   1       8.201   7.291 -12.498  0.00  0.00     0.013 A 
ATOM      2  C   UNL d   1       6.971   7.956 -12.441  0.00  0.00    -0.002 A 
ATOM      3  C   UNL d   1       5.795   7.226 -12.502  0.00  0.00    -0.001 A 
ATOM      4  C   UNL d   1       5.848   5.825 -12.724  0.00  0.00    -0.004 A 
ATOM      5  C   UNL d   1       7.064   5.170 -12.832  0.00  0.00    -0.020 A 
ATOM      6  C   UNL d   1       8.257   5.907 -12.706  0.00  0.00    -0.006 A 
ENDROOT
BRANCH   5   7
ATOM      7  C   UNL d   1       7.043   3.702 -13.157  0.00  0.00     0.065 C 
BRANCH   7   8
ATOM      8  C   UNL d   1       8.193   3.296 -14.090  0.00  0.00     0.295 C 
BRANCH   8   9
ATOM      9  N   UNL d   1       8.021   1.945 -14.572  0.00  0.00     0.343 N 
BRANCH   9  10
ATOM     10  C   UNL d   1       8.936   1.593 -15.649  0.00  0.00     0.327 C 
BRANCH  10  11
ATOM     11  C   UNL d   1       8.748   0.133 -16.078  0.00  0.00     0.211 C 
ATOM     12  O   UNL d   1       9.886  -0.235 -16.833  0.00  0.00    -0.216 OA
BRANCH  11  13
ATOM     13  C   UNL d   1       7.427  -0.092 -16.823  0.00  0.00     0.018 A 
ATOM     14  C   UNL d   1       6.224  -0.384 -16.142  0.00  0.00     0.052 A 
ATOM     15  C   UNL d   1       5.025  -0.620 -16.826  0.00  0.00     0.116 A 
ATOM     16  S   UNL d   1       5.989  -0.496 -14.408  0.00  0.00    -0.024 SA
ATOM     17  C   UNL d   1       4.973  -0.555 -18.231  0.00  0.00     0.149 A 
ATOM     18  N   UNL d   1       3.949  -0.896 -15.955  0.00  0.00    -0.200 NA
ATOM     19  C   UNL d   1       6.165  -0.290 -18.931  0.00  0.00     0.029 A 
ATOM     20  O   UNL d   1       3.804  -0.725 -18.926  0.00  0.00    -0.189 OA
ATOM     21  C   UNL d   1       7.380  -0.061 -18.241  0.00  0.00     0.001 A 
ATOM     22  C   UNL d   1       4.222  -0.796 -14.603  0.00  0.00     0.311 A 
ATOM     23  O   UNL d   1       3.433  -0.838 -13.659  0.00  0.00    -0.258 OA
ENDBRANCH  11  13
ENDBRANCH  10  11
ENDBRANCH   9  10
ENDBRANCH   8   9
ENDBRANCH   7   8
ENDBRANCH   5   7
BRANCH   1  24
ATOM     24  C   UNL d   1       9.448   8.090 -12.363  0.00  0.00     0.317 C 
BRANCH  24  25
ATOM     25  N   UNL d   1       9.670   8.578 -11.024  0.00  0.00     0.349 N 
BRANCH  25  26
ATOM     26  C   UNL d   1       9.739   7.469 -10.088  0.00  0.00     0.319 C 
BRANCH  26  27
ATOM     27  C   UNL d   1      10.317   7.893  -8.770  0.00  0.00     0.036 A 
ATOM     28  C   UNL d   1      11.658   8.330  -8.711  0.00  0.00     0.092 A 
ATOM     29  C   UNL d   1      12.198   8.725  -7.468  0.00  0.00     0.024 A 
ATOM     30  C   UNL d   1      11.426   8.610  -6.293  0.00  0.00     0.002 A 
ATOM     31  C   UNL d   1      10.102   8.137  -6.367  0.00  0.00    -0.000 A 
ATOM     32  C   UNL d   1       9.537   7.802  -7.607  0.00  0.00    -0.000 A 
BRANCH  28  33
ATOM     33  O   UNL d   1      12.351   8.353  -9.900  0.00  0.00    -0.328 OA
ATOM     34  C   UNL d   1      13.754   8.107  -9.862  0.00  0.00     0.181 C 
ENDBRANCH  28  33
ENDBRANCH  26  27
ENDBRANCH  25  26
ENDBRANCH  24  25
ENDBRANCH   1  24
TORSDOF 11
