REMARK  9 active torsions:
REMARK  status: ('A' for Active; 'I' for Inactive)
REMARK    1  A    between atoms: C_2  and  C_3 
REMARK    2  A    between atoms: C_3  and  N_4 
REMARK    3  A    between atoms: C_8  and  C_9 
REMARK    4  A    between atoms: C_12  and  O_13 
REMARK    5  A    between atoms: O_13  and  S_14 
REMARK    6  A    between atoms: S_14  and  C_17 
REMARK    7  A    between atoms: C_21  and  O_22 
REMARK    8  A    between atoms: O_22  and  S_23 
REMARK    9  A    between atoms: S_23  and  C_26 
ROOT
ATOM      1  C   UNL d   1       8.133   2.988 -14.396  0.00  0.00    -0.018 A 
ATOM      2  C   UNL d   1       7.609   1.739 -14.779  0.00  0.00    -0.002 A 
ATOM      3  C   UNL d   1       8.047   1.120 -15.963  0.00  0.00     0.027 A 
ATOM      4  C   UNL d   1       9.011   1.749 -16.773  0.00  0.00     0.137 A 
ATOM      5  C   UNL d   1       9.540   3.003 -16.398  0.00  0.00     0.137 A 
ATOM      6  C   UNL d   1       9.111   3.611 -15.207  0.00  0.00     0.024 A 
ENDROOT
BRANCH   1   7
ATOM      7  C   UNL d   1       7.657   3.669 -13.120  0.00  0.00     0.056 C 
ATOM      8  C   UNL d   1       6.876   4.934 -13.423  0.00  0.00     0.008 C 
ATOM      9  C   UNL d   1       6.480   5.651 -12.135  0.00  0.00     0.036 C 
ATOM     10  C   UNL d   1       7.725   5.907 -11.283  0.00  0.00     0.250 C 
ATOM     11  N   UNL d   1       8.391   4.654 -10.957  0.00  0.00     0.137 N 
ATOM     12  C   UNL d   1       8.855   4.004 -12.188  0.00  0.00     0.255 C 
BRANCH  11  13
ATOM     13  C   UNL d   1       9.517   4.896 -10.063  0.00  0.00     0.250 C 
BRANCH  13  14
ATOM     14  C   UNL d   1       9.095   5.264  -8.626  0.00  0.00     0.035 C 
ATOM     15  C   UNL d   1      10.239   5.925  -7.854  0.00  0.00     0.002 C 
ENDBRANCH  13  14
ENDBRANCH  11  13
ENDBRANCH   1   7
BRANCH   5  16
ATOM     16  O   UNL d   1      10.482   3.619 -17.175  0.00  0.00    -0.222 OA
BRANCH  16  17
ATOM     17  S   UNL d   1       9.900   4.580 -18.436  0.00  0.00     0.374 S 
ATOM     18  O   UNL d   1       9.043   3.735 -19.280  0.00  0.00    -0.189 OA
ATOM     19  O   UNL d   1       9.391   5.829 -17.849  0.00  0.00    -0.189 OA
BRANCH  17  20
ATOM     20  C   UNL d   1      11.494   4.917 -19.320  0.00  0.00     0.524 C 
ATOM     21  F   UNL d   1      11.688   6.233 -19.386  0.00  0.00    -0.155 F 
ATOM     22  F   UNL d   1      12.498   4.350 -18.651  0.00  0.00    -0.155 F 
ATOM     23  F   UNL d   1      11.428   4.403 -20.548  0.00  0.00    -0.155 F 
ENDBRANCH  17  20
ENDBRANCH  16  17
ENDBRANCH   5  16
BRANCH   4  24
ATOM     24  O   UNL d   1       9.422   1.147 -17.925  0.00  0.00    -0.222 OA
BRANCH  24  25
ATOM     25  S   UNL d   1      10.724   0.088 -17.776  0.00  0.00     0.374 S 
ATOM     26  O   UNL d   1      11.859   0.857 -17.242  0.00  0.00    -0.189 OA
ATOM     27  O   UNL d   1      10.236  -1.122 -17.095  0.00  0.00    -0.189 OA
BRANCH  25  28
ATOM     28  C   UNL d   1      11.002  -0.277 -19.559  0.00  0.00     0.524 C 
ATOM     29  F   UNL d   1      12.250  -0.718 -19.712  0.00  0.00    -0.155 F 
ATOM     30  F   UNL d   1      10.136  -1.208 -19.954  0.00  0.00    -0.155 F 
ATOM     31  F   UNL d   1      10.837   0.844 -20.263  0.00  0.00    -0.155 F 
ENDBRANCH  25  28
ENDBRANCH  24  25
ENDBRANCH   4  24
TORSDOF 9
