REMARK  7 active torsions:
REMARK  status: ('A' for Active; 'I' for Inactive)
REMARK    1  A    between atoms: C_2  and  C_3 
REMARK    2  A    between atoms: C_2  and  C_19 
REMARK    3  A    between atoms: C_3  and  C_4 
REMARK    4  A    between atoms: C_4  and  N_5 
REMARK    5  A    between atoms: C_7  and  C_8 
REMARK    6  A    between atoms: C_19  and  N_20 
REMARK    7  A    between atoms: N_23  and  C_24 
ROOT
ATOM      1  O   UNL d   1      10.337   5.156 -13.609  0.00  0.00    -0.221 OA
ATOM      2  C   UNL d   1       9.560   4.175 -12.960  0.00  0.00     0.188 C 
ENDROOT
BRANCH   2   3
ATOM      3  C   UNL d   1       9.364   4.526 -11.468  0.00  0.00     0.061 C 
BRANCH   3   4
ATOM      4  C   UNL d   1       9.303   6.034 -11.113  0.00  0.00     0.132 C 
BRANCH   4   5
ATOM      5  N   UNL d   1       9.469   6.296  -9.698  0.00  0.00    -0.230 N 
ATOM      6  N   UNL d   1       8.822   5.554  -8.778  0.00  0.00    -0.064 NA
ATOM      7  N   UNL d   1       9.193   5.997  -7.618  0.00  0.00    -0.129 NA
ATOM      8  C   UNL d   1      10.067   7.073  -7.776  0.00  0.00     0.123 A 
ATOM      9  C   UNL d   1      10.241   7.278  -9.113  0.00  0.00     0.118 A 
BRANCH   8  10
ATOM     10  C   UNL d   1      10.627   7.786  -6.627  0.00  0.00     0.021 A 
ATOM     11  C   UNL d   1      10.987   7.084  -5.459  0.00  0.00     0.003 A 
ATOM     12  C   UNL d   1      11.545   7.745  -4.341  0.00  0.00     0.019 A 
ATOM     13  C   UNL d   1      11.720   9.157  -4.439  0.00  0.00     0.081 A 
ATOM     14  C   UNL d   1      11.996   7.326  -3.042  0.00  0.00     0.022 A 
ATOM     15  C   UNL d   1      11.364   9.873  -5.595  0.00  0.00     0.019 A 
ATOM     16  N   UNL d   1      12.258   9.544  -3.226  0.00  0.00    -0.244 NA
ATOM     17  C   UNL d   1      10.825   9.180  -6.694  0.00  0.00     0.003 A 
ATOM     18  C   UNL d   1      12.424   8.455  -2.391  0.00  0.00     0.099 A 
ENDBRANCH   8  10
ENDBRANCH   4   5
ENDBRANCH   3   4
ENDBRANCH   2   3
BRANCH   2  19
ATOM     19  C   UNL d   1       8.228   4.058 -13.714  0.00  0.00     0.283 C 
BRANCH  19  20
ATOM     20  N   UNL d   1       7.933   2.693 -14.158  0.00  0.00     0.144 N 
ATOM     21  C   UNL d   1       8.712   2.338 -15.351  0.00  0.00     0.274 C 
ATOM     22  C   UNL d   1       8.404   0.907 -15.845  0.00  0.00     0.137 C 
ATOM     23  N   UNL d   1       6.960   0.734 -16.026  0.00  0.00    -0.344 N 
ATOM     24  C   UNL d   1       6.145   1.127 -14.886  0.00  0.00     0.137 C 
ATOM     25  C   UNL d   1       6.515   2.550 -14.439  0.00  0.00     0.274 C 
BRANCH  23  26
ATOM     26  C   UNL d   1       6.405   0.218 -17.213  0.00  0.00     0.068 A 
ATOM     27  C   UNL d   1       5.367  -0.757 -17.221  0.00  0.00     0.084 A 
ATOM     28  C   UNL d   1       4.844  -1.222 -18.458  0.00  0.00     0.070 A 
ATOM     29 CL   UNL d   1       4.741  -1.469 -15.768  0.00  0.00    -0.080 Cl
ATOM     30  C   UNL d   1       5.355  -0.735 -19.669  0.00  0.00     0.012 A 
ATOM     31 CL   UNL d   1       3.592  -2.404 -18.496  0.00  0.00    -0.081 Cl
ATOM     32  C   UNL d   1       6.383   0.214 -19.673  0.00  0.00     0.002 A 
ATOM     33  C   UNL d   1       6.905   0.688 -18.449  0.00  0.00     0.018 A 
ENDBRANCH  23  26
ENDBRANCH  19  20
ENDBRANCH   2  19
TORSDOF 7
