REMARK  6 active torsions:
REMARK  status: ('A' for Active; 'I' for Inactive)
REMARK    1  A    between atoms: O_2  and  C_3 
REMARK    2  A    between atoms: C_9  and  C_10 
REMARK    3  A    between atoms: C_10  and  C_11 
REMARK    4  A    between atoms: C_11  and  C_12 
REMARK    5  A    between atoms: C_12  and  N_13 
REMARK    6  A    between atoms: N_16  and  C_17 
ROOT
ATOM      1  C   UNL d   1       8.466   5.543 -11.483  0.00  0.00     0.036 C 
ENDROOT
BRANCH   1   2
ATOM      2  C   UNL d   1       8.690   4.405 -12.498  0.00  0.00     0.006 C 
BRANCH   2   3
ATOM      3  C   UNL d   1       7.412   3.886 -13.212  0.00  0.00     0.022 C 
ATOM      4  C   UNL d   1       7.694   2.658 -14.118  0.00  0.00    -0.025 A 
ATOM      5  C   UNL d   1       6.764   1.587 -14.212  0.00  0.00    -0.026 A 
ATOM      6  C   UNL d   1       8.891   2.574 -14.878  0.00  0.00     0.020 A 
ATOM      7  C   UNL d   1       7.033   0.477 -15.030  0.00  0.00    -0.003 A 
ATOM      8  C   UNL d   1       5.478   1.558 -13.419  0.00  0.00     0.026 C 
ATOM      9  C   UNL d   1       8.223   0.407 -15.772  0.00  0.00     0.024 A 
ATOM     10  C   UNL d   1       9.170   1.458 -15.694  0.00  0.00     0.094 A 
ATOM     11  C   UNL d   1       5.085   2.920 -12.858  0.00  0.00     0.005 C 
ATOM     12  C   UNL d   1       6.256   3.647 -12.213  0.00  0.00     0.005 C 
BRANCH  10  13
ATOM     13  O   UNL d   1      10.362   1.464 -16.380  0.00  0.00    -0.328 OA
ATOM     14  C   UNL d   1      10.653   0.343 -17.201  0.00  0.00     0.181 C 
ENDBRANCH  10  13
ENDBRANCH   2   3
ENDBRANCH   1   2
BRANCH   1  15
ATOM     15  C   UNL d   1       9.752   5.877 -10.719  0.00  0.00     0.250 C 
BRANCH  15  16
ATOM     16  N   UNL d   1       9.465   6.732  -9.573  0.00  0.00     0.141 N 
ATOM     17  C   UNL d   1      10.574   7.650  -9.330  0.00  0.00     0.274 C 
ATOM     18  C   UNL d   1      10.243   8.602  -8.166  0.00  0.00     0.137 C 
ATOM     19  N   UNL d   1       9.914   7.832  -6.981  0.00  0.00    -0.344 N 
ATOM     20  C   UNL d   1       8.874   6.824  -7.153  0.00  0.00     0.137 C 
ATOM     21  C   UNL d   1       9.199   5.925  -8.368  0.00  0.00     0.274 C 
BRANCH  19  22
ATOM     22  C   UNL d   1      10.589   8.049  -5.772  0.00  0.00     0.056 A 
ATOM     23  C   UNL d   1      10.749   9.362  -5.282  0.00  0.00     0.018 A 
ATOM     24  C   UNL d   1      11.392   9.586  -4.050  0.00  0.00     0.013 A 
ATOM     25  C   UNL d   1      11.893   8.500  -3.311  0.00  0.00     0.058 A 
ATOM     26  C   UNL d   1      11.751   7.187  -3.797  0.00  0.00     0.013 A 
ATOM     27 CL   UNL d   1      12.654   8.787  -1.792  0.00  0.00    -0.082 Cl
ATOM     28  C   UNL d   1      11.081   6.965  -5.018  0.00  0.00     0.018 A 
ENDBRANCH  19  22
ENDBRANCH  15  16
ENDBRANCH   1  15
TORSDOF 6
