REMARK  6 active torsions:
REMARK  status: ('A' for Active; 'I' for Inactive)
REMARK    1  A    between atoms: N_11  and  C_12 
REMARK    2  A    between atoms: C_12  and  C_13 
REMARK    3  A    between atoms: C_13  and  C_14 
REMARK    4  A    between atoms: C_14  and  N_15 
REMARK    5  A    between atoms: C_18  and  C_19 
REMARK    6  A    between atoms: C_19  and  C_20 
ROOT
ATOM      1  C   UNL d   1       8.246   5.904 -11.865  0.00  0.00     0.252 C 
ENDROOT
BRANCH   1   2
ATOM      2  C   UNL d   1       8.814   5.317 -13.169  0.00  0.00     0.060 C 
BRANCH   2   3
ATOM      3  C   UNL d   1       9.519   3.955 -12.991  0.00  0.00     0.111 C 
BRANCH   3   4
ATOM      4  N   UNL d   1      10.012   3.449 -14.290  0.00  0.00    -0.299 N 
ATOM      5  C   UNL d   1      11.293   3.732 -14.657  0.00  0.00     0.238 C 
ATOM      6  O   UNL d   1      12.057   4.420 -13.984  0.00  0.00    -0.272 OA
ATOM      7  C   UNL d   1      11.837   3.148 -15.960  0.00  0.00     0.093 C 
ATOM      8  C   UNL d   1      10.764   3.070 -17.051  0.00  0.00     0.038 C 
ATOM      9  C   UNL d   1       9.473   2.489 -16.519  0.00  0.00    -0.006 A 
ATOM     10  C   UNL d   1       9.123   2.710 -15.160  0.00  0.00     0.058 A 
ATOM     11  C   UNL d   1       8.618   1.767 -17.380  0.00  0.00    -0.003 A 
ATOM     12  C   UNL d   1       7.880   2.197 -14.698  0.00  0.00     0.017 A 
ATOM     13  C   UNL d   1       7.037   1.468 -15.558  0.00  0.00     0.002 A 
ATOM     14  C   UNL d   1       7.401   1.251 -16.899  0.00  0.00    -0.000 A 
ENDBRANCH   3   4
ENDBRANCH   2   3
ENDBRANCH   1   2
BRANCH   1  15
ATOM     15  N   UNL d   1       9.292   5.979 -10.845  0.00  0.00     0.137 N 
ATOM     16  C   UNL d   1       9.823   7.343 -10.758  0.00  0.00     0.250 C 
ATOM     17  C   UNL d   1      10.949   7.425  -9.727  0.00  0.00     0.036 C 
ATOM     18  C   UNL d   1      10.476   6.943  -8.346  0.00  0.00     0.008 C 
ATOM     19  C   UNL d   1       9.849   5.553  -8.492  0.00  0.00     0.036 C 
ATOM     20  C   UNL d   1       8.747   5.554  -9.555  0.00  0.00     0.250 C 
BRANCH  18  21
ATOM     21  C   UNL d   1      11.639   6.940  -7.328  0.00  0.00     0.026 C 
BRANCH  21  22
ATOM     22  C   UNL d   1      11.449   7.905  -6.179  0.00  0.00    -0.022 A 
ATOM     23  C   UNL d   1      11.592   7.451  -4.849  0.00  0.00    -0.004 A 
ATOM     24  C   UNL d   1      11.478   8.364  -3.784  0.00  0.00    -0.000 A 
ATOM     25  C   UNL d   1      11.173   9.710  -4.043  0.00  0.00    -0.000 A 
ATOM     26  C   UNL d   1      11.025  10.153  -5.366  0.00  0.00    -0.000 A 
ATOM     27  C   UNL d   1      11.164   9.259  -6.436  0.00  0.00    -0.004 A 
ENDBRANCH  21  22
ENDBRANCH  18  21
ENDBRANCH   1  15
TORSDOF 6
