REMARK  5 active torsions:
REMARK  status: ('A' for Active; 'I' for Inactive)
REMARK       I    between atoms: C_2  and  N_3 
REMARK    1  A    between atoms: C_2  and  C_16 
REMARK    2  A    between atoms: N_3  and  C_4 
REMARK    3  A    between atoms: N_7  and  C_8 
REMARK    4  A    between atoms: C_8  and  C_9 
REMARK    5  A    between atoms: C_19  and  C_20 
ROOT
ATOM      1  O   UNL d   1      10.236   5.991 -11.502  0.00  0.00    -0.266 OA
ATOM      2  C   UNL d   1       9.447   5.977 -10.577  0.00  0.00     0.275 C 
ATOM      3  N   UNL d   1       8.159   5.590 -10.690  0.00  0.00    -0.234 NA
ENDROOT
BRANCH   2   4
ATOM      4  C   UNL d   1       9.895   6.474  -9.254  0.00  0.00     0.058 A 
ATOM      5  C   UNL d   1      11.044   7.287  -9.159  0.00  0.00     0.005 A 
ATOM      6  C   UNL d   1      11.541   7.663  -7.899  0.00  0.00     0.000 A 
ATOM      7  C   UNL d   1      10.862   7.250  -6.740  0.00  0.00     0.000 A 
ATOM      8  C   UNL d   1       9.720   6.433  -6.849  0.00  0.00     0.000 A 
ATOM      9  C   UNL d   1       9.230   6.044  -8.095  0.00  0.00     0.005 A 
BRANCH   7  10
ATOM     10  C   UNL d   1      11.342   7.622  -5.417  0.00  0.00     0.000 A 
ATOM     11  C   UNL d   1      11.573   6.628  -4.444  0.00  0.00     0.001 A 
ATOM     12  C   UNL d   1      12.040   6.949  -3.160  0.00  0.00     0.011 A 
ATOM     13  C   UNL d   1      12.260   8.308  -2.878  0.00  0.00     0.058 A 
ATOM     14  C   UNL d   1      11.994   9.309  -3.815  0.00  0.00     0.011 A 
ATOM     15 CL   UNL d   1      12.924   8.785  -1.385  0.00  0.00    -0.082 Cl
ATOM     16  C   UNL d   1      11.560   8.981  -5.107  0.00  0.00     0.001 A 
ENDBRANCH   7  10
ENDBRANCH   2   4
BRANCH   3  17
ATOM     17  C   UNL d   1       7.527   5.345 -11.982  0.00  0.00     0.142 C 
ATOM     18  C   UNL d   1       7.887   3.974 -12.562  0.00  0.00     0.275 C 
ATOM     19  N   UNL d   1       7.860   4.104 -14.006  0.00  0.00     0.143 N 
ATOM     20  C   UNL d   1       8.533   5.388 -14.155  0.00  0.00     0.253 C 
ATOM     21  C   UNL d   1       7.932   6.362 -13.071  0.00  0.00     0.062 C 
BRANCH  19  22
ATOM     22  C   UNL d   1       8.573   3.023 -14.713  0.00  0.00     0.277 C 
BRANCH  22  23
ATOM     23  C   UNL d   1       7.705   1.821 -15.090  0.00  0.00     0.011 A 
ATOM     24  C   UNL d   1       7.542   0.729 -14.223  0.00  0.00    -0.002 A 
ATOM     25  C   UNL d   1       6.662  -0.327 -14.550  0.00  0.00    -0.000 A 
ATOM     26  C   UNL d   1       5.981  -0.311 -15.785  0.00  0.00    -0.000 A 
ATOM     27  C   UNL d   1       6.172   0.753 -16.668  0.00  0.00    -0.000 A 
ATOM     28  C   UNL d   1       7.034   1.823 -16.326  0.00  0.00    -0.002 A 
ENDBRANCH  22  23
ENDBRANCH  19  22
ENDBRANCH   3  17
TORSDOF 5
