REMARK  7 active torsions:
REMARK  status: ('A' for Active; 'I' for Inactive)
REMARK    1  A    between atoms: C_4  and  C_5 
REMARK    2  A    between atoms: N_13  and  C_14 
REMARK    3  A    between atoms: C_14  and  C_15 
REMARK    4  A    between atoms: C_15  and  C_16 
REMARK    5  A    between atoms: C_16  and  S_17 
REMARK    6  A    between atoms: S_17  and  C_18 
REMARK    7  A    between atoms: C_21  and  C_22 
ROOT
ATOM      1  C   UNL d   1       9.880   7.193  -8.077  0.00  0.00     0.020 A 
ATOM      2  C   UNL d   1       9.148   6.073  -7.669  0.00  0.00     0.001 A 
ATOM      3  C   UNL d   1       8.527   5.225  -8.603  0.00  0.00    -0.004 A 
ATOM      4  C   UNL d   1       8.570   5.533  -9.980  0.00  0.00    -0.024 A 
ATOM      5  C   UNL d   1       9.291   6.666 -10.408  0.00  0.00    -0.024 A 
ATOM      6  C   UNL d   1       9.948   7.484  -9.462  0.00  0.00    -0.003 A 
ATOM      7  C   UNL d   1       9.252   7.087 -11.857  0.00  0.00     0.061 C 
ATOM      8  C   UNL d   1       9.806   5.996 -12.774  0.00  0.00     0.255 C 
ATOM      9  N   UNL d   1       8.865   4.961 -13.195  0.00  0.00     0.138 N 
ATOM     10  C   UNL d   1       8.605   4.071 -12.078  0.00  0.00     0.255 C 
ATOM     11  C   UNL d   1       7.755   4.712 -10.972  0.00  0.00     0.061 C 
ENDROOT
BRANCH   9  12
ATOM     12  C   UNL d   1       9.453   4.149 -14.261  0.00  0.00     0.251 C 
BRANCH  12  13
ATOM     13  C   UNL d   1       9.485   4.919 -15.572  0.00  0.00     0.047 C 
BRANCH  13  14
ATOM     14  C   UNL d   1       9.565   4.016 -16.805  0.00  0.00     0.067 C 
BRANCH  14  15
ATOM     15  S   UNL d   1       9.659   4.969 -18.359  0.00  0.00    -0.075 SA
BRANCH  15  16
ATOM     16  C   UNL d   1      11.284   5.673 -18.212  0.00  0.00     0.193 A 
ATOM     17  N   UNL d   1      11.737   6.633 -19.041  0.00  0.00    -0.292 N 
ATOM     18  C   UNL d   1      12.958   6.869 -18.520  0.00  0.00     0.143 A 
ATOM     19  C   UNL d   1      11.101   7.235 -20.201  0.00  0.00     0.134 C 
ATOM     20  N   UNL d   1      13.275   6.089 -17.488  0.00  0.00    -0.133 NA
ATOM     21  N   UNL d   1      12.178   5.295 -17.298  0.00  0.00    -0.122 NA
BRANCH  18  22
ATOM     22  C   UNL d   1      13.940   7.829 -19.129  0.00  0.00     0.059 C 
ATOM     23  C   UNL d   1      14.593   8.715 -18.056  0.00  0.00     0.007 C 
ATOM     24  C   UNL d   1      15.642   9.677 -18.651  0.00  0.00     0.000 C 
ATOM     25  C   UNL d   1      16.718   8.922 -19.457  0.00  0.00     0.000 C 
ATOM     26  C   UNL d   1      16.058   8.050 -20.543  0.00  0.00     0.000 C 
ATOM     27  C   UNL d   1      17.738   9.898 -20.064  0.00  0.00     0.000 C 
ATOM     28  C   UNL d   1      15.007   7.085 -19.955  0.00  0.00     0.007 C 
ENDBRANCH  18  22
ENDBRANCH  15  16
ENDBRANCH  14  15
ENDBRANCH  13  14
ENDBRANCH  12  13
ENDBRANCH   9  12
BRANCH   1  29
ATOM     29  C   UNL d   1      10.545   8.025  -7.065  0.00  0.00     0.110 A 
ATOM     30  C   UNL d   1      10.772   7.758  -5.679  0.00  0.00     0.044 A 
ATOM     31  C   UNL d   1      11.452   8.854  -5.234  0.00  0.00     0.105 A 
ATOM     32  C   UNL d   1      12.011   9.245  -3.913  0.00  0.00     0.061 C 
ATOM     33  O   UNL d   1      11.643   9.732  -6.248  0.00  0.00    -0.215 OA
ATOM     34  N   UNL d   1      11.059   9.197  -7.398  0.00  0.00    -0.127 NA
ENDBRANCH   1  29
TORSDOF 7
