REMARK  8 active torsions:
REMARK  status: ('A' for Active; 'I' for Inactive)
REMARK    1  A    between atoms: C_2  and  C_3 
REMARK    2  A    between atoms: C_3  and  O_4 
REMARK    3  A    between atoms: O_4  and  N_5 
REMARK    4  A    between atoms: C_6  and  C_7 
REMARK    5  A    between atoms: C_6  and  C_21 
REMARK    6  A    between atoms: C_7  and  C_8 
REMARK    7  A    between atoms: C_8  and  N_9 
REMARK    8  A    between atoms: N_12  and  C_13 
ROOT
ATOM      1  C   UNL d   1       9.734   2.695 -16.256  0.00  0.00     0.083 C 
ENDROOT
BRANCH   1   2
ATOM      2  C   UNL d   1      10.135   2.620 -17.732  0.00  0.00     0.087 C 
ATOM      3  N   UNL d   1       9.798   3.485 -18.606  0.00  0.00    -0.135 NA
BRANCH   3   4
ATOM      4  O   UNL d   1       9.032   4.534 -18.078  0.00  0.00    -0.232 OA
BRANCH   4   5
ATOM      5  C   UNL d   1       8.885   5.567 -19.039  0.00  0.00     0.203 C 
BRANCH   5   6
ATOM      6  C   UNL d   1      10.212   6.158 -19.487  0.00  0.00     0.009 C 
ATOM      7  C   UNL d   1      10.551   7.451 -19.419  0.00  0.00    -0.002 C 
ENDBRANCH   5   6
ENDBRANCH   4   5
ENDBRANCH   3   4
BRANCH   2   8
ATOM      8  C   UNL d   1      10.944   1.457 -18.142  0.00  0.00     0.016 A 
ATOM      9  C   UNL d   1      10.435   0.158 -17.946  0.00  0.00     0.001 A 
ATOM     10  C   UNL d   1      11.161  -0.963 -18.383  0.00  0.00     0.000 A 
ATOM     11  C   UNL d   1      12.413  -0.799 -19.012  0.00  0.00     0.000 A 
ATOM     12  C   UNL d   1      12.924   0.497 -19.222  0.00  0.00     0.000 A 
ATOM     13  C   UNL d   1      12.189   1.620 -18.794  0.00  0.00     0.001 A 
ENDBRANCH   2   8
ENDBRANCH   1   2
BRANCH   1  14
ATOM     14  C   UNL d   1      10.222   3.958 -15.516  0.00  0.00     0.257 C 
BRANCH  14  15
ATOM     15  N   UNL d   1       9.488   4.111 -14.262  0.00  0.00     0.141 N 
ATOM     16  C   UNL d   1       9.240   5.530 -14.030  0.00  0.00     0.274 C 
ATOM     17  C   UNL d   1       8.462   5.810 -12.738  0.00  0.00     0.138 C 
ATOM     18  N   UNL d   1       9.190   5.213 -11.633  0.00  0.00    -0.330 N 
ATOM     19  C   UNL d   1       9.565   3.821 -11.835  0.00  0.00     0.138 C 
ATOM     20  C   UNL d   1      10.308   3.620 -13.162  0.00  0.00     0.274 C 
BRANCH  18  21
ATOM     21  C   UNL d   1       9.487   5.924 -10.473  0.00  0.00     0.140 A 
ATOM     22  N   UNL d   1       9.853   7.220 -10.618  0.00  0.00    -0.227 NA
ATOM     23  C   UNL d   1      10.160   7.938  -9.525  0.00  0.00     0.101 A 
ATOM     24  C   UNL d   1      10.150   7.400  -8.224  0.00  0.00     0.021 A 
ATOM     25  C   UNL d   1       9.784   6.052  -8.067  0.00  0.00     0.005 A 
ATOM     26  C   UNL d   1       9.458   5.293  -9.201  0.00  0.00     0.037 A 
ENDBRANCH  18  21
ENDBRANCH  14  15
ENDBRANCH   1  14
TORSDOF 8
