REMARK  8 active torsions:
REMARK  status: ('A' for Active; 'I' for Inactive)
REMARK    1  A    between atoms: C_2  and  C_3 
REMARK    2  A    between atoms: C_7  and  O_8 
REMARK    3  A    between atoms: O_8  and  C_9 
REMARK    4  A    between atoms: C_9  and  C_10 
REMARK    5  A    between atoms: C_10  and  C_11 
REMARK    6  A    between atoms: C_11  and  C_12 
REMARK    7  A    between atoms: C_12  and  N_13 
REMARK    8  A    between atoms: N_16  and  C_17 
ROOT
ATOM      1  C   UNL d   1      13.833   4.995 -17.713  0.00  0.00     0.038 C 
ENDROOT
BRANCH   1   2
ATOM      2  C   UNL d   1      15.286   5.462 -17.848  0.00  0.00     0.035 C 
BRANCH   2   3
ATOM      3  C   UNL d   1      15.744   5.569 -19.318  0.00  0.00     0.151 C 
BRANCH   3   4
ATOM      4  O   UNL d   1      17.113   5.953 -19.388  0.00  0.00    -0.315 OA
BRANCH   4   5
ATOM      5  C   UNL d   1      17.439   7.276 -19.170  0.00  0.00     0.179 A 
ATOM      6  N   UNL d   1      18.764   7.582 -19.283  0.00  0.00    -0.208 N 
ATOM      7  N   UNL d   1      19.774   6.692 -19.578  0.00  0.00    -0.162 NA
ATOM      8  C   UNL d   1      19.270   8.890 -19.103  0.00  0.00     0.090 A 
ATOM      9  C   UNL d   1      20.859   7.433 -19.612  0.00  0.00     0.125 A 
ATOM     10  C   UNL d   1      20.620   8.798 -19.315  0.00  0.00     0.081 A 
ATOM     11  C   UNL d   1      18.341   9.915 -18.771  0.00  0.00     0.019 A 
ATOM     12  C   UNL d   1      17.008   9.602 -18.654  0.00  0.00     0.005 A 
ATOM     13  C   UNL d   1      16.546   8.286 -18.864  0.00  0.00     0.044 A 
BRANCH  10  14
ATOM     14  C   UNL d   1      21.557   9.904 -19.241  0.00  0.00     0.237 C 
ATOM     15  O   UNL d   1      21.282  11.072 -18.971  0.00  0.00    -0.283 OA
ENDBRANCH  10  14
ENDBRANCH   4   5
ENDBRANCH   3   4
ENDBRANCH   2   3
ENDBRANCH   1   2
BRANCH   1  16
ATOM     16  C   UNL d   1      13.381   5.003 -16.247  0.00  0.00     0.251 C 
BRANCH  16  17
ATOM     17  N   UNL d   1      12.037   4.449 -16.106  0.00  0.00     0.141 N 
ATOM     18  C   UNL d   1      11.911   3.777 -14.806  0.00  0.00     0.274 C 
ATOM     19  C   UNL d   1      10.504   3.165 -14.634  0.00  0.00     0.137 C 
ATOM     20  N   UNL d   1       9.506   4.199 -14.829  0.00  0.00    -0.344 N 
ATOM     21  C   UNL d   1       9.620   4.965 -16.059  0.00  0.00     0.137 C 
ATOM     22  C   UNL d   1      11.048   5.529 -16.196  0.00  0.00     0.274 C 
BRANCH  20  23
ATOM     23  C   UNL d   1       8.473   4.423 -13.908  0.00  0.00     0.068 A 
ATOM     24  C   UNL d   1       7.416   3.497 -13.747  0.00  0.00     0.084 A 
ATOM     25  C   UNL d   1       6.378   3.770 -12.829  0.00  0.00     0.070 A 
ATOM     26 CL   UNL d   1       7.372   2.035 -14.682  0.00  0.00    -0.080 Cl
ATOM     27  C   UNL d   1       6.391   4.958 -12.077  0.00  0.00     0.012 A 
ATOM     28 CL   UNL d   1       5.086   2.652 -12.606  0.00  0.00    -0.081 Cl
ATOM     29  C   UNL d   1       7.438   5.880 -12.233  0.00  0.00     0.002 A 
ATOM     30  C   UNL d   1       8.478   5.611 -13.143  0.00  0.00     0.018 A 
ENDBRANCH  20  23
ENDBRANCH  16  17
ENDBRANCH   1  16
TORSDOF 8
