REMARK  1 active torsions:
REMARK  status: ('A' for Active; 'I' for Inactive)
REMARK    1  A    between atoms: N_6  and  C_7 
ROOT
ATOM      1  C   UNL d   1      10.684   8.074  -7.930  0.00  0.00     0.061 C 
ATOM      2  C   UNL d   1      11.144   9.130  -8.745  0.00  0.00     0.015 C 
ATOM      3  C   UNL d   1      10.897   9.130 -10.127  0.00  0.00     0.030 C 
ATOM      4  C   UNL d   1      10.050   8.173 -10.698  0.00  0.00     0.151 C 
ATOM      5  O   UNL d   1       9.593   8.218 -11.998  0.00  0.00    -0.189 OA
ATOM      6  C   UNL d   1       9.640   7.123  -9.876  0.00  0.00     0.133 C 
ATOM      7  C   UNL d   1       9.883   7.058  -8.489  0.00  0.00     0.125 C 
ATOM      8  O   UNL d   1       9.370   6.024  -7.744  0.00  0.00    -0.318 OA
ATOM      9  C   UNL d   1       8.284   5.314  -8.290  0.00  0.00     0.238 C 
ATOM     10  C   UNL d   1       8.329   5.231  -9.839  0.00  0.00     0.287 C 
ATOM     11  O   UNL d   1       7.689   4.428 -10.539  0.00  0.00    -0.267 OA
ATOM     12  N   UNL d   1       9.015   6.098 -10.497  0.00  0.00    -0.205 NA
ENDROOT
BRANCH   1  13
ATOM     13  N   UNL d   1      11.094   8.000  -6.469  0.00  0.00    -0.249 NA
ATOM     14  C   UNL d   1      11.923   9.169  -6.033  0.00  0.00     0.079 C 
ATOM     15  C   UNL d   1      12.550   9.111  -4.637  0.00  0.00     0.053 C 
ATOM     16  C   UNL d   1      11.687   8.516  -3.549  0.00  0.00     0.252 C 
ATOM     17  N   UNL d   1      11.861   7.086  -3.582  0.00  0.00     0.141 N 
ATOM     18  C   UNL d   1      11.477   6.569  -2.281  0.00  0.00     0.285 C 
ATOM     19  C   UNL d   1      11.100   6.407  -4.615  0.00  0.00     0.268 C 
ATOM     20  C   UNL d   1      11.590   6.657  -6.044  0.00  0.00     0.112 C 
ENDBRANCH   1  13
TORSDOF 1
