REMARK  7 active torsions:
REMARK  status: ('A' for Active; 'I' for Inactive)
REMARK    1  A    between atoms: C_6  and  C_7 
REMARK    2  A    between atoms: C_10  and  S_11 
REMARK    3  A    between atoms: S_11  and  C_12 
REMARK    4  A    between atoms: C_12  and  C_13 
REMARK    5  A    between atoms: C_13  and  C_14 
REMARK    6  A    between atoms: C_14  and  N_15 
REMARK    7  A    between atoms: C_22  and  C_23 
ROOT
ATOM      1  N   UNL d   1       9.019  -0.207 -17.215  0.00  0.00     0.138 N 
ATOM      2  C   UNL d   1       7.909  -0.010 -16.279  0.00  0.00     0.255 C 
ATOM      3  C   UNL d   1       7.380   1.438 -16.187  0.00  0.00     0.061 C 
ATOM      4  C   UNL d   1       8.228   2.354 -15.317  0.00  0.00    -0.022 A 
ATOM      5  C   UNL d   1       7.631   2.951 -14.180  0.00  0.00     0.017 A 
ATOM      6  C   UNL d   1       8.377   3.812 -13.351  0.00  0.00     0.106 A 
ATOM      7  N   UNL d   1       8.053   4.494 -12.198  0.00  0.00    -0.219 NA
ATOM      8  C   UNL d   1       9.171   5.173 -11.917  0.00  0.00     0.200 A 
ATOM      9  O   UNL d   1      10.232   4.969 -12.779  0.00  0.00    -0.287 OA
ATOM     10  C   UNL d   1       9.717   4.072 -13.697  0.00  0.00     0.119 A 
ATOM     11  C   UNL d   1      10.340   3.485 -14.808  0.00  0.00     0.022 A 
ATOM     12  C   UNL d   1       9.589   2.615 -15.630  0.00  0.00    -0.022 A 
ATOM     13  C   UNL d   1      10.264   1.980 -16.835  0.00  0.00     0.061 C 
ATOM     14  C   UNL d   1      10.271   0.439 -16.792  0.00  0.00     0.255 C 
ENDROOT
BRANCH   1  15
ATOM     15  C   UNL d   1       8.605  -0.018 -18.609  0.00  0.00     0.251 C 
BRANCH  15  16
ATOM     16  C   UNL d   1       9.618  -0.618 -19.591  0.00  0.00     0.047 C 
BRANCH  16  17
ATOM     17  C   UNL d   1       9.292  -0.298 -21.059  0.00  0.00     0.067 C 
BRANCH  17  18
ATOM     18  S   UNL d   1      10.596  -0.847 -22.214  0.00  0.00    -0.075 SA
BRANCH  18  19
ATOM     19  C   UNL d   1      11.978   0.000 -21.510  0.00  0.00     0.193 A 
ATOM     20  N   UNL d   1      12.855  -0.585 -20.689  0.00  0.00    -0.122 NA
ATOM     21  N   UNL d   1      13.716   0.415 -20.305  0.00  0.00    -0.128 NA
ATOM     22  C   UNL d   1      13.329   1.511 -20.970  0.00  0.00     0.167 A 
ATOM     23  N   UNL d   1      12.226   1.306 -21.723  0.00  0.00    -0.289 N 
ATOM     24  C   UNL d   1      11.498   2.240 -22.572  0.00  0.00     0.134 C 
BRANCH  22  25
ATOM     25  C   UNL d   1      14.058   2.775 -20.880  0.00  0.00     0.037 A 
ATOM     26  C   UNL d   1      15.406   2.899 -21.316  0.00  0.00     0.021 A 
ATOM     27  C   UNL d   1      16.123   1.803 -21.859  0.00  0.00     0.003 A 
ATOM     28  C   UNL d   1      16.072   4.157 -21.238  0.00  0.00     0.081 A 
ATOM     29  C   UNL d   1      17.455   1.984 -22.262  0.00  0.00     0.015 A 
ATOM     30  C   UNL d   1      18.026   3.261 -22.131  0.00  0.00     0.059 A 
ATOM     31  C   UNL d   1      19.451   3.515 -22.551  0.00  0.00     0.052 C 
ATOM     32  N   UNL d   1      17.352   4.320 -21.639  0.00  0.00    -0.250 NA
ATOM     33  C   UNL d   1      15.374   5.263 -20.713  0.00  0.00     0.019 A 
ATOM     34  C   UNL d   1      14.042   5.144 -20.279  0.00  0.00     0.002 A 
ATOM     35  C   UNL d   1      13.389   3.903 -20.358  0.00  0.00     0.003 A 
ENDBRANCH  22  25
ENDBRANCH  18  19
ENDBRANCH  17  18
ENDBRANCH  16  17
ENDBRANCH  15  16
ENDBRANCH   1  15
BRANCH   8  36
ATOM     36  C   UNL d   1       9.413   6.094 -10.807  0.00  0.00     0.120 A 
ATOM     37  N   UNL d   1       9.228   5.754  -9.477  0.00  0.00    -0.246 N 
ATOM     38  N   UNL d   1       9.580   6.767  -8.658  0.00  0.00    -0.174 NA
ATOM     39  C   UNL d   1       8.766   4.524  -8.877  0.00  0.00     0.154 C 
ATOM     40  C   UNL d   1       9.921   7.758  -9.465  0.00  0.00     0.081 A 
ATOM     41  C   UNL d   1       9.864   7.378 -10.832  0.00  0.00     0.039 A 
ATOM     42  C   UNL d   1      10.316   9.084  -8.889  0.00  0.00     0.054 C 
ENDBRANCH   8  36
TORSDOF 7
