REMARK  5 active torsions:
REMARK  status: ('A' for Active; 'I' for Inactive)
REMARK       I    between atoms: C_2  and  N_4 
REMARK    1  A    between atoms: N_4  and  C_5 
REMARK    2  A    between atoms: C_8  and  C_9 
REMARK    3  A    between atoms: C_9  and  C_10 
REMARK    4  A    between atoms: C_10  and  N_11 
REMARK    5  A    between atoms: C_14  and  C_15 
ROOT
ATOM      1  N   UNL d   1       8.710   5.505 -12.206  0.00  0.00     0.137 N 
ATOM      2  C   UNL d   1       7.331   5.300 -12.646  0.00  0.00     0.251 C 
ATOM      3  C   UNL d   1       7.370   4.591 -14.011  0.00  0.00     0.040 C 
ATOM      4  C   UNL d   1       8.099   3.253 -13.944  0.00  0.00     0.026 C 
ATOM      5  C   UNL d   1       9.473   3.454 -13.286  0.00  0.00     0.040 C 
ATOM      6  C   UNL d   1       9.301   4.203 -11.985  0.00  0.00     0.251 C 
ENDROOT
BRANCH   1   7
ATOM      7  C   UNL d   1       8.707   6.161 -10.915  0.00  0.00     0.250 C 
BRANCH   7   8
ATOM      8  C   UNL d   1       9.938   7.047 -10.692  0.00  0.00     0.035 C 
BRANCH   8   9
ATOM      9  C   UNL d   1      10.022   7.705  -9.297  0.00  0.00     0.002 C 
ATOM     10  C   UNL d   1       9.856   6.667  -8.163  0.00  0.00     0.002 C 
ATOM     11  C   UNL d   1      10.004   7.278  -6.772  0.00  0.00     0.024 C 
ATOM     12  C   UNL d   1      11.348   7.991  -6.633  0.00  0.00     0.106 C 
ATOM     13  C   UNL d   1      11.525   9.047  -7.727  0.00  0.00     0.024 C 
ATOM     14  C   UNL d   1      11.368   8.449  -9.135  0.00  0.00     0.002 C 
BRANCH  12  15
ATOM     15  N   UNL d   1      11.447   8.637  -5.327  0.00  0.00    -0.240 NA
ATOM     16  C   UNL d   1      11.866   8.061  -4.191  0.00  0.00     0.252 C 
ATOM     17  C   UNL d   1      11.979   8.964  -2.972  0.00  0.00     0.100 C 
ATOM     18  O   UNL d   1      12.145   6.871  -4.096  0.00  0.00    -0.271 OA
ENDBRANCH  12  15
ENDBRANCH   8   9
ENDBRANCH   7   8
ENDBRANCH   1   7
BRANCH   4  19
ATOM     19  C   UNL d   1       8.225   2.604 -15.317  0.00  0.00    -0.020 A 
ATOM     20  C   UNL d   1       7.362   1.542 -15.685  0.00  0.00     0.021 A 
ATOM     21  C   UNL d   1       7.509   1.012 -16.994  0.00  0.00     0.100 A 
ATOM     22  C   UNL d   1       6.286   0.794 -15.083  0.00  0.00     0.028 A 
ATOM     23  C   UNL d   1       8.459   1.493 -17.918  0.00  0.00     0.025 A 
ATOM     24  O   UNL d   1       6.590   0.007 -17.195  0.00  0.00    -0.305 OA
ATOM     25  C   UNL d   1       9.297   2.552 -17.533  0.00  0.00     0.002 A 
ATOM     26  C   UNL d   1       9.172   3.110 -16.248  0.00  0.00    -0.004 A 
ATOM     27  C   UNL d   1       5.878  -0.111 -16.031  0.00  0.00     0.123 A 
ENDBRANCH   4  19
TORSDOF 5
