REMARK  8 active torsions:
REMARK  status: ('A' for Active; 'I' for Inactive)
REMARK    1  A    between atoms: C_6  and  C_7 
REMARK    2  A    between atoms: C_10  and  S_11 
REMARK    3  A    between atoms: S_11  and  C_12 
REMARK    4  A    between atoms: C_12  and  C_13 
REMARK    5  A    between atoms: C_13  and  C_14 
REMARK    6  A    between atoms: C_14  and  N_15 
REMARK    7  A    between atoms: C_20  and  C_21 
REMARK    8  A    between atoms: C_24  and  C_25 
ROOT
ATOM      1  N   UNL d   1       8.097   4.430 -12.532  0.00  0.00     0.137 N 
ATOM      2  C   UNL d   1       8.609   5.451 -13.438  0.00  0.00     0.250 C 
ATOM      3  C   UNL d   1       9.857   6.090 -12.838  0.00  0.00     0.036 C 
ATOM      4  C   UNL d   1       9.713   7.177 -11.832  0.00  0.00     0.006 A 
ATOM      5  C   UNL d   1       8.493   7.997 -11.656  0.00  0.00     0.004 A 
ATOM      6  C   UNL d   1       8.938   6.973 -10.593  0.00  0.00     0.021 A 
ATOM      7  C   UNL d   1       8.196   5.656 -10.384  0.00  0.00     0.039 C 
ATOM      8  C   UNL d   1       7.311   5.101 -11.502  0.00  0.00     0.251 C 
ENDROOT
BRANCH   1   9
ATOM      9  C   UNL d   1       7.238   3.497 -13.248  0.00  0.00     0.251 C 
BRANCH   9  10
ATOM     10  C   UNL d   1       8.099   2.555 -14.096  0.00  0.00     0.047 C 
BRANCH  10  11
ATOM     11  C   UNL d   1       7.304   1.503 -14.872  0.00  0.00     0.067 C 
BRANCH  11  12
ATOM     12  S   UNL d   1       8.376   0.395 -15.836  0.00  0.00    -0.075 SA
BRANCH  12  13
ATOM     13  C   UNL d   1       9.255   1.613 -16.767  0.00  0.00     0.193 A 
ATOM     14  N   UNL d   1       8.784   2.185 -17.889  0.00  0.00    -0.122 NA
ATOM     15  N   UNL d   1       9.752   3.103 -18.237  0.00  0.00    -0.128 NA
ATOM     16  C   UNL d   1      10.709   3.030 -17.294  0.00  0.00     0.174 A 
ATOM     17  N   UNL d   1      10.459   2.085 -16.348  0.00  0.00    -0.288 N 
ATOM     18  C   UNL d   1      11.251   1.657 -15.184  0.00  0.00     0.134 C 
BRANCH  16  19
ATOM     19  C   UNL d   1      11.892   3.886 -17.333  0.00  0.00     0.080 A 
ATOM     20  C   UNL d   1      12.528   4.577 -16.316  0.00  0.00     0.069 A 
ATOM     21  N   UNL d   1      13.636   5.323 -16.782  0.00  0.00    -0.247 NA
ATOM     22  C   UNL d   1      12.150   4.716 -14.863  0.00  0.00     0.053 C 
ATOM     23  C   UNL d   1      13.862   5.170 -18.092  0.00  0.00     0.088 A 
ATOM     24  C   UNL d   1      14.983   5.845 -18.794  0.00  0.00     0.059 C 
ATOM     25  S   UNL d   1      12.701   4.101 -18.872  0.00  0.00    -0.068 SA
ENDBRANCH  16  19
ENDBRANCH  12  13
ENDBRANCH  11  12
ENDBRANCH  10  11
ENDBRANCH   9  10
ENDBRANCH   1   9
BRANCH   6  26
ATOM     26  C   UNL d   1       9.560   7.454  -9.286  0.00  0.00    -0.023 A 
ATOM     27  C   UNL d   1      10.601   8.423  -9.283  0.00  0.00    -0.004 A 
ATOM     28  C   UNL d   1      11.162   8.883  -8.084  0.00  0.00     0.004 A 
ATOM     29  C   UNL d   1      10.684   8.419  -6.846  0.00  0.00     0.071 A 
ATOM     30  C   UNL d   1       9.626   7.490  -6.830  0.00  0.00     0.004 A 
ATOM     31  C   UNL d   1       9.065   7.025  -8.027  0.00  0.00    -0.004 A 
BRANCH  29  32
ATOM     32  C   UNL d   1      11.283   8.922  -5.552  0.00  0.00     0.419 C 
ATOM     33  F   UNL d   1      11.428   7.905  -4.706  0.00  0.00    -0.166 F 
ATOM     34  F   UNL d   1      12.465   9.478  -5.775  0.00  0.00    -0.166 F 
ATOM     35  F   UNL d   1      10.480   9.841  -5.029  0.00  0.00    -0.166 F 
ENDBRANCH  29  32
ENDBRANCH   6  26
TORSDOF 8
