REMARK  4 active torsions:
REMARK  status: ('A' for Active; 'I' for Inactive)
REMARK    1  A    between atoms: C_4  and  C_5 
REMARK    2  A    between atoms: C_5  and  N_6 
REMARK    3  A    between atoms: C_9  and  N_10 
REMARK    4  A    between atoms: C_14  and  C_15 
ROOT
ATOM      1  N   UNL d   1       9.841   3.584 -13.423  0.00  0.00     0.141 N 
ATOM      2  C   UNL d   1      11.003   4.378 -13.791  0.00  0.00     0.253 C 
ATOM      3  C   UNL d   1      11.683   3.765 -15.013  0.00  0.00     0.058 C 
ATOM      4  C   UNL d   1      10.686   3.849 -16.191  0.00  0.00     0.090 C 
ATOM      5  C   UNL d   1       9.418   3.068 -15.787  0.00  0.00     0.058 C 
ATOM      6  C   UNL d   1       8.819   3.590 -14.476  0.00  0.00     0.253 C 
ENDROOT
BRANCH   4   7
ATOM      7  N   UNL d   1      11.267   3.329 -17.419  0.00  0.00    -0.327 N 
ATOM      8  C   UNL d   1      12.328   3.897 -18.135  0.00  0.00     0.085 A 
ATOM      9  C   UNL d   1      12.572   3.056 -19.199  0.00  0.00     0.021 A 
ATOM     10  C   UNL d   1      11.628   1.985 -19.181  0.00  0.00     0.020 A 
ATOM     11  C   UNL d   1      10.837   2.180 -18.095  0.00  0.00     0.076 A 
BRANCH   8  12
ATOM     12  C   UNL d   1      12.995   5.145 -17.780  0.00  0.00     0.137 A 
ATOM     13  O   UNL d   1      14.026   5.543 -18.608  0.00  0.00    -0.284 OA
ATOM     14  C   UNL d   1      14.497   6.700 -18.067  0.00  0.00     0.225 A 
ATOM     15  N   UNL d   1      13.874   7.035 -16.934  0.00  0.00    -0.215 NA
ATOM     16  C   UNL d   1      12.874   6.079 -16.774  0.00  0.00     0.127 A 
ENDBRANCH   8  12
ENDBRANCH   4   7
BRANCH   1  17
ATOM     17  C   UNL d   1       9.284   4.037 -12.152  0.00  0.00     0.277 C 
BRANCH  17  18
ATOM     18  C   UNL d   1       8.428   5.281 -12.222  0.00  0.00     0.011 A 
ATOM     19  C   UNL d   1       9.044   6.546 -12.221  0.00  0.00    -0.002 A 
ATOM     20  C   UNL d   1       8.271   7.698 -12.354  0.00  0.00    -0.000 A 
ATOM     21  C   UNL d   1       6.871   7.588 -12.472  0.00  0.00    -0.000 A 
ATOM     22  C   UNL d   1       6.251   6.330 -12.453  0.00  0.00    -0.000 A 
ATOM     23  C   UNL d   1       7.022   5.169 -12.292  0.00  0.00    -0.002 A 
ENDBRANCH  17  18
ENDBRANCH   1  17
TORSDOF 4
