REMARK  6 active torsions:
REMARK  status: ('A' for Active; 'I' for Inactive)
REMARK       I    between atoms: C_2  and  N_3 
REMARK    1  A    between atoms: C_2  and  C_18 
REMARK    2  A    between atoms: N_3  and  C_4 
REMARK    3  A    between atoms: C_4  and  C_5 
REMARK    4  A    between atoms: N_9  and  C_10 
REMARK    5  A    between atoms: C_10  and  C_11 
REMARK    6  A    between atoms: C_11  and  C_12 
ROOT
ATOM      1  C   UNL d   1       9.184   6.997 -10.239  0.00  0.00     0.243 C 
ATOM      2  C   UNL d   1       9.461   8.519 -10.335  0.00  0.00     0.037 C 
ATOM      3  C   UNL d   1       8.751   8.965 -11.598  0.00  0.00     0.037 C 
ATOM      4  C   UNL d   1       8.174   7.679 -12.160  0.00  0.00     0.250 C 
ATOM      5  N   UNL d   1       9.011   6.607 -11.639  0.00  0.00     0.137 N 
ENDROOT
BRANCH   1   6
ATOM      6  C   UNL d   1      10.306   6.231  -9.549  0.00  0.00     0.162 C 
BRANCH   6   7
ATOM      7  N   UNL d   1      10.787   6.876  -8.352  0.00  0.00    -0.232 NA
ATOM      8  C   UNL d   1      10.165   6.930  -7.180  0.00  0.00     0.275 C 
ATOM      9  O   UNL d   1       9.080   6.388  -6.941  0.00  0.00    -0.266 OA
BRANCH   8  10
ATOM     10  C   UNL d   1      10.900   7.700  -6.143  0.00  0.00     0.058 A 
ATOM     11  C   UNL d   1      11.164   7.125  -4.881  0.00  0.00     0.005 A 
ATOM     12  C   UNL d   1      11.860   7.857  -3.900  0.00  0.00     0.000 A 
ATOM     13  C   UNL d   1      12.253   9.183  -4.162  0.00  0.00     0.000 A 
ATOM     14  C   UNL d   1      11.981   9.758  -5.422  0.00  0.00     0.000 A 
ATOM     15  C   UNL d   1      11.308   9.022  -6.409  0.00  0.00     0.005 A 
ENDBRANCH   8  10
ENDBRANCH   6   7
ENDBRANCH   1   6
BRANCH   5  16
ATOM     16  C   UNL d   1       8.351   5.298 -11.758  0.00  0.00     0.255 C 
BRANCH  16  17
ATOM     17  C   UNL d   1       7.703   5.112 -13.136  0.00  0.00     0.062 C 
BRANCH  17  18
ATOM     18  C   UNL d   1       7.097   3.753 -13.325  0.00  0.00    -0.020 A 
ATOM     19  C   UNL d   1       5.858   3.482 -12.724  0.00  0.00    -0.004 A 
ATOM     20  C   UNL d   1       5.280   2.221 -12.886  0.00  0.00    -0.000 A 
ATOM     21  C   UNL d   1       5.918   1.230 -13.660  0.00  0.00    -0.000 A 
ATOM     22  C   UNL d   1       7.151   1.513 -14.289  0.00  0.00    -0.000 A 
ATOM     23  C   UNL d   1       7.741   2.785 -14.116  0.00  0.00    -0.004 A 
ENDBRANCH  17  18
ENDBRANCH  16  17
ENDBRANCH   5  16
TORSDOF 6
