REMARK  5 active torsions:
REMARK  status: ('A' for Active; 'I' for Inactive)
REMARK    1  A    between atoms: O_2  and  C_3 
REMARK    2  A    between atoms: C_9  and  C_10 
REMARK    3  A    between atoms: C_13  and  N_14 
REMARK       I    between atoms: N_14  and  C_15 
REMARK    4  A    between atoms: N_20  and  S_21 
REMARK    5  A    between atoms: S_21  and  C_24 
ROOT
ATOM      1  C   UNL d   1       5.490   0.688 -14.235  0.00  0.00     0.094 A 
ATOM      2  C   UNL d   1       6.039  -0.128 -15.235  0.00  0.00     0.026 A 
ATOM      3  C   UNL d   1       7.290   0.145 -15.778  0.00  0.00     0.020 A 
ATOM      4  C   UNL d   1       8.007   1.277 -15.370  0.00  0.00     0.075 A 
ATOM      5  C   UNL d   1       7.502   2.159 -14.375  0.00  0.00     0.022 A 
ATOM      6  C   UNL d   1       6.228   1.828 -13.805  0.00  0.00     0.026 A 
ATOM      7  C   UNL d   1       8.505   3.188 -14.172  0.00  0.00     0.040 A 
ATOM      8  C   UNL d   1       9.521   2.921 -15.048  0.00  0.00     0.093 A 
ATOM      9  N   UNL d   1       9.229   1.777 -15.778  0.00  0.00    -0.231 N 
ENDROOT
BRANCH   7  10
ATOM     10  C   UNL d   1       8.404   4.279 -13.207  0.00  0.00     0.121 A 
ATOM     11  C   UNL d   1       7.285   4.964 -12.778  0.00  0.00     0.138 A 
ATOM     12  N   UNL d   1       7.724   5.881 -11.858  0.00  0.00    -0.056 NA
ATOM     13  C   UNL d   1       9.033   5.778 -11.790  0.00  0.00     0.753 A 
ATOM     14  N   UNL d   1       9.539   4.811 -12.572  0.00  0.00    -0.058 NA
BRANCH  13  15
ATOM     15  N   UNL d   1       9.832   6.603 -10.954  0.00  0.00    -0.023 NA
ATOM     16  C   UNL d   1       9.742   7.950 -10.864  0.00  0.00     0.273 C 
ATOM     17  O   UNL d   1      10.373   8.553  -9.996  0.00  0.00    -0.270 OA
ATOM     18  C   UNL d   1       8.900   8.749 -11.878  0.00  0.00     0.101 C 
ENDBRANCH  13  15
ENDBRANCH   7  10
BRANCH   9  19
ATOM     19  S   UNL d   1      10.235   1.102 -17.003  0.00  0.00     0.271 S 
ATOM     20  O   UNL d   1      11.484   1.873 -16.957  0.00  0.00    -0.200 OA
ATOM     21  O   UNL d   1      10.238  -0.354 -16.769  0.00  0.00    -0.200 OA
BRANCH  19  22
ATOM     22  C   UNL d   1       9.356   1.465 -18.526  0.00  0.00     0.104 A 
ATOM     23  C   UNL d   1       9.692   2.614 -19.274  0.00  0.00     0.013 A 
ATOM     24  C   UNL d   1       8.992   2.894 -20.469  0.00  0.00     0.001 A 
ATOM     25  C   UNL d   1       7.945   2.049 -20.899  0.00  0.00     0.000 A 
ATOM     26  C   UNL d   1       7.609   0.910 -20.144  0.00  0.00     0.001 A 
ATOM     27  C   UNL d   1       8.331   0.602 -18.976  0.00  0.00     0.013 A 
ENDBRANCH  19  22
ENDBRANCH   9  19
BRANCH   1  28
ATOM     28  O   UNL d   1       4.271   0.422 -13.635  0.00  0.00    -0.328 OA
ATOM     29  C   UNL d   1       3.491  -0.648 -14.188  0.00  0.00     0.181 C 
ENDBRANCH   1  28
TORSDOF 5
