REMARK  14 active torsions:
REMARK  status: ('A' for Active; 'I' for Inactive)
REMARK    1  A    between atoms: C_2  and  C_3 
REMARK    2  A    between atoms: C_6  and  C_7 
REMARK    3  A    between atoms: C_7  and  C_8 
REMARK    4  A    between atoms: C_8  and  N_9 
REMARK    5  A    between atoms: N_9  and  C_10 
REMARK    6  A    between atoms: C_10  and  C_11 
REMARK    7  A    between atoms: C_11  and  C_12 
REMARK    8  A    between atoms: C_12  and  S_13 
REMARK    9  A    between atoms: S_13  and  C_14 
REMARK   10  A    between atoms: C_14  and  C_15 
REMARK   11  A    between atoms: C_15  and  N_16 
REMARK   12  A    between atoms: N_16  and  C_17 
REMARK   13  A    between atoms: C_17  and  C_18 
REMARK   14  A    between atoms: C_18  and  C_20 
ROOT
ATOM      1  C   UNL d   1       6.955   3.769 -14.124  0.00  0.00     0.096 C 
ENDROOT
BRANCH   1   2
ATOM      2  S   UNL d   1       6.258   3.939 -12.464  0.00  0.00    -0.138 SA
BRANCH   2   3
ATOM      3  C   UNL d   1       7.725   4.384 -11.488  0.00  0.00     0.060 C 
BRANCH   3   4
ATOM      4  C   UNL d   1       8.244   5.785 -11.795  0.00  0.00     0.050 C 
BRANCH   4   5
ATOM      5  C   UNL d   1       9.361   6.233 -10.837  0.00  0.00     0.291 C 
BRANCH   5   6
ATOM      6  N   UNL d   1       8.809   6.390  -9.503  0.00  0.00     0.339 N 
BRANCH   6   7
ATOM      7  C   UNL d   1       9.786   6.955  -8.592  0.00  0.00     0.295 C 
BRANCH   7   8
ATOM      8  C   UNL d   1       9.075   7.516  -7.353  0.00  0.00     0.065 C 
BRANCH   8   9
ATOM      9  C   UNL d   1      10.076   7.882  -6.280  0.00  0.00    -0.020 A 
ATOM     10  C   UNL d   1      10.600   6.864  -5.466  0.00  0.00    -0.004 A 
ATOM     11  C   UNL d   1      11.479   7.155  -4.418  0.00  0.00    -0.005 A 
ATOM     12  C   UNL d   1      11.857   8.492  -4.192  0.00  0.00    -0.022 A 
ATOM     13  C   UNL d   1      11.346   9.525  -5.011  0.00  0.00    -0.005 A 
ATOM     14  C   UNL d   1      10.471   9.209  -6.069  0.00  0.00    -0.004 A 
BRANCH  12  15
ATOM     15  C   UNL d   1      12.851   8.793  -3.099  0.00  0.00     0.026 C 
ATOM     16  C   UNL d   1      12.223   9.068  -1.749  0.00  0.00     0.005 C 
ENDBRANCH  12  15
ENDBRANCH   8   9
ENDBRANCH   7   8
ENDBRANCH   6   7
ENDBRANCH   5   6
ENDBRANCH   4   5
ENDBRANCH   3   4
ENDBRANCH   2   3
ENDBRANCH   1   2
BRANCH   1  17
ATOM     17  C   UNL d   1       7.987   2.639 -14.264  0.00  0.00     0.302 C 
BRANCH  17  18
ATOM     18  N   UNL d   1       8.654   2.693 -15.558  0.00  0.00     0.343 N 
BRANCH  18  19
ATOM     19  C   UNL d   1       9.700   1.680 -15.706  0.00  0.00     0.327 C 
BRANCH  19  20
ATOM     20  C   UNL d   1      10.506   1.887 -17.000  0.00  0.00     0.211 C 
ATOM     21  O   UNL d   1      11.462   0.854 -17.083  0.00  0.00    -0.216 OA
BRANCH  20  22
ATOM     22  C   UNL d   1      11.150   3.270 -17.042  0.00  0.00     0.018 A 
ATOM     23  C   UNL d   1      10.629   4.321 -17.823  0.00  0.00     0.052 A 
ATOM     24  C   UNL d   1      11.203   5.591 -17.818  0.00  0.00     0.116 A 
ATOM     25  S   UNL d   1       9.239   4.251 -18.875  0.00  0.00    -0.024 SA
ATOM     26  C   UNL d   1      12.337   5.877 -17.037  0.00  0.00     0.149 A 
ATOM     27  N   UNL d   1      10.525   6.498 -18.653  0.00  0.00    -0.200 NA
ATOM     28  C   UNL d   1      12.882   4.837 -16.249  0.00  0.00     0.029 A 
ATOM     29  O   UNL d   1      12.890   7.125 -17.041  0.00  0.00    -0.189 OA
ATOM     30  C   UNL d   1      12.285   3.553 -16.247  0.00  0.00     0.001 A 
ATOM     31  C   UNL d   1       9.415   5.995 -19.314  0.00  0.00     0.311 A 
ATOM     32  O   UNL d   1       8.655   6.586 -20.076  0.00  0.00    -0.258 OA
ENDBRANCH  20  22
ENDBRANCH  19  20
ENDBRANCH  18  19
ENDBRANCH  17  18
ENDBRANCH   1  17
TORSDOF 14
