REMARK  8 active torsions:
REMARK  status: ('A' for Active; 'I' for Inactive)
REMARK    1  A    between atoms: C_6  and  C_7 
REMARK    2  A    between atoms: C_10  and  S_11 
REMARK    3  A    between atoms: S_11  and  C_12 
REMARK    4  A    between atoms: C_12  and  C_13 
REMARK    5  A    between atoms: C_13  and  C_14 
REMARK    6  A    between atoms: C_14  and  N_15 
REMARK    7  A    between atoms: C_20  and  C_21 
REMARK    8  A    between atoms: C_24  and  C_25 
ROOT
ATOM      1  N   UNL d   1       8.573   1.606 -14.887  0.00  0.00     0.137 N 
ATOM      2  C   UNL d   1       7.823   0.599 -14.157  0.00  0.00     0.250 C 
ATOM      3  C   UNL d   1       6.596   1.365 -13.671  0.00  0.00     0.038 C 
ATOM      4  C   UNL d   1       7.061   2.798 -13.572  0.00  0.00     0.037 A 
ATOM      5  C   UNL d   1       6.074   3.901 -13.879  0.00  0.00     0.007 A 
ATOM      6  C   UNL d   1       6.586   3.768 -12.477  0.00  0.00     0.024 A 
ATOM      7  C   UNL d   1       8.502   2.780 -14.053  0.00  0.00     0.251 C 
ENDROOT
BRANCH   1   8
ATOM      8  C   UNL d   1       9.930   1.163 -15.171  0.00  0.00     0.251 C 
BRANCH   8   9
ATOM      9  C   UNL d   1      10.490   1.936 -16.370  0.00  0.00     0.047 C 
BRANCH   9  10
ATOM     10  C   UNL d   1      11.871   1.415 -16.814  0.00  0.00     0.067 C 
BRANCH  10  11
ATOM     11  S   UNL d   1      12.476   2.199 -18.340  0.00  0.00    -0.075 SA
BRANCH  11  12
ATOM     12  C   UNL d   1      12.927   3.789 -17.722  0.00  0.00     0.193 A 
ATOM     13  N   UNL d   1      12.761   4.196 -16.460  0.00  0.00    -0.122 NA
ATOM     14  N   UNL d   1      13.217   5.484 -16.419  0.00  0.00    -0.127 NA
ATOM     15  C   UNL d   1      13.664   5.742 -17.649  0.00  0.00     0.184 A 
ATOM     16  N   UNL d   1      13.481   4.723 -18.516  0.00  0.00    -0.287 N 
ATOM     17  C   UNL d   1      13.802   4.651 -19.937  0.00  0.00     0.134 C 
BRANCH  15  18
ATOM     18  C   UNL d   1      14.235   7.040 -17.974  0.00  0.00     0.115 A 
ATOM     19  N   UNL d   1      15.542   7.198 -18.406  0.00  0.00    -0.246 N 
ATOM     20  C   UNL d   1      16.582   6.207 -18.624  0.00  0.00     0.154 C 
ATOM     21  N   UNL d   1      15.823   8.501 -18.628  0.00  0.00    -0.168 NA
ATOM     22  C   UNL d   1      14.710   9.148 -18.314  0.00  0.00     0.122 A 
ATOM     23  C   UNL d   1      13.678   8.277 -17.867  0.00  0.00     0.044 A 
ENDBRANCH  15  18
ENDBRANCH  11  12
ENDBRANCH  10  11
ENDBRANCH   9  10
ENDBRANCH   8   9
ENDBRANCH   1   8
BRANCH   6  24
ATOM     24  C   UNL d   1       7.530   4.785 -11.879  0.00  0.00    -0.022 A 
ATOM     25  C   UNL d   1       7.881   4.703 -10.512  0.00  0.00    -0.004 A 
ATOM     26  C   UNL d   1       8.771   5.603  -9.908  0.00  0.00     0.004 A 
ATOM     27  C   UNL d   1       9.322   6.653 -10.678  0.00  0.00     0.071 A 
ATOM     28  C   UNL d   1       8.980   6.756 -12.040  0.00  0.00     0.004 A 
ATOM     29  C   UNL d   1       8.102   5.838 -12.633  0.00  0.00    -0.004 A 
BRANCH  27  30
ATOM     30  C   UNL d   1      10.239   7.678 -10.040  0.00  0.00     0.419 C 
ATOM     31  F   UNL d   1       9.851   7.972  -8.800  0.00  0.00    -0.166 F 
ATOM     32  F   UNL d   1      11.480   7.208 -10.001  0.00  0.00    -0.166 F 
ATOM     33  F   UNL d   1      10.242   8.796 -10.764  0.00  0.00    -0.166 F 
ENDBRANCH  27  30
ENDBRANCH   6  24
TORSDOF 8
