REMARK  9 active torsions:
REMARK  status: ('A' for Active; 'I' for Inactive)
REMARK    1  A    between atoms: C_4  and  C_5 
REMARK    2  A    between atoms: C_5  and  C_6 
REMARK    3  A    between atoms: C_6  and  C_7 
REMARK    4  A    between atoms: C_7  and  N_8 
REMARK    5  A    between atoms: N_8  and  C_9 
REMARK    6  A    between atoms: C_9  and  C_10 
REMARK    7  A    between atoms: C_10  and  C_11 
REMARK    8  A    between atoms: C_11  and  O_12 
REMARK    9  A    between atoms: O_12  and  C_13 
ROOT
ATOM      1  N   UNL d   1       9.457   7.070 -10.194  0.00  0.00     0.339 N 
ENDROOT
BRANCH   1   2
ATOM      2  C   UNL d   1       9.190   5.647 -10.233  0.00  0.00     0.290 C 
BRANCH   2   3
ATOM      3  C   UNL d   1       7.993   5.357 -11.143  0.00  0.00     0.043 C 
BRANCH   3   4
ATOM      4  C   UNL d   1       8.304   5.559 -12.635  0.00  0.00     0.029 C 
BRANCH   4   5
ATOM      5  C   UNL d   1       8.347   4.247 -13.395  0.00  0.00    -0.022 A 
ATOM      6  C   UNL d   1       9.585   3.670 -13.746  0.00  0.00    -0.004 A 
ATOM      7  C   UNL d   1       9.622   2.450 -14.448  0.00  0.00    -0.000 A 
ATOM      8  C   UNL d   1       8.421   1.803 -14.803  0.00  0.00    -0.000 A 
ATOM      9  C   UNL d   1       7.184   2.373 -14.452  0.00  0.00    -0.000 A 
ATOM     10  C   UNL d   1       7.147   3.591 -13.740  0.00  0.00    -0.004 A 
ENDBRANCH   4   5
ENDBRANCH   3   4
ENDBRANCH   2   3
ENDBRANCH   1   2
BRANCH   1  11
ATOM     11  C   UNL d   1      10.404   7.356  -9.132  0.00  0.00     0.293 C 
BRANCH  11  12
ATOM     12  C   UNL d   1       9.929   8.586  -8.373  0.00  0.00     0.071 C 
BRANCH  12  13
ATOM     13  C   UNL d   1      10.847   8.934  -7.193  0.00  0.00     0.151 C 
BRANCH  13  14
ATOM     14  O   UNL d   1      11.032   7.829  -6.321  0.00  0.00    -0.331 OA
BRANCH  14  15
ATOM     15  C   UNL d   1      11.453   8.085  -5.037  0.00  0.00     0.094 A 
ATOM     16  C   UNL d   1      11.844   7.004  -4.213  0.00  0.00     0.024 A 
ATOM     17  C   UNL d   1      12.254   7.211  -2.880  0.00  0.00     0.002 A 
ATOM     18  C   UNL d   1      12.265   8.511  -2.354  0.00  0.00     0.000 A 
ATOM     19  C   UNL d   1      11.862   9.596  -3.167  0.00  0.00     0.002 A 
ATOM     20  C   UNL d   1      11.475   9.396  -4.505  0.00  0.00     0.024 A 
ENDBRANCH  14  15
ENDBRANCH  13  14
ENDBRANCH  12  13
ENDBRANCH  11  12
ENDBRANCH   1  11
TORSDOF 9
