REMARK  0 active torsions:
REMARK  status: ('A' for Active; 'I' for Inactive)
ROOT
ATOM      1 CL   UNL d   1       9.425   4.542  -8.861  0.00  0.00    -0.079 Cl
ATOM      2  C   UNL d   1       9.235   6.248  -8.393  0.00  0.00     0.237 C 
ATOM      3 CL   UNL d   1       8.305   6.389  -6.879  0.00  0.00    -0.079 Cl
ATOM      4 CL   UNL d   1      10.816   7.048  -8.239  0.00  0.00    -0.079 Cl
ENDROOT
TORSDOF 0
