REMARK  8 active torsions:
REMARK  status: ('A' for Active; 'I' for Inactive)
REMARK    1  A    between atoms: C_4  and  C_5 
REMARK    2  A    between atoms: C_8  and  S_9 
REMARK    3  A    between atoms: S_9  and  C_10 
REMARK    4  A    between atoms: C_10  and  C_11 
REMARK    5  A    between atoms: C_11  and  C_12 
REMARK    6  A    between atoms: C_12  and  N_13 
REMARK    7  A    between atoms: C_18  and  C_19 
REMARK    8  A    between atoms: C_22  and  C_23 
ROOT
ATOM      1  N   UNL d   1      11.004   3.758 -15.722  0.00  0.00     0.137 N 
ATOM      2  C   UNL d   1      12.121   4.653 -15.522  0.00  0.00     0.250 C 
ATOM      3  C   UNL d   1      13.008   4.323 -16.696  0.00  0.00     0.038 C 
ATOM      4  C   UNL d   1      12.095   3.772 -17.763  0.00  0.00     0.037 A 
ATOM      5  C   UNL d   1      12.337   3.997 -19.248  0.00  0.00     0.007 A 
ATOM      6  C   UNL d   1      12.485   2.615 -18.678  0.00  0.00     0.024 A 
ATOM      7  C   UNL d   1      10.723   3.853 -17.143  0.00  0.00     0.251 C 
ENDROOT
BRANCH   1   8
ATOM      8  C   UNL d   1       9.821   4.130 -14.960  0.00  0.00     0.251 C 
BRANCH   8   9
ATOM      9  C   UNL d   1       9.960   3.721 -13.491  0.00  0.00     0.047 C 
BRANCH   9  10
ATOM     10  C   UNL d   1       8.728   4.120 -12.678  0.00  0.00     0.067 C 
BRANCH  10  11
ATOM     11  S   UNL d   1       8.649   5.908 -12.337  0.00  0.00    -0.075 SA
BRANCH  11  12
ATOM     12  C   UNL d   1       9.110   5.976 -10.624  0.00  0.00     0.193 A 
ATOM     13  N   UNL d   1       8.965   4.971  -9.758  0.00  0.00    -0.122 NA
ATOM     14  N   UNL d   1       9.440   5.428  -8.561  0.00  0.00    -0.128 NA
ATOM     15  C   UNL d   1       9.812   6.691  -8.780  0.00  0.00     0.170 A 
ATOM     16  N   UNL d   1       9.647   7.079 -10.066  0.00  0.00    -0.289 N 
ATOM     17  C   UNL d   1       9.913   8.365 -10.701  0.00  0.00     0.134 C 
BRANCH  15  18
ATOM     18  C   UNL d   1      10.338   7.480  -7.678  0.00  0.00     0.076 A 
ATOM     19  C   UNL d   1      10.606   8.815  -7.632  0.00  0.00     0.100 A 
ATOM     20  N   UNL d   1      11.101   9.074  -6.381  0.00  0.00    -0.247 N 
ATOM     21  C   UNL d   1      11.550  10.342  -5.869  0.00  0.00     0.154 C 
ATOM     22  N   UNL d   1      11.132   7.971  -5.599  0.00  0.00    -0.168 NA
ATOM     23  C   UNL d   1      10.672   7.003  -6.381  0.00  0.00     0.125 A 
ENDBRANCH  15  18
ENDBRANCH  11  12
ENDBRANCH  10  11
ENDBRANCH   9  10
ENDBRANCH   8   9
ENDBRANCH   1   8
BRANCH   6  24
ATOM     24  C   UNL d   1      11.501   1.517 -18.979  0.00  0.00    -0.022 A 
ATOM     25  C   UNL d   1      11.128   0.581 -17.988  0.00  0.00    -0.004 A 
ATOM     26  C   UNL d   1      10.115  -0.362 -18.249  0.00  0.00     0.004 A 
ATOM     27  C   UNL d   1       9.464  -0.382 -19.503  0.00  0.00     0.071 A 
ATOM     28  C   UNL d   1       9.838   0.556 -20.485  0.00  0.00     0.004 A 
ATOM     29  C   UNL d   1      10.850   1.492 -20.228  0.00  0.00    -0.004 A 
BRANCH  27  30
ATOM     30  C   UNL d   1       8.364  -1.381 -19.817  0.00  0.00     0.419 C 
ATOM     31  F   UNL d   1       8.254  -2.309 -18.864  0.00  0.00    -0.166 F 
ATOM     32  F   UNL d   1       7.198  -0.744 -19.937  0.00  0.00    -0.166 F 
ATOM     33  F   UNL d   1       8.639  -1.991 -20.970  0.00  0.00    -0.166 F 
ENDBRANCH  27  30
ENDBRANCH   6  24
TORSDOF 8
