REMARK  8 active torsions:
REMARK  status: ('A' for Active; 'I' for Inactive)
REMARK    1  A    between atoms: O_2  and  C_3 
REMARK    2  A    between atoms: N_13  and  C_14 
REMARK    3  A    between atoms: C_14  and  C_15 
REMARK    4  A    between atoms: C_15  and  C_16 
REMARK    5  A    between atoms: C_16  and  C_17 
REMARK    6  A    between atoms: C_17  and  N_18 
REMARK       I    between atoms: N_18  and  C_19 
REMARK    7  A    between atoms: C_19  and  C_21 
REMARK    8  A    between atoms: C_24  and  C_25 
ROOT
ATOM      1  C   UNL d   1       8.269   4.360 -14.007  0.00  0.00     0.037 C 
ENDROOT
BRANCH   1   2
ATOM      2  C   UNL d   1       8.876   3.207 -14.830  0.00  0.00     0.251 C 
BRANCH   2   3
ATOM      3  N   UNL d   1      10.169   3.483 -15.474  0.00  0.00     0.143 N 
ATOM      4  C   UNL d   1      10.172   4.780 -16.150  0.00  0.00     0.282 C 
ATOM      5  C   UNL d   1      11.513   5.100 -16.830  0.00  0.00     0.178 C 
ATOM      6  O   UNL d   1      11.862   4.061 -17.726  0.00  0.00    -0.348 OA
ATOM      7  C   UNL d   1      11.935   2.795 -17.083  0.00  0.00     0.173 C 
ATOM      8  C   UNL d   1      12.404   1.710 -18.031  0.00  0.00     0.031 A 
ATOM      9  C   UNL d   1      10.565   2.454 -16.455  0.00  0.00     0.280 C 
ATOM     10  C   UNL d   1      11.851   0.412 -17.948  0.00  0.00     0.092 A 
ATOM     11  C   UNL d   1      13.416   1.993 -18.973  0.00  0.00     0.024 A 
ATOM     12  C   UNL d   1      12.301  -0.577 -18.841  0.00  0.00     0.026 A 
ATOM     13  O   UNL d   1      10.865   0.082 -17.036  0.00  0.00    -0.329 OA
ATOM     14  C   UNL d   1      13.313  -0.294 -19.781  0.00  0.00     0.026 A 
ATOM     15  C   UNL d   1      13.885   1.000 -19.854  0.00  0.00     0.094 A 
ATOM     16  C   UNL d   1      10.630   0.991 -15.959  0.00  0.00     0.185 C 
BRANCH  15  17
ATOM     17  O   UNL d   1      14.885   1.361 -20.730  0.00  0.00    -0.328 OA
ATOM     18  C   UNL d   1      15.391   0.369 -21.609  0.00  0.00     0.181 C 
ENDBRANCH  15  17
ENDBRANCH   2   3
ENDBRANCH   1   2
BRANCH   1  19
ATOM     19  C   UNL d   1       9.048   4.670 -12.720  0.00  0.00     0.029 C 
BRANCH  19  20
ATOM     20  C   UNL d   1       8.574   5.963 -12.046  0.00  0.00     0.129 C 
BRANCH  20  21
ATOM     21  N   UNL d   1       9.333   6.227 -10.830  0.00  0.00    -0.234 NA
ATOM     22  C   UNL d   1       9.813   7.420 -10.463  0.00  0.00     0.275 C 
ATOM     23  O   UNL d   1       9.865   8.400 -11.209  0.00  0.00    -0.266 OA
BRANCH  22  24
ATOM     24  C   UNL d   1      10.268   7.520  -9.035  0.00  0.00     0.058 A 
ATOM     25  C   UNL d   1      11.323   8.389  -8.684  0.00  0.00     0.005 A 
ATOM     26  C   UNL d   1      11.709   8.529  -7.336  0.00  0.00     0.000 A 
ATOM     27  C   UNL d   1      11.054   7.801  -6.317  0.00  0.00     0.000 A 
ATOM     28  C   UNL d   1       9.987   6.950  -6.676  0.00  0.00     0.000 A 
ATOM     29  C   UNL d   1       9.590   6.815  -8.019  0.00  0.00     0.005 A 
BRANCH  27  30
ATOM     30  C   UNL d   1      11.459   7.930  -4.909  0.00  0.00     0.000 A 
ATOM     31  C   UNL d   1      11.634   6.792  -4.098  0.00  0.00     0.000 A 
ATOM     32  C   UNL d   1      12.032   6.905  -2.752  0.00  0.00     0.000 A 
ATOM     33  C   UNL d   1      12.257   8.178  -2.201  0.00  0.00     0.000 A 
ATOM     34  C   UNL d   1      12.087   9.325  -2.997  0.00  0.00     0.000 A 
ATOM     35  C   UNL d   1      11.691   9.202  -4.343  0.00  0.00     0.000 A 
ENDBRANCH  27  30
ENDBRANCH  22  24
ENDBRANCH  20  21
ENDBRANCH  19  20
ENDBRANCH   1  19
TORSDOF 8
