REMARK  13 active torsions:
REMARK  status: ('A' for Active; 'I' for Inactive)
REMARK    1  A    between atoms: O_2  and  C_3 
REMARK    2  A    between atoms: C_6  and  C_7 
REMARK    3  A    between atoms: C_7  and  C_8 
REMARK    4  A    between atoms: C_8  and  N_9 
REMARK    5  A    between atoms: N_9  and  C_11 
REMARK    6  A    between atoms: C_11  and  C_12 
REMARK    7  A    between atoms: C_12  and  C_13 
REMARK    8  A    between atoms: C_13  and  C_14 
REMARK    9  A    between atoms: C_14  and  C_17 
REMARK   10  A    between atoms: C_14  and  C_27 
REMARK   11  A    between atoms: C_20  and  O_21 
REMARK   12  A    between atoms: C_23  and  O_24 
REMARK   13  A    between atoms: C_31  and  O_32 
ROOT
ATOM      1  C   UNL d   1      10.958   1.330 -19.783  0.00  0.00     0.098 C 
ATOM      2  C   UNL d   1      11.917   0.273 -19.388  0.00  0.00     0.076 C 
ATOM      3  N   UNL d   1      12.660  -0.557 -19.079  0.00  0.00    -0.196 NA
ENDROOT
BRANCH   1   4
ATOM      4  C   UNL d   1       9.534   0.775 -19.483  0.00  0.00     0.020 C 
BRANCH   4   5
ATOM      5  C   UNL d   1       9.250   0.557 -17.987  0.00  0.00     0.037 C 
BRANCH   5   6
ATOM      6  C   UNL d   1       7.833   0.018 -17.701  0.00  0.00     0.250 C 
BRANCH   6   7
ATOM      7  N   UNL d   1       7.468   0.061 -16.289  0.00  0.00     0.139 N 
ATOM      8  C   UNL d   1       6.196  -0.650 -16.124  0.00  0.00     0.285 C 
BRANCH   7   9
ATOM      9  C   UNL d   1       7.321   1.430 -15.791  0.00  0.00     0.255 C 
BRANCH   9  10
ATOM     10  C   UNL d   1       7.258   1.487 -14.259  0.00  0.00     0.062 C 
BRANCH  10  11
ATOM     11  C   UNL d   1       7.232   2.921 -13.774  0.00  0.00    -0.018 A 
ATOM     12  C   UNL d   1       5.997   3.553 -13.571  0.00  0.00    -0.002 A 
ATOM     13  C   UNL d   1       5.957   4.869 -13.106  0.00  0.00     0.026 A 
ATOM     14  C   UNL d   1       7.148   5.582 -12.817  0.00  0.00     0.116 A 
ATOM     15  C   UNL d   1       8.389   4.919 -12.960  0.00  0.00     0.116 A 
ATOM     16  C   UNL d   1       8.428   3.606 -13.472  0.00  0.00     0.022 A 
BRANCH  14  17
ATOM     17  O   UNL d   1       7.161   6.913 -12.460  0.00  0.00    -0.326 OA
ATOM     18  C   UNL d   1       5.949   7.648 -12.447  0.00  0.00     0.181 C 
ENDBRANCH  14  17
BRANCH  15  19
ATOM     19  O   UNL d   1       9.586   5.530 -12.681  0.00  0.00    -0.326 OA
ATOM     20  C   UNL d   1       9.735   5.951 -11.324  0.00  0.00     0.181 C 
ENDBRANCH  15  19
ENDBRANCH  10  11
ENDBRANCH   9  10
ENDBRANCH   7   9
ENDBRANCH   6   7
ENDBRANCH   5   6
ENDBRANCH   4   5
ENDBRANCH   1   4
BRANCH   1  21
ATOM     21  C   UNL d   1      11.201   2.625 -18.969  0.00  0.00    -0.008 A 
ATOM     22  C   UNL d   1      10.377   3.756 -19.184  0.00  0.00     0.023 A 
ATOM     23  C   UNL d   1      10.556   4.957 -18.451  0.00  0.00     0.116 A 
ATOM     24  C   UNL d   1      11.577   5.032 -17.478  0.00  0.00     0.116 A 
ATOM     25  C   UNL d   1      12.405   3.904 -17.256  0.00  0.00     0.026 A 
ATOM     26  C   UNL d   1      12.218   2.718 -17.989  0.00  0.00    -0.001 A 
BRANCH  23  27
ATOM     27  O   UNL d   1       9.777   6.083 -18.629  0.00  0.00    -0.326 OA
ATOM     28  C   UNL d   1       8.826   6.091 -19.683  0.00  0.00     0.181 C 
ENDBRANCH  23  27
BRANCH  24  29
ATOM     29  O   UNL d   1      11.709   6.225 -16.797  0.00  0.00    -0.326 OA
ATOM     30  C   UNL d   1      12.736   6.338 -15.825  0.00  0.00     0.181 C 
ENDBRANCH  24  29
ENDBRANCH   1  21
BRANCH   1  31
ATOM     31  C   UNL d   1      11.134   1.625 -21.309  0.00  0.00     0.017 C 
ATOM     32  C   UNL d   1      10.925   0.391 -22.208  0.00  0.00     0.001 C 
ATOM     33  C   UNL d   1      12.502   2.262 -21.636  0.00  0.00     0.001 C 
ENDBRANCH   1  31
TORSDOF 13
