REMARK  0 active torsions:
REMARK  status: ('A' for Active; 'I' for Inactive)
ROOT
ATOM      1  N   UNL d   1      11.063  10.698  -5.863  0.00  0.00    -0.101 NA
ATOM      2  C   UNL d   1      11.077   9.311  -5.747  0.00  0.00     0.069 A 
ATOM      3  C   UNL d   1      10.659   8.512  -6.834  0.00  0.00     0.004 A 
ATOM      4  C   UNL d   1      10.664   7.112  -6.666  0.00  0.00     0.056 A 
ATOM      5  N   UNL d   1      11.093   6.519  -5.536  0.00  0.00    -0.250 NA
ATOM      6  C   UNL d   1      11.477   7.269  -4.487  0.00  0.00     0.082 A 
ATOM      7  C   UNL d   1      11.865   6.659  -3.285  0.00  0.00     0.019 A 
ATOM      8  C   UNL d   1      12.280   7.409  -2.172  0.00  0.00     0.002 A 
ATOM      9  C   UNL d   1      12.278   8.812  -2.246  0.00  0.00     0.000 A 
ATOM     10  C   UNL d   1      11.849   9.446  -3.419  0.00  0.00     0.003 A 
ATOM     11  C   UNL d   1      11.473   8.688  -4.545  0.00  0.00     0.030 A 
ATOM     12  C   UNL d   1      10.203   6.174  -7.778  0.00  0.00     0.045 C 
ATOM     13  C   UNL d   1       9.459   6.854  -8.917  0.00  0.00     0.007 C 
ATOM     14  C   UNL d   1      10.124   8.165  -9.327  0.00  0.00     0.005 C 
ATOM     15  C   UNL d   1      10.188   9.136  -8.148  0.00  0.00     0.029 C 
ENDROOT
TORSDOF 0
