REMARK  10 active torsions:
REMARK  status: ('A' for Active; 'I' for Inactive)
REMARK    1  A    between atoms: O_2  and  C_3 
REMARK    2  A    between atoms: C_8  and  N_9 
REMARK    3  A    between atoms: N_12  and  C_13 
REMARK    4  A    between atoms: C_13  and  C_14 
REMARK    5  A    between atoms: C_14  and  C_15 
REMARK    6  A    between atoms: C_15  and  C_16 
REMARK    7  A    between atoms: C_16  and  N_17 
REMARK       I    between atoms: N_17  and  C_18 
REMARK    8  A    between atoms: C_18  and  C_20 
REMARK    9  A    between atoms: N_23  and  C_24 
REMARK   10  A    between atoms: C_24  and  C_25 
ROOT
ATOM      1  C   UNL d   1       9.431   4.699 -11.253  0.00  0.00     0.029 C 
ENDROOT
BRANCH   1   2
ATOM      2  C   UNL d   1       8.610   4.136 -12.414  0.00  0.00     0.037 C 
BRANCH   2   3
ATOM      3  C   UNL d   1       9.502   3.282 -13.338  0.00  0.00     0.251 C 
BRANCH   3   4
ATOM      4  N   UNL d   1       8.726   2.261 -14.054  0.00  0.00     0.141 N 
ATOM      5  C   UNL d   1       9.620   1.234 -14.590  0.00  0.00     0.274 C 
ATOM      6  C   UNL d   1       8.786   0.128 -15.267  0.00  0.00     0.137 C 
ATOM      7  N   UNL d   1       7.956   0.703 -16.314  0.00  0.00    -0.343 N 
ATOM      8  C   UNL d   1       7.126   1.821 -15.895  0.00  0.00     0.137 C 
ATOM      9  C   UNL d   1       7.987   2.865 -15.154  0.00  0.00     0.274 C 
BRANCH   7  10
ATOM     10  C   UNL d   1       8.040   0.293 -17.656  0.00  0.00     0.079 A 
ATOM     11  C   UNL d   1       9.293   0.072 -18.286  0.00  0.00     0.110 A 
ATOM     12  C   UNL d   1       9.317  -0.391 -19.627  0.00  0.00     0.026 A 
ATOM     13  C   UNL d   1       8.123  -0.614 -20.335  0.00  0.00     0.002 A 
ATOM     14  C   UNL d   1       6.886  -0.375 -19.710  0.00  0.00     0.002 A 
ATOM     15  C   UNL d   1       6.847   0.079 -18.378  0.00  0.00     0.019 A 
BRANCH  11  16
ATOM     16  O   UNL d   1      10.439   0.344 -17.565  0.00  0.00    -0.327 OA
ATOM     17  C   UNL d   1      11.701   0.072 -18.151  0.00  0.00     0.181 C 
ENDBRANCH  11  16
ENDBRANCH   7  10
ENDBRANCH   3   4
ENDBRANCH   2   3
ENDBRANCH   1   2
BRANCH   1  18
ATOM     18  C   UNL d   1       8.561   5.292 -10.126  0.00  0.00     0.129 C 
BRANCH  18  19
ATOM     19  N   UNL d   1       9.316   6.165  -9.239  0.00  0.00    -0.233 NA
ATOM     20  C   UNL d   1       9.965   7.270  -9.625  0.00  0.00     0.296 C 
ATOM     21  O   UNL d   1      10.057   7.613 -10.800  0.00  0.00    -0.264 OA
BRANCH  20  22
ATOM     22  C   UNL d   1      10.579   8.046  -8.515  0.00  0.00     0.175 A 
ATOM     23  C   UNL d   1       9.977   8.439  -7.353  0.00  0.00     0.082 A 
ATOM     24  N   UNL d   1      10.956   9.176  -6.719  0.00  0.00    -0.231 N 
ATOM     25  C   UNL d   1       8.616   8.186  -6.822  0.00  0.00     0.054 C 
ATOM     26  N   UNL d   1      12.105   9.180  -7.427  0.00  0.00    -0.064 NA
ATOM     27  N   UNL d   1      11.886   8.522  -8.520  0.00  0.00    -0.124 NA
BRANCH  24  28
ATOM     28  C   UNL d   1      10.938   9.818  -5.420  0.00  0.00     0.155 C 
BRANCH  28  29
ATOM     29  C   UNL d   1      11.465   8.886  -4.346  0.00  0.00     0.002 A 
ATOM     30  C   UNL d   1      11.863   9.435  -3.111  0.00  0.00    -0.002 A 
ATOM     31  C   UNL d   1      12.338   8.599  -2.087  0.00  0.00    -0.000 A 
ATOM     32  C   UNL d   1      12.415   7.208  -2.287  0.00  0.00    -0.000 A 
ATOM     33  C   UNL d   1      12.029   6.652  -3.515  0.00  0.00    -0.000 A 
ATOM     34  C   UNL d   1      11.543   7.482  -4.536  0.00  0.00    -0.002 A 
ENDBRANCH  28  29
ENDBRANCH  24  28
ENDBRANCH  20  22
ENDBRANCH  18  19
ENDBRANCH   1  18
TORSDOF 10
