REMARK  4 active torsions:
REMARK  status: ('A' for Active; 'I' for Inactive)
REMARK    1  A    between atoms: C_2  and  C_3 
REMARK    2  A    between atoms: C_3  and  C_4 
REMARK    3  A    between atoms: C_4  and  C_5 
REMARK    4  A    between atoms: C_5  and  N_6 
ROOT
ATOM      1  N   UNL d   1      10.241   7.188 -10.463  0.00  0.00     0.140 N 
ATOM      2  C   UNL d   1      10.677   8.595 -10.430  0.00  0.00     0.268 C 
ATOM      3  C   UNL d   1      10.497   9.242  -9.051  0.00  0.00     0.112 C 
ATOM      4  N   UNL d   1      11.145   8.466  -7.999  0.00  0.00    -0.249 NA
ATOM      5  C   UNL d   1      11.183   9.013  -6.699  0.00  0.00     0.038 C 
ATOM      6  C   UNL d   1      11.083  10.391  -6.392  0.00  0.00     0.011 C 
ATOM      7  C   UNL d   1      11.000  10.781  -5.046  0.00  0.00     0.003 C 
ATOM      8  C   UNL d   1      11.250   9.908  -3.993  0.00  0.00     0.019 C 
ATOM      9  C   UNL d   1      11.454   8.589  -4.290  0.00  0.00     0.082 A 
ATOM     10  N   UNL d   1      11.716   7.518  -3.481  0.00  0.00    -0.244 NA
ATOM     11  C   UNL d   1      11.772   6.391  -4.264  0.00  0.00     0.095 A 
ATOM     12  C   UNL d   1      11.505   6.773  -5.537  0.00  0.00     0.001 A 
ATOM     13  C   UNL d   1      11.352   8.161  -5.598  0.00  0.00     0.025 A 
ATOM     14  C   UNL d   1      11.564   6.231  -6.949  0.00  0.00     0.046 C 
ATOM     15  C   UNL d   1      10.771   7.052  -8.004  0.00  0.00     0.100 C 
ATOM     16  C   UNL d   1      10.944   6.478  -9.423  0.00  0.00     0.267 C 
ENDROOT
BRANCH   1  17
ATOM     17  C   UNL d   1       8.854   6.952 -10.390  0.00  0.00     0.250 C 
BRANCH  17  18
ATOM     18  C   UNL d   1       8.409   5.545 -10.784  0.00  0.00     0.035 C 
BRANCH  18  19
ATOM     19  C   UNL d   1       7.147   5.579 -11.654  0.00  0.00     0.002 C 
BRANCH  19  20
ATOM     20  C   UNL d   1       6.788   4.186 -12.176  0.00  0.00     0.000 C 
ATOM     21  C   UNL d   1       5.570   4.178 -13.101  0.00  0.00     0.000 C 
ENDBRANCH  19  20
ENDBRANCH  18  19
ENDBRANCH  17  18
ENDBRANCH   1  17
TORSDOF 4
