REMARK  6 active torsions:
REMARK  status: ('A' for Active; 'I' for Inactive)
REMARK       I    between atoms: C_2  and  N_3 
REMARK    1  A    between atoms: C_2  and  C_22 
REMARK    2  A    between atoms: N_3  and  C_4 
REMARK    3  A    between atoms: C_4  and  C_5 
REMARK    4  A    between atoms: C_5  and  C_6 
REMARK    5  A    between atoms: C_6  and  C_7 
REMARK    6  A    between atoms: C_7  and  N_8 
ROOT
ATOM      1  C   UNL d   1       9.135   5.306 -12.148  0.00  0.00     0.037 C 
ENDROOT
BRANCH   1   2
ATOM      2  C   UNL d   1       9.391   5.442 -10.640  0.00  0.00     0.029 C 
BRANCH   2   3
ATOM      3  C   UNL d   1       9.796   6.866 -10.261  0.00  0.00     0.129 C 
BRANCH   3   4
ATOM      4  N   UNL d   1      10.139   6.951  -8.852  0.00  0.00    -0.233 NA
ATOM      5  C   UNL d   1      10.478   8.096  -8.249  0.00  0.00     0.293 C 
ATOM      6  O   UNL d   1      10.489   9.184  -8.820  0.00  0.00    -0.264 OA
BRANCH   5   7
ATOM      7  C   UNL d   1      10.841   7.978  -6.828  0.00  0.00     0.139 A 
ATOM      8  N   UNL d   1      10.964   9.122  -6.056  0.00  0.00    -0.241 NA
ATOM      9  C   UNL d   1      11.366   8.807  -4.774  0.00  0.00     0.082 A 
ATOM     10  C   UNL d   1      11.495   7.390  -4.754  0.00  0.00     0.019 A 
ATOM     11  C   UNL d   1      11.615   9.587  -3.628  0.00  0.00     0.019 A 
ATOM     12  C   UNL d   1      11.171   6.892  -6.059  0.00  0.00     0.025 A 
ATOM     13  C   UNL d   1      11.911   6.787  -3.546  0.00  0.00     0.002 A 
ATOM     14  C   UNL d   1      12.191   7.562  -2.404  0.00  0.00     0.000 A 
ATOM     15  C   UNL d   1      12.042   8.959  -2.444  0.00  0.00     0.002 A 
ENDBRANCH   5   7
ENDBRANCH   3   4
ENDBRANCH   2   3
ENDBRANCH   1   2
BRANCH   1  16
ATOM     16  C   UNL d   1       8.958   3.841 -12.568  0.00  0.00     0.251 C 
BRANCH  16  17
ATOM     17  N   UNL d   1       8.764   3.567 -13.996  0.00  0.00     0.143 N 
ATOM     18  C   UNL d   1      10.016   3.437 -14.762  0.00  0.00     0.280 C 
ATOM     19  C   UNL d   1       9.701   3.194 -16.253  0.00  0.00     0.173 C 
ATOM     20  C   UNL d   1      10.999   4.617 -14.670  0.00  0.00     0.185 C 
ATOM     21  O   UNL d   1       8.955   1.985 -16.393  0.00  0.00    -0.348 OA
ATOM     22  C   UNL d   1      10.969   3.188 -17.087  0.00  0.00     0.029 A 
ATOM     23  C   UNL d   1       7.728   2.010 -15.671  0.00  0.00     0.178 C 
ATOM     24  C   UNL d   1       8.001   2.324 -14.187  0.00  0.00     0.282 C 
ATOM     25  C   UNL d   1      12.147   3.801 -16.592  0.00  0.00     0.092 A 
ATOM     26  C   UNL d   1      10.973   2.596 -18.367  0.00  0.00     0.000 A 
ATOM     27  C   UNL d   1      13.322   3.786 -17.363  0.00  0.00     0.024 A 
ATOM     28  O   UNL d   1      12.220   4.390 -15.356  0.00  0.00    -0.329 OA
ATOM     29  C   UNL d   1      13.329   3.184 -18.634  0.00  0.00     0.002 A 
ATOM     30  C   UNL d   1      12.153   2.594 -19.136  0.00  0.00    -0.000 A 
ENDBRANCH  16  17
ENDBRANCH   1  16
TORSDOF 6
