REMARK  4 active torsions:
REMARK  status: ('A' for Active; 'I' for Inactive)
REMARK    1  A    between atoms: C_4  and  C_5 
REMARK    2  A    between atoms: C_5  and  C_6 
REMARK    3  A    between atoms: C_6  and  C_7 
REMARK    4  A    between atoms: C_9  and  C_10 
ROOT
ATOM      1  C   UNL d   1      11.186   6.828  -7.356  0.00  0.00     0.026 C 
ENDROOT
BRANCH   1   2
ATOM      2  C   UNL d   1      10.510   7.541  -6.177  0.00  0.00     0.030 C 
BRANCH   2   3
ATOM      3  C   UNL d   1      11.045   7.072  -4.836  0.00  0.00    -0.034 C 
ATOM      4  C   UNL d   1      11.573   7.822  -3.848  0.00  0.00    -0.048 C 
ATOM      5  C   UNL d   1      11.769   9.334  -3.881  0.00  0.00     0.026 C 
ATOM      6  C   UNL d   1      11.999   7.181  -2.544  0.00  0.00     0.026 C 
ENDBRANCH   2   3
ENDBRANCH   1   2
BRANCH   1   7
ATOM      7  C   UNL d   1      10.591   7.211  -8.708  0.00  0.00    -0.045 C 
ATOM      8  C   UNL d   1      10.804   8.665  -9.119  0.00  0.00     0.026 C 
ATOM      9  C   UNL d   1       9.966   6.296  -9.466  0.00  0.00     0.001 C 
BRANCH   9  10
ATOM     10  C   UNL d   1       9.341   6.482 -10.841  0.00  0.00     0.208 C 
ATOM     11  O   UNL d   1       8.019   5.988 -10.841  0.00  0.00    -0.215 OA
ENDBRANCH   9  10
ENDBRANCH   1   7
TORSDOF 4
