REMARK  7 active torsions:
REMARK  status: ('A' for Active; 'I' for Inactive)
REMARK    1  A    between atoms: S_2  and  C_5 
REMARK    2  A    between atoms: N_13  and  C_14 
REMARK    3  A    between atoms: C_14  and  C_15 
REMARK    4  A    between atoms: C_15  and  C_16 
REMARK    5  A    between atoms: C_19  and  N_20 
REMARK       I    between atoms: N_20  and  C_21 
REMARK    6  A    between atoms: C_21  and  C_23 
REMARK    7  A    between atoms: C_24  and  C_25 
ROOT
ATOM      1  C   UNL d   1       8.711   4.927 -13.073  0.00  0.00     0.002 C 
ATOM      2  C   UNL d   1       9.654   4.114 -12.179  0.00  0.00     0.002 C 
ATOM      3  C   UNL d   1       9.475   4.514 -10.703  0.00  0.00     0.024 C 
ATOM      4  C   UNL d   1       9.636   6.034 -10.486  0.00  0.00     0.107 C 
ATOM      5  C   UNL d   1       8.648   6.792 -11.371  0.00  0.00     0.024 C 
ATOM      6  C   UNL d   1       8.851   6.445 -12.835  0.00  0.00     0.002 C 
ENDROOT
BRANCH   1   7
ATOM      7  C   UNL d   1       8.944   4.639 -14.556  0.00  0.00     0.035 C 
BRANCH   7   8
ATOM      8  C   UNL d   1      10.367   4.966 -15.027  0.00  0.00     0.250 C 
BRANCH   8   9
ATOM      9  N   UNL d   1      10.332   5.463 -16.405  0.00  0.00     0.138 N 
ATOM     10  C   UNL d   1       9.806   4.556 -17.418  0.00  0.00     0.255 C 
ATOM     11  C   UNL d   1      10.438   3.160 -17.302  0.00  0.00     0.061 C 
ATOM     12  C   UNL d   1      11.909   3.116 -17.750  0.00  0.00    -0.023 A 
ATOM     13  C   UNL d   1      12.946   4.036 -17.381  0.00  0.00    -0.024 A 
ATOM     14  C   UNL d   1      12.194   2.058 -18.617  0.00  0.00     0.006 A 
ATOM     15  C   UNL d   1      14.236   3.851 -17.906  0.00  0.00    -0.004 A 
ATOM     16  C   UNL d   1      12.799   5.201 -16.414  0.00  0.00     0.061 C 
ATOM     17  C   UNL d   1      14.509   2.782 -18.794  0.00  0.00     0.011 A 
ATOM     18  C   UNL d   1      13.504   1.886 -19.116  0.00  0.00     0.084 A 
ATOM     19  C   UNL d   1      11.591   6.108 -16.732  0.00  0.00     0.255 C 
BRANCH  18  20
ATOM     20  S   UNL d   1      13.863   0.502 -20.165  0.00  0.00     0.191 S 
ATOM     21  C   UNL d   1      13.515   1.188 -21.825  0.00  0.00     0.145 C 
ATOM     22  O   UNL d   1      12.853  -0.550 -19.892  0.00  0.00    -0.222 OA
ATOM     23  O   UNL d   1      15.273   0.187 -20.067  0.00  0.00    -0.222 OA
ENDBRANCH  18  20
ENDBRANCH   8   9
ENDBRANCH   7   8
ENDBRANCH   1   7
BRANCH   4  24
ATOM     24  N   UNL d   1       9.449   6.340  -9.073  0.00  0.00    -0.236 NA
ATOM     25  C   UNL d   1       9.903   7.464  -8.496  0.00  0.00     0.275 C 
ATOM     26  O   UNL d   1      10.097   8.520  -9.101  0.00  0.00    -0.266 OA
BRANCH  25  27
ATOM     27  C   UNL d   1      10.266   7.226  -7.109  0.00  0.00     0.062 C 
ATOM     28  C   UNL d   1      10.849   8.210  -6.407  0.00  0.00     0.007 C 
BRANCH  28  29
ATOM     29  C   UNL d   1      11.364   8.101  -5.038  0.00  0.00     0.028 A 
ATOM     30  C   UNL d   1      11.452   9.271  -4.261  0.00  0.00     0.140 A 
ATOM     31  C   UNL d   1      11.906   9.211  -2.933  0.00  0.00     0.030 A 
ATOM     32  F   UNL d   1      11.027  10.450  -4.777  0.00  0.00    -0.204 F 
ATOM     33  C   UNL d   1      12.255   7.975  -2.358  0.00  0.00     0.002 A 
ATOM     34  C   UNL d   1      12.152   6.797  -3.120  0.00  0.00     0.000 A 
ATOM     35  C   UNL d   1      11.713   6.861  -4.458  0.00  0.00     0.002 A 
ENDBRANCH  28  29
ENDBRANCH  25  27
ENDBRANCH   4  24
TORSDOF 7
