REMARK  0 active torsions:
REMARK  status: ('A' for Active; 'I' for Inactive)
ROOT
ATOM      1  O   UNL d   1      10.789   9.188  -7.546  0.00  0.00    -0.190 OA
ATOM      2  C   UNL d   1      10.420   8.169  -8.368  0.00  0.00     0.131 A 
ATOM      3  C   UNL d   1      10.607   6.838  -7.965  0.00  0.00     0.027 A 
ATOM      4  C   UNL d   1      10.198   5.785  -8.792  0.00  0.00    -0.002 A 
ATOM      5  C   UNL d   1       9.692   6.044 -10.084  0.00  0.00    -0.022 A 
ATOM      6  C   UNL d   1       9.520   7.372 -10.518  0.00  0.00     0.009 A 
ATOM      7  C   UNL d   1       9.870   8.442  -9.653  0.00  0.00     0.025 A 
ATOM      8  C   UNL d   1       8.929   7.641 -11.918  0.00  0.00     0.277 C 
ATOM      9  N   UNL d   1       8.145   6.530 -12.503  0.00  0.00     0.144 N 
ATOM     10  C   UNL d   1       6.815   6.285 -11.922  0.00  0.00     0.256 C 
ATOM     11  C   UNL d   1       5.972   5.258 -12.676  0.00  0.00     0.061 C 
ATOM     12  C   UNL d   1       6.855   4.146 -13.246  0.00  0.00    -0.020 A 
ATOM     13  C   UNL d   1       6.192   3.078 -13.874  0.00  0.00     0.022 A 
ATOM     14  C   UNL d   1       6.988   2.063 -14.429  0.00  0.00     0.119 A 
ATOM     15  C   UNL d   1       8.360   2.077 -14.355  0.00  0.00     0.119 A 
ATOM     16  C   UNL d   1       9.065   3.120 -13.711  0.00  0.00     0.024 A 
ATOM     17  C   UNL d   1       8.271   4.171 -13.181  0.00  0.00     0.007 A 
ATOM     18  C   UNL d   1       8.954   5.319 -12.458  0.00  0.00     0.246 C 
ATOM     19  C   UNL d   1       9.264   4.897 -10.990  0.00  0.00     0.064 C 
ATOM     20  O   UNL d   1       8.835   0.918 -14.879  0.00  0.00    -0.300 OA
ATOM     21  C   UNL d   1       7.690   0.184 -15.268  0.00  0.00     0.304 A 
ATOM     22  O   UNL d   1       6.544   0.932 -15.018  0.00  0.00    -0.300 OA
ENDROOT
TORSDOF 0
