REMARK  3 active torsions:
REMARK  status: ('A' for Active; 'I' for Inactive)
REMARK    1  A    between atoms: C_4  and  N_5 
REMARK    2  A    between atoms: N_8  and  C_9 
REMARK    3  A    between atoms: C_9  and  C_10 
ROOT
ATOM      1  N   UNL d   1       8.796   5.896 -10.866  0.00  0.00    -0.344 N 
ATOM      2  C   UNL d   1       9.523   7.149 -10.999  0.00  0.00     0.137 C 
ATOM      3  C   UNL d   1      10.666   7.203  -9.963  0.00  0.00     0.275 C 
ATOM      4  N   UNL d   1      10.161   6.985  -8.603  0.00  0.00     0.145 N 
ATOM      5  C   UNL d   1       9.501   5.675  -8.533  0.00  0.00     0.275 C 
ATOM      6  C   UNL d   1       8.325   5.581  -9.528  0.00  0.00     0.137 C 
ENDROOT
BRANCH   4   7
ATOM      7  C   UNL d   1      11.241   7.074  -7.619  0.00  0.00     0.279 C 
BRANCH   7   8
ATOM      8  C   UNL d   1      11.208   8.160  -6.601  0.00  0.00     0.032 A 
ATOM      9  C   UNL d   1      11.487   8.043  -5.198  0.00  0.00     0.017 A 
ATOM     10  C   UNL d   1      11.446   9.348  -4.631  0.00  0.00     0.081 A 
ATOM     11  C   UNL d   1      11.831   6.973  -4.338  0.00  0.00     0.001 A 
ATOM     12  N   UNL d   1      11.122  10.196  -5.670  0.00  0.00    -0.244 NA
ATOM     13  C   UNL d   1      11.698   9.576  -3.269  0.00  0.00     0.019 A 
ATOM     14  C   UNL d   1      10.995   9.487  -6.851  0.00  0.00     0.097 A 
ATOM     15  C   UNL d   1      12.014   8.488  -2.436  0.00  0.00     0.002 A 
ATOM     16  C   UNL d   1      12.083   7.187  -2.970  0.00  0.00     0.000 A 
ENDBRANCH   7   8
ENDBRANCH   4   7
BRANCH   1  17
ATOM     17  C   UNL d   1       8.548   5.052 -11.958  0.00  0.00     0.056 A 
ATOM     18  C   UNL d   1       7.279   4.458 -12.146  0.00  0.00     0.017 A 
ATOM     19  C   UNL d   1       7.054   3.602 -13.243  0.00  0.00     0.002 A 
ATOM     20  C   UNL d   1       8.100   3.315 -14.143  0.00  0.00     0.000 A 
ATOM     21  C   UNL d   1       9.363   3.907 -13.962  0.00  0.00     0.002 A 
ATOM     22  C   UNL d   1       9.582   4.770 -12.875  0.00  0.00     0.017 A 
ENDBRANCH   1  17
TORSDOF 3
