REMARK  3 active torsions:
REMARK  status: ('A' for Active; 'I' for Inactive)
REMARK    1  A    between atoms: C_11  and  C_12 
REMARK    2  A    between atoms: C_12  and  C_13 
REMARK    3  A    between atoms: C_13  and  N_14 
ROOT
ATOM      1  C   UNL d   1       9.276   5.166 -11.550  0.00  0.00     0.043 C 
ENDROOT
BRANCH   1   2
ATOM      2  C   UNL d   1       8.392   5.073 -12.813  0.00  0.00     0.068 A 
ATOM      3  C   UNL d   1       9.082   4.261 -13.915  0.00  0.00     0.173 A 
ATOM      4  O   UNL d   1      10.199   4.528 -14.369  0.00  0.00    -0.291 OA
ATOM      5  C   UNL d   1       8.205   3.151 -14.286  0.00  0.00     0.031 A 
ATOM      6  C   UNL d   1       7.025   3.225 -13.552  0.00  0.00    -0.018 A 
ATOM      7  C   UNL d   1       8.442   2.105 -15.193  0.00  0.00     0.003 A 
ATOM      8  C   UNL d   1       6.040   2.228 -13.656  0.00  0.00     0.007 A 
ATOM      9  C   UNL d   1       7.019   4.385 -12.591  0.00  0.00     0.034 A 
ATOM     10  C   UNL d   1       6.264   1.164 -14.556  0.00  0.00     0.057 A 
ATOM     11  C   UNL d   1       7.450   1.109 -15.326  0.00  0.00     0.011 A 
ATOM     12 CL   UNL d   1       5.074  -0.073 -14.721  0.00  0.00    -0.082 Cl
ENDBRANCH   1   2
BRANCH   1  13
ATOM     13  C   UNL d   1       8.702   6.138 -10.516  0.00  0.00     0.251 C 
BRANCH  13  14
ATOM     14  N   UNL d   1       9.764   6.670  -9.667  0.00  0.00     0.142 N 
ATOM     15  C   UNL d   1       9.227   7.022  -8.347  0.00  0.00     0.276 C 
ATOM     16  C   UNL d   1      10.234   7.742  -7.456  0.00  0.00     0.007 A 
ATOM     17  C   UNL d   1      11.333   8.419  -8.032  0.00  0.00    -0.022 A 
ATOM     18  C   UNL d   1      10.052   7.771  -6.061  0.00  0.00    -0.003 A 
ATOM     19  C   UNL d   1      11.539   8.357  -9.533  0.00  0.00     0.061 C 
ATOM     20  C   UNL d   1      12.238   9.117  -7.212  0.00  0.00    -0.004 A 
ATOM     21  C   UNL d   1      10.271   7.904 -10.272  0.00  0.00     0.255 C 
ATOM     22  C   UNL d   1      12.037   9.177  -5.822  0.00  0.00    -0.000 A 
ATOM     23  C   UNL d   1      10.964   8.478  -5.245  0.00  0.00    -0.000 A 
ENDBRANCH  13  14
ENDBRANCH   1  13
TORSDOF 3
