REMARK  8 active torsions:
REMARK  status: ('A' for Active; 'I' for Inactive)
REMARK    1  A    between atoms: C_3  and  S_4 
REMARK    2  A    between atoms: S_4  and  C_5 
REMARK    3  A    between atoms: C_5  and  C_6 
REMARK    4  A    between atoms: C_6  and  C_7 
REMARK    5  A    between atoms: C_7  and  N_8 
REMARK    6  A    between atoms: C_13  and  C_14 
REMARK    7  A    between atoms: C_17  and  C_18 
REMARK    8  A    between atoms: C_27  and  C_28 
ROOT
ATOM      1  N   UNL d   1      10.743   3.771 -14.501  0.00  0.00     0.137 N 
ATOM      2  C   UNL d   1      11.998   4.169 -15.101  0.00  0.00     0.250 C 
ATOM      3  C   UNL d   1      12.068   3.219 -16.355  0.00  0.00     0.038 C 
ATOM      4  C   UNL d   1      10.628   2.920 -16.660  0.00  0.00     0.037 A 
ATOM      5  C   UNL d   1      10.127   2.716 -18.076  0.00  0.00     0.007 A 
ATOM      6  C   UNL d   1      10.180   1.547 -17.129  0.00  0.00     0.024 A 
ATOM      7  C   UNL d   1       9.831   3.689 -15.630  0.00  0.00     0.251 C 
ENDROOT
BRANCH   1   8
ATOM      8  C   UNL d   1      10.247   4.742 -13.544  0.00  0.00     0.251 C 
BRANCH   8   9
ATOM      9  C   UNL d   1       9.289   4.108 -12.518  0.00  0.00     0.047 C 
BRANCH   9  10
ATOM     10  C   UNL d   1       8.438   5.133 -11.747  0.00  0.00     0.067 C 
BRANCH  10  11
ATOM     11  S   UNL d   1       9.326   6.689 -11.404  0.00  0.00    -0.075 SA
BRANCH  11  12
ATOM     12  C   UNL d   1       9.554   6.637  -9.658  0.00  0.00     0.193 A 
ATOM     13  N   UNL d   1      10.207   7.617  -9.005  0.00  0.00    -0.289 N 
ATOM     14  C   UNL d   1      10.853   8.799  -9.572  0.00  0.00     0.134 C 
ATOM     15  C   UNL d   1      10.125   7.181  -7.715  0.00  0.00     0.168 A 
ATOM     16  N   UNL d   1       9.509   6.011  -7.620  0.00  0.00    -0.128 NA
ATOM     17  N   UNL d   1       9.133   5.643  -8.880  0.00  0.00    -0.122 NA
BRANCH  15  18
ATOM     18  C   UNL d   1      10.670   7.842  -6.528  0.00  0.00     0.055 A 
ATOM     19  C   UNL d   1      10.607   9.244  -6.372  0.00  0.00     0.102 A 
ATOM     20  N   UNL d   1      11.141   9.901  -5.308  0.00  0.00    -0.242 NA
ATOM     21  C   UNL d   1      11.735   9.165  -4.343  0.00  0.00     0.099 A 
ATOM     22  C   UNL d   1      11.795   7.760  -4.372  0.00  0.00     0.021 A 
ATOM     23  C   UNL d   1      11.252   7.084  -5.485  0.00  0.00     0.006 A 
ENDBRANCH  15  18
ENDBRANCH  11  12
ENDBRANCH  10  11
ENDBRANCH   9  10
ENDBRANCH   8   9
ENDBRANCH   1   8
BRANCH   6  24
ATOM     24  C   UNL d   1       8.927   0.945 -16.559  0.00  0.00    -0.022 A 
ATOM     25  C   UNL d   1       8.843   0.621 -15.185  0.00  0.00    -0.004 A 
ATOM     26  C   UNL d   1       7.633   0.161 -14.636  0.00  0.00     0.004 A 
ATOM     27  C   UNL d   1       6.498  -0.014 -15.457  0.00  0.00     0.071 A 
ATOM     28  C   UNL d   1       6.587   0.296 -16.831  0.00  0.00     0.004 A 
ATOM     29  C   UNL d   1       7.789   0.771 -17.375  0.00  0.00    -0.004 A 
BRANCH  27  30
ATOM     30  C   UNL d   1       5.216  -0.562 -14.862  0.00  0.00     0.419 C 
ATOM     31  F   UNL d   1       5.458  -1.798 -14.439  0.00  0.00    -0.166 F 
ATOM     32  F   UNL d   1       4.819   0.177 -13.825  0.00  0.00    -0.166 F 
ATOM     33  F   UNL d   1       4.228  -0.607 -15.756  0.00  0.00    -0.166 F 
ENDBRANCH  27  30
ENDBRANCH   6  24
TORSDOF 8
