REMARK  0 active torsions:
REMARK  status: ('A' for Active; 'I' for Inactive)
ROOT
ATOM      1  O   UNL d   1       9.054   4.883 -11.672  0.00  0.00    -0.190 OA
ATOM      2  C   UNL d   1       9.342   5.543 -10.514  0.00  0.00     0.131 A 
ATOM      3  C   UNL d   1       9.021   4.976  -9.280  0.00  0.00     0.027 A 
ATOM      4  C   UNL d   1       9.351   5.671  -8.128  0.00  0.00    -0.001 A 
ATOM      5  C   UNL d   1      10.043   6.877  -8.096  0.00  0.00     0.005 A 
ATOM      6  C   UNL d   1      10.356   7.442  -9.343  0.00  0.00    -0.020 A 
ATOM      7  C   UNL d   1       9.981   6.798 -10.544  0.00  0.00     0.023 A 
ATOM      8  C   UNL d   1      11.071   8.761  -9.385  0.00  0.00     0.061 C 
ATOM      9  C   UNL d   1      10.873   9.487  -8.057  0.00  0.00     0.256 C 
ATOM     10  N   UNL d   1      11.315   8.712  -6.924  0.00  0.00     0.144 N 
ATOM     11  C   UNL d   1      11.315   9.577  -5.732  0.00  0.00     0.277 C 
ATOM     12  C   UNL d   1      11.662   8.804  -4.469  0.00  0.00     0.007 A 
ATOM     13  C   UNL d   1      12.082   9.441  -3.288  0.00  0.00    -0.003 A 
ATOM     14  C   UNL d   1      12.415   8.710  -2.140  0.00  0.00    -0.000 A 
ATOM     15  C   UNL d   1      12.265   7.323  -2.149  0.00  0.00    -0.000 A 
ATOM     16  C   UNL d   1      11.818   6.705  -3.315  0.00  0.00    -0.004 A 
ATOM     17  C   UNL d   1      11.505   7.418  -4.473  0.00  0.00    -0.022 A 
ATOM     18  C   UNL d   1      11.017   6.713  -5.722  0.00  0.00     0.064 C 
ATOM     19  C   UNL d   1      10.364   7.617  -6.775  0.00  0.00     0.246 C 
ENDROOT
TORSDOF 0
