REMARK  6 active torsions:
REMARK  status: ('A' for Active; 'I' for Inactive)
REMARK    1  A    between atoms: O_2  and  N_3 
REMARK    2  A    between atoms: C_4  and  C_5 
REMARK    3  A    between atoms: C_4  and  C_19 
REMARK    4  A    between atoms: C_5  and  C_6 
REMARK    5  A    between atoms: C_6  and  N_7 
REMARK    6  A    between atoms: N_10  and  C_11 
ROOT
ATOM      1  C   UNL d   1      11.399   4.529 -18.034  0.00  0.00     0.083 C 
ENDROOT
BRANCH   1   2
ATOM      2  C   UNL d   1      11.507   3.086 -18.590  0.00  0.00     0.087 C 
ATOM      3  N   UNL d   1      12.404   2.713 -19.404  0.00  0.00    -0.136 NA
BRANCH   3   4
ATOM      4  O   UNL d   1      13.324   3.732 -19.698  0.00  0.00    -0.234 OA
ATOM      5  C   UNL d   1      14.300   3.225 -20.584  0.00  0.00     0.211 C 
ENDBRANCH   3   4
BRANCH   2   6
ATOM      6  C   UNL d   1      10.458   2.105 -18.162  0.00  0.00     0.020 A 
ATOM      7  C   UNL d   1       9.084   2.466 -18.048  0.00  0.00     0.031 A 
ATOM      8  C   UNL d   1       8.145   1.544 -17.540  0.00  0.00     0.142 A 
ATOM      9  C   UNL d   1       8.537   0.241 -17.186  0.00  0.00     0.059 A 
ATOM     10  F   UNL d   1       6.863   1.944 -17.389  0.00  0.00    -0.204 F 
ATOM     11  C   UNL d   1       9.889  -0.125 -17.310  0.00  0.00     0.142 A 
ATOM     12  C   UNL d   1      10.830   0.796 -17.784  0.00  0.00     0.031 A 
ATOM     13  F   UNL d   1      10.323  -1.323 -16.868  0.00  0.00    -0.204 F 
ENDBRANCH   2   6
ENDBRANCH   1   2
BRANCH   1  14
ATOM     14  C   UNL d   1      12.312   4.768 -16.794  0.00  0.00     0.257 C 
BRANCH  14  15
ATOM     15  N   UNL d   1      11.716   4.450 -15.488  0.00  0.00     0.141 N 
ATOM     16  C   UNL d   1      11.007   3.178 -15.522  0.00  0.00     0.274 C 
ATOM     17  C   UNL d   1      10.372   2.778 -14.200  0.00  0.00     0.138 C 
ATOM     18  N   UNL d   1       9.470   3.845 -13.803  0.00  0.00    -0.330 N 
ATOM     19  C   UNL d   1      10.067   5.172 -13.765  0.00  0.00     0.138 C 
ATOM     20  C   UNL d   1      10.758   5.492 -15.108  0.00  0.00     0.274 C 
BRANCH  18  21
ATOM     21  C   UNL d   1       8.100   3.642 -13.518  0.00  0.00     0.140 A 
ATOM     22  N   UNL d   1       7.483   2.585 -14.099  0.00  0.00    -0.227 NA
ATOM     23  C   UNL d   1       6.207   2.318 -13.766  0.00  0.00     0.101 A 
ATOM     24  C   UNL d   1       5.452   3.106 -12.871  0.00  0.00     0.021 A 
ATOM     25  C   UNL d   1       6.080   4.222 -12.290  0.00  0.00     0.005 A 
ATOM     26  C   UNL d   1       7.419   4.490 -12.610  0.00  0.00     0.037 A 
ENDBRANCH  18  21
ENDBRANCH  14  15
ENDBRANCH   1  14
TORSDOF 6
