REMARK  6 active torsions:
REMARK  status: ('A' for Active; 'I' for Inactive)
REMARK    1  A    between atoms: O_2  and  N_3 
REMARK    2  A    between atoms: C_4  and  C_5 
REMARK    3  A    between atoms: C_4  and  C_19 
REMARK    4  A    between atoms: C_5  and  C_6 
REMARK    5  A    between atoms: C_6  and  N_7 
REMARK    6  A    between atoms: N_10  and  C_11 
ROOT
ATOM      1  C   UNL d   1       9.426   4.490 -16.499  0.00  0.00     0.083 C 
ENDROOT
BRANCH   1   2
ATOM      2  C   UNL d   1      10.155   4.290 -17.828  0.00  0.00     0.087 C 
ATOM      3  N   UNL d   1      10.777   3.220 -18.126  0.00  0.00    -0.136 NA
BRANCH   3   4
ATOM      4  O   UNL d   1      10.652   2.231 -17.139  0.00  0.00    -0.234 OA
ATOM      5  C   UNL d   1      11.572   1.196 -17.422  0.00  0.00     0.211 C 
ENDBRANCH   3   4
BRANCH   2   6
ATOM      6  C   UNL d   1      10.090   5.422 -18.775  0.00  0.00     0.015 A 
ATOM      7  C   UNL d   1      11.280   6.054 -19.192  0.00  0.00    -0.002 A 
ATOM      8  C   UNL d   1      11.242   7.127 -20.109  0.00  0.00    -0.011 A 
ATOM      9  C   UNL d   1       9.999   7.561 -20.623  0.00  0.00     0.054 A 
ATOM     10  C   UNL d   1      12.534   7.798 -20.536  0.00  0.00     0.032 C 
ATOM     11  C   UNL d   1       8.809   6.939 -20.209  0.00  0.00     0.011 A 
ATOM     12 CL   UNL d   1       9.907   8.839 -21.775  0.00  0.00    -0.083 Cl
ATOM     13  C   UNL d   1       8.855   5.878 -19.289  0.00  0.00     0.002 A 
ENDBRANCH   2   6
ENDBRANCH   1   2
BRANCH   1  14
ATOM     14  C   UNL d   1      10.356   4.551 -15.276  0.00  0.00     0.257 C 
BRANCH  14  15
ATOM     15  N   UNL d   1       9.610   4.428 -14.014  0.00  0.00     0.141 N 
ATOM     16  C   UNL d   1      10.544   4.065 -12.956  0.00  0.00     0.274 C 
ATOM     17  C   UNL d   1       9.734   3.927 -11.626  0.00  0.00     0.138 C 
ATOM     18  N   UNL d   1       9.091   5.182 -11.306  0.00  0.00    -0.330 N 
ATOM     19  C   UNL d   1       8.199   5.676 -12.327  0.00  0.00     0.138 C 
ATOM     20  C   UNL d   1       8.983   5.694 -13.640  0.00  0.00     0.274 C 
BRANCH  18  21
ATOM     21  C   UNL d   1       9.265   5.821 -10.080  0.00  0.00     0.140 A 
ATOM     22  N   UNL d   1       9.998   6.951 -10.085  0.00  0.00    -0.227 NA
ATOM     23  C   UNL d   1      10.143   7.616  -8.919  0.00  0.00     0.101 A 
ATOM     24  C   UNL d   1       9.561   7.188  -7.716  0.00  0.00     0.021 A 
ATOM     25  C   UNL d   1       8.789   6.017  -7.723  0.00  0.00     0.005 A 
ATOM     26  C   UNL d   1       8.665   5.288  -8.925  0.00  0.00     0.037 A 
ENDBRANCH  18  21
ENDBRANCH  14  15
ENDBRANCH   1  14
TORSDOF 6
