REMARK  8 active torsions:
REMARK  status: ('A' for Active; 'I' for Inactive)
REMARK       I    between atoms: C_2  and  N_3 
REMARK    1  A    between atoms: C_2  and  C_28 
REMARK    2  A    between atoms: N_3  and  C_4 
REMARK    3  A    between atoms: C_4  and  C_5 
REMARK    4  A    between atoms: C_5  and  C_6 
REMARK    5  A    between atoms: C_6  and  C_7 
REMARK    6  A    between atoms: C_7  and  N_8 
REMARK    7  A    between atoms: N_11  and  C_12 
REMARK    8  A    between atoms: C_18  and  C_19 
ROOT
ATOM      1  N   UNL d   1       9.253   4.861 -12.501  0.00  0.00     0.141 N 
ATOM      2  C   UNL d   1       8.111   5.109 -13.379  0.00  0.00     0.274 C 
ATOM      3  C   UNL d   1       7.454   3.779 -13.743  0.00  0.00     0.137 C 
ATOM      4  N   UNL d   1       8.441   2.929 -14.398  0.00  0.00    -0.344 N 
ATOM      5  C   UNL d   1       9.706   2.754 -13.714  0.00  0.00     0.137 C 
ATOM      6  C   UNL d   1      10.271   4.123 -13.282  0.00  0.00     0.274 C 
ENDROOT
BRANCH   1   7
ATOM      7  C   UNL d   1       9.794   6.148 -12.098  0.00  0.00     0.251 C 
BRANCH   7   8
ATOM      8  C   UNL d   1       9.055   6.851 -10.973  0.00  0.00     0.037 C 
BRANCH   8   9
ATOM      9  C   UNL d   1       9.557   6.325  -9.598  0.00  0.00     0.029 C 
BRANCH   9  10
ATOM     10  C   UNL d   1       8.736   6.904  -8.439  0.00  0.00     0.129 C 
BRANCH  10  11
ATOM     11  N   UNL d   1       9.508   7.035  -7.235  0.00  0.00    -0.233 NA
ATOM     12  C   UNL d   1      10.168   8.172  -6.932  0.00  0.00     0.294 C 
ATOM     13  O   UNL d   1      10.261   9.186  -7.625  0.00  0.00    -0.264 OA
BRANCH  12  14
ATOM     14  C   UNL d   1      10.799   8.092  -5.631  0.00  0.00     0.158 A 
ATOM     15  N   UNL d   1      11.089   6.882  -5.018  0.00  0.00    -0.222 NA
ATOM     16  C   UNL d   1      11.638   7.215  -3.844  0.00  0.00     0.148 A 
ATOM     17  N   UNL d   1      11.694   8.618  -3.739  0.00  0.00    -0.288 N 
ATOM     18  C   UNL d   1      12.120   6.445  -2.767  0.00  0.00     0.037 A 
ATOM     19  C   UNL d   1      11.169   9.162  -4.873  0.00  0.00     0.106 A 
ATOM     20  C   UNL d   1      12.222   9.225  -2.648  0.00  0.00     0.082 A 
ATOM     21  C   UNL d   1      12.743   8.451  -1.645  0.00  0.00     0.019 A 
ATOM     22  C   UNL d   1      12.660   7.049  -1.658  0.00  0.00     0.005 A 
ENDBRANCH  12  14
ENDBRANCH  10  11
ENDBRANCH   9  10
ENDBRANCH   8   9
ENDBRANCH   7   8
ENDBRANCH   1   7
BRANCH   4  23
ATOM     23  C   UNL d   1       8.205   2.282 -15.593  0.00  0.00     0.059 A 
ATOM     24  C   UNL d   1       7.220   1.275 -15.741  0.00  0.00     0.033 A 
ATOM     25  C   UNL d   1       7.048   0.710 -17.030  0.00  0.00     0.083 A 
ATOM     26  C   UNL d   1       6.439   0.833 -14.650  0.00  0.00     0.003 A 
ATOM     27  N   UNL d   1       7.777   1.100 -18.094  0.00  0.00    -0.244 NA
ATOM     28  C   UNL d   1       6.079  -0.283 -17.203  0.00  0.00     0.023 A 
ATOM     29  C   UNL d   1       8.729   2.032 -17.925  0.00  0.00     0.100 A 
ATOM     30  C   UNL d   1       8.986   2.649 -16.704  0.00  0.00     0.038 A 
ATOM     31  C   UNL d   1       5.281  -0.699 -16.129  0.00  0.00     0.073 A 
ATOM     32  C   UNL d   1       5.469  -0.158 -14.841  0.00  0.00     0.004 A 
BRANCH  31  33
ATOM     33  C   UNL d   1       4.249  -1.762 -16.348  0.00  0.00     0.419 C 
ATOM     34  F   UNL d   1       3.343  -1.648 -15.378  0.00  0.00    -0.166 F 
ATOM     35  F   UNL d   1       3.637  -1.638 -17.528  0.00  0.00    -0.166 F 
ATOM     36  F   UNL d   1       4.918  -2.912 -16.289  0.00  0.00    -0.166 F 
ENDBRANCH  31  33
ENDBRANCH   4  23
TORSDOF 8
