REMARK  4 active torsions:
REMARK  status: ('A' for Active; 'I' for Inactive)
REMARK    1  A    between atoms: C_4  and  C_5 
REMARK    2  A    between atoms: N_12  and  C_13 
REMARK    3  A    between atoms: N_16  and  C_17 
REMARK    4  A    between atoms: C_17  and  C_18 
ROOT
ATOM      1  C   UNL d   1       9.499   7.127  -9.345  0.00  0.00     0.094 C 
ATOM      2  C   UNL d   1       9.859   5.651  -9.490  0.00  0.00     0.058 C 
ATOM      3  C   UNL d   1       9.142   4.988 -10.684  0.00  0.00     0.253 C 
ATOM      4  N   UNL d   1       9.413   5.690 -11.937  0.00  0.00     0.141 N 
ATOM      5  C   UNL d   1       8.883   7.040 -11.846  0.00  0.00     0.253 C 
ATOM      6  C   UNL d   1       9.619   7.798 -10.737  0.00  0.00     0.058 C 
ENDROOT
BRANCH   1   7
ATOM      7  N   UNL d   1      10.314   7.779  -8.314  0.00  0.00    -0.279 N 
ATOM      8  C   UNL d   1      11.141   8.850  -8.400  0.00  0.00     0.350 A 
ATOM      9  O   UNL d   1      11.396   9.530  -9.384  0.00  0.00    -0.244 OA
ATOM     10  N   UNL d   1      11.637   9.057  -7.178  0.00  0.00    -0.191 NA
ATOM     11  C   UNL d   1      11.089   8.165  -6.286  0.00  0.00     0.103 A 
ATOM     12  C   UNL d   1      10.300   7.359  -6.993  0.00  0.00     0.099 A 
BRANCH  11  13
ATOM     13  C   UNL d   1      11.486   8.079  -4.891  0.00  0.00     0.019 A 
ATOM     14  C   UNL d   1      11.734   9.270  -4.193  0.00  0.00     0.002 A 
ATOM     15  C   UNL d   1      12.105   9.220  -2.839  0.00  0.00     0.000 A 
ATOM     16  C   UNL d   1      12.238   7.982  -2.191  0.00  0.00     0.000 A 
ATOM     17  C   UNL d   1      11.992   6.787  -2.893  0.00  0.00     0.000 A 
ATOM     18  C   UNL d   1      11.613   6.830  -4.249  0.00  0.00     0.002 A 
ENDBRANCH  11  13
ENDBRANCH   1   7
BRANCH   4  19
ATOM     19  C   UNL d   1       8.762   5.001 -13.057  0.00  0.00     0.277 C 
BRANCH  19  20
ATOM     20  C   UNL d   1       9.725   4.171 -13.878  0.00  0.00     0.011 A 
ATOM     21  C   UNL d   1       9.506   2.789 -14.039  0.00  0.00    -0.002 A 
ATOM     22  C   UNL d   1      10.376   2.019 -14.838  0.00  0.00    -0.000 A 
ATOM     23  C   UNL d   1      11.460   2.634 -15.488  0.00  0.00    -0.000 A 
ATOM     24  C   UNL d   1      11.683   4.017 -15.337  0.00  0.00    -0.000 A 
ATOM     25  C   UNL d   1      10.811   4.783 -14.535  0.00  0.00    -0.002 A 
ENDBRANCH  19  20
ENDBRANCH   4  19
TORSDOF 4
