REMARK  7 active torsions:
REMARK  status: ('A' for Active; 'I' for Inactive)
REMARK    1  A    between atoms: O_2  and  C_3 
REMARK    2  A    between atoms: C_10  and  N_11 
REMARK       I    between atoms: N_11  and  C_12 
REMARK    3  A    between atoms: C_12  and  C_14 
REMARK    4  A    between atoms: C_14  and  C_15 
REMARK    5  A    between atoms: C_15  and  N_16 
REMARK    6  A    between atoms: N_19  and  C_20 
REMARK    7  A    between atoms: C_25  and  O_26 
ROOT
ATOM      1  C   UNL d   1       8.335   4.265 -12.282  0.00  0.00     0.125 C 
ENDROOT
BRANCH   1   2
ATOM      2  C   UNL d   1       9.253   5.301 -11.688  0.00  0.00     0.253 C 
ATOM      3  N   UNL d   1       9.223   5.566 -10.350  0.00  0.00    -0.240 NA
ATOM      4  O   UNL d   1       9.987   5.845 -12.482  0.00  0.00    -0.271 OA
BRANCH   3   5
ATOM      5  C   UNL d   1      10.110   6.477  -9.609  0.00  0.00     0.111 C 
ATOM      6  C   UNL d   1      10.051   6.148  -8.099  0.00  0.00     0.051 C 
ATOM      7  C   UNL d   1      10.665   7.211  -7.175  0.00  0.00    -0.022 A 
ATOM      8  C   UNL d   1      10.937   8.514  -7.644  0.00  0.00    -0.026 A 
ATOM      9  C   UNL d   1      10.951   6.891  -5.825  0.00  0.00     0.020 A 
ATOM     10  C   UNL d   1      11.460   9.475  -6.763  0.00  0.00    -0.003 A 
ATOM     11  C   UNL d   1      10.707   8.915  -9.087  0.00  0.00     0.028 C 
ATOM     12  C   UNL d   1      11.747   9.154  -5.429  0.00  0.00     0.024 A 
ATOM     13  C   UNL d   1      11.489   7.849  -4.932  0.00  0.00     0.094 A 
ATOM     14  C   UNL d   1       9.764   7.956  -9.808  0.00  0.00     0.029 C 
BRANCH  13  15
ATOM     15  O   UNL d   1      11.780   7.418  -3.651  0.00  0.00    -0.328 OA
ATOM     16  C   UNL d   1      12.152   8.418  -2.707  0.00  0.00     0.181 C 
ENDBRANCH  13  15
ENDBRANCH   3   5
ENDBRANCH   1   2
BRANCH   1  17
ATOM     17  C   UNL d   1       9.156   3.326 -13.221  0.00  0.00     0.260 C 
BRANCH  17  18
ATOM     18  N   UNL d   1       8.276   2.424 -13.977  0.00  0.00     0.142 N 
ATOM     19  C   UNL d   1       7.807   3.040 -15.181  0.00  0.00     0.274 C 
ATOM     20  C   UNL d   1       6.718   2.159 -15.803  0.00  0.00     0.137 C 
ATOM     21  N   UNL d   1       7.220   0.828 -16.061  0.00  0.00    -0.343 N 
ATOM     22  C   UNL d   1       7.843   0.189 -14.919  0.00  0.00     0.137 C 
ATOM     23  C   UNL d   1       8.866   1.129 -14.291  0.00  0.00     0.274 C 
BRANCH  21  24
ATOM     24  C   UNL d   1       7.256   0.269 -17.338  0.00  0.00     0.079 A 
ATOM     25  C   UNL d   1       8.471  -0.169 -17.913  0.00  0.00     0.110 A 
ATOM     26  C   UNL d   1       8.446  -0.762 -19.209  0.00  0.00     0.026 A 
ATOM     27  C   UNL d   1       7.226  -0.922 -19.888  0.00  0.00     0.002 A 
ATOM     28  C   UNL d   1       6.030  -0.491 -19.320  0.00  0.00     0.002 A 
ATOM     29  C   UNL d   1       6.033   0.113 -18.041  0.00  0.00     0.019 A 
BRANCH  25  30
ATOM     30  O   UNL d   1       9.632   0.037 -17.201  0.00  0.00    -0.327 OA
ATOM     31  C   UNL d   1      10.864  -0.369 -17.765  0.00  0.00     0.181 C 
ENDBRANCH  25  30
ENDBRANCH  21  24
ENDBRANCH  17  18
ENDBRANCH   1  17
TORSDOF 7
