REMARK  7 active torsions:
REMARK  status: ('A' for Active; 'I' for Inactive)
REMARK    1  A    between atoms: C_6  and  N_7 
REMARK    2  A    between atoms: N_10  and  C_11 
REMARK    3  A    between atoms: C_11  and  C_12 
REMARK    4  A    between atoms: C_12  and  C_13 
REMARK    5  A    between atoms: C_13  and  C_14 
REMARK    6  A    between atoms: C_14  and  N_15 
REMARK    7  A    between atoms: C_17  and  C_18 
ROOT
ATOM      1  C   UNL d   1       7.741   3.059 -13.845  0.00  0.00     0.029 C 
ENDROOT
BRANCH   1   2
ATOM      2  C   UNL d   1       6.753   2.074 -14.480  0.00  0.00     0.037 C 
BRANCH   2   3
ATOM      3  C   UNL d   1       7.375   1.299 -15.662  0.00  0.00     0.251 C 
BRANCH   3   4
ATOM      4  N   UNL d   1       6.359   0.696 -16.525  0.00  0.00     0.141 N 
ATOM      5  C   UNL d   1       6.994   0.252 -17.772  0.00  0.00     0.274 C 
ATOM      6  C   UNL d   1       5.945  -0.357 -18.733  0.00  0.00     0.137 C 
ATOM      7  N   UNL d   1       5.231  -1.443 -18.076  0.00  0.00    -0.344 N 
ATOM      8  C   UNL d   1       4.673  -1.117 -16.775  0.00  0.00     0.137 C 
ATOM      9  C   UNL d   1       5.742  -0.470 -15.872  0.00  0.00     0.274 C 
BRANCH   7  10
ATOM     10  C   UNL d   1       5.143  -2.746 -18.603  0.00  0.00     0.068 A 
ATOM     11  C   UNL d   1       3.875  -3.353 -18.729  0.00  0.00     0.018 A 
ATOM     12  C   UNL d   1       3.754  -4.664 -19.238  0.00  0.00     0.002 A 
ATOM     13  C   UNL d   1       4.894  -5.387 -19.626  0.00  0.00     0.012 A 
ATOM     14  C   UNL d   1       6.160  -4.803 -19.500  0.00  0.00     0.070 A 
ATOM     15 CL   UNL d   1       7.557  -5.716 -19.949  0.00  0.00    -0.081 Cl
ATOM     16  C   UNL d   1       6.284  -3.491 -18.995  0.00  0.00     0.084 A 
ATOM     17 CL   UNL d   1       7.856  -2.820 -18.843  0.00  0.00    -0.080 Cl
ENDBRANCH   7  10
ENDBRANCH   3   4
ENDBRANCH   2   3
ENDBRANCH   1   2
BRANCH   1  18
ATOM     18  C   UNL d   1       7.101   3.921 -12.725  0.00  0.00     0.129 C 
BRANCH  18  19
ATOM     19  N   UNL d   1       8.019   4.917 -12.195  0.00  0.00    -0.231 N 
ATOM     20  N   UNL d   1       8.734   5.683 -13.046  0.00  0.00    -0.064 NA
ATOM     21  N   UNL d   1       9.452   6.482 -12.329  0.00  0.00    -0.129 NA
ATOM     22  C   UNL d   1       9.180   6.279 -10.974  0.00  0.00     0.123 A 
ATOM     23  C   UNL d   1       8.259   5.270 -10.884  0.00  0.00     0.118 A 
BRANCH  22  24
ATOM     24  C   UNL d   1       9.834   7.069  -9.924  0.00  0.00     0.021 A 
ATOM     25  C   UNL d   1       9.824   6.626  -8.587  0.00  0.00     0.003 A 
ATOM     26  C   UNL d   1      10.438   7.392  -7.572  0.00  0.00     0.018 A 
ATOM     27  C   UNL d   1      11.062   8.634  -7.871  0.00  0.00     0.081 A 
ATOM     28  C   UNL d   1      10.435   6.934  -6.243  0.00  0.00     0.003 A 
ATOM     29  C   UNL d   1      11.058   9.064  -9.212  0.00  0.00     0.019 A 
ATOM     30  N   UNL d   1      11.637   9.389  -6.903  0.00  0.00    -0.244 NA
ATOM     31  C   UNL d   1      10.446   8.305 -10.224  0.00  0.00     0.003 A 
ATOM     32  C   UNL d   1      11.640   8.936  -5.632  0.00  0.00     0.099 A 
ATOM     33  C   UNL d   1      11.060   7.712  -5.250  0.00  0.00     0.021 A 
ENDBRANCH  22  24
ENDBRANCH  18  19
ENDBRANCH   1  18
TORSDOF 7
