REMARK  1 active torsions:
REMARK  status: ('A' for Active; 'I' for Inactive)
REMARK    1  A    between atoms: C_3  and  C_4 
ROOT
ATOM      1  O   UNL d   1       9.490   6.494  -6.218  0.00  0.00    -0.286 OA
ATOM      2  C   UNL d   1      10.092   7.156  -7.056  0.00  0.00     0.201 C 
ATOM      3  C   UNL d   1      11.090   8.164  -6.630  0.00  0.00     0.064 C 
ATOM      4  C   UNL d   1      11.579   9.006  -7.552  0.00  0.00     0.126 C 
ATOM      5  O   UNL d   1      11.265   8.982  -8.891  0.00  0.00    -0.305 OA
ATOM      6  C   UNL d   1      10.442   7.980  -9.362  0.00  0.00     0.107 A 
ATOM      7  C   UNL d   1      10.166   7.947 -10.740  0.00  0.00     0.052 A 
ATOM      8  C   UNL d   1       9.321   6.952 -11.281  0.00  0.00     0.135 A 
ATOM      9  O   UNL d   1       9.052   6.941 -12.616  0.00  0.00    -0.190 OA
ATOM     10  C   UNL d   1       8.725   5.985 -10.447  0.00  0.00     0.055 A 
ATOM     11  C   UNL d   1       8.975   6.026  -9.063  0.00  0.00     0.138 A 
ATOM     12  O   UNL d   1       8.291   5.123  -8.299  0.00  0.00    -0.190 OA
ATOM     13  C   UNL d   1       9.841   7.016  -8.518  0.00  0.00     0.087 A 
ENDROOT
BRANCH   3  14
ATOM     14  C   UNL d   1      11.458   8.337  -5.207  0.00  0.00     0.005 A 
ATOM     15  C   UNL d   1      11.456   9.624  -4.616  0.00  0.00     0.002 A 
ATOM     16  C   UNL d   1      11.854   9.776  -3.275  0.00  0.00     0.027 A 
ATOM     17  C   UNL d   1      12.279   8.659  -2.542  0.00  0.00     0.131 A 
ATOM     18  C   UNL d   1      12.257   7.377  -3.108  0.00  0.00     0.027 A 
ATOM     19  O   UNL d   1      12.786   8.826  -1.294  0.00  0.00    -0.190 OA
ATOM     20  C   UNL d   1      11.853   7.216  -4.440  0.00  0.00     0.002 A 
ENDBRANCH   3  14
TORSDOF 1
