REMARK  8 active torsions:
REMARK  status: ('A' for Active; 'I' for Inactive)
REMARK    1  A    between atoms: C_4  and  C_5 
REMARK    2  A    between atoms: N_13  and  C_14 
REMARK    3  A    between atoms: C_14  and  C_15 
REMARK    4  A    between atoms: C_15  and  C_16 
REMARK    5  A    between atoms: C_16  and  S_17 
REMARK    6  A    between atoms: S_17  and  C_18 
REMARK    7  A    between atoms: C_21  and  C_22 
REMARK    8  A    between atoms: C_25  and  C_26 
ROOT
ATOM      1  C   UNL d   1      14.329   5.634 -21.454  0.00  0.00     0.047 C 
ENDROOT
BRANCH   1   2
ATOM      2  C   UNL d   1      12.925   5.758 -20.803  0.00  0.00     0.251 C 
BRANCH   2   3
ATOM      3  N   UNL d   1      12.710   4.798 -19.719  0.00  0.00     0.138 N 
ATOM      4  C   UNL d   1      11.280   4.821 -19.399  0.00  0.00     0.255 C 
ATOM      5  C   UNL d   1      10.831   3.652 -18.508  0.00  0.00     0.061 C 
ATOM      6  C   UNL d   1      11.103   3.876 -17.031  0.00  0.00    -0.024 A 
ATOM      7  C   UNL d   1      12.418   4.051 -16.555  0.00  0.00    -0.024 A 
ATOM      8  C   UNL d   1      10.023   3.917 -16.125  0.00  0.00    -0.003 A 
ATOM      9  C   UNL d   1      12.639   4.265 -15.181  0.00  0.00    -0.004 A 
ATOM     10  C   UNL d   1      13.599   4.024 -17.500  0.00  0.00     0.061 C 
ATOM     11  C   UNL d   1      11.557   4.300 -14.284  0.00  0.00     0.001 A 
ATOM     12  C   UNL d   1      10.235   4.133 -14.747  0.00  0.00     0.020 A 
ATOM     13  C   UNL d   1      13.545   5.136 -18.557  0.00  0.00     0.255 C 
BRANCH  12  14
ATOM     14  C   UNL d   1       9.094   4.178 -13.823  0.00  0.00     0.110 A 
ATOM     15  C   UNL d   1       7.784   3.646 -14.001  0.00  0.00     0.044 A 
ATOM     16  C   UNL d   1       7.124   3.995 -12.857  0.00  0.00     0.105 A 
ATOM     17  C   UNL d   1       5.732   3.764 -12.376  0.00  0.00     0.061 C 
ATOM     18  O   UNL d   1       7.953   4.680 -12.032  0.00  0.00    -0.215 OA
ATOM     19  N   UNL d   1       9.203   4.787 -12.650  0.00  0.00    -0.127 NA
ENDBRANCH  12  14
ENDBRANCH   2   3
ENDBRANCH   1   2
BRANCH   1  20
ATOM     20  C   UNL d   1      14.570   6.757 -22.483  0.00  0.00     0.067 C 
BRANCH  20  21
ATOM     21  S   UNL d   1      14.460   8.442 -21.774  0.00  0.00    -0.075 SA
BRANCH  21  22
ATOM     22  C   UNL d   1      15.764   8.414 -20.592  0.00  0.00     0.193 A 
ATOM     23  N   UNL d   1      16.742   9.356 -20.573  0.00  0.00    -0.289 N 
ATOM     24  C   UNL d   1      17.519   8.938 -19.543  0.00  0.00     0.167 A 
ATOM     25  C   UNL d   1      16.863  10.528 -21.440  0.00  0.00     0.134 C 
ATOM     26  N   UNL d   1      17.027   7.830 -18.952  0.00  0.00    -0.128 NA
ATOM     27  N   UNL d   1      15.876   7.514 -19.624  0.00  0.00    -0.122 NA
BRANCH  24  28
ATOM     28  C   UNL d   1      18.722   9.577 -19.034  0.00  0.00     0.036 A 
ATOM     29  C   UNL d   1      19.655  10.173 -19.911  0.00  0.00     0.003 A 
ATOM     30  C   UNL d   1      20.775  10.848 -19.383  0.00  0.00     0.004 A 
ATOM     31  C   UNL d   1      21.011  10.876 -17.989  0.00  0.00     0.071 A 
ATOM     32  C   UNL d   1      20.095  10.250 -17.114  0.00  0.00     0.004 A 
ATOM     33  C   UNL d   1      18.958   9.611 -17.640  0.00  0.00     0.003 A 
BRANCH  31  34
ATOM     34  C   UNL d   1      22.256  11.563 -17.457  0.00  0.00     0.419 C 
ATOM     35  F   UNL d   1      22.509  11.203 -16.200  0.00  0.00    -0.166 F 
ATOM     36  F   UNL d   1      23.299  11.225 -18.214  0.00  0.00    -0.166 F 
ATOM     37  F   UNL d   1      22.083  12.881 -17.514  0.00  0.00    -0.166 F 
ENDBRANCH  31  34
ENDBRANCH  24  28
ENDBRANCH  21  22
ENDBRANCH  20  21
ENDBRANCH   1  20
TORSDOF 8
