REMARK  6 active torsions:
REMARK  status: ('A' for Active; 'I' for Inactive)
REMARK    1  A    between atoms: C_5  and  S_6 
REMARK    2  A    between atoms: S_6  and  C_7 
REMARK    3  A    between atoms: C_7  and  C_8 
REMARK    4  A    between atoms: C_8  and  C_9 
REMARK    5  A    between atoms: C_9  and  N_10 
REMARK    6  A    between atoms: N_13  and  C_14 
ROOT
ATOM      1  N   UNL d   1       8.930   5.417 -11.790  0.00  0.00     0.141 N 
ATOM      2  C   UNL d   1       9.614   4.420 -12.633  0.00  0.00     0.274 C 
ATOM      3  C   UNL d   1       8.810   4.135 -13.930  0.00  0.00     0.137 C 
ATOM      4  N   UNL d   1       7.433   3.756 -13.606  0.00  0.00    -0.344 N 
ATOM      5  C   UNL d   1       6.756   4.663 -12.693  0.00  0.00     0.137 C 
ATOM      6  C   UNL d   1       7.602   4.899 -11.432  0.00  0.00     0.274 C 
ENDROOT
BRANCH   1   7
ATOM      7  C   UNL d   1       9.729   5.678 -10.588  0.00  0.00     0.251 C 
BRANCH   7   8
ATOM      8  C   UNL d   1       9.075   6.637  -9.580  0.00  0.00     0.047 C 
BRANCH   8   9
ATOM      9  C   UNL d   1       9.726   6.654  -8.192  0.00  0.00     0.064 C 
BRANCH   9  10
ATOM     10  S   UNL d   1       9.881   8.346  -7.552  0.00  0.00    -0.114 SA
BRANCH  10  11
ATOM     11  C   UNL d   1      10.702   8.274  -5.994  0.00  0.00     0.025 A 
ATOM     12  C   UNL d   1      10.993   9.484  -5.333  0.00  0.00     0.009 A 
ATOM     13  C   UNL d   1      11.646   9.462  -4.086  0.00  0.00     0.030 A 
ATOM     14  C   UNL d   1      12.025   8.234  -3.512  0.00  0.00     0.140 A 
ATOM     15  F   UNL d   1      12.660   8.217  -2.316  0.00  0.00    -0.204 F 
ATOM     16  C   UNL d   1      11.733   7.026  -4.169  0.00  0.00     0.030 A 
ATOM     17  C   UNL d   1      11.058   7.043  -5.407  0.00  0.00     0.009 A 
ENDBRANCH  10  11
ENDBRANCH   9  10
ENDBRANCH   8   9
ENDBRANCH   7   8
ENDBRANCH   1   7
BRANCH   4  18
ATOM     18  C   UNL d   1       6.844   2.545 -14.038  0.00  0.00     0.056 A 
ATOM     19  C   UNL d   1       5.861   1.890 -13.245  0.00  0.00     0.018 A 
ATOM     20  C   UNL d   1       5.243   0.710 -13.694  0.00  0.00     0.013 A 
ATOM     21  C   UNL d   1       5.592   0.152 -14.931  0.00  0.00     0.058 A 
ATOM     22  C   UNL d   1       6.584   0.773 -15.723  0.00  0.00     0.013 A 
ATOM     23 CL   UNL d   1       4.779  -1.256 -15.493  0.00  0.00    -0.082 Cl
ATOM     24  C   UNL d   1       7.203   1.962 -15.274  0.00  0.00     0.018 A 
ENDBRANCH   4  18
TORSDOF 6
