REMARK  0 active torsions:
REMARK  status: ('A' for Active; 'I' for Inactive)
ROOT
ATOM      1  O   UNL d   1      10.105   8.568 -10.839  0.00  0.00    -0.242 OA
ATOM      2  C   UNL d   1      10.406   8.509  -9.655  0.00  0.00     0.371 A 
ATOM      3  N   UNL d   1      11.700   8.782  -9.213  0.00  0.00    -0.187 NA
ATOM      4  C   UNL d   1      12.020   8.716  -7.872  0.00  0.00     0.138 A 
ATOM      5  C   UNL d   1      11.102   8.392  -6.930  0.00  0.00     0.217 A 
ATOM      6  F   UNL d   1      11.460   8.350  -5.634  0.00  0.00    -0.197 F 
ATOM      7  C   UNL d   1       9.722   8.093  -7.317  0.00  0.00     0.312 A 
ATOM      8  O   UNL d   1       8.825   7.795  -6.540  0.00  0.00    -0.263 OA
ATOM      9  N   UNL d   1       9.469   8.177  -8.689  0.00  0.00    -0.150 NA
ENDROOT
TORSDOF 0
