REMARK  3 active torsions:
REMARK  status: ('A' for Active; 'I' for Inactive)
REMARK    1  A    between atoms: C_3  and  C_4 
REMARK    2  A    between atoms: N_16  and  C_17 
REMARK    3  A    between atoms: C_17  and  C_18 
ROOT
ATOM      1  O   UNL d   1      11.024   1.193 -15.108  0.00  0.00    -0.289 OA
ATOM      2  C   UNL d   1      10.531   2.139 -15.719  0.00  0.00     0.200 A 
ATOM      3  C   UNL d   1      10.537   2.426 -17.148  0.00  0.00     0.061 A 
ATOM      4  C   UNL d   1       9.925   3.607 -17.258  0.00  0.00     0.119 A 
ATOM      5  O   UNL d   1       9.531   4.183 -16.098  0.00  0.00    -0.326 OA
ATOM      6  C   UNL d   1       9.791   3.273 -15.032  0.00  0.00     0.157 A 
ATOM      7  C   UNL d   1       8.466   2.800 -14.417  0.00  0.00     0.071 C 
ATOM      8  C   UNL d   1       7.794   3.928 -13.614  0.00  0.00     0.254 C 
ATOM      9  N   UNL d   1       8.687   4.409 -12.556  0.00  0.00     0.142 N 
ATOM     10  C   UNL d   1       9.889   4.964 -13.177  0.00  0.00     0.254 C 
ATOM     11  C   UNL d   1      10.666   3.911 -13.953  0.00  0.00     0.071 C 
ENDROOT
BRANCH   3  12
ATOM     12  C   UNL d   1      11.108   1.603 -18.249  0.00  0.00     0.005 A 
ATOM     13  C   UNL d   1      11.753   0.371 -17.977  0.00  0.00     0.003 A 
ATOM     14  C   UNL d   1      12.325  -0.382 -19.019  0.00  0.00     0.030 A 
ATOM     15  C   UNL d   1      12.261   0.083 -20.338  0.00  0.00     0.140 A 
ATOM     16  C   UNL d   1      11.624   1.304 -20.620  0.00  0.00     0.030 A 
ATOM     17  F   UNL d   1      12.813  -0.643 -21.334  0.00  0.00    -0.204 F 
ATOM     18  C   UNL d   1      11.052   2.063 -19.582  0.00  0.00     0.003 A 
ENDBRANCH   3  12
BRANCH   9  19
ATOM     19  C   UNL d   1       7.996   5.433 -11.770  0.00  0.00     0.277 C 
BRANCH  19  20
ATOM     20  C   UNL d   1       8.811   5.988 -10.610  0.00  0.00     0.011 A 
ATOM     21  C   UNL d   1       8.667   5.446  -9.316  0.00  0.00    -0.000 A 
ATOM     22  C   UNL d   1       9.418   5.973  -8.245  0.00  0.00     0.029 A 
ATOM     23  C   UNL d   1      10.330   7.021  -8.461  0.00  0.00     0.140 A 
ATOM     24  C   UNL d   1      10.482   7.562  -9.750  0.00  0.00     0.029 A 
ATOM     25  F   UNL d   1      11.069   7.500  -7.432  0.00  0.00    -0.204 F 
ATOM     26  C   UNL d   1       9.709   7.060 -10.814  0.00  0.00    -0.000 A 
ENDBRANCH  19  20
ENDBRANCH   9  19
TORSDOF 3
