REMARK  7 active torsions:
REMARK  status: ('A' for Active; 'I' for Inactive)
REMARK    1  A    between atoms: C_2  and  C_3 
REMARK    2  A    between atoms: N_13  and  C_14 
REMARK    3  A    between atoms: C_14  and  C_15 
REMARK    4  A    between atoms: C_15  and  C_17 
REMARK    5  A    between atoms: C_17  and  N_18 
REMARK    6  A    between atoms: N_21  and  C_22 
REMARK    7  A    between atoms: C_22  and  C_23 
ROOT
ATOM      1  C   UNL d   1       8.860   3.578 -13.296  0.00  0.00     0.148 C 
ENDROOT
BRANCH   1   2
ATOM      2  N   UNL d   1       9.506   3.728 -14.589  0.00  0.00    -0.247 N 
ATOM      3  C   UNL d   1      10.571   4.474 -14.843  0.00  0.00     0.348 A 
ATOM      4  N   UNL d   1      10.847   4.383 -16.148  0.00  0.00    -0.209 NA
ATOM      5  O   UNL d   1      11.180   5.154 -14.024  0.00  0.00    -0.245 OA
ATOM      6  C   UNL d   1       9.952   3.482 -16.859  0.00  0.00     0.179 A 
ATOM      7  C   UNL d   1       9.181   4.260 -17.939  0.00  0.00     0.039 C 
ATOM      8  C   UNL d   1       9.061   3.102 -15.681  0.00  0.00     0.265 A 
ATOM      9  O   UNL d   1       8.066   2.393 -15.745  0.00  0.00    -0.269 OA
BRANCH   6  10
ATOM     10  C   UNL d   1      10.640   2.239 -17.442  0.00  0.00     0.006 A 
ATOM     11  C   UNL d   1       9.893   1.073 -17.767  0.00  0.00     0.000 A 
ATOM     12  C   UNL d   1      10.534  -0.073 -18.270  0.00  0.00     0.029 A 
ATOM     13  C   UNL d   1      11.916  -0.050 -18.513  0.00  0.00     0.140 A 
ATOM     14  C   UNL d   1      12.656   1.118 -18.254  0.00  0.00     0.029 A 
ATOM     15  F   UNL d   1      12.541  -1.148 -18.999  0.00  0.00    -0.204 F 
ATOM     16  C   UNL d   1      12.028   2.250 -17.701  0.00  0.00     0.000 A 
ENDBRANCH   6  10
ENDBRANCH   1   2
BRANCH   1  17
ATOM     17  C   UNL d   1       7.890   4.737 -12.966  0.00  0.00     0.208 C 
ATOM     18  O   UNL d   1       6.602   4.349 -13.399  0.00  0.00    -0.219 OA
BRANCH  17  19
ATOM     19  C   UNL d   1       7.744   5.031 -11.459  0.00  0.00     0.285 C 
BRANCH  19  20
ATOM     20  N   UNL d   1       8.939   5.602 -10.836  0.00  0.00     0.144 N 
ATOM     21  C   UNL d   1       8.700   5.740  -9.406  0.00  0.00     0.286 C 
ATOM     22  C   UNL d   1       9.868   6.342  -8.679  0.00  0.00     0.286 C 
ATOM     23  N   UNL d   1      10.248   7.673  -9.157  0.00  0.00     0.146 N 
ATOM     24  C   UNL d   1      10.457   7.566 -10.593  0.00  0.00     0.286 C 
ATOM     25  C   UNL d   1       9.268   6.941 -11.352  0.00  0.00     0.286 C 
BRANCH  23  26
ATOM     26  C   UNL d   1      11.456   8.211  -8.505  0.00  0.00     0.277 C 
BRANCH  26  27
ATOM     27  C   UNL d   1      11.438   8.155  -6.979  0.00  0.00     0.011 A 
ATOM     28  C   UNL d   1      11.474   6.897  -6.309  0.00  0.00    -0.002 A 
ATOM     29  C   UNL d   1      11.458   6.835  -4.914  0.00  0.00    -0.000 A 
ATOM     30  C   UNL d   1      11.468   8.021  -4.140  0.00  0.00    -0.000 A 
ATOM     31  C   UNL d   1      11.480   9.269  -4.785  0.00  0.00    -0.000 A 
ATOM     32  C   UNL d   1      11.459   9.336  -6.191  0.00  0.00    -0.002 A 
ENDBRANCH  26  27
ENDBRANCH  23  26
ENDBRANCH  19  20
ENDBRANCH  17  19
ENDBRANCH   1  17
TORSDOF 7
