REMARK  1 active torsions:
REMARK  status: ('A' for Active; 'I' for Inactive)
REMARK    1  A    between atoms: N_14  and  C_15 
ROOT
ATOM      1  C   UNL d   1       6.255  -1.198 -14.249  0.00  0.00     0.038 C 
ATOM      2  C   UNL d   1       6.418   0.257 -14.049  0.00  0.00     0.003 C 
ATOM      3  S   UNL d   1       5.179   1.131 -13.235  0.00  0.00    -0.096 SA
ATOM      4  C   UNL d   1       5.960   2.638 -13.577  0.00  0.00     0.008 C 
ATOM      5  C   UNL d   1       5.245   3.926 -13.316  0.00  0.00     0.038 C 
ATOM      6  C   UNL d   1       7.242   2.444 -14.045  0.00  0.00     0.015 C 
ATOM      7  C   UNL d   1       7.477   1.069 -14.369  0.00  0.00    -0.019 C 
ATOM      8  C   UNL d   1       8.813   0.594 -14.893  0.00  0.00     0.027 C 
ATOM      9  C   UNL d   1       9.194   1.101 -16.304  0.00  0.00     0.009 C 
ATOM     10  C   UNL d   1       8.968   2.601 -16.609  0.00  0.00     0.030 C 
ATOM     11  C   UNL d   1       9.068   3.497 -15.396  0.00  0.00     0.016 A 
ATOM     12  C   UNL d   1       9.953   4.582 -15.136  0.00  0.00     0.117 A 
ATOM     13  N   UNL d   1       9.759   5.102 -13.934  0.00  0.00    -0.168 NA
ATOM     14  N   UNL d   1       8.745   4.390 -13.382  0.00  0.00    -0.253 N 
ATOM     15  C   UNL d   1       8.286   3.436 -14.284  0.00  0.00     0.075 A 
ENDROOT
BRANCH  14  16
ATOM     16  C   UNL d   1       8.358   4.650 -11.993  0.00  0.00     0.105 C 
ATOM     17  C   UNL d   1       7.530   5.946 -11.822  0.00  0.00     0.026 C 
ATOM     18  C   UNL d   1       9.607   4.712 -11.079  0.00  0.00     0.026 C 
ENDBRANCH  14  16
TORSDOF 1
