REMARK  4 active torsions:
REMARK  status: ('A' for Active; 'I' for Inactive)
REMARK    1  A    between atoms: C_2  and  C_4 
REMARK       I    between atoms: C_4  and  N_6 
REMARK    2  A    between atoms: N_6  and  C_7 
REMARK    3  A    between atoms: C_7  and  C_8 
REMARK    4  A    between atoms: C_14  and  N_15 
ROOT
ATOM      1  C   UNL d   1       9.118   5.809 -11.947  0.00  0.00     0.002 C 
ATOM      2  C   UNL d   1       9.440   4.672 -11.235  0.00  0.00    -0.002 C 
ATOM      3  C   UNL d   1       9.849   3.555 -11.970  0.00  0.00     0.006 C 
ATOM      4  C   UNL d   1       9.758   3.497 -13.377  0.00  0.00     0.027 C 
ATOM      5  C   UNL d   1       9.306   4.593 -14.082  0.00  0.00     0.015 C 
ATOM      6  C   UNL d   1       8.912   5.737 -13.324  0.00  0.00    -0.004 C 
ATOM      7  C   UNL d   1       9.255   4.667 -15.618  0.00  0.00     0.246 C 
ATOM      8  C   UNL d   1       9.046   3.339 -16.448  0.00  0.00     0.065 C 
ATOM      9  C   UNL d   1       8.213   2.241 -15.830  0.00  0.00    -0.014 A 
ATOM     10  C   UNL d   1       6.975   1.892 -16.383  0.00  0.00    -0.004 A 
ATOM     11  C   UNL d   1       6.215   0.856 -15.825  0.00  0.00    -0.000 A 
ATOM     12  C   UNL d   1       6.696   0.160 -14.692  0.00  0.00     0.001 A 
ATOM     13  C   UNL d   1       7.965   0.492 -14.166  0.00  0.00     0.006 A 
ATOM     14  C   UNL d   1       8.737   1.522 -14.766  0.00  0.00     0.025 A 
ATOM     15  S   UNL d   1      10.317   2.039 -14.188  0.00  0.00    -0.087 SA
ENDROOT
BRANCH   1  16
ATOM     16  C   UNL d   1       8.922   7.121 -11.239  0.00  0.00     0.155 C 
BRANCH  16  17
ATOM     17  N   UNL d   1       9.164   7.006  -9.796  0.00  0.00    -0.233 NA
ATOM     18  C   UNL d   1      10.201   7.441  -9.130  0.00  0.00     0.251 C 
ATOM     19  O   UNL d   1      11.225   7.898  -9.694  0.00  0.00    -0.271 OA
BRANCH  18  20
ATOM     20  C   UNL d   1      10.150   7.414  -7.599  0.00  0.00     0.081 C 
ATOM     21  C   UNL d   1      10.478   8.787  -7.002  0.00  0.00     0.010 C 
ATOM     22  C   UNL d   1      11.104   6.339  -7.082  0.00  0.00     0.010 C 
ENDBRANCH  18  20
ENDBRANCH  16  17
ENDBRANCH   1  16
BRANCH   7  23
ATOM     23  N   UNL d   1      10.343   5.477 -16.193  0.00  0.00     0.144 N 
ATOM     24  C   UNL d   1      10.152   5.696 -17.638  0.00  0.00     0.286 C 
ATOM     25  C   UNL d   1      11.251   6.579 -18.238  0.00  0.00     0.286 C 
ATOM     26  N   UNL d   1      12.574   6.062 -17.924  0.00  0.00     0.143 N 
ATOM     27  C   UNL d   1      12.722   5.910 -16.469  0.00  0.00     0.286 C 
ATOM     28  C   UNL d   1      13.585   6.961 -18.447  0.00  0.00     0.285 C 
ATOM     29  C   UNL d   1      11.674   4.963 -15.912  0.00  0.00     0.286 C 
ENDBRANCH   7  23
TORSDOF 4
