REMARK  4 active torsions:
REMARK  status: ('A' for Active; 'I' for Inactive)
REMARK    1  A    between atoms: S_2  and  C_4 
REMARK    2  A    between atoms: S_2  and  C_14 
REMARK    3  A    between atoms: C_20  and  N_21 
REMARK    4  A    between atoms: N_21  and  C_22 
ROOT
ATOM      1  C   UNL d   1       8.505   6.549 -11.622  0.00  0.00     0.192 A 
ATOM      2  N   UNL d   1       8.574   7.506 -12.588  0.00  0.00    -0.136 NA
ATOM      3  N   UNL d   1       9.398   8.512 -12.191  0.00  0.00    -0.147 NA
ATOM      4  C   UNL d   1       9.804   8.156 -10.960  0.00  0.00     0.105 A 
ATOM      5  C   UNL d   1      10.668   8.891 -10.146  0.00  0.00     0.022 A 
ATOM      6  C   UNL d   1      10.976   8.416  -8.863  0.00  0.00     0.020 A 
ATOM      7  C   UNL d   1      10.317   7.236  -8.395  0.00  0.00     0.076 A 
ATOM      8  C   UNL d   1       9.498   6.473  -9.252  0.00  0.00     0.022 A 
ATOM      9  C   UNL d   1       9.280   6.953 -10.557  0.00  0.00     0.051 A 
ENDROOT
BRANCH   1  10
ATOM     10  S   UNL d   1       7.520   5.120 -11.759  0.00  0.00     0.228 S 
ATOM     11  O   UNL d   1       6.169   5.564 -12.111  0.00  0.00    -0.216 OA
ATOM     12  O   UNL d   1       7.873   4.446 -10.510  0.00  0.00    -0.216 OA
BRANCH  10  13
ATOM     13  C   UNL d   1       8.200   4.173 -13.114  0.00  0.00     0.089 A 
ATOM     14  C   UNL d   1       7.486   3.087 -13.705  0.00  0.00     0.011 A 
ATOM     15  C   UNL d   1       8.123   2.337 -14.731  0.00  0.00     0.001 A 
ATOM     16  C   UNL d   1       6.204   2.678 -13.251  0.00  0.00     0.001 A 
ATOM     17  C   UNL d   1       9.415   2.675 -15.166  0.00  0.00     0.000 A 
ATOM     18  C   UNL d   1       7.482   1.221 -15.306  0.00  0.00     0.000 A 
ATOM     19  C   UNL d   1      10.116   3.734 -14.569  0.00  0.00     0.001 A 
ATOM     20  C   UNL d   1       9.520   4.463 -13.532  0.00  0.00     0.011 A 
ATOM     21  C   UNL d   1       6.225   0.811 -14.841  0.00  0.00     0.000 A 
ATOM     22  C   UNL d   1       5.609   1.509 -13.790  0.00  0.00     0.000 A 
ENDBRANCH  10  13
ENDBRANCH   1  10
BRANCH   7  23
ATOM     23  N   UNL d   1      10.407   6.805  -7.068  0.00  0.00    -0.273 NA
BRANCH  23  24
ATOM     24  C   UNL d   1      11.226   7.516  -6.110  0.00  0.00     0.108 C 
ATOM     25  C   UNL d   1      10.676   8.942  -5.822  0.00  0.00     0.062 C 
ATOM     26  C   UNL d   1      11.527   9.587  -4.713  0.00  0.00     0.292 C 
ATOM     27  N   UNL d   1      11.501   8.825  -3.477  0.00  0.00     0.339 N 
ATOM     28  C   UNL d   1      12.074   7.500  -3.702  0.00  0.00     0.292 C 
ATOM     29  C   UNL d   1      11.298   6.730  -4.798  0.00  0.00     0.062 C 
ENDBRANCH  23  24
ENDBRANCH   7  23
TORSDOF 4
