REMARK  9 active torsions:
REMARK  status: ('A' for Active; 'I' for Inactive)
REMARK    1  A    between atoms: C_2  and  O_5 
REMARK    2  A    between atoms: O_5  and  C_6 
REMARK       I    between atoms: C_6  and  N_8 
REMARK    3  A    between atoms: N_8  and  C_9 
REMARK    4  A    between atoms: C_9  and  C_10 
REMARK    5  A    between atoms: C_10  and  C_11 
REMARK    6  A    between atoms: C_11  and  C_12 
REMARK    7  A    between atoms: C_12  and  C_13 
REMARK    8  A    between atoms: C_13  and  N_14 
REMARK    9  A    between atoms: N_17  and  C_18 
ROOT
ATOM      1  N   UNL d   1       8.045   3.828 -13.085  0.00  0.00     0.141 N 
ATOM      2  C   UNL d   1       8.955   3.286 -14.112  0.00  0.00     0.274 C 
ATOM      3  C   UNL d   1       8.665   1.808 -14.443  0.00  0.00     0.137 C 
ATOM      4  N   UNL d   1       7.267   1.651 -14.781  0.00  0.00    -0.344 N 
ATOM      5  C   UNL d   1       6.316   2.210 -13.832  0.00  0.00     0.137 C 
ATOM      6  C   UNL d   1       6.650   3.678 -13.527  0.00  0.00     0.274 C 
ENDROOT
BRANCH   1   7
ATOM      7  C   UNL d   1       8.360   5.213 -12.766  0.00  0.00     0.250 C 
BRANCH   7   8
ATOM      8  C   UNL d   1       8.547   5.389 -11.248  0.00  0.00     0.035 C 
BRANCH   8   9
ATOM      9  C   UNL d   1       9.213   6.737 -10.920  0.00  0.00     0.004 C 
BRANCH   9  10
ATOM     10  C   UNL d   1       9.343   7.014  -9.409  0.00  0.00     0.027 C 
BRANCH  10  11
ATOM     11  C   UNL d   1       9.620   8.508  -9.106  0.00  0.00     0.131 C 
BRANCH  11  12
ATOM     12  N   UNL d   1       9.730   8.744  -7.674  0.00  0.00    -0.212 NA
ATOM     13  C   UNL d   1      10.938   8.685  -7.022  0.00  0.00     0.383 C 
ATOM     14  O   UNL d   1      12.001   8.370  -7.550  0.00  0.00    -0.236 OA
BRANCH  13  15
ATOM     15  O   UNL d   1      10.744   9.060  -5.736  0.00  0.00    -0.289 OA
BRANCH  15  16
ATOM     16  C   UNL d   1      11.770   9.111  -4.730  0.00  0.00     0.103 C 
ATOM     17  C   UNL d   1      13.054   9.794  -5.192  0.00  0.00     0.030 C 
ATOM     18  C   UNL d   1      11.996   7.703  -4.152  0.00  0.00     0.030 C 
ATOM     19  C   UNL d   1      11.211   9.996  -3.636  0.00  0.00     0.030 C 
ENDBRANCH  15  16
ENDBRANCH  13  15
ENDBRANCH  11  12
ENDBRANCH  10  11
ENDBRANCH   9  10
ENDBRANCH   8   9
ENDBRANCH   7   8
ENDBRANCH   1   7
BRANCH   4  20
ATOM     20  C   UNL d   1       6.861   0.962 -15.962  0.00  0.00     0.068 A 
ATOM     21  C   UNL d   1       5.830  -0.024 -15.994  0.00  0.00     0.084 A 
ATOM     22  C   UNL d   1       5.479  -0.634 -17.215  0.00  0.00     0.070 A 
ATOM     23 CL   UNL d   1       5.010  -0.561 -14.553  0.00  0.00    -0.080 Cl
ATOM     24  C   UNL d   1       6.145  -0.298 -18.399  0.00  0.00     0.012 A 
ATOM     25 CL   UNL d   1       4.234  -1.812 -17.278  0.00  0.00    -0.081 Cl
ATOM     26  C   UNL d   1       7.170   0.650 -18.387  0.00  0.00     0.002 A 
ATOM     27  C   UNL d   1       7.527   1.282 -17.181  0.00  0.00     0.018 A 
ENDBRANCH   4  20
TORSDOF 9
