REMARK  6 active torsions:
REMARK  status: ('A' for Active; 'I' for Inactive)
REMARK       I    between atoms: C_2  and  N_3 
REMARK    1  A    between atoms: C_2  and  C_27 
REMARK    2  A    between atoms: N_3  and  C_4 
REMARK    3  A    between atoms: C_7  and  C_8 
REMARK    4  A    between atoms: C_8  and  C_9 
REMARK    5  A    between atoms: C_9  and  N_10 
REMARK    6  A    between atoms: N_13  and  C_14 
ROOT
ATOM      1  N   UNL d   1       9.134   3.690 -14.630  0.00  0.00     0.141 N 
ATOM      2  C   UNL d   1       9.366   4.799 -15.578  0.00  0.00     0.274 C 
ATOM      3  C   UNL d   1      10.773   5.430 -15.434  0.00  0.00     0.138 C 
ATOM      4  N   UNL d   1      11.772   4.380 -15.503  0.00  0.00    -0.330 N 
ATOM      5  C   UNL d   1      11.567   3.185 -14.695  0.00  0.00     0.138 C 
ATOM      6  C   UNL d   1      10.129   2.645 -14.892  0.00  0.00     0.274 C 
ENDROOT
BRANCH   1   7
ATOM      7  C   UNL d   1       9.206   4.088 -13.225  0.00  0.00     0.250 C 
BRANCH   7   8
ATOM      8  C   UNL d   1       8.034   4.998 -12.786  0.00  0.00     0.035 C 
BRANCH   8   9
ATOM      9  C   UNL d   1       8.302   5.736 -11.458  0.00  0.00     0.002 C 
ATOM     10  C   UNL d   1       8.439   4.751 -10.290  0.00  0.00     0.002 C 
ATOM     11  C   UNL d   1       8.714   5.464  -8.959  0.00  0.00     0.024 C 
ATOM     12  C   UNL d   1       9.963   6.355  -9.051  0.00  0.00     0.106 C 
ATOM     13  C   UNL d   1       9.831   7.374 -10.207  0.00  0.00     0.024 C 
ATOM     14  C   UNL d   1       9.540   6.654 -11.527  0.00  0.00     0.002 C 
BRANCH  12  15
ATOM     15  N   UNL d   1      10.187   7.023  -7.777  0.00  0.00    -0.238 NA
ATOM     16  C   UNL d   1      11.274   7.747  -7.462  0.00  0.00     0.279 C 
ATOM     17  O   UNL d   1      12.193   7.965  -8.248  0.00  0.00    -0.268 OA
BRANCH  16  18
ATOM     18  C   UNL d   1      11.283   8.281  -6.062  0.00  0.00     0.199 A 
ATOM     19  C   UNL d   1      10.778   9.672  -5.780  0.00  0.00     0.043 A 
ATOM     20  C   UNL d   1      12.260   9.377  -5.698  0.00  0.00     0.043 A 
ATOM     21  O   UNL d   1      11.050   7.311  -5.062  0.00  0.00    -0.216 OA
ENDBRANCH  16  18
ENDBRANCH  12  15
ENDBRANCH   8   9
ENDBRANCH   7   8
ENDBRANCH   1   7
BRANCH   4  22
ATOM     22  C   UNL d   1      12.829   4.497 -16.407  0.00  0.00     0.138 A 
ATOM     23  C   UNL d   1      13.078   3.526 -17.392  0.00  0.00     0.036 A 
ATOM     24  C   UNL d   1      14.142   3.675 -18.262  0.00  0.00     0.095 A 
ATOM     25  C   UNL d   1      12.340   2.274 -17.733  0.00  0.00     0.064 C 
ATOM     26  C   UNL d   1      14.975   4.801 -18.154  0.00  0.00     0.045 A 
ATOM     27  O   UNL d   1      14.249   2.656 -19.165  0.00  0.00    -0.331 OA
ATOM     28  C   UNL d   1      14.657   5.735 -17.145  0.00  0.00     0.103 A 
ATOM     29  N   UNL d   1      13.608   5.598 -16.301  0.00  0.00    -0.228 NA
ATOM     30  C   UNL d   1      13.246   1.678 -18.835  0.00  0.00     0.154 C 
ENDBRANCH   4  22
TORSDOF 6
