REMARK  5 active torsions:
REMARK  status: ('A' for Active; 'I' for Inactive)
REMARK    1  A    between atoms: C_4  and  C_5 
REMARK    2  A    between atoms: C_5  and  N_6 
REMARK    3  A    between atoms: N_9  and  C_10 
REMARK    4  A    between atoms: C_10  and  C_11 
REMARK    5  A    between atoms: C_11  and  C_12 
ROOT
ATOM      1  N   UNL d   1       5.269   3.978 -12.928  0.00  0.00    -0.191 NA
ATOM      2  C   UNL d   1       6.372   3.826 -13.243  0.00  0.00     0.102 C 
ATOM      3  C   UNL d   1       7.726   3.635 -13.632  0.00  0.00     0.084 A 
ATOM      4  C   UNL d   1       8.806   4.501 -13.324  0.00  0.00     0.040 A 
ATOM      5  C   UNL d   1       9.947   3.954 -13.851  0.00  0.00     0.079 A 
ATOM      6  N   UNL d   1       9.618   2.754 -14.479  0.00  0.00    -0.303 N 
ATOM      7  C   UNL d   1      10.405   1.859 -15.142  0.00  0.00     0.080 A 
ATOM      8  C   UNL d   1       9.841   0.727 -15.684  0.00  0.00     0.019 A 
ATOM      9  C   UNL d   1       8.453   0.490 -15.558  0.00  0.00     0.003 A 
ATOM     10  C   UNL d   1       7.647   1.388 -14.898  0.00  0.00     0.018 A 
ATOM     11  C   UNL d   1       8.219   2.563 -14.338  0.00  0.00     0.073 A 
ENDROOT
BRANCH   4  12
ATOM     12  C   UNL d   1       8.754   5.803 -12.575  0.00  0.00     0.279 C 
BRANCH  12  13
ATOM     13  N   UNL d   1       9.460   5.914 -11.305  0.00  0.00     0.146 N 
ATOM     14  C   UNL d   1       8.727   5.241 -10.231  0.00  0.00     0.286 C 
ATOM     15  C   UNL d   1       9.454   5.377  -8.877  0.00  0.00     0.285 C 
ATOM     16  N   UNL d   1       9.653   6.781  -8.510  0.00  0.00     0.142 N 
ATOM     17  C   UNL d   1      10.378   7.450  -9.586  0.00  0.00     0.285 C 
ATOM     18  C   UNL d   1       9.637   7.316 -10.927  0.00  0.00     0.286 C 
BRANCH  16  19
ATOM     19  C   UNL d   1      10.337   6.876  -7.232  0.00  0.00     0.255 C 
BRANCH  19  20
ATOM     20  C   UNL d   1      10.424   8.285  -6.616  0.00  0.00     0.062 C 
BRANCH  20  21
ATOM     21  C   UNL d   1      11.075   8.306  -5.230  0.00  0.00    -0.020 A 
ATOM     22  C   UNL d   1      11.272   9.547  -4.583  0.00  0.00    -0.004 A 
ATOM     23  C   UNL d   1      11.858   9.588  -3.297  0.00  0.00    -0.000 A 
ATOM     24  C   UNL d   1      12.264   8.405  -2.658  0.00  0.00    -0.000 A 
ATOM     25  C   UNL d   1      12.074   7.168  -3.301  0.00  0.00    -0.000 A 
ATOM     26  C   UNL d   1      11.482   7.118  -4.578  0.00  0.00    -0.004 A 
ENDBRANCH  20  21
ENDBRANCH  19  20
ENDBRANCH  16  19
ENDBRANCH  12  13
ENDBRANCH   4  12
TORSDOF 5
