REMARK  9 active torsions:
REMARK  status: ('A' for Active; 'I' for Inactive)
REMARK    1  A    between atoms: O_2  and  C_3 
REMARK    2  A    between atoms: C_5  and  C_6 
REMARK    3  A    between atoms: C_6  and  N_7 
REMARK    4  A    between atoms: C_14  and  O_15 
REMARK    5  A    between atoms: O_15  and  C_16 
REMARK    6  A    between atoms: C_16  and  C_17 
REMARK    7  A    between atoms: C_17  and  C_18 
REMARK    8  A    between atoms: C_18  and  N_19 
REMARK    9  A    between atoms: C_22  and  C_23 
ROOT
ATOM      1  C   UNL d   1       8.681   6.521 -11.747  0.00  0.00     0.068 C 
ENDROOT
BRANCH   1   2
ATOM      2  C   UNL d   1       9.062   8.035 -11.627  0.00  0.00     0.151 C 
BRANCH   2   3
ATOM      3  O   UNL d   1      10.239   8.145 -10.870  0.00  0.00    -0.329 OA
BRANCH   3   4
ATOM      4  C   UNL d   1      10.267   7.852  -9.520  0.00  0.00     0.116 C 
ATOM      5  C   UNL d   1      11.541   8.066  -8.969  0.00  0.00     0.116 C 
ATOM      6  C   UNL d   1      11.699   7.876  -7.555  0.00  0.00     0.024 C 
ATOM      7  C   UNL d   1      10.626   7.476  -6.756  0.00  0.00     0.013 C 
ATOM      8  C   UNL d   1       9.370   7.235  -7.330  0.00  0.00    -0.000 C 
ATOM      9  C   UNL d   1       9.219   7.348  -8.725  0.00  0.00     0.026 C 
BRANCH   5  10
ATOM     10  O   UNL d   1      12.561   8.385  -9.830  0.00  0.00    -0.326 OA
ATOM     11  C   UNL d   1      13.834   8.281  -9.303  0.00  0.00     0.181 C 
ENDBRANCH   5  10
BRANCH   7  12
ATOM     12  C   UNL d   1      10.695   7.288  -5.244  0.00  0.00     0.277 C 
BRANCH  12  13
ATOM     13  N   UNL d   1      12.035   7.256  -4.673  0.00  0.00     0.141 N 
ATOM     14  C   UNL d   1      12.117   6.697  -3.339  0.00  0.00     0.251 C 
ATOM     15  C   UNL d   1      11.737   7.819  -2.386  0.00  0.00     0.037 C 
ATOM     16  C   UNL d   1      11.989   9.108  -3.188  0.00  0.00     0.037 C 
ATOM     17  C   UNL d   1      12.564   8.617  -4.500  0.00  0.00     0.251 C 
ENDBRANCH  12  13
ENDBRANCH   7  12
ENDBRANCH   3   4
ENDBRANCH   2   3
ENDBRANCH   1   2
BRANCH   1  18
ATOM     18  C   UNL d   1       7.487   6.351 -12.652  0.00  0.00     0.253 C 
BRANCH  18  19
ATOM     19  N   UNL d   1       7.223   4.933 -12.836  0.00  0.00     0.137 N 
ATOM     20  C   UNL d   1       5.795   4.736 -13.102  0.00  0.00     0.251 C 
ATOM     21  C   UNL d   1       5.476   3.249 -13.228  0.00  0.00     0.041 C 
ATOM     22  C   UNL d   1       6.378   2.599 -14.346  0.00  0.00     0.047 C 
ATOM     23  C   UNL d   1       7.867   2.908 -14.126  0.00  0.00     0.041 C 
ATOM     24  C   UNL d   1       8.075   4.415 -13.921  0.00  0.00     0.251 C 
BRANCH  22  25
ATOM     25  C   UNL d   1       6.088   1.113 -14.494  0.00  0.00     0.087 A 
ATOM     26  C   UNL d   1       5.862   0.281 -15.631  0.00  0.00     0.041 A 
ATOM     27  C   UNL d   1       5.618  -1.036 -15.210  0.00  0.00     0.129 A 
ATOM     28  C   UNL d   1       5.859   0.542 -17.026  0.00  0.00     0.006 A 
ATOM     29  O   UNL d   1       5.725  -0.999 -13.841  0.00  0.00    -0.211 OA
ATOM     30  C   UNL d   1       5.373  -2.106 -16.083  0.00  0.00     0.057 A 
ATOM     31  N   UNL d   1       6.009   0.331 -13.407  0.00  0.00    -0.131 NA
ATOM     32  C   UNL d   1       5.406  -1.840 -17.471  0.00  0.00     0.142 A 
ATOM     33  F   UNL d   1       5.244  -2.861 -18.354  0.00  0.00    -0.204 F 
ATOM     34  C   UNL d   1       5.636  -0.525 -17.934  0.00  0.00     0.030 A 
ENDBRANCH  22  25
ENDBRANCH  18  19
ENDBRANCH   1  18
TORSDOF 9
