REMARK  6 active torsions:
REMARK  status: ('A' for Active; 'I' for Inactive)
REMARK    1  A    between atoms: O_2  and  N_3 
REMARK    2  A    between atoms: C_4  and  C_5 
REMARK    3  A    between atoms: C_4  and  C_20 
REMARK    4  A    between atoms: C_5  and  C_6 
REMARK    5  A    between atoms: C_6  and  N_7 
REMARK    6  A    between atoms: C_10  and  C_11 
ROOT
ATOM      1  N   UNL d   1       8.581   0.957 -15.600  0.00  0.00     0.137 N 
ATOM      2  C   UNL d   1       8.001   2.234 -16.021  0.00  0.00     0.251 C 
ATOM      3  C   UNL d   1       9.124   3.244 -16.392  0.00  0.00     0.041 C 
ATOM      4  C   UNL d   1      10.062   3.525 -15.213  0.00  0.00     0.045 C 
ATOM      5  C   UNL d   1      10.585   2.151 -14.733  0.00  0.00     0.041 C 
ATOM      6  C   UNL d   1       9.414   1.210 -14.408  0.00  0.00     0.251 C 
ENDROOT
BRANCH   1   7
ATOM      7  C   UNL d   1       7.442   0.136 -15.158  0.00  0.00     0.257 C 
BRANCH   7   8
ATOM      8  C   UNL d   1       6.419  -0.114 -16.303  0.00  0.00     0.083 C 
BRANCH   8   9
ATOM      9  C   UNL d   1       5.263  -0.970 -15.904  0.00  0.00     0.087 C 
ATOM     10  N   UNL d   1       4.632  -0.671 -14.848  0.00  0.00    -0.136 NA
BRANCH  10  11
ATOM     11  O   UNL d   1       3.542  -1.523 -14.652  0.00  0.00    -0.234 OA
ATOM     12  C   UNL d   1       2.714  -0.947 -13.643  0.00  0.00     0.211 C 
ENDBRANCH  10  11
BRANCH   9  13
ATOM     13  C   UNL d   1       4.936  -2.037 -16.866  0.00  0.00     0.016 A 
ATOM     14  C   UNL d   1       4.189  -1.749 -18.026  0.00  0.00     0.002 A 
ATOM     15  C   UNL d   1       3.878  -2.783 -18.930  0.00  0.00     0.011 A 
ATOM     16  C   UNL d   1       4.337  -4.095 -18.695  0.00  0.00     0.058 A 
ATOM     17  C   UNL d   1       5.103  -4.378 -17.548  0.00  0.00     0.011 A 
ATOM     18 CL   UNL d   1       3.889  -5.368 -19.765  0.00  0.00    -0.082 Cl
ATOM     19  C   UNL d   1       5.395  -3.348 -16.636  0.00  0.00     0.002 A 
ENDBRANCH   9  13
ENDBRANCH   8   9
ENDBRANCH   7   8
ENDBRANCH   1   7
BRANCH   4  20
ATOM     20  C   UNL d   1       9.409   4.358 -14.094  0.00  0.00     0.068 A 
ATOM     21  N   UNL d   1      10.235   4.875 -13.139  0.00  0.00    -0.188 N 
ATOM     22  C   UNL d   1       9.706   5.585 -12.088  0.00  0.00     0.108 A 
ATOM     23  O   UNL d   1      11.509   4.743 -13.280  0.00  0.00    -0.080 OA
ATOM     24  C   UNL d   1       8.308   5.779 -11.907  0.00  0.00     0.021 A 
ATOM     25  C   UNL d   1       7.452   5.230 -12.887  0.00  0.00     0.003 A 
ATOM     26  C   UNL d   1       7.992   4.594 -14.010  0.00  0.00     0.015 A 
ENDBRANCH   4  20
TORSDOF 6
