REMARK  8 active torsions:
REMARK  status: ('A' for Active; 'I' for Inactive)
REMARK    1  A    between atoms: C_3  and  S_4 
REMARK    2  A    between atoms: S_4  and  C_5 
REMARK    3  A    between atoms: C_5  and  C_6 
REMARK    4  A    between atoms: C_6  and  C_7 
REMARK    5  A    between atoms: C_7  and  N_8 
REMARK    6  A    between atoms: C_13  and  C_14 
REMARK    7  A    between atoms: C_17  and  C_18 
REMARK    8  A    between atoms: C_27  and  C_28 
ROOT
ATOM      1  N   UNL d   1       5.059  -0.877 -17.798  0.00  0.00     0.137 N 
ATOM      2  C   UNL d   1       5.510  -2.202 -17.408  0.00  0.00     0.250 C 
ATOM      3  C   UNL d   1       5.119  -2.277 -15.926  0.00  0.00     0.038 C 
ATOM      4  C   UNL d   1       5.057  -0.855 -15.447  0.00  0.00     0.037 A 
ATOM      5  C   UNL d   1       4.029  -0.423 -14.434  0.00  0.00     0.007 A 
ATOM      6  C   UNL d   1       5.494  -0.403 -14.071  0.00  0.00     0.024 A 
ATOM      7  C   UNL d   1       5.396  -0.032 -16.670  0.00  0.00     0.251 C 
ENDROOT
BRANCH   1   8
ATOM      8  C   UNL d   1       5.587  -0.383 -19.057  0.00  0.00     0.251 C 
BRANCH   8   9
ATOM      9  C   UNL d   1       7.124  -0.496 -19.151  0.00  0.00     0.047 C 
BRANCH   9  10
ATOM     10  C   UNL d   1       7.685  -0.053 -20.513  0.00  0.00     0.067 C 
BRANCH  10  11
ATOM     11  S   UNL d   1       9.494   0.071 -20.443  0.00  0.00    -0.075 SA
BRANCH  11  12
ATOM     12  C   UNL d   1       9.657   1.517 -19.441  0.00  0.00     0.193 A 
ATOM     13  N   UNL d   1      10.843   1.972 -18.987  0.00  0.00    -0.287 N 
ATOM     14  C   UNL d   1      12.175   1.434 -19.251  0.00  0.00     0.134 C 
ATOM     15  C   UNL d   1      10.472   3.055 -18.256  0.00  0.00     0.186 A 
ATOM     16  N   UNL d   1       9.143   3.242 -18.264  0.00  0.00    -0.127 NA
ATOM     17  N   UNL d   1       8.619   2.264 -19.061  0.00  0.00    -0.122 NA
BRANCH  15  18
ATOM     18  C   UNL d   1      11.338   3.984 -17.527  0.00  0.00     0.136 A 
ATOM     19  N   UNL d   1      12.677   3.776 -17.520  0.00  0.00    -0.238 NA
ATOM     20  C   UNL d   1      13.433   4.670 -16.850  0.00  0.00     0.120 A 
ATOM     21  C   UNL d   1      12.859   5.766 -16.173  0.00  0.00     0.120 A 
ATOM     22  N   UNL d   1      11.528   5.986 -16.171  0.00  0.00    -0.239 NA
ATOM     23  C   UNL d   1      10.777   5.098 -16.858  0.00  0.00     0.121 A 
ENDBRANCH  15  18
ENDBRANCH  11  12
ENDBRANCH  10  11
ENDBRANCH   9  10
ENDBRANCH   8   9
ENDBRANCH   1   8
BRANCH   6  24
ATOM     24  C   UNL d   1       6.235   0.897 -13.913  0.00  0.00    -0.022 A 
ATOM     25  C   UNL d   1       7.524   1.065 -14.464  0.00  0.00    -0.004 A 
ATOM     26  C   UNL d   1       8.184   2.308 -14.380  0.00  0.00     0.004 A 
ATOM     27  C   UNL d   1       7.578   3.390 -13.707  0.00  0.00     0.071 A 
ATOM     28  C   UNL d   1       6.289   3.224 -13.150  0.00  0.00     0.004 A 
ATOM     29  C   UNL d   1       5.631   1.985 -13.240  0.00  0.00    -0.004 A 
BRANCH  27  30
ATOM     30  C   UNL d   1       8.328   4.705 -13.558  0.00  0.00     0.419 C 
ATOM     31  F   UNL d   1       8.688   5.154 -14.755  0.00  0.00    -0.166 F 
ATOM     32  F   UNL d   1       7.588   5.640 -12.959  0.00  0.00    -0.166 F 
ATOM     33  F   UNL d   1       9.432   4.513 -12.836  0.00  0.00    -0.166 F 
ENDBRANCH  27  30
ENDBRANCH   6  24
TORSDOF 8
