REMARK  8 active torsions:
REMARK  status: ('A' for Active; 'I' for Inactive)
REMARK    1  A    between atoms: S_2  and  N_5 
REMARK    2  A    between atoms: N_5  and  C_6 
REMARK    3  A    between atoms: C_10  and  O_11 
REMARK    4  A    between atoms: O_11  and  C_12 
REMARK    5  A    between atoms: C_12  and  C_13 
REMARK    6  A    between atoms: C_13  and  N_14 
REMARK    7  A    between atoms: C_17  and  C_18 
REMARK    8  A    between atoms: C_18  and  C_19 
ROOT
ATOM      1  N   UNL d   1       8.810   5.984  -9.852  0.00  0.00     0.140 N 
ATOM      2  C   UNL d   1       9.189   4.662 -10.305  0.00  0.00     0.250 C 
ATOM      3  C   UNL d   1       8.645   4.389 -11.688  0.00  0.00     0.036 C 
ATOM      4  C   UNL d   1       9.147   5.438 -12.685  0.00  0.00     0.008 C 
ATOM      5  C   UNL d   1       8.815   6.841 -12.147  0.00  0.00     0.036 C 
ATOM      6  C   UNL d   1       9.350   7.014 -10.729  0.00  0.00     0.250 C 
ENDROOT
BRANCH   1   7
ATOM      7  C   UNL d   1       9.191   6.175  -8.457  0.00  0.00     0.283 C 
BRANCH   7   8
ATOM      8  C   UNL d   1      10.707   6.015  -8.261  0.00  0.00     0.184 C 
BRANCH   8   9
ATOM      9  O   UNL d   1      11.082   6.208  -6.934  0.00  0.00    -0.329 OA
BRANCH   9  10
ATOM     10  C   UNL d   1      11.110   7.473  -6.464  0.00  0.00     0.096 A 
ATOM     11  C   UNL d   1      10.909   8.634  -7.240  0.00  0.00     0.024 A 
ATOM     12  C   UNL d   1      11.041   9.868  -6.589  0.00  0.00     0.004 A 
ATOM     13  C   UNL d   1      11.379   9.979  -5.238  0.00  0.00     0.020 A 
ATOM     14  C   UNL d   1      11.583   8.800  -4.509  0.00  0.00     0.096 A 
ATOM     15  C   UNL d   1      11.371   7.556  -5.116  0.00  0.00     0.044 A 
BRANCH  14  16
ATOM     16  N   UNL d   1      11.991   8.920  -3.196  0.00  0.00    -0.162 NA
BRANCH  16  17
ATOM     17  S   UNL d   1      12.261   7.676  -2.073  0.00  0.00     0.266 S 
ATOM     18  C   UNL d   1      13.255   6.399  -2.830  0.00  0.00     0.165 C 
ATOM     19  O   UNL d   1      10.966   7.050  -1.785  0.00  0.00    -0.203 OA
ATOM     20  O   UNL d   1      13.088   8.397  -1.103  0.00  0.00    -0.203 OA
ENDBRANCH  16  17
ENDBRANCH  14  16
ENDBRANCH   9  10
ENDBRANCH   8   9
ENDBRANCH   7   8
ENDBRANCH   1   7
BRANCH   4  21
ATOM     21  C   UNL d   1       8.487   5.207 -14.039  0.00  0.00     0.026 C 
BRANCH  21  22
ATOM     22  C   UNL d   1       8.658   3.830 -14.614  0.00  0.00    -0.021 A 
ATOM     23  C   UNL d   1       9.657   3.591 -15.580  0.00  0.00     0.015 A 
ATOM     24  C   UNL d   1       9.774   2.299 -16.130  0.00  0.00     0.080 A 
ATOM     25  C   UNL d   1       8.880   1.284 -15.719  0.00  0.00    -0.004 A 
ATOM     26  N   UNL d   1      10.762   2.026 -17.103  0.00  0.00    -0.212 NA
ATOM     27  C   UNL d   1       7.887   1.530 -14.752  0.00  0.00    -0.003 A 
ATOM     28  C   UNL d   1       9.001  -0.093 -16.324  0.00  0.00     0.038 C 
ATOM     29  C   UNL d   1       7.765   2.813 -14.220  0.00  0.00    -0.004 A 
ATOM     30  C   UNL d   1      10.444  -0.380 -16.756  0.00  0.00     0.095 C 
ATOM     31  C   UNL d   1      11.113   0.791 -17.481  0.00  0.00     0.256 C 
ATOM     32  O   UNL d   1      11.950   0.587 -18.359  0.00  0.00    -0.270 OA
ENDBRANCH  21  22
ENDBRANCH   4  21
TORSDOF 8
