REMARK  1 active torsions:
REMARK  status: ('A' for Active; 'I' for Inactive)
REMARK    1  A    between atoms: O_2  and  C_3 
ROOT
ATOM      1  C   UNL d   1       8.064   6.171 -11.813  0.00  0.00     0.119 A 
ATOM      2  C   UNL d   1       8.691   7.398 -11.721  0.00  0.00     0.022 A 
ATOM      3  C   UNL d   1       9.486   7.699 -10.592  0.00  0.00    -0.020 A 
ATOM      4  C   UNL d   1       9.713   6.807  -9.545  0.00  0.00     0.007 A 
ATOM      5  C   UNL d   1       9.080   5.539  -9.637  0.00  0.00     0.027 A 
ATOM      6  C   UNL d   1       8.226   5.249 -10.759  0.00  0.00     0.153 A 
ATOM      7  O   UNL d   1       7.458   4.134 -10.820  0.00  0.00    -0.188 OA
ATOM      8  C   UNL d   1      10.626   7.278  -8.369  0.00  0.00     0.246 C 
ATOM      9  C   UNL d   1      10.039   6.909  -6.997  0.00  0.00     0.064 C 
ATOM     10  C   UNL d   1      10.879   7.403  -5.843  0.00  0.00    -0.020 A 
ATOM     11  C   UNL d   1      10.772   6.784  -4.601  0.00  0.00     0.022 A 
ATOM     12  C   UNL d   1      11.514   7.291  -3.528  0.00  0.00     0.119 A 
ATOM     13  C   UNL d   1      12.371   8.351  -3.674  0.00  0.00     0.119 A 
ATOM     14  C   UNL d   1      12.512   8.984  -4.912  0.00  0.00     0.024 A 
ATOM     15  C   UNL d   1      11.793   8.478  -6.015  0.00  0.00     0.009 A 
ATOM     16  C   UNL d   1      12.058   8.961  -7.400  0.00  0.00     0.277 C 
ATOM     17  N   UNL d   1      10.958   8.727  -8.340  0.00  0.00     0.144 N 
ATOM     18  C   UNL d   1      11.312   9.169  -9.676  0.00  0.00     0.256 C 
ATOM     19  C   UNL d   1      10.014   9.082 -10.478  0.00  0.00     0.061 C 
ATOM     20  O   UNL d   1      12.982   8.568  -2.505  0.00  0.00    -0.300 OA
ATOM     21  C   UNL d   1      12.341   7.757  -1.561  0.00  0.00     0.304 C 
ATOM     22  O   UNL d   1      11.455   6.906  -2.243  0.00  0.00    -0.300 OA
ENDROOT
BRANCH   1  23
ATOM     23  O   UNL d   1       7.211   5.926 -12.862  0.00  0.00    -0.326 OA
ATOM     24  C   UNL d   1       5.850   5.713 -12.493  0.00  0.00     0.181 C 
ENDBRANCH   1  23
TORSDOF 1
