REMARK  7 active torsions:
REMARK  status: ('A' for Active; 'I' for Inactive)
REMARK    1  A    between atoms: C_4  and  C_5 
REMARK    2  A    between atoms: N_13  and  C_14 
REMARK    3  A    between atoms: C_14  and  C_15 
REMARK    4  A    between atoms: C_15  and  C_16 
REMARK    5  A    between atoms: C_16  and  S_17 
REMARK    6  A    between atoms: S_17  and  C_18 
REMARK    7  A    between atoms: C_21  and  C_22 
ROOT
ATOM      1  C   UNL d   1       7.626   1.657 -16.165  0.00  0.00     0.020 A 
ATOM      2  C   UNL d   1       9.034   1.575 -16.150  0.00  0.00     0.001 A 
ATOM      3  C   UNL d   1       9.747   2.153 -15.085  0.00  0.00    -0.004 A 
ATOM      4  C   UNL d   1       9.065   2.826 -14.051  0.00  0.00    -0.024 A 
ATOM      5  C   UNL d   1       7.657   2.899 -14.040  0.00  0.00    -0.024 A 
ATOM      6  C   UNL d   1       6.952   2.280 -15.090  0.00  0.00    -0.003 A 
ATOM      7  C   UNL d   1       6.892   3.672 -12.953  0.00  0.00     0.061 C 
ATOM      8  C   UNL d   1       7.327   5.145 -12.837  0.00  0.00     0.255 C 
ATOM      9  N   UNL d   1       8.547   5.336 -12.071  0.00  0.00     0.138 N 
ATOM     10  C   UNL d   1       9.718   4.956 -12.850  0.00  0.00     0.255 C 
ATOM     11  C   UNL d   1       9.873   3.453 -12.960  0.00  0.00     0.061 C 
ENDROOT
BRANCH   9  12
ATOM     12  C   UNL d   1       8.634   6.760 -11.781  0.00  0.00     0.251 C 
BRANCH  12  13
ATOM     13  C   UNL d   1       9.664   7.124 -10.696  0.00  0.00     0.047 C 
BRANCH  13  14
ATOM     14  C   UNL d   1       9.769   8.646 -10.423  0.00  0.00     0.067 C 
BRANCH  14  15
ATOM     15  S   UNL d   1      11.288   8.998  -9.526  0.00  0.00    -0.075 SA
BRANCH  15  16
ATOM     16  C   UNL d   1      10.813   8.512  -7.906  0.00  0.00     0.193 A 
ATOM     17  N   UNL d   1      11.552   8.897  -6.862  0.00  0.00    -0.288 N 
ATOM     18  C   UNL d   1      10.937   8.348  -5.817  0.00  0.00     0.183 A 
ATOM     19  C   UNL d   1      12.724   9.706  -6.804  0.00  0.00     0.134 C 
ATOM     20  N   UNL d   1       9.882   7.617  -6.165  0.00  0.00    -0.127 NA
ATOM     21  N   UNL d   1       9.775   7.757  -7.538  0.00  0.00    -0.122 NA
BRANCH  18  22
ATOM     22  C   UNL d   1      11.422   8.508  -4.459  0.00  0.00     0.097 A 
ATOM     23  N   UNL d   1      11.897   7.432  -3.746  0.00  0.00    -0.322 N 
ATOM     24  C   UNL d   1      12.228   7.852  -2.470  0.00  0.00     0.076 A 
ATOM     25  C   UNL d   1      12.034   6.092  -4.229  0.00  0.00     0.131 C 
ATOM     26  C   UNL d   1      11.995   9.192  -2.398  0.00  0.00     0.020 A 
ATOM     27  C   UNL d   1      11.476   9.609  -3.655  0.00  0.00     0.022 A 
ENDBRANCH  18  22
ENDBRANCH  15  16
ENDBRANCH  14  15
ENDBRANCH  13  14
ENDBRANCH  12  13
ENDBRANCH   9  12
BRANCH   1  28
ATOM     28  C   UNL d   1       6.876   1.085 -17.285  0.00  0.00     0.110 A 
ATOM     29  C   UNL d   1       5.638   0.386 -17.269  0.00  0.00     0.044 A 
ATOM     30  C   UNL d   1       5.407   0.079 -18.582  0.00  0.00     0.105 A 
ATOM     31  C   UNL d   1       4.319  -0.667 -19.283  0.00  0.00     0.061 C 
ATOM     32  O   UNL d   1       6.405   0.575 -19.353  0.00  0.00    -0.215 OA
ATOM     33  N   UNL d   1       7.328   1.221 -18.524  0.00  0.00    -0.127 NA
ENDBRANCH   1  28
TORSDOF 7
