REMARK  7 active torsions:
REMARK  status: ('A' for Active; 'I' for Inactive)
REMARK    1  A    between atoms: N_13  and  C_14 
REMARK    2  A    between atoms: C_14  and  C_15 
REMARK    3  A    between atoms: C_15  and  C_16 
REMARK    4  A    between atoms: C_16  and  S_17 
REMARK    5  A    between atoms: S_17  and  C_18 
REMARK    6  A    between atoms: C_21  and  C_22 
REMARK    7  A    between atoms: C_25  and  C_26 
ROOT
ATOM      1  C   UNL d   1       7.958   1.694 -15.182  0.00  0.00     0.067 C 
ENDROOT
BRANCH   1   2
ATOM      2  C   UNL d   1       8.403   2.353 -16.503  0.00  0.00     0.047 C 
BRANCH   2   3
ATOM      3  C   UNL d   1       9.259   1.406 -17.358  0.00  0.00     0.251 C 
BRANCH   3   4
ATOM      4  N   UNL d   1      10.648   1.321 -16.906  0.00  0.00     0.138 N 
ATOM      5  C   UNL d   1      11.460   2.535 -17.063  0.00  0.00     0.255 C 
ATOM      6  C   UNL d   1      11.697   2.988 -18.517  0.00  0.00     0.061 C 
ATOM      7  C   UNL d   1      12.808   2.220 -19.216  0.00  0.00    -0.022 A 
ATOM      8  C   UNL d   1      12.745   0.810 -19.387  0.00  0.00    -0.022 A 
ATOM      9  C   UNL d   1      13.927   2.936 -19.695  0.00  0.00     0.022 A 
ATOM     10  C   UNL d   1      13.810   0.127 -20.032  0.00  0.00     0.017 A 
ATOM     11  C   UNL d   1      11.549   0.011 -18.895  0.00  0.00     0.061 C 
ATOM     12  C   UNL d   1      14.934   0.832 -20.510  0.00  0.00     0.106 A 
ATOM     13  N   UNL d   1      16.091   0.433 -21.156  0.00  0.00    -0.224 NA
ATOM     14  C   UNL d   1      14.958   2.231 -20.335  0.00  0.00     0.119 A 
ATOM     15  C   UNL d   1      16.747   1.586 -21.350  0.00  0.00     0.159 A 
ATOM     16  C   UNL d   1      18.072   1.750 -22.007  0.00  0.00     0.080 C 
ATOM     17  O   UNL d   1      16.131   2.714 -20.879  0.00  0.00    -0.292 OA
ATOM     18  C   UNL d   1      11.311   0.105 -17.376  0.00  0.00     0.255 C 
ENDBRANCH   3   4
ENDBRANCH   2   3
ENDBRANCH   1   2
BRANCH   1  19
ATOM     19  S   UNL d   1       6.921   2.784 -14.161  0.00  0.00    -0.075 SA
BRANCH  19  20
ATOM     20  C   UNL d   1       8.155   3.794 -13.406  0.00  0.00     0.193 A 
ATOM     21  N   UNL d   1       7.906   4.447 -12.257  0.00  0.00    -0.289 N 
ATOM     22  C   UNL d   1       9.091   5.027 -11.990  0.00  0.00     0.167 A 
ATOM     23  C   UNL d   1       6.682   4.489 -11.496  0.00  0.00     0.134 C 
ATOM     24  N   UNL d   1      10.003   4.802 -12.944  0.00  0.00    -0.128 NA
ATOM     25  N   UNL d   1       9.391   3.984 -13.864  0.00  0.00    -0.122 NA
BRANCH  22  26
ATOM     26  C   UNL d   1       9.383   5.814 -10.796  0.00  0.00     0.036 A 
ATOM     27  C   UNL d   1       9.244   5.262  -9.502  0.00  0.00     0.003 A 
ATOM     28  C   UNL d   1       9.546   6.042  -8.366  0.00  0.00     0.004 A 
ATOM     29  C   UNL d   1      10.001   7.370  -8.509  0.00  0.00     0.071 A 
ATOM     30  C   UNL d   1      10.138   7.917  -9.802  0.00  0.00     0.004 A 
ATOM     31  C   UNL d   1       9.822   7.143 -10.934  0.00  0.00     0.003 A 
BRANCH  29  32
ATOM     32  C   UNL d   1      10.311   8.213  -7.281  0.00  0.00     0.419 C 
ATOM     33  F   UNL d   1      11.180   9.181  -7.572  0.00  0.00    -0.166 F 
ATOM     34  F   UNL d   1       9.188   8.767  -6.836  0.00  0.00    -0.166 F 
ATOM     35  F   UNL d   1      10.831   7.462  -6.309  0.00  0.00    -0.166 F 
ENDBRANCH  29  32
ENDBRANCH  22  26
ENDBRANCH  19  20
ENDBRANCH   1  19
TORSDOF 7
