REMARK  8 active torsions:
REMARK  status: ('A' for Active; 'I' for Inactive)
REMARK    1  A    between atoms: O_2  and  C_3 
REMARK    2  A    between atoms: C_4  and  C_5 
REMARK       I    between atoms: C_5  and  N_7 
REMARK    3  A    between atoms: N_7  and  C_8 
REMARK    4  A    between atoms: C_8  and  C_9 
REMARK    5  A    between atoms: C_9  and  C_10 
REMARK    6  A    between atoms: C_10  and  C_11 
REMARK    7  A    between atoms: C_11  and  N_12 
REMARK    8  A    between atoms: N_15  and  C_16 
ROOT
ATOM      1  C   UNL d   1       9.566   6.786 -10.787  0.00  0.00     0.029 C 
ENDROOT
BRANCH   1   2
ATOM      2  C   UNL d   1       9.636   8.329 -10.684  0.00  0.00     0.129 C 
BRANCH   2   3
ATOM      3  N   UNL d   1       9.998   8.730  -9.314  0.00  0.00    -0.234 NA
ATOM      4  C   UNL d   1      11.232   8.711  -8.802  0.00  0.00     0.277 C 
ATOM      5  O   UNL d   1      12.257   8.547  -9.461  0.00  0.00    -0.266 OA
BRANCH   4   6
ATOM      6  C   UNL d   1      11.321   8.802  -7.309  0.00  0.00     0.080 A 
ATOM      7  C   UNL d   1      11.374   7.637  -6.513  0.00  0.00     0.099 A 
ATOM      8  C   UNL d   1      11.483   7.747  -5.097  0.00  0.00     0.022 A 
ATOM      9  C   UNL d   1      11.509   9.033  -4.497  0.00  0.00     0.002 A 
ATOM     10  C   UNL d   1      11.582   6.604  -4.303  0.00  0.00     0.002 A 
ATOM     11  C   UNL d   1      11.397  10.181  -5.281  0.00  0.00     0.000 A 
ATOM     12  C   UNL d   1      11.677   9.149  -3.099  0.00  0.00     0.000 A 
ATOM     13  C   UNL d   1      11.382  10.073  -6.686  0.00  0.00     0.007 A 
ATOM     14  C   UNL d   1      11.812   7.997  -2.317  0.00  0.00     0.000 A 
ATOM     15  C   UNL d   1      11.740   6.727  -2.905  0.00  0.00     0.000 A 
BRANCH   7  16
ATOM     16  O   UNL d   1      11.414   6.389  -7.080  0.00  0.00    -0.328 OA
ATOM     17  C   UNL d   1      10.157   5.923  -7.498  0.00  0.00     0.181 C 
ENDBRANCH   7  16
ENDBRANCH   4   6
ENDBRANCH   2   3
ENDBRANCH   1   2
BRANCH   1  18
ATOM     18  C   UNL d   1       9.074   6.274 -12.131  0.00  0.00     0.037 C 
BRANCH  18  19
ATOM     19  C   UNL d   1       9.202   4.746 -12.245  0.00  0.00     0.251 C 
BRANCH  19  20
ATOM     20  N   UNL d   1       8.405   4.258 -13.372  0.00  0.00     0.141 N 
ATOM     21  C   UNL d   1       9.022   3.037 -13.894  0.00  0.00     0.274 C 
ATOM     22  C   UNL d   1       8.214   2.474 -15.073  0.00  0.00     0.137 C 
ATOM     23  N   UNL d   1       6.828   2.262 -14.688  0.00  0.00    -0.344 N 
ATOM     24  C   UNL d   1       6.167   3.409 -14.043  0.00  0.00     0.137 C 
ATOM     25  C   UNL d   1       7.042   3.987 -12.911  0.00  0.00     0.274 C 
BRANCH  23  26
ATOM     26  C   UNL d   1       6.168   1.047 -14.912  0.00  0.00     0.068 A 
ATOM     27  C   UNL d   1       6.232   0.330 -16.144  0.00  0.00     0.084 A 
ATOM     28  C   UNL d   1       5.512  -0.878 -16.308  0.00  0.00     0.070 A 
ATOM     29 CL   UNL d   1       7.064   0.954 -17.537  0.00  0.00    -0.080 Cl
ATOM     30  C   UNL d   1       4.678  -1.349 -15.284  0.00  0.00     0.012 A 
ATOM     31 CL   UNL d   1       5.581  -1.777 -17.785  0.00  0.00    -0.081 Cl
ATOM     32  C   UNL d   1       4.543  -0.601 -14.101  0.00  0.00     0.002 A 
ATOM     33  C   UNL d   1       5.314   0.552 -13.901  0.00  0.00     0.018 A 
ENDBRANCH  23  26
ENDBRANCH  19  20
ENDBRANCH  18  19
ENDBRANCH   1  18
TORSDOF 8
