REMARK  3 active torsions:
REMARK  status: ('A' for Active; 'I' for Inactive)
REMARK       I    between atoms: N_4  and  C_5 
REMARK    1  A    between atoms: C_5  and  C_7 
REMARK    2  A    between atoms: C_10  and  C_11 
REMARK       I    between atoms: N_21  and  C_22 
REMARK    3  A    between atoms: C_22  and  C_24 
ROOT
ATOM      1  C   UNL d   1      10.839   4.552 -14.593  0.00  0.00     0.026 C 
ATOM      2  C   UNL d   1      10.256   3.417 -13.700  0.00  0.00     0.106 C 
ATOM      3  C   UNL d   1       9.724   3.961 -12.362  0.00  0.00     0.127 C 
ATOM      4  N   UNL d   1       8.495   4.749 -12.506  0.00  0.00    -0.313 N 
ATOM      5  C   UNL d   1       8.419   6.046 -12.169  0.00  0.00     0.257 C 
ATOM      6  O   UNL d   1       7.742   6.836 -12.816  0.00  0.00    -0.267 OA
ATOM      7  C   UNL d   1       7.435   4.042 -13.209  0.00  0.00     0.129 C 
ATOM      8  C   UNL d   1       7.987   3.403 -14.489  0.00  0.00     0.129 C 
ATOM      9  N   UNL d   1       9.202   2.605 -14.310  0.00  0.00    -0.315 N 
ATOM     10  C   UNL d   1       9.373   1.324 -14.747  0.00  0.00     0.257 C 
ATOM     11  O   UNL d   1      10.424   0.701 -14.656  0.00  0.00    -0.267 OA
ENDROOT
BRANCH   5  12
ATOM     12  C   UNL d   1       9.105   6.461 -10.904  0.00  0.00     0.056 A 
ATOM     13  C   UNL d   1       8.889   5.748  -9.706  0.00  0.00     0.005 A 
ATOM     14  C   UNL d   1       9.420   6.220  -8.484  0.00  0.00     0.000 A 
ATOM     15  C   UNL d   1      10.227   7.389  -8.426  0.00  0.00     0.000 A 
ATOM     16  C   UNL d   1      10.438   8.085  -9.648  0.00  0.00     0.000 A 
ATOM     17  C   UNL d   1       9.863   7.638 -10.855  0.00  0.00     0.005 A 
BRANCH  15  18
ATOM     18  C   UNL d   1      10.797   7.870  -7.136  0.00  0.00     0.000 A 
ATOM     19  C   UNL d   1      11.275   9.200  -6.974  0.00  0.00     0.000 A 
ATOM     20  C   UNL d   1      11.844   9.644  -5.768  0.00  0.00     0.000 A 
ATOM     21  C   UNL d   1      11.924   8.782  -4.661  0.00  0.00     0.000 A 
ATOM     22  C   UNL d   1      11.467   7.462  -4.786  0.00  0.00     0.000 A 
ATOM     23  C   UNL d   1      10.915   7.022  -6.003  0.00  0.00     0.000 A 
ENDBRANCH  15  18
ENDBRANCH   5  12
BRANCH  10  24
ATOM     24  C   UNL d   1       8.196   0.697 -15.435  0.00  0.00     0.057 A 
ATOM     25  C   UNL d   1       7.038   0.336 -14.723  0.00  0.00     0.024 A 
ATOM     26  C   UNL d   1       5.959  -0.243 -15.415  0.00  0.00     0.082 A 
ATOM     27  C   UNL d   1       6.015  -0.495 -16.820  0.00  0.00     0.019 A 
ATOM     28  N   UNL d   1       4.720  -0.681 -15.009  0.00  0.00    -0.244 NA
ATOM     29  C   UNL d   1       7.201  -0.136 -17.505  0.00  0.00     0.002 A 
ATOM     30  C   UNL d   1       4.775  -1.113 -17.204  0.00  0.00     0.022 A 
ATOM     31  C   UNL d   1       8.294   0.434 -16.817  0.00  0.00     0.005 A 
ATOM     32  C   UNL d   1       4.015  -1.220 -16.073  0.00  0.00     0.099 A 
ENDBRANCH  10  24
TORSDOF 3
