REMARK  5 active torsions:
REMARK  status: ('A' for Active; 'I' for Inactive)
REMARK    1  A    between atoms: C_2  and  N_3 
REMARK    2  A    between atoms: C_6  and  C_7 
REMARK    3  A    between atoms: C_6  and  N_9 
REMARK    4  A    between atoms: N_12  and  C_13 
REMARK    5  A    between atoms: C_13  and  C_14 
ROOT
ATOM      1  N   UNL d   1       9.879   4.645 -18.017  0.00  0.00    -0.298 N 
ATOM      2  C   UNL d   1      10.667   5.167 -17.048  0.00  0.00     0.270 A 
ATOM      3  O   UNL d   1      11.166   6.295 -17.047  0.00  0.00    -0.270 OA
ATOM      4  C   UNL d   1      10.936   4.138 -15.911  0.00  0.00     0.282 A 
ATOM      5  C   UNL d   1      10.284   2.926 -16.555  0.00  0.00     0.031 A 
ATOM      6  C   UNL d   1      10.233   1.602 -16.074  0.00  0.00    -0.001 A 
ATOM      7  C   UNL d   1       9.496   0.646 -16.803  0.00  0.00    -0.000 A 
ATOM      8  C   UNL d   1       8.858   1.006 -18.012  0.00  0.00     0.002 A 
ATOM      9  C   UNL d   1       8.940   2.327 -18.506  0.00  0.00     0.017 A 
ATOM     10  C   UNL d   1       9.659   3.279 -17.751  0.00  0.00     0.060 A 
ENDROOT
BRANCH   4  11
ATOM     11  C   UNL d   1      12.478   3.952 -15.777  0.00  0.00     0.045 C 
ATOM     12  C   UNL d   1      13.224   3.593 -17.079  0.00  0.00     0.003 C 
ENDBRANCH   4  11
BRANCH   4  13
ATOM     13  N   UNL d   1      10.255   4.549 -14.652  0.00  0.00     0.150 N 
ATOM     14  C   UNL d   1      10.474   3.629 -13.530  0.00  0.00     0.286 C 
ATOM     15  C   UNL d   1       9.842   4.132 -12.249  0.00  0.00     0.286 C 
ATOM     16  N   UNL d   1       8.415   4.415 -12.373  0.00  0.00     0.146 N 
ATOM     17  C   UNL d   1       8.171   5.317 -13.492  0.00  0.00     0.286 C 
ATOM     18  C   UNL d   1       8.812   4.799 -14.789  0.00  0.00     0.286 C 
BRANCH  16  19
ATOM     19  C   UNL d   1       7.817   4.885 -11.119  0.00  0.00     0.277 C 
BRANCH  19  20
ATOM     20  C   UNL d   1       8.694   5.818 -10.286  0.00  0.00     0.011 A 
ATOM     21  C   UNL d   1       8.794   5.628  -8.885  0.00  0.00    -0.002 A 
ATOM     22  C   UNL d   1       9.611   6.454  -8.091  0.00  0.00     0.011 A 
ATOM     23  C   UNL d   1      10.357   7.488  -8.695  0.00  0.00     0.058 A 
ATOM     24  C   UNL d   1      10.268   7.683 -10.089  0.00  0.00     0.011 A 
ATOM     25 CL   UNL d   1      11.406   8.493  -7.758  0.00  0.00    -0.082 Cl
ATOM     26  C   UNL d   1       9.436   6.875 -10.884  0.00  0.00    -0.002 A 
ENDBRANCH  19  20
ENDBRANCH  16  19
ENDBRANCH   4  13
BRANCH   1  27
ATOM     27  C   UNL d   1       9.429   5.338 -19.230  0.00  0.00     0.109 C 
ATOM     28  C   UNL d   1       8.725   6.675 -18.946  0.00  0.00     0.027 C 
ENDBRANCH   1  27
TORSDOF 5
