REMARK  3 active torsions:
REMARK  status: ('A' for Active; 'I' for Inactive)
REMARK    1  A    between atoms: N_5  and  C_6 
REMARK    2  A    between atoms: C_11  and  C_12 
REMARK    3  A    between atoms: C_12  and  C_13 
ROOT
ATOM      1  C   UNL d   1      10.716   4.618 -14.484  0.00  0.00     0.744 A 
ATOM      2  N   UNL d   1      10.205   3.425 -14.792  0.00  0.00     0.134 NA
ATOM      3  C   UNL d   1       9.049   3.196 -14.178  0.00  0.00     0.785 A 
ATOM      4  N   UNL d   1       8.467   1.999 -14.460  0.00  0.00     0.063 N 
ATOM      5  N   UNL d   1       8.383   3.990 -13.345  0.00  0.00    -0.042 NA
ATOM      6  C   UNL d   1       9.032   5.135 -13.116  0.00  0.00     0.180 A 
ATOM      7  N   UNL d   1      10.204   5.514 -13.637  0.00  0.00    -0.045 NA
ENDROOT
BRANCH   6   8
ATOM      8  C   UNL d   1       8.366   6.111 -12.163  0.00  0.00     0.095 C 
BRANCH   8   9
ATOM      9  C   UNL d   1       8.841   5.911 -10.758  0.00  0.00     0.006 A 
ATOM     10  C   UNL d   1       9.690   6.774  -9.981  0.00  0.00     0.016 A 
ATOM     11  C   UNL d   1       9.860   6.189  -8.692  0.00  0.00     0.081 A 
ATOM     12  C   UNL d   1      10.337   8.008 -10.221  0.00  0.00     0.001 A 
ATOM     13  N   UNL d   1       9.135   5.015  -8.724  0.00  0.00    -0.244 NA
ATOM     14  C   UNL d   1      10.647   6.793  -7.695  0.00  0.00     0.019 A 
ATOM     15  C   UNL d   1       8.514   4.858  -9.947  0.00  0.00     0.095 A 
ATOM     16  C   UNL d   1      11.290   8.015  -7.971  0.00  0.00     0.002 A 
ATOM     17  C   UNL d   1      11.134   8.619  -9.234  0.00  0.00     0.000 A 
ENDBRANCH   8   9
ENDBRANCH   6   8
BRANCH   1  18
ATOM     18  N   UNL d   1      11.906   4.973 -15.108  0.00  0.00    -0.178 N 
ATOM     19  C   UNL d   1      12.269   6.340 -15.481  0.00  0.00     0.155 C 
ATOM     20  C   UNL d   1      12.704   6.404 -16.957  0.00  0.00     0.275 C 
ATOM     21  N   UNL d   1      13.810   5.473 -17.200  0.00  0.00     0.143 N 
ATOM     22  C   UNL d   1      14.214   5.548 -18.593  0.00  0.00     0.286 C 
ATOM     23  C   UNL d   1      13.345   4.114 -16.909  0.00  0.00     0.275 C 
ATOM     24  C   UNL d   1      12.939   3.999 -15.432  0.00  0.00     0.155 C 
ENDBRANCH   1  18
TORSDOF 3
