REMARK  10 active torsions:
REMARK  status: ('A' for Active; 'I' for Inactive)
REMARK    1  A    between atoms: S_2  and  N_4 
REMARK    2  A    between atoms: S_2  and  C_26 
REMARK    3  A    between atoms: N_4  and  C_5 
REMARK    4  A    between atoms: C_5  and  C_6 
REMARK    5  A    between atoms: C_6  and  C_7 
REMARK    6  A    between atoms: C_7  and  C_8 
REMARK    7  A    between atoms: C_8  and  C_9 
REMARK    8  A    between atoms: C_9  and  C_10 
REMARK    9  A    between atoms: C_10  and  N_11 
REMARK   10  A    between atoms: N_14  and  C_15 
ROOT
ATOM      1  C   UNL d   1       6.662   1.824 -14.925  0.00  0.00     0.002 C 
ENDROOT
BRANCH   1   2
ATOM      2  C   UNL d   1       7.950   0.983 -14.906  0.00  0.00     0.002 C 
BRANCH   2   3
ATOM      3  C   UNL d   1       8.104   0.116 -16.155  0.00  0.00     0.027 C 
BRANCH   3   4
ATOM      4  C   UNL d   1       9.549  -0.409 -16.301  0.00  0.00     0.139 C 
BRANCH   4   5
ATOM      5  N   UNL d   1      10.471   0.635 -16.765  0.00  0.00    -0.185 NA
BRANCH   5   6
ATOM      6  S   UNL d   1      10.190   1.395 -18.289  0.00  0.00     0.281 S 
ATOM      7  O   UNL d   1       9.743   0.352 -19.239  0.00  0.00    -0.199 OA
ATOM      8  O   UNL d   1       9.340   2.555 -18.032  0.00  0.00    -0.199 OA
BRANCH   6   9
ATOM      9  C   UNL d   1      11.840   1.961 -18.754  0.00  0.00     0.105 A 
ATOM     10  C   UNL d   1      12.873   1.086 -19.193  0.00  0.00     0.012 A 
ATOM     11  C   UNL d   1      14.129   1.646 -19.561  0.00  0.00     0.001 A 
ATOM     12  C   UNL d   1      12.710  -0.319 -19.274  0.00  0.00     0.001 A 
ATOM     13  C   UNL d   1      14.348   3.036 -19.469  0.00  0.00     0.000 A 
ATOM     14  C   UNL d   1      15.175   0.816 -20.016  0.00  0.00     0.000 A 
ATOM     15  C   UNL d   1      13.325   3.887 -19.016  0.00  0.00     0.001 A 
ATOM     16  C   UNL d   1      12.075   3.350 -18.662  0.00  0.00     0.013 A 
ATOM     17  C   UNL d   1      14.986  -0.574 -20.108  0.00  0.00     0.000 A 
ATOM     18  C   UNL d   1      13.754  -1.140 -19.740  0.00  0.00     0.000 A 
ENDBRANCH   6   9
ENDBRANCH   5   6
ENDBRANCH   4   5
ENDBRANCH   3   4
ENDBRANCH   2   3
ENDBRANCH   1   2
BRANCH   1  19
ATOM     19  C   UNL d   1       6.589   2.902 -13.833  0.00  0.00     0.035 C 
BRANCH  19  20
ATOM     20  C   UNL d   1       7.857   3.773 -13.812  0.00  0.00     0.250 C 
BRANCH  20  21
ATOM     21  N   UNL d   1       7.715   4.885 -12.887  0.00  0.00     0.141 N 
ATOM     22  C   UNL d   1       8.584   5.963 -13.334  0.00  0.00     0.274 C 
ATOM     23  C   UNL d   1       8.505   7.141 -12.360  0.00  0.00     0.138 C 
ATOM     24  N   UNL d   1       8.972   6.672 -11.044  0.00  0.00    -0.329 N 
ATOM     25  C   UNL d   1       8.145   5.564 -10.576  0.00  0.00     0.138 C 
ATOM     26  C   UNL d   1       8.188   4.432 -11.585  0.00  0.00     0.274 C 
BRANCH  24  27
ATOM     27  C   UNL d   1       9.751   7.457 -10.211  0.00  0.00     0.148 C 
ATOM     28  C   UNL d   1       9.819   7.368  -8.751  0.00  0.00     0.042 A 
ATOM     29  C   UNL d   1      10.919   8.136  -8.273  0.00  0.00     0.050 A 
ATOM     30  C   UNL d   1       9.049   6.711  -7.765  0.00  0.00     0.004 A 
ATOM     31  S   UNL d   1      11.716   8.822  -9.646  0.00  0.00     0.015 SA
ATOM     32  C   UNL d   1      11.258   8.263  -6.920  0.00  0.00     0.008 A 
ATOM     33  N   UNL d   1      10.542   8.374 -10.744  0.00  0.00    -0.192 NA
ATOM     34  C   UNL d   1      10.485   7.581  -5.967  0.00  0.00     0.001 A 
ATOM     35  C   UNL d   1       9.392   6.814  -6.405  0.00  0.00     0.000 A 
ENDBRANCH  24  27
ENDBRANCH  20  21
ENDBRANCH  19  20
ENDBRANCH   1  19
TORSDOF 10
