REMARK  6 active torsions:
REMARK  status: ('A' for Active; 'I' for Inactive)
REMARK    1  A    between atoms: C_2  and  C_3 
REMARK    2  A    between atoms: C_3  and  N_4 
REMARK    3  A    between atoms: N_4  and  C_5 
REMARK    4  A    between atoms: N_4  and  C_8 
REMARK    5  A    between atoms: C_5  and  C_6 
REMARK    6  A    between atoms: C_16  and  C_17 
ROOT
ATOM      1  C   UNL d   1      10.512   3.172 -15.394  0.00  0.00     0.253 C 
ATOM      2  C   UNL d   1      10.806   4.548 -14.778  0.00  0.00     0.182 C 
ATOM      3  O   UNL d   1      10.216   4.664 -13.480  0.00  0.00    -0.329 OA
ATOM      4  C   UNL d   1       8.877   4.317 -13.375  0.00  0.00     0.090 A 
ATOM      5  C   UNL d   1       8.226   3.517 -14.338  0.00  0.00     0.002 A 
ATOM      6  C   UNL d   1       6.878   3.130 -14.152  0.00  0.00    -0.002 A 
ATOM      7  C   UNL d   1       6.155   3.590 -13.035  0.00  0.00    -0.000 A 
ATOM      8  C   UNL d   1       6.796   4.410 -12.084  0.00  0.00     0.002 A 
ATOM      9  C   UNL d   1       8.150   4.753 -12.241  0.00  0.00     0.022 A 
ATOM     10  C   UNL d   1       8.988   3.109 -15.560  0.00  0.00     0.064 C 
ENDROOT
BRANCH   1  11
ATOM     11  N   UNL d   1      11.207   2.907 -16.665  0.00  0.00     0.138 N 
BRANCH  11  12
ATOM     12  C   UNL d   1      12.667   2.926 -16.537  0.00  0.00     0.250 C 
BRANCH  12  13
ATOM     13  C   UNL d   1      13.342   3.085 -17.910  0.00  0.00     0.035 C 
ATOM     14  C   UNL d   1      13.104   4.465 -18.519  0.00  0.00     0.002 C 
ENDBRANCH  12  13
ENDBRANCH  11  12
BRANCH  11  15
ATOM     15  C   UNL d   1      10.749   1.644 -17.263  0.00  0.00     0.250 C 
BRANCH  15  16
ATOM     16  C   UNL d   1      10.866   0.401 -16.325  0.00  0.00     0.035 C 
ATOM     17  C   UNL d   1       9.796   0.246 -15.228  0.00  0.00     0.002 C 
ENDBRANCH  15  16
ENDBRANCH  11  15
ENDBRANCH   1  11
BRANCH   9  18
ATOM     18  C   UNL d   1       8.805   5.615 -11.242  0.00  0.00     0.009 A 
ATOM     19  C   UNL d   1       9.477   6.791 -11.467  0.00  0.00     0.035 A 
ATOM     20  S   UNL d   1      10.108   7.466 -10.013  0.00  0.00    -0.086 SA
ATOM     21  C   UNL d   1       9.499   6.126  -9.085  0.00  0.00     0.035 A 
ATOM     22  C   UNL d   1       8.836   5.221  -9.868  0.00  0.00     0.007 A 
ENDBRANCH   9  18
TORSDOF 6
