REMARK  7 active torsions:
REMARK  status: ('A' for Active; 'I' for Inactive)
REMARK    1  A    between atoms: C_6  and  C_7 
REMARK    2  A    between atoms: C_10  and  S_11 
REMARK    3  A    between atoms: S_11  and  C_12 
REMARK    4  A    between atoms: C_12  and  C_13 
REMARK    5  A    between atoms: C_13  and  C_14 
REMARK    6  A    between atoms: C_14  and  N_15 
REMARK    7  A    between atoms: C_20  and  C_21 
ROOT
ATOM      1  C   UNL d   1       9.003   1.568 -16.068  0.00  0.00     0.251 C 
ENDROOT
BRANCH   1   2
ATOM      2  C   UNL d   1       9.408   3.040 -15.927  0.00  0.00     0.047 C 
BRANCH   2   3
ATOM      3  C   UNL d   1      10.874   3.297 -16.289  0.00  0.00     0.067 C 
BRANCH   3   4
ATOM      4  S   UNL d   1      11.364   4.964 -15.800  0.00  0.00    -0.075 SA
BRANCH   4   5
ATOM      5  C   UNL d   1      12.880   5.169 -16.694  0.00  0.00     0.193 A 
ATOM      6  N   UNL d   1      13.531   4.202 -17.340  0.00  0.00    -0.122 NA
ATOM      7  N   UNL d   1      14.609   4.826 -17.927  0.00  0.00    -0.126 NA
ATOM      8  C   UNL d   1      14.517   6.128 -17.622  0.00  0.00     0.191 A 
ATOM      9  N   UNL d   1      13.449   6.389 -16.825  0.00  0.00    -0.287 N 
ATOM     10  C   UNL d   1      12.982   7.654 -16.272  0.00  0.00     0.134 C 
BRANCH   8  11
ATOM     11  C   UNL d   1      15.503   7.099 -18.139  0.00  0.00     0.151 A 
ATOM     12  C   UNL d   1      15.467   8.412 -18.574  0.00  0.00     0.087 A 
ATOM     13  C   UNL d   1      14.350   9.398 -18.703  0.00  0.00     0.054 C 
ATOM     14  N   UNL d   1      16.753   8.801 -18.921  0.00  0.00    -0.221 NA
ATOM     15  C   UNL d   1      17.507   7.730 -18.711  0.00  0.00     0.225 A 
ATOM     16  O   UNL d   1      16.809   6.668 -18.223  0.00  0.00    -0.282 OA
ENDBRANCH   8  11
ENDBRANCH   4   5
ENDBRANCH   3   4
ENDBRANCH   2   3
ENDBRANCH   1   2
BRANCH   1  17
ATOM     17  N   UNL d   1       7.618   1.331 -15.675  0.00  0.00     0.137 N 
ATOM     18  C   UNL d   1       7.309  -0.086 -15.830  0.00  0.00     0.251 C 
ATOM     19  C   UNL d   1       5.992  -0.260 -15.102  0.00  0.00     0.037 A 
ATOM     20  C   UNL d   1       6.031   0.795 -14.026  0.00  0.00     0.038 C 
ATOM     21  C   UNL d   1       4.713  -0.646 -15.825  0.00  0.00     0.024 A 
ATOM     22  C   UNL d   1       5.360  -1.616 -14.864  0.00  0.00     0.007 A 
ATOM     23  C   UNL d   1       7.353   1.537 -14.248  0.00  0.00     0.250 C 
BRANCH  21  24
ATOM     24  C   UNL d   1       4.742  -0.888 -17.298  0.00  0.00    -0.021 A 
ATOM     25  C   UNL d   1       5.058   0.159 -18.192  0.00  0.00     0.007 A 
ATOM     26  C   UNL d   1       5.153  -0.087 -19.571  0.00  0.00     0.058 A 
ATOM     27  C   UNL d   1       4.941  -1.387 -20.069  0.00  0.00     0.023 A 
ATOM     28 CL   UNL d   1       5.604   1.179 -20.649  0.00  0.00    -0.082 Cl
ATOM     29  C   UNL d   1       4.600  -2.430 -19.186  0.00  0.00     0.058 A 
ATOM     30  C   UNL d   1       4.495  -2.179 -17.809  0.00  0.00     0.007 A 
ATOM     31 CL   UNL d   1       4.348  -4.024 -19.793  0.00  0.00    -0.082 Cl
ENDBRANCH  21  24
ENDBRANCH   1  17
TORSDOF 7
