REMARK  9 active torsions:
REMARK  status: ('A' for Active; 'I' for Inactive)
REMARK    1  A    between atoms: C_3  and  S_4 
REMARK    2  A    between atoms: S_4  and  C_5 
REMARK    3  A    between atoms: C_5  and  C_6 
REMARK    4  A    between atoms: C_6  and  C_7 
REMARK    5  A    between atoms: C_7  and  N_8 
REMARK    6  A    between atoms: C_13  and  C_14 
REMARK    7  A    between atoms: C_17  and  C_18 
REMARK    8  A    between atoms: C_27  and  C_28 
REMARK    9  A    between atoms: C_31  and  C_32 
ROOT
ATOM      1  C   UNL d   1       6.058  -2.213 -17.814  0.00  0.00     0.067 C 
ENDROOT
BRANCH   1   2
ATOM      2  S   UNL d   1       4.380  -1.605 -17.477  0.00  0.00    -0.075 SA
BRANCH   2   3
ATOM      3  C   UNL d   1       4.715  -0.726 -15.985  0.00  0.00     0.193 A 
ATOM      4  N   UNL d   1       5.495   0.379 -15.932  0.00  0.00    -0.289 N 
ATOM      5  C   UNL d   1       6.154   1.125 -17.010  0.00  0.00     0.134 C 
ATOM      6  C   UNL d   1       5.479   0.670 -14.603  0.00  0.00     0.167 A 
ATOM      7  N   UNL d   1       4.718  -0.173 -13.900  0.00  0.00    -0.128 NA
ATOM      8  N   UNL d   1       4.214  -1.083 -14.804  0.00  0.00    -0.122 NA
BRANCH   6   9
ATOM      9  C   UNL d   1       6.178   1.804 -14.009  0.00  0.00     0.036 A 
ATOM     10  C   UNL d   1       7.485   2.136 -14.421  0.00  0.00     0.003 A 
ATOM     11  C   UNL d   1       8.166   3.228 -13.849  0.00  0.00     0.004 A 
ATOM     12  C   UNL d   1       7.519   4.018 -12.864  0.00  0.00     0.041 A 
ATOM     13  C   UNL d   1       6.212   3.699 -12.446  0.00  0.00     0.004 A 
ATOM     14  C   UNL d   1       5.539   2.598 -13.012  0.00  0.00     0.003 A 
BRANCH  12  15
ATOM     15  C   UNL d   1       8.242   5.126 -12.266  0.00  0.00     0.182 A 
ATOM     16  O   UNL d   1       8.122   6.354 -12.838  0.00  0.00    -0.286 OA
ATOM     17  C   UNL d   1       8.883   7.171 -12.046  0.00  0.00     0.145 A 
ATOM     18  C   UNL d   1       9.443   6.434 -11.045  0.00  0.00     0.128 A 
ATOM     19  N   UNL d   1       9.053   5.112 -11.209  0.00  0.00    -0.218 NA
ENDBRANCH  12  15
ENDBRANCH   6   9
ENDBRANCH   2   3
ENDBRANCH   1   2
BRANCH   1  20
ATOM     20  C   UNL d   1       6.702  -1.439 -18.981  0.00  0.00     0.047 C 
BRANCH  20  21
ATOM     21  C   UNL d   1       8.070  -2.002 -19.430  0.00  0.00     0.251 C 
BRANCH  21  22
ATOM     22  N   UNL d   1       8.735  -1.120 -20.380  0.00  0.00     0.137 N 
ATOM     23  C   UNL d   1       9.460  -0.024 -19.756  0.00  0.00     0.251 C 
ATOM     24  C   UNL d   1       9.780   0.921 -20.907  0.00  0.00     0.037 A 
ATOM     25  C   UNL d   1       8.728   0.640 -21.946  0.00  0.00     0.038 C 
ATOM     26  C   UNL d   1      10.372   2.290 -20.653  0.00  0.00     0.024 A 
ATOM     27  C   UNL d   1      11.200   1.216 -21.323  0.00  0.00     0.007 A 
ATOM     28  C   UNL d   1       7.842  -0.453 -21.329  0.00  0.00     0.250 C 
BRANCH  26  29
ATOM     29  C   UNL d   1      10.662   2.718 -19.247  0.00  0.00    -0.022 A 
ATOM     30  C   UNL d   1       9.614   3.051 -18.366  0.00  0.00    -0.004 A 
ATOM     31  C   UNL d   1       9.890   3.408 -17.034  0.00  0.00     0.004 A 
ATOM     32  C   UNL d   1      11.226   3.456 -16.567  0.00  0.00     0.071 A 
ATOM     33  C   UNL d   1      12.268   3.098 -17.445  0.00  0.00     0.004 A 
ATOM     34  C   UNL d   1      11.995   2.755 -18.775  0.00  0.00    -0.004 A 
BRANCH  32  35
ATOM     35  C   UNL d   1      11.556   3.872 -15.142  0.00  0.00     0.419 C 
ATOM     36  F   UNL d   1      12.811   4.330 -15.043  0.00  0.00    -0.166 F 
ATOM     37  F   UNL d   1      10.709   4.811 -14.715  0.00  0.00    -0.166 F 
ATOM     38  F   UNL d   1      11.435   2.813 -14.348  0.00  0.00    -0.166 F 
ENDBRANCH  32  35
ENDBRANCH  26  29
ENDBRANCH  21  22
ENDBRANCH  20  21
ENDBRANCH   1  20
TORSDOF 9
