REMARK  7 active torsions:
REMARK  status: ('A' for Active; 'I' for Inactive)
REMARK    1  A    between atoms: C_5  and  C_6 
REMARK    2  A    between atoms: N_14  and  C_15 
REMARK    3  A    between atoms: C_15  and  C_16 
REMARK    4  A    between atoms: C_16  and  C_17 
REMARK    5  A    between atoms: C_17  and  C_18 
REMARK    6  A    between atoms: C_18  and  N_19 
REMARK       I    between atoms: N_19  and  C_20 
REMARK    7  A    between atoms: C_20  and  C_22 
ROOT
ATOM      1  C   UNL d   1       9.386   4.661 -14.332  0.00  0.00     0.251 C 
ENDROOT
BRANCH   1   2
ATOM      2  N   UNL d   1       9.517   3.201 -14.256  0.00  0.00     0.140 N 
ATOM      3  C   UNL d   1      10.465   2.659 -15.244  0.00  0.00     0.249 C 
ATOM      4  C   UNL d   1      11.908   3.183 -15.084  0.00  0.00     0.038 C 
ATOM      5  C   UNL d   1      10.504   1.116 -15.198  0.00  0.00     0.176 C 
ATOM      6  O   UNL d   1       9.196   0.575 -15.386  0.00  0.00    -0.348 OA
ATOM      7  C   UNL d   1       8.272   1.015 -14.406  0.00  0.00     0.172 C 
ATOM      8  C   UNL d   1       8.210   2.548 -14.441  0.00  0.00     0.284 C 
BRANCH   7   9
ATOM      9  C   UNL d   1       6.887   0.408 -14.625  0.00  0.00     0.026 A 
ATOM     10  C   UNL d   1       5.884   0.511 -13.638  0.00  0.00     0.098 A 
ATOM     11  N   UNL d   1       4.646  -0.013 -13.785  0.00  0.00    -0.230 NA
ATOM     12  C   UNL d   1       4.374  -0.650 -14.933  0.00  0.00     0.151 A 
ATOM     13  C   UNL d   1       5.292  -0.799 -15.984  0.00  0.00     0.033 A 
ATOM     14  N   UNL d   1       3.089  -1.173 -15.074  0.00  0.00    -0.080 NA
ATOM     15  C   UNL d   1       6.571  -0.238 -15.827  0.00  0.00     0.002 A 
ENDBRANCH   7   9
ENDBRANCH   1   2
BRANCH   1  16
ATOM     16  C   UNL d   1       8.577   5.335 -13.209  0.00  0.00     0.037 C 
BRANCH  16  17
ATOM     17  C   UNL d   1       9.366   5.412 -11.893  0.00  0.00     0.029 C 
BRANCH  17  18
ATOM     18  C   UNL d   1       8.689   6.338 -10.888  0.00  0.00     0.129 C 
BRANCH  18  19
ATOM     19  N   UNL d   1       9.495   6.522  -9.690  0.00  0.00    -0.233 NA
ATOM     20  C   UNL d   1      10.093   7.667  -9.328  0.00  0.00     0.293 C 
ATOM     21  O   UNL d   1      10.209   8.652 -10.062  0.00  0.00    -0.264 OA
BRANCH  20  22
ATOM     22  C   UNL d   1      10.507   7.739  -7.916  0.00  0.00     0.139 A 
ATOM     23  N   UNL d   1      10.712   8.980  -7.340  0.00  0.00    -0.241 NA
ATOM     24  C   UNL d   1      11.097   8.860  -6.019  0.00  0.00     0.082 A 
ATOM     25  C   UNL d   1      11.140   7.457  -5.766  0.00  0.00     0.019 A 
ATOM     26  C   UNL d   1      11.411   9.805  -5.027  0.00  0.00     0.019 A 
ATOM     27  C   UNL d   1      10.781   6.776  -6.979  0.00  0.00     0.025 A 
ATOM     28  C   UNL d   1      11.524   7.044  -4.468  0.00  0.00     0.002 A 
ATOM     29  C   UNL d   1      11.858   7.984  -3.474  0.00  0.00     0.000 A 
ATOM     30  C   UNL d   1      11.797   9.363  -3.748  0.00  0.00     0.002 A 
ENDBRANCH  20  22
ENDBRANCH  18  19
ENDBRANCH  17  18
ENDBRANCH  16  17
ENDBRANCH   1  16
TORSDOF 7
