REMARK  4 active torsions:
REMARK  status: ('A' for Active; 'I' for Inactive)
REMARK    1  A    between atoms: C_2  and  C_3 
REMARK    2  A    between atoms: C_3  and  C_4 
REMARK    3  A    between atoms: C_4  and  N_5 
REMARK    4  A    between atoms: C_8  and  C_9 
ROOT
ATOM      1  N   UNL d   1      11.546   8.754  -6.346  0.00  0.00     0.137 N 
ATOM      2  C   UNL d   1      10.568   9.589  -7.015  0.00  0.00     0.251 C 
ATOM      3  C   UNL d   1      10.705   9.222  -8.491  0.00  0.00     0.042 C 
ATOM      4  C   UNL d   1      11.186   7.774  -8.474  0.00  0.00     0.058 C 
ATOM      5  C   UNL d   1      11.311   7.460  -6.978  0.00  0.00     0.255 C 
ENDROOT
BRANCH   4   6
ATOM      6  C   UNL d   1      10.281   6.809  -9.246  0.00  0.00    -0.018 A 
ATOM      7  C   UNL d   1       9.861   7.139 -10.553  0.00  0.00     0.023 A 
ATOM      8  C   UNL d   1       8.995   6.277 -11.260  0.00  0.00     0.131 A 
ATOM      9  C   UNL d   1       8.547   5.083 -10.666  0.00  0.00     0.027 A 
ATOM     10  O   UNL d   1       8.575   6.609 -12.513  0.00  0.00    -0.190 OA
ATOM     11  C   UNL d   1       8.973   4.752  -9.367  0.00  0.00     0.002 A 
ATOM     12  C   UNL d   1       9.857   5.596  -8.668  0.00  0.00    -0.004 A 
ENDBRANCH   4   6
BRANCH   1  13
ATOM     13  C   UNL d   1      11.237   8.666  -4.916  0.00  0.00     0.250 C 
BRANCH  13  14
ATOM     14  C   UNL d   1      12.380   7.999  -4.141  0.00  0.00     0.035 C 
BRANCH  14  15
ATOM     15  C   UNL d   1      12.073   7.785  -2.653  0.00  0.00     0.002 C 
ATOM     16  C   UNL d   1      11.371   6.443  -2.409  0.00  0.00     0.000 C 
ENDBRANCH  14  15
ENDBRANCH  13  14
ENDBRANCH   1  13
TORSDOF 4
