REMARK  7 active torsions:
REMARK  status: ('A' for Active; 'I' for Inactive)
REMARK    1  A    between atoms: C_2  and  C_3 
REMARK    2  A    between atoms: C_3  and  O_4 
REMARK    3  A    between atoms: O_4  and  C_5 
REMARK    4  A    between atoms: C_12  and  N_13 
REMARK    5  A    between atoms: C_14  and  N_15 
REMARK    6  A    between atoms: C_20  and  O_21 
REMARK    7  A    between atoms: C_23  and  O_24 
ROOT
ATOM      1  N   UNL d   1       9.229   6.644 -11.087  0.00  0.00    -0.226 NA
ATOM      2  C   UNL d   1       9.712   6.246  -9.983  0.00  0.00     0.175 C 
ENDROOT
BRANCH   1   3
ATOM      3  C   UNL d   1       8.378   5.748 -11.764  0.00  0.00     0.083 A 
ATOM      4  C   UNL d   1       6.980   5.832 -11.670  0.00  0.00     0.019 A 
ATOM      5  C   UNL d   1       6.159   4.959 -12.405  0.00  0.00    -0.003 A 
ATOM      6  C   UNL d   1       6.746   3.985 -13.233  0.00  0.00    -0.024 A 
ATOM      7  C   UNL d   1       5.839   3.051 -13.996  0.00  0.00     0.026 C 
ATOM      8  C   UNL d   1       8.137   3.893 -13.340  0.00  0.00     0.002 A 
ATOM      9  C   UNL d   1       6.510   2.223 -15.112  0.00  0.00     0.007 C 
ATOM     10  C   UNL d   1       7.872   1.726 -14.693  0.00  0.00     0.035 C 
ATOM     11  C   UNL d   1       8.787   2.900 -14.275  0.00  0.00     0.137 C 
ATOM     12  C   UNL d   1       8.945   4.773 -12.587  0.00  0.00     0.017 A 
BRANCH  11  13
ATOM     13  O   UNL d   1       9.964   2.414 -13.675  0.00  0.00    -0.352 OA
BRANCH  13  14
ATOM     14  C   UNL d   1      10.971   1.975 -14.559  0.00  0.00     0.143 C 
BRANCH  14  15
ATOM     15  C   UNL d   1      11.677   3.185 -15.197  0.00  0.00     0.032 C 
ATOM     16  C   UNL d   1      12.331   4.121 -14.171  0.00  0.00     0.003 C 
ENDBRANCH  14  15
ENDBRANCH  13  14
ENDBRANCH  11  13
ENDBRANCH   1   3
BRANCH   2  17
ATOM     17  N   UNL d   1      10.600   6.959  -9.156  0.00  0.00    -0.327 N 
ATOM     18  C   UNL d   1      10.938   6.483  -7.819  0.00  0.00     0.130 C 
ATOM     19  C   UNL d   1      10.918   7.527  -6.755  0.00  0.00    -0.002 A 
ATOM     20  C   UNL d   1      10.775   8.894  -7.071  0.00  0.00    -0.020 A 
ATOM     21  C   UNL d   1      11.246   7.119  -5.458  0.00  0.00     0.024 A 
ATOM     22  C   UNL d   1      10.581   9.326  -8.511  0.00  0.00     0.050 C 
ATOM     23  C   UNL d   1      10.845   9.840  -6.039  0.00  0.00     0.022 A 
ATOM     24  C   UNL d   1      11.083   8.290  -9.517  0.00  0.00     0.108 C 
ATOM     25  C   UNL d   1      11.072   9.409  -4.718  0.00  0.00     0.116 A 
ATOM     26  C   UNL d   1      11.332   8.049  -4.420  0.00  0.00     0.116 A 
BRANCH  25  27
ATOM     27  O   UNL d   1      11.008  10.331  -3.729  0.00  0.00    -0.326 OA
ATOM     28  C   UNL d   1      12.056  10.292  -2.799  0.00  0.00     0.181 C 
ENDBRANCH  25  27
BRANCH  26  29
ATOM     29  O   UNL d   1      11.511   7.682  -3.103  0.00  0.00    -0.326 OA
ATOM     30  C   UNL d   1      11.688   6.327  -2.799  0.00  0.00     0.181 C 
ENDBRANCH  26  29
ENDBRANCH   2  17
TORSDOF 7
