REMARK  7 active torsions:
REMARK  status: ('A' for Active; 'I' for Inactive)
REMARK    1  A    between atoms: C_2  and  S_3 
REMARK    2  A    between atoms: S_3  and  C_6 
REMARK    3  A    between atoms: C_9  and  O_10 
REMARK    4  A    between atoms: C_12  and  C_13 
REMARK    5  A    between atoms: C_16  and  C_17 
REMARK    6  A    between atoms: C_17  and  N_18 
REMARK    7  A    between atoms: C_22  and  C_23 
ROOT
ATOM      1  C   UNL d   1      11.691   0.457 -18.360  0.00  0.00     0.083 A 
ATOM      2  C   UNL d   1      10.754  -0.471 -18.728  0.00  0.00     0.020 A 
ATOM      3  C   UNL d   1       9.847  -0.639 -17.640  0.00  0.00     0.018 A 
ATOM      4  C   UNL d   1      10.249   0.177 -16.618  0.00  0.00     0.092 A 
ATOM      5  N   UNL d   1      11.368   0.843 -17.074  0.00  0.00    -0.248 NA
ENDROOT
BRANCH   1   6
ATOM      6  C   UNL d   1      12.848   1.033 -19.046  0.00  0.00     0.041 A 
ATOM      7  C   UNL d   1      13.649   0.260 -19.929  0.00  0.00     0.096 A 
ATOM      8  C   UNL d   1      14.758   0.871 -20.571  0.00  0.00     0.025 A 
ATOM      9  C   UNL d   1      15.073   2.222 -20.336  0.00  0.00     0.013 A 
ATOM     10  C   UNL d   1      14.275   2.978 -19.461  0.00  0.00     0.084 A 
ATOM     11  C   UNL d   1      13.173   2.390 -18.820  0.00  0.00     0.015 A 
BRANCH   7  12
ATOM     12  O   UNL d   1      13.315  -1.067 -20.117  0.00  0.00    -0.328 OA
ATOM     13  C   UNL d   1      14.036  -1.817 -21.084  0.00  0.00     0.181 C 
ENDBRANCH   7  12
BRANCH  10  14
ATOM     14  S   UNL d   1      14.660   4.698 -19.146  0.00  0.00     0.190 S 
ATOM     15  O   UNL d   1      13.416   5.471 -19.282  0.00  0.00    -0.222 OA
ATOM     16  O   UNL d   1      15.834   5.067 -19.952  0.00  0.00    -0.222 OA
BRANCH  14  17
ATOM     17  C   UNL d   1      15.163   4.750 -17.380  0.00  0.00     0.127 C 
ATOM     18  C   UNL d   1      15.569   6.169 -16.973  0.00  0.00     0.018 C 
ENDBRANCH  14  17
ENDBRANCH  10  14
ENDBRANCH   1   6
BRANCH   4  19
ATOM     19  C   UNL d   1       9.693   0.403 -15.255  0.00  0.00     0.296 C 
BRANCH  19  20
ATOM     20  N   UNL d   1       8.860   1.604 -15.182  0.00  0.00     0.145 N 
ATOM     21  C   UNL d   1       7.574   1.345 -14.542  0.00  0.00     0.242 C 
ATOM     22  C   UNL d   1       7.046   2.740 -14.179  0.00  0.00     0.040 C 
ATOM     23  C   UNL d   1       8.297   3.611 -14.084  0.00  0.00     0.038 C 
ATOM     24  C   UNL d   1       9.457   2.656 -14.369  0.00  0.00     0.251 C 
BRANCH  21  25
ATOM     25  C   UNL d   1       6.603   0.538 -15.390  0.00  0.00     0.009 A 
ATOM     26  C   UNL d   1       5.801  -0.461 -14.797  0.00  0.00    -0.002 A 
ATOM     27  C   UNL d   1       4.913  -1.216 -15.588  0.00  0.00    -0.000 A 
ATOM     28  C   UNL d   1       4.821  -0.974 -16.973  0.00  0.00    -0.000 A 
ATOM     29  C   UNL d   1       5.617   0.025 -17.568  0.00  0.00    -0.000 A 
ATOM     30  C   UNL d   1       6.505   0.778 -16.776  0.00  0.00    -0.002 A 
ENDBRANCH  21  25
ENDBRANCH  19  20
ENDBRANCH   4  19
TORSDOF 7
