REMARK  9 active torsions:
REMARK  status: ('A' for Active; 'I' for Inactive)
REMARK    1  A    between atoms: C_2  and  C_3 
REMARK    2  A    between atoms: C_3  and  N_4 
REMARK    3  A    between atoms: C_19  and  O_20 
REMARK    4  A    between atoms: O_20  and  C_21 
REMARK    5  A    between atoms: C_21  and  C_23 
REMARK    6  A    between atoms: C_23  and  C_24 
REMARK    7  A    between atoms: C_24  and  C_25 
REMARK    8  A    between atoms: C_25  and  C_26 
REMARK    9  A    between atoms: C_26  and  C_27 
ROOT
ATOM      1  N   UNL d   1       6.276   1.802 -13.650  0.00  0.00     0.140 N 
ATOM      2  C   UNL d   1       5.351   2.857 -13.228  0.00  0.00     0.255 C 
ATOM      3  C   UNL d   1       6.043   3.712 -12.172  0.00  0.00     0.061 C 
ATOM      4  C   UNL d   1       7.368   4.303 -12.622  0.00  0.00    -0.022 A 
ATOM      5  C   UNL d   1       8.004   5.379 -11.989  0.00  0.00    -0.004 A 
ATOM      6  C   UNL d   1       9.277   5.773 -12.427  0.00  0.00    -0.000 A 
ATOM      7  C   UNL d   1       9.886   5.104 -13.502  0.00  0.00    -0.000 A 
ATOM      8  C   UNL d   1       9.290   4.044 -14.217  0.00  0.00    -0.001 A 
ATOM      9  C   UNL d   1       8.019   3.648 -13.693  0.00  0.00     0.005 A 
ATOM     10  C   UNL d   1       7.357   2.432 -14.390  0.00  0.00     0.245 C 
ATOM     11  C   UNL d   1       8.441   1.411 -14.804  0.00  0.00     0.064 C 
ATOM     12  C   UNL d   1       9.546   2.012 -15.615  0.00  0.00    -0.018 A 
ATOM     13  C   UNL d   1      10.110   1.251 -16.659  0.00  0.00    -0.004 A 
ATOM     14  C   UNL d   1      11.067   1.818 -17.508  0.00  0.00     0.002 A 
ATOM     15  C   UNL d   1      11.440   3.145 -17.309  0.00  0.00     0.025 A 
ATOM     16  C   UNL d   1      10.902   3.905 -16.239  0.00  0.00     0.103 A 
ATOM     17  C   UNL d   1       9.933   3.338 -15.356  0.00  0.00     0.019 A 
ENDROOT
BRANCH  16  18
ATOM     18  O   UNL d   1      11.280   5.207 -16.081  0.00  0.00    -0.276 OA
BRANCH  18  19
ATOM     19  C   UNL d   1      12.581   5.520 -16.007  0.00  0.00     0.276 C 
ATOM     20  O   UNL d   1      13.540   4.761 -16.034  0.00  0.00    -0.264 OA
BRANCH  19  21
ATOM     21  C   UNL d   1      12.775   7.028 -15.914  0.00  0.00     0.096 C 
BRANCH  21  22
ATOM     22  C   UNL d   1      13.639   7.536 -17.047  0.00  0.00     0.011 C 
BRANCH  22  23
ATOM     23  C   UNL d   1      13.092   7.318 -18.473  0.00  0.00     0.001 C 
BRANCH  23  24
ATOM     24  C   UNL d   1      14.051   7.747 -19.613  0.00  0.00     0.012 C 
BRANCH  24  25
ATOM     25  C   UNL d   1      14.101   9.291 -19.851  0.00  0.00     0.059 C 
ATOM     26  S   UNL d   1      15.043   9.641 -21.381  0.00  0.00    -0.083 SA
ATOM     27  S   UNL d   1      16.845   9.963 -20.504  0.00  0.00    -0.082 SA
ATOM     28  C   UNL d   1      16.283   9.787 -18.773  0.00  0.00     0.070 C 
ATOM     29  C   UNL d   1      14.785  10.113 -18.751  0.00  0.00     0.024 C 
ENDBRANCH  24  25
ENDBRANCH  23  24
ENDBRANCH  22  23
ENDBRANCH  21  22
ENDBRANCH  19  21
ENDBRANCH  18  19
ENDBRANCH  16  18
BRANCH   1  30
ATOM     30  C   UNL d   1       5.539   0.778 -14.430  0.00  0.00     0.251 C 
BRANCH  30  31
ATOM     31  C   UNL d   1       6.066  -0.637 -14.109  0.00  0.00     0.035 C 
ATOM     32  C   UNL d   1       5.335  -1.690 -14.946  0.00  0.00     0.002 C 
ENDBRANCH  30  31
ENDBRANCH   1  30
TORSDOF 9
