REMARK  6 active torsions:
REMARK  status: ('A' for Active; 'I' for Inactive)
REMARK    1  A    between atoms: C_4  and  C_5 
REMARK    2  A    between atoms: N_13  and  C_14 
REMARK    3  A    between atoms: C_14  and  C_15 
REMARK    4  A    between atoms: C_15  and  S_16 
REMARK    5  A    between atoms: S_16  and  C_17 
REMARK    6  A    between atoms: C_20  and  C_21 
ROOT
ATOM      1  C   UNL d   1      10.668   7.799  -7.089  0.00  0.00     0.017 A 
ATOM      2  C   UNL d   1      11.220   8.705  -8.036  0.00  0.00     0.001 A 
ATOM      3  C   UNL d   1      10.845   8.670  -9.389  0.00  0.00    -0.004 A 
ATOM      4  C   UNL d   1       9.924   7.705  -9.847  0.00  0.00    -0.024 A 
ATOM      5  C   UNL d   1       9.400   6.783  -8.925  0.00  0.00    -0.024 A 
ATOM      6  C   UNL d   1       9.740   6.841  -7.555  0.00  0.00    -0.003 A 
ATOM      7  C   UNL d   1       8.418   5.736  -9.397  0.00  0.00     0.061 C 
ATOM      8  C   UNL d   1       8.931   4.794 -10.471  0.00  0.00     0.255 C 
ATOM      9  N   UNL d   1       8.812   5.308 -11.842  0.00  0.00     0.139 N 
ATOM     10  C   UNL d   1       9.789   6.374 -12.055  0.00  0.00     0.255 C 
ATOM     11  C   UNL d   1       9.522   7.686 -11.325  0.00  0.00     0.061 C 
ENDROOT
BRANCH   9  12
ATOM     12  C   UNL d   1       9.231   4.210 -12.726  0.00  0.00     0.262 C 
BRANCH  12  13
ATOM     13  C   UNL d   1       8.599   4.379 -14.121  0.00  0.00     0.101 C 
BRANCH  13  14
ATOM     14  S   UNL d   1       9.231   3.186 -15.340  0.00  0.00    -0.073 SA
BRANCH  14  15
ATOM     15  C   UNL d   1      10.847   3.849 -15.609  0.00  0.00     0.193 A 
ATOM     16  N   UNL d   1      11.238   4.410 -16.779  0.00  0.00    -0.289 N 
ATOM     17  C   UNL d   1      12.522   4.721 -16.512  0.00  0.00     0.167 A 
ATOM     18  C   UNL d   1      10.491   4.598 -18.015  0.00  0.00     0.134 C 
ATOM     19  N   UNL d   1      12.894   4.408 -15.271  0.00  0.00    -0.128 NA
ATOM     20  N   UNL d   1      11.797   3.825 -14.679  0.00  0.00    -0.122 NA
BRANCH  17  21
ATOM     21  C   UNL d   1      13.456   5.314 -17.453  0.00  0.00     0.038 A 
ATOM     22  C   UNL d   1      14.186   4.483 -18.328  0.00  0.00     0.035 A 
ATOM     23  C   UNL d   1      15.111   5.055 -19.224  0.00  0.00     0.168 A 
ATOM     24  C   UNL d   1      15.300   6.450 -19.233  0.00  0.00     0.167 A 
ATOM     25  F   UNL d   1      15.812   4.263 -20.062  0.00  0.00    -0.202 F 
ATOM     26  C   UNL d   1      14.583   7.279 -18.349  0.00  0.00     0.032 A 
ATOM     27  F   UNL d   1      16.190   7.005 -20.102  0.00  0.00    -0.202 F 
ATOM     28  C   UNL d   1      13.659   6.707 -17.453  0.00  0.00     0.005 A 
ENDBRANCH  17  21
ENDBRANCH  14  15
ENDBRANCH  13  14
ENDBRANCH  12  13
ENDBRANCH   9  12
BRANCH   1  29
ATOM     29  C   UNL d   1      11.096   7.834  -5.682  0.00  0.00     0.079 C 
ATOM     30  C   UNL d   1      11.146   6.821  -4.766  0.00  0.00     0.035 C 
ATOM     31  C   UNL d   1      11.580   7.439  -3.574  0.00  0.00     0.081 C 
ATOM     32  C   UNL d   1      11.692   6.794  -2.220  0.00  0.00     0.054 C 
ATOM     33  N   UNL d   1      11.871   8.712  -3.733  0.00  0.00    -0.174 NA
ATOM     34  N   UNL d   1      11.473   8.971  -4.993  0.00  0.00    -0.249 N 
ATOM     35  C   UNL d   1      11.469  10.354  -5.429  0.00  0.00     0.154 C 
ENDBRANCH   1  29
TORSDOF 6
