REMARK  11 active torsions:
REMARK  status: ('A' for Active; 'I' for Inactive)
REMARK    1  A    between atoms: O_2  and  C_3 
REMARK    2  A    between atoms: C_8  and  C_9 
REMARK    3  A    between atoms: C_11  and  C_12 
REMARK    4  A    between atoms: C_12  and  N_13 
REMARK    5  A    between atoms: N_13  and  C_14 
REMARK    6  A    between atoms: C_14  and  C_15 
REMARK    7  A    between atoms: C_15  and  C_16 
REMARK    8  A    between atoms: C_16  and  C_17 
REMARK    9  A    between atoms: C_17  and  C_18 
REMARK   10  A    between atoms: C_18  and  O_19 
REMARK   11  A    between atoms: O_19  and  C_20 
ROOT
ATOM      1  C   UNL d   1       9.467   5.017 -12.799  0.00  0.00     0.038 C 
ENDROOT
BRANCH   1   2
ATOM      2  C   UNL d   1       9.244   3.993 -13.914  0.00  0.00     0.290 C 
BRANCH   2   3
ATOM      3  N   UNL d   1       9.464   4.652 -15.189  0.00  0.00     0.339 N 
BRANCH   3   4
ATOM      4  C   UNL d   1       9.461   3.655 -16.236  0.00  0.00     0.290 C 
BRANCH   4   5
ATOM      5  C   UNL d   1       9.675   4.303 -17.592  0.00  0.00     0.041 A 
ATOM      6  C   UNL d   1       9.959   3.424 -18.792  0.00  0.00     0.026 A 
ATOM      7  C   UNL d   1      11.042   4.327 -18.238  0.00  0.00     0.007 A 
BRANCH   6   8
ATOM      8  C   UNL d   1      10.019   1.933 -18.636  0.00  0.00    -0.000 A 
ATOM      9  C   UNL d   1       8.838   1.190 -18.385  0.00  0.00     0.090 A 
ATOM     10  C   UNL d   1       8.948  -0.211 -18.163  0.00  0.00     0.024 A 
ATOM     11  C   UNL d   1      10.200  -0.844 -18.204  0.00  0.00     0.002 A 
ATOM     12  C   UNL d   1      11.365  -0.102 -18.479  0.00  0.00    -0.000 A 
ATOM     13  C   UNL d   1      11.268   1.280 -18.699  0.00  0.00    -0.002 A 
BRANCH   9  14
ATOM     14  O   UNL d   1       7.643   1.878 -18.344  0.00  0.00    -0.328 OA
ATOM     15  C   UNL d   1       6.457   1.153 -18.043  0.00  0.00     0.181 C 
ENDBRANCH   9  14
ENDBRANCH   6   8
ENDBRANCH   4   5
ENDBRANCH   3   4
ENDBRANCH   2   3
ENDBRANCH   1   2
BRANCH   1  16
ATOM     16  C   UNL d   1       9.406   4.381 -11.415  0.00  0.00     0.005 C 
BRANCH  16  17
ATOM     17  C   UNL d   1       9.809   5.318 -10.271  0.00  0.00     0.033 C 
BRANCH  17  18
ATOM     18  C   UNL d   1       8.656   6.184  -9.774  0.00  0.00     0.149 C 
BRANCH  18  19
ATOM     19  O   UNL d   1       8.711   6.272  -8.355  0.00  0.00    -0.331 OA
BRANCH  19  20
ATOM     20  C   UNL d   1       9.594   7.144  -7.769  0.00  0.00     0.096 A 
ATOM     21  C   UNL d   1       9.968   6.856  -6.442  0.00  0.00     0.043 A 
ATOM     22  C   UNL d   1      10.890   7.676  -5.770  0.00  0.00     0.087 A 
ATOM     23  C   UNL d   1      11.386   8.825  -6.408  0.00  0.00     0.018 A 
ATOM     24  N   UNL d   1      11.332   7.366  -4.454  0.00  0.00    -0.208 NA
ATOM     25  C   UNL d   1      11.021   9.126  -7.734  0.00  0.00     0.004 A 
ATOM     26  C   UNL d   1      12.291   9.661  -5.641  0.00  0.00     0.006 A 
ATOM     27  C   UNL d   1      10.123   8.288  -8.414  0.00  0.00     0.024 A 
ATOM     28  C   UNL d   1      12.658   9.336  -4.386  0.00  0.00     0.063 A 
ATOM     29  C   UNL d   1      12.155   8.140  -3.712  0.00  0.00     0.279 A 
ATOM     30  O   UNL d   1      12.421   7.847  -2.548  0.00  0.00    -0.265 OA
ENDBRANCH  19  20
ENDBRANCH  18  19
ENDBRANCH  17  18
ENDBRANCH  16  17
ENDBRANCH   1  16
TORSDOF 11
