REMARK  4 active torsions:
REMARK  status: ('A' for Active; 'I' for Inactive)
REMARK    1  A    between atoms: C_13  and  C_14 
REMARK    2  A    between atoms: C_14  and  N_15 
REMARK    3  A    between atoms: N_15  and  C_16 
REMARK    4  A    between atoms: C_16  and  C_17 
ROOT
ATOM      1  O   UNL d   1      10.457   0.277 -16.726  0.00  0.00    -0.147 OA
ATOM      2  C   UNL d   1       9.621   0.980 -15.927  0.00  0.00     0.301 A 
ATOM      3  N   UNL d   1       9.821   2.111 -15.215  0.00  0.00    -0.200 NA
ATOM      4  C   UNL d   1       8.578   2.291 -14.616  0.00  0.00     0.125 A 
ATOM      5  C   UNL d   1       8.086   3.307 -13.734  0.00  0.00     0.109 A 
ATOM      6  C   UNL d   1       6.733   3.197 -13.307  0.00  0.00     0.002 A 
ATOM      7  C   UNL d   1       5.928   2.113 -13.684  0.00  0.00    -0.001 A 
ATOM      8  C   UNL d   1       6.371   1.118 -14.554  0.00  0.00     0.021 A 
ATOM      9  C   UNL d   1       7.700   1.235 -15.002  0.00  0.00     0.105 A 
ATOM     10  N   UNL d   1       8.405   0.435 -15.841  0.00  0.00    -0.202 NA
ATOM     11  C   UNL d   1       6.112   4.209 -12.375  0.00  0.00     0.031 C 
ATOM     12  C   UNL d   1       6.937   5.461 -12.216  0.00  0.00     0.037 C 
ATOM     13  C   UNL d   1       8.424   5.079 -12.135  0.00  0.00     0.158 C 
ATOM     14  O   UNL d   1       8.896   4.340 -13.298  0.00  0.00    -0.330 OA
ENDROOT
BRANCH  13  15
ATOM     15  C   UNL d   1       9.235   6.370 -11.922  0.00  0.00     0.320 C 
BRANCH  15  16
ATOM     16  N   UNL d   1       9.300   6.731 -10.512  0.00  0.00     0.346 N 
BRANCH  16  17
ATOM     17  C   UNL d   1      10.126   7.907 -10.289  0.00  0.00     0.317 C 
BRANCH  17  18
ATOM     18  C   UNL d   1      10.406   8.172  -8.817  0.00  0.00     0.014 A 
ATOM     19  C   UNL d   1       9.455   7.819  -7.831  0.00  0.00    -0.002 A 
ATOM     20  C   UNL d   1       9.707   8.080  -6.476  0.00  0.00    -0.000 A 
ATOM     21  C   UNL d   1      10.900   8.709  -6.083  0.00  0.00    -0.000 A 
ATOM     22  C   UNL d   1      11.853   9.063  -7.057  0.00  0.00    -0.000 A 
ATOM     23  C   UNL d   1      11.609   8.785  -8.420  0.00  0.00    -0.002 A 
ENDBRANCH  17  18
ENDBRANCH  16  17
ENDBRANCH  15  16
ENDBRANCH  13  15
TORSDOF 4
