REMARK  10 active torsions:
REMARK  status: ('A' for Active; 'I' for Inactive)
REMARK    1  A    between atoms: C_2  and  C_3 
REMARK    2  A    between atoms: C_3  and  N_4 
REMARK    3  A    between atoms: N_4  and  C_5 
REMARK    4  A    between atoms: N_4  and  C_22 
REMARK    5  A    between atoms: C_5  and  C_6 
REMARK    6  A    between atoms: C_6  and  C_7 
REMARK    7  A    between atoms: C_7  and  C_8 
REMARK    8  A    between atoms: C_8  and  O_9 
REMARK    9  A    between atoms: O_9  and  C_10 
REMARK   10  A    between atoms: C_16  and  C_17 
ROOT
ATOM      1  C   UNL d   1       7.228   5.190 -11.001  0.00  0.00     0.250 C 
ENDROOT
BRANCH   1   2
ATOM      2  N   UNL d   1       6.875   5.099 -12.427  0.00  0.00     0.135 N 
BRANCH   2   3
ATOM      3  C   UNL d   1       5.582   5.771 -12.668  0.00  0.00     0.250 C 
BRANCH   3   4
ATOM      4  C   UNL d   1       5.507   7.298 -12.316  0.00  0.00     0.035 C 
ATOM      5  C   UNL d   1       6.806   8.047 -12.583  0.00  0.00     0.002 C 
ENDBRANCH   3   4
ENDBRANCH   2   3
BRANCH   2   6
ATOM      6  C   UNL d   1       6.809   3.683 -12.848  0.00  0.00     0.224 C 
ATOM      7  C   UNL d   1       6.997   3.549 -14.350  0.00  0.00     0.059 C 
ATOM      8  C   UNL d   1       6.803   2.154 -14.907  0.00  0.00    -0.022 A 
ATOM      9  C   UNL d   1       6.120   1.150 -14.162  0.00  0.00    -0.001 A 
ATOM     10  C   UNL d   1       7.213   1.875 -16.226  0.00  0.00    -0.004 A 
ATOM     11  C   UNL d   1       5.620   1.386 -12.746  0.00  0.00     0.030 C 
ATOM     12  C   UNL d   1       5.848  -0.096 -14.767  0.00  0.00     0.127 A 
ATOM     13  C   UNL d   1       5.551   2.883 -12.390  0.00  0.00     0.038 C 
ATOM     14  O   UNL d   1       5.184  -1.060 -14.062  0.00  0.00    -0.191 OA
ATOM     15  C   UNL d   1       6.266  -0.366 -16.069  0.00  0.00     0.027 A 
ATOM     16  C   UNL d   1       6.955   0.619 -16.802  0.00  0.00     0.002 A 
ENDBRANCH   2   6
ENDBRANCH   1   2
BRANCH   1  17
ATOM     17  C   UNL d   1       8.679   5.538 -10.760  0.00  0.00     0.038 C 
BRANCH  17  18
ATOM     18  C   UNL d   1       8.837   5.687  -9.244  0.00  0.00     0.035 C 
BRANCH  18  19
ATOM     19  C   UNL d   1      10.331   5.594  -8.965  0.00  0.00     0.149 C 
BRANCH  19  20
ATOM     20  O   UNL d   1      10.667   5.641  -7.607  0.00  0.00    -0.331 OA
BRANCH  20  21
ATOM     21  C   UNL d   1      10.710   6.855  -7.001  0.00  0.00     0.097 A 
ATOM     22  C   UNL d   1      11.215   6.875  -5.714  0.00  0.00     0.043 A 
ATOM     23  C   UNL d   1      11.294   8.110  -5.027  0.00  0.00     0.088 A 
ATOM     24  N   UNL d   1      10.783   9.251  -5.654  0.00  0.00    -0.228 N 
ATOM     25  C   UNL d   1      11.761   8.573  -3.823  0.00  0.00     0.060 A 
ATOM     26  C   UNL d   1      10.263   9.216  -6.906  0.00  0.00     0.102 A 
ATOM     27  N   UNL d   1      10.870  10.383  -4.881  0.00  0.00    -0.164 NA
ATOM     28  C   UNL d   1      10.249   8.057  -7.605  0.00  0.00     0.045 A 
ATOM     29  C   UNL d   1      11.459   9.956  -3.789  0.00  0.00     0.124 A 
BRANCH  25  30
ATOM     30  C   UNL d   1      12.347   7.700  -2.803  0.00  0.00     0.134 C 
ATOM     31  N   UNL d   1      12.614   7.989  -1.608  0.00  0.00    -0.095 NA
ATOM     32  O   UNL d   1      12.307   9.345  -1.300  0.00  0.00    -0.061 OA
ENDBRANCH  25  30
ENDBRANCH  20  21
ENDBRANCH  19  20
ENDBRANCH  18  19
ENDBRANCH  17  18
ENDBRANCH   1  17
TORSDOF 10
