REMARK  4 active torsions:
REMARK  status: ('A' for Active; 'I' for Inactive)
REMARK    1  A    between atoms: S_2  and  C_3 
REMARK    2  A    between atoms: C_10  and  C_11 
REMARK    3  A    between atoms: C_11  and  N_12 
REMARK    4  A    between atoms: C_15  and  C_16 
ROOT
ATOM      1  N   UNL d   1       8.335   4.383 -13.080  0.00  0.00     0.137 N 
ATOM      2  C   UNL d   1       8.799   3.987 -14.412  0.00  0.00     0.251 C 
ATOM      3  C   UNL d   1       8.268   2.576 -14.748  0.00  0.00     0.041 C 
ATOM      4  C   UNL d   1       6.721   2.500 -14.636  0.00  0.00     0.047 C 
ATOM      5  C   UNL d   1       6.173   3.136 -13.330  0.00  0.00     0.041 C 
ATOM      6  C   UNL d   1       6.863   4.464 -13.031  0.00  0.00     0.251 C 
ENDROOT
BRANCH   1   7
ATOM      7  C   UNL d   1       8.949   5.665 -12.713  0.00  0.00     0.251 C 
BRANCH   7   8
ATOM      8  C   UNL d   1       9.326   5.773 -11.213  0.00  0.00     0.047 C 
ATOM      9  C   UNL d   1       9.583   7.253 -10.764  0.00  0.00     0.049 C 
ATOM     10  C   UNL d   1       9.823   7.392  -9.251  0.00  0.00     0.066 A 
ATOM     11  C   UNL d   1       9.372   6.379  -8.367  0.00  0.00     0.068 A 
ATOM     12  N   UNL d   1      10.457   8.499  -8.784  0.00  0.00    -0.226 NA
ATOM     13  C   UNL d   1       9.535   6.644  -6.984  0.00  0.00     0.105 A 
ATOM     14  C   UNL d   1       8.706   5.152  -8.861  0.00  0.00     0.176 C 
ATOM     15  N   UNL d   1      10.149   7.739  -6.529  0.00  0.00    -0.220 NA
ATOM     16  C   UNL d   1      10.593   8.589  -7.452  0.00  0.00     0.190 A 
ATOM     17  C   UNL d   1       8.251   5.150 -10.297  0.00  0.00     0.072 C 
ATOM     18  O   UNL d   1       8.485   4.107  -8.217  0.00  0.00    -0.291 OA
BRANCH  16  19
ATOM     19  S   UNL d   1      11.439   9.993  -6.827  0.00  0.00    -0.075 SA
ATOM     20  C   UNL d   1      10.937  10.069  -5.118  0.00  0.00     0.077 C 
ENDBRANCH  16  19
ENDBRANCH   7   8
ENDBRANCH   1   7
BRANCH   4  21
ATOM     21  C   UNL d   1       6.234   1.069 -14.847  0.00  0.00     0.087 A 
ATOM     22  C   UNL d   1       5.957   0.381 -16.051  0.00  0.00     0.041 A 
ATOM     23  C   UNL d   1       5.431  -0.874 -15.786  0.00  0.00     0.129 A 
ATOM     24  C   UNL d   1       6.088   0.806 -17.410  0.00  0.00     0.006 A 
ATOM     25  O   UNL d   1       5.417  -0.975 -14.393  0.00  0.00    -0.211 OA
ATOM     26  C   UNL d   1       5.050  -1.778 -16.774  0.00  0.00     0.057 A 
ATOM     27  N   UNL d   1       5.972   0.210 -13.837  0.00  0.00    -0.131 NA
ATOM     28  C   UNL d   1       5.218  -1.382 -18.130  0.00  0.00     0.142 A 
ATOM     29  F   UNL d   1       4.897  -2.244 -19.124  0.00  0.00    -0.204 F 
ATOM     30  C   UNL d   1       5.720  -0.094 -18.437  0.00  0.00     0.030 A 
ENDBRANCH   4  21
TORSDOF 4
