REMARK  11 active torsions:
REMARK  status: ('A' for Active; 'I' for Inactive)
REMARK    1  A    between atoms: O_2  and  C_3 
REMARK    2  A    between atoms: C_8  and  N_9 
REMARK    3  A    between atoms: N_12  and  C_13 
REMARK    4  A    between atoms: C_13  and  C_14 
REMARK    5  A    between atoms: C_14  and  C_15 
REMARK    6  A    between atoms: C_15  and  C_16 
REMARK    7  A    between atoms: C_16  and  C_17 
REMARK    8  A    between atoms: C_17  and  C_18 
REMARK    9  A    between atoms: C_18  and  N_19 
REMARK   10  A    between atoms: N_19  and  S_20 
REMARK   11  A    between atoms: S_20  and  C_23 
ROOT
ATOM      1  C   UNL d   1       6.830   2.880 -13.842  0.00  0.00     0.002 C 
ENDROOT
BRANCH   1   2
ATOM      2  C   UNL d   1       6.175   3.699 -12.730  0.00  0.00     0.035 C 
BRANCH   2   3
ATOM      3  C   UNL d   1       6.759   5.118 -12.610  0.00  0.00     0.250 C 
BRANCH   3   4
ATOM      4  N   UNL d   1       8.035   5.172 -11.893  0.00  0.00     0.141 N 
ATOM      5  C   UNL d   1       7.820   4.956 -10.460  0.00  0.00     0.274 C 
ATOM      6  C   UNL d   1       9.117   4.979  -9.663  0.00  0.00     0.137 C 
ATOM      7  N   UNL d   1       9.735   6.278  -9.859  0.00  0.00    -0.343 N 
ATOM      8  C   UNL d   1       9.864   6.665 -11.260  0.00  0.00     0.137 C 
ATOM      9  C   UNL d   1       8.548   6.537 -12.036  0.00  0.00     0.274 C 
BRANCH   7  10
ATOM     10  C   UNL d   1      10.156   7.087  -8.800  0.00  0.00     0.079 A 
ATOM     11  C   UNL d   1      11.401   7.767  -8.845  0.00  0.00     0.110 A 
ATOM     12  C   UNL d   1      11.803   8.564  -7.734  0.00  0.00     0.026 A 
ATOM     13  C   UNL d   1      10.983   8.675  -6.604  0.00  0.00     0.002 A 
ATOM     14  C   UNL d   1       9.761   7.987  -6.561  0.00  0.00     0.002 A 
ATOM     15  C   UNL d   1       9.350   7.195  -7.653  0.00  0.00     0.019 A 
BRANCH  11  16
ATOM     16  O   UNL d   1      12.180   7.599  -9.964  0.00  0.00    -0.327 OA
ATOM     17  C   UNL d   1      13.580   7.812  -9.894  0.00  0.00     0.181 C 
ENDBRANCH  11  16
ENDBRANCH   7  10
ENDBRANCH   3   4
ENDBRANCH   2   3
ENDBRANCH   1   2
BRANCH   1  18
ATOM     18  C   UNL d   1       6.198   1.489 -13.941  0.00  0.00     0.002 C 
BRANCH  18  19
ATOM     19  C   UNL d   1       6.432   0.882 -15.322  0.00  0.00     0.027 C 
BRANCH  19  20
ATOM     20  C   UNL d   1       5.554  -0.331 -15.613  0.00  0.00     0.139 C 
BRANCH  20  21
ATOM     21  N   UNL d   1       5.183  -0.323 -17.029  0.00  0.00    -0.185 NA
BRANCH  21  22
ATOM     22  S   UNL d   1       6.322  -0.506 -18.322  0.00  0.00     0.281 S 
ATOM     23  O   UNL d   1       5.720   0.140 -19.499  0.00  0.00    -0.199 OA
ATOM     24  O   UNL d   1       7.665  -0.110 -17.873  0.00  0.00    -0.199 OA
BRANCH  22  25
ATOM     25  C   UNL d   1       6.371  -2.263 -18.609  0.00  0.00     0.105 A 
ATOM     26  C   UNL d   1       5.852  -3.179 -17.671  0.00  0.00     0.013 A 
ATOM     27  C   UNL d   1       5.967  -4.556 -17.907  0.00  0.00     0.001 A 
ATOM     28  C   UNL d   1       6.562  -5.021 -19.104  0.00  0.00     0.000 A 
ATOM     29  C   UNL d   1       5.478  -5.462 -16.948  0.00  0.00     0.000 A 
ATOM     30  C   UNL d   1       7.058  -4.098 -20.051  0.00  0.00     0.001 A 
ATOM     31  C   UNL d   1       6.640  -6.407 -19.339  0.00  0.00     0.000 A 
ATOM     32  C   UNL d   1       6.974  -2.714 -19.797  0.00  0.00     0.013 A 
ATOM     33  C   UNL d   1       6.135  -7.313 -18.384  0.00  0.00     0.000 A 
ATOM     34  C   UNL d   1       5.558  -6.844 -17.187  0.00  0.00     0.000 A 
ENDBRANCH  22  25
ENDBRANCH  21  22
ENDBRANCH  20  21
ENDBRANCH  19  20
ENDBRANCH  18  19
ENDBRANCH   1  18
TORSDOF 11
