REMARK  6 active torsions:
REMARK  status: ('A' for Active; 'I' for Inactive)
REMARK    1  A    between atoms: N_13  and  C_14 
REMARK    2  A    between atoms: C_14  and  C_15 
REMARK    3  A    between atoms: C_15  and  C_16 
REMARK    4  A    between atoms: C_16  and  S_17 
REMARK    5  A    between atoms: S_17  and  C_18 
REMARK    6  A    between atoms: C_21  and  C_22 
ROOT
ATOM      1  C   UNL d   1      11.651   4.376 -15.440  0.00  0.00     0.251 C 
ENDROOT
BRANCH   1   2
ATOM      2  N   UNL d   1      11.508   2.934 -15.662  0.00  0.00     0.138 N 
ATOM      3  C   UNL d   1      11.010   2.525 -16.981  0.00  0.00     0.255 C 
ATOM      4  C   UNL d   1       9.575   2.986 -17.304  0.00  0.00     0.061 C 
ATOM      5  C   UNL d   1       8.506   2.104 -16.679  0.00  0.00    -0.022 A 
ATOM      6  C   UNL d   1       8.411   1.937 -15.271  0.00  0.00    -0.022 A 
ATOM      7  C   UNL d   1       7.601   1.430 -17.529  0.00  0.00     0.022 A 
ATOM      8  C   UNL d   1       7.406   1.102 -14.723  0.00  0.00     0.017 A 
ATOM      9  C   UNL d   1       9.370   2.640 -14.326  0.00  0.00     0.061 C 
ATOM     10  C   UNL d   1       6.494   0.429 -15.563  0.00  0.00     0.106 A 
ATOM     11  N   UNL d   1       5.436  -0.420 -15.303  0.00  0.00    -0.224 NA
ATOM     12  C   UNL d   1       6.617   0.612 -16.954  0.00  0.00     0.119 A 
ATOM     13  C   UNL d   1       4.984  -0.722 -16.529  0.00  0.00     0.159 A 
ATOM     14  C   UNL d   1       3.832  -1.610 -16.837  0.00  0.00     0.080 C 
ATOM     15  O   UNL d   1       5.637  -0.133 -17.578  0.00  0.00    -0.292 OA
ATOM     16  C   UNL d   1      10.850   2.263 -14.540  0.00  0.00     0.255 C 
ENDBRANCH   1   2
BRANCH   1  17
ATOM     17  C   UNL d   1      12.603   5.042 -16.442  0.00  0.00     0.047 C 
BRANCH  17  18
ATOM     18  C   UNL d   1      12.744   6.555 -16.206  0.00  0.00     0.067 C 
BRANCH  18  19
ATOM     19  S   UNL d   1      13.363   7.418 -17.676  0.00  0.00    -0.075 SA
BRANCH  19  20
ATOM     20  C   UNL d   1      15.068   6.963 -17.669  0.00  0.00     0.193 A 
ATOM     21  N   UNL d   1      15.966   7.595 -18.448  0.00  0.00    -0.287 N 
ATOM     22  C   UNL d   1      17.115   6.971 -18.108  0.00  0.00     0.191 A 
ATOM     23  C   UNL d   1      15.751   8.680 -19.401  0.00  0.00     0.134 C 
ATOM     24  N   UNL d   1      16.941   5.995 -17.211  0.00  0.00    -0.126 NA
ATOM     25  N   UNL d   1      15.602   6.006 -16.904  0.00  0.00    -0.122 NA
BRANCH  22  26
ATOM     26  C   UNL d   1      18.429   7.268 -18.640  0.00  0.00     0.151 A 
ATOM     27  C   UNL d   1      19.223   8.390 -18.633  0.00  0.00     0.087 A 
ATOM     28  N   UNL d   1      20.418   8.069 -19.260  0.00  0.00    -0.221 NA
ATOM     29  C   UNL d   1      18.994   9.755 -18.053  0.00  0.00     0.054 C 
ATOM     30  C   UNL d   1      20.288   6.795 -19.615  0.00  0.00     0.225 A 
ATOM     31  O   UNL d   1      19.099   6.250 -19.256  0.00  0.00    -0.282 OA
ENDBRANCH  22  26
ENDBRANCH  19  20
ENDBRANCH  18  19
ENDBRANCH  17  18
ENDBRANCH   1  17
TORSDOF 6
