REMARK  15 active torsions:
REMARK  status: ('A' for Active; 'I' for Inactive)
REMARK    1  A    between atoms: C_2  and  C_3 
REMARK    2  A    between atoms: C_3  and  N_4 
REMARK    3  A    between atoms: N_4  and  C_5 
REMARK    4  A    between atoms: N_16  and  C_17 
REMARK    5  A    between atoms: C_17  and  C_18 
REMARK    6  A    between atoms: C_18  and  C_19 
REMARK    7  A    between atoms: C_19  and  C_20 
REMARK    8  A    between atoms: C_20  and  C_21 
REMARK    9  A    between atoms: C_21  and  C_22 
REMARK   10  A    between atoms: C_22  and  O_23 
REMARK   11  A    between atoms: O_23  and  C_24 
REMARK   12  A    between atoms: C_24  and  C_25 
REMARK   13  A    between atoms: C_25  and  C_26 
REMARK   14  A    between atoms: C_26  and  C_27 
REMARK   15  A    between atoms: C_27  and  C_28 
ROOT
ATOM      1  C   UNL d   1       6.735  -1.289 -18.525  0.00  0.00     0.283 C 
ATOM      2  C   UNL d   1       5.184  -1.274 -18.535  0.00  0.00     0.066 C 
ATOM      3  C   UNL d   1       4.667  -0.978 -17.151  0.00  0.00    -0.003 A 
ATOM      4  C   UNL d   1       3.469  -1.363 -16.539  0.00  0.00    -0.003 A 
ATOM      5  C   UNL d   1       3.142  -0.903 -15.236  0.00  0.00     0.001 A 
ATOM      6  C   UNL d   1       3.993  -0.063 -14.496  0.00  0.00     0.019 A 
ATOM      7  C   UNL d   1       5.215   0.307 -15.106  0.00  0.00     0.080 A 
ATOM      8  C   UNL d   1       5.482  -0.190 -16.361  0.00  0.00     0.076 A 
ATOM      9  N   UNL d   1       6.672   0.389 -16.763  0.00  0.00    -0.278 N 
ATOM     10  C   UNL d   1       7.112   1.231 -15.804  0.00  0.00     0.332 C 
ATOM     11  O   UNL d   1       8.205   1.796 -15.821  0.00  0.00    -0.246 OA
ATOM     12  N   UNL d   1       6.176   1.281 -14.830  0.00  0.00    -0.280 N 
ATOM     13  C   UNL d   1       7.313   0.046 -18.027  0.00  0.00     0.147 C 
ENDROOT
BRANCH  12  14
ATOM     14  C   UNL d   1       6.207   2.027 -13.541  0.00  0.00     0.111 C 
BRANCH  14  15
ATOM     15  C   UNL d   1       7.064   3.364 -13.607  0.00  0.00     0.025 C 
BRANCH  15  16
ATOM     16  C   UNL d   1       7.243   4.166 -12.283  0.00  0.00     0.002 C 
BRANCH  16  17
ATOM     17  C   UNL d   1       8.265   5.301 -12.430  0.00  0.00     0.003 C 
BRANCH  17  18
ATOM     18  C   UNL d   1       8.644   5.889 -11.061  0.00  0.00     0.032 C 
BRANCH  18  19
ATOM     19  C   UNL d   1       9.593   7.063 -11.189  0.00  0.00     0.142 C 
BRANCH  19  20
ATOM     20  O   UNL d   1       9.800   7.648  -9.913  0.00  0.00    -0.354 OA
BRANCH  20  21
ATOM     21  C   UNL d   1      10.719   8.748  -9.954  0.00  0.00     0.142 C 
BRANCH  21  22
ATOM     22  C   UNL d   1      10.656   9.537  -8.653  0.00  0.00     0.033 C 
BRANCH  22  23
ATOM     23  C   UNL d   1      11.175   8.736  -7.472  0.00  0.00     0.007 C 
BRANCH  23  24
ATOM     24  C   UNL d   1      10.711   9.322  -6.110  0.00  0.00     0.026 C 
BRANCH  24  25
ATOM     25  C   UNL d   1      11.245   8.539  -4.936  0.00  0.00    -0.022 A 
ATOM     26  C   UNL d   1      11.240   7.140  -5.020  0.00  0.00    -0.004 A 
ATOM     27  C   UNL d   1      11.772   6.416  -3.967  0.00  0.00    -0.000 A 
ATOM     28  C   UNL d   1      12.235   6.986  -2.780  0.00  0.00    -0.000 A 
ATOM     29  C   UNL d   1      12.221   8.386  -2.670  0.00  0.00    -0.000 A 
ATOM     30  C   UNL d   1      11.735   9.156  -3.756  0.00  0.00    -0.004 A 
ENDBRANCH  24  25
ENDBRANCH  23  24
ENDBRANCH  22  23
ENDBRANCH  21  22
ENDBRANCH  20  21
ENDBRANCH  19  20
ENDBRANCH  18  19
ENDBRANCH  17  18
ENDBRANCH  16  17
ENDBRANCH  15  16
ENDBRANCH  14  15
ENDBRANCH  12  14
BRANCH   1  31
ATOM     31  N   UNL d   1       7.237  -1.553 -19.857  0.00  0.00     0.339 N 
BRANCH  31  32
ATOM     32  C   UNL d   1       7.574  -2.956 -20.039  0.00  0.00     0.290 C 
BRANCH  32  33
ATOM     33  C   UNL d   1       6.365  -3.888 -19.868  0.00  0.00     0.038 C 
ATOM     34  C   UNL d   1       6.679  -5.363 -20.094  0.00  0.00     0.002 C 
ENDBRANCH  32  33
ENDBRANCH  31  32
ENDBRANCH   1  31
TORSDOF 15
