REMARK  8 active torsions:
REMARK  status: ('A' for Active; 'I' for Inactive)
REMARK    1  A    between atoms: C_2  and  C_4 
REMARK    2  A    between atoms: C_4  and  C_5 
REMARK    3  A    between atoms: C_5  and  C_6 
REMARK       I    between atoms: C_6  and  N_8 
REMARK    4  A    between atoms: N_8  and  C_9 
REMARK    5  A    between atoms: C_12  and  C_13 
REMARK    6  A    between atoms: C_13  and  C_14 
REMARK    7  A    between atoms: C_14  and  N_15 
REMARK    8  A    between atoms: C_18  and  C_19 
ROOT
ATOM      1  C   UNL d   1       9.172   4.800 -10.761  0.00  0.00     0.250 C 
ENDROOT
BRANCH   1   2
ATOM      2  C   UNL d   1       8.792   5.489 -12.101  0.00  0.00     0.035 C 
BRANCH   2   3
ATOM      3  C   UNL d   1       8.179   4.546 -13.149  0.00  0.00     0.002 C 
ATOM      4  C   UNL d   1       9.200   3.516 -13.682  0.00  0.00     0.002 C 
ATOM      5  C   UNL d   1       8.608   2.609 -14.773  0.00  0.00     0.024 C 
ATOM      6  C   UNL d   1       7.322   1.903 -14.297  0.00  0.00     0.106 C 
ATOM      7  C   UNL d   1       6.283   2.916 -13.718  0.00  0.00     0.024 C 
ATOM      8  C   UNL d   1       6.861   3.880 -12.660  0.00  0.00     0.002 C 
BRANCH   6   9
ATOM      9  N   UNL d   1       6.718   1.089 -15.335  0.00  0.00    -0.240 NA
ATOM     10  C   UNL d   1       5.960   0.017 -15.095  0.00  0.00     0.251 C 
ATOM     11  O   UNL d   1       5.617  -0.349 -13.963  0.00  0.00    -0.271 OA
BRANCH  10  12
ATOM     12  C   UNL d   1       5.546  -0.767 -16.318  0.00  0.00     0.090 C 
BRANCH  12  13
ATOM     13  C   UNL d   1       5.149  -2.240 -16.024  0.00  0.00     0.010 C 
BRANCH  13  14
ATOM     14  C   UNL d   1       5.055  -3.106 -17.303  0.00  0.00     0.001 C 
ATOM     15  C   UNL d   1       6.375  -3.360 -18.039  0.00  0.00     0.000 C 
ATOM     16  C   UNL d   1       3.996  -2.584 -18.266  0.00  0.00     0.000 C 
ENDBRANCH  13  14
ENDBRANCH  12  13
ENDBRANCH  10  12
ENDBRANCH   6   9
ENDBRANCH   2   3
ENDBRANCH   1   2
BRANCH   1  17
ATOM     17  N   UNL d   1       9.787   5.677  -9.750  0.00  0.00     0.137 N 
ATOM     18  C   UNL d   1       8.761   6.609  -9.316  0.00  0.00     0.251 C 
ATOM     19  C   UNL d   1       9.259   7.646  -8.322  0.00  0.00     0.040 C 
ATOM     20  C   UNL d   1       9.877   6.987  -7.084  0.00  0.00     0.028 C 
ATOM     21  C   UNL d   1      10.887   5.972  -7.609  0.00  0.00     0.040 C 
ATOM     22  C   UNL d   1      10.170   4.967  -8.551  0.00  0.00     0.251 C 
BRANCH  20  23
ATOM     23  C   UNL d   1      10.585   7.981  -6.200  0.00  0.00     0.004 A 
ATOM     24  C   UNL d   1      11.250   7.709  -4.956  0.00  0.00     0.021 A 
ATOM     25  C   UNL d   1      11.767   8.956  -4.516  0.00  0.00     0.100 A 
ATOM     26  C   UNL d   1      11.461   6.593  -4.136  0.00  0.00     0.002 A 
ATOM     27  O   UNL d   1      11.491   9.927  -5.436  0.00  0.00    -0.305 OA
ATOM     28  C   UNL d   1      12.422   9.101  -3.287  0.00  0.00     0.025 A 
ATOM     29  C   UNL d   1      10.797   9.323  -6.447  0.00  0.00     0.118 A 
ATOM     30  C   UNL d   1      12.566   7.988  -2.448  0.00  0.00     0.002 A 
ATOM     31  C   UNL d   1      12.107   6.717  -2.876  0.00  0.00     0.000 A 
ENDBRANCH  20  23
ENDBRANCH   1  17
TORSDOF 8
