REMARK  0 active torsions:
REMARK  status: ('A' for Active; 'I' for Inactive)
REMARK       I    between atoms: N_2  and  C_4 
REMARK       I    between atoms: C_4  and  N_6 
REMARK       I    between atoms: N_6  and  C_7 
ROOT
ATOM      1  C   UNL d   1      10.147   8.179  -9.872  0.00  0.00     0.144 C 
ATOM      2  N   UNL d   1       9.864   7.316  -8.723  0.00  0.00    -0.177 N 
ATOM      3  C   UNL d   1       9.189   6.082  -9.120  0.00  0.00     0.144 C 
ATOM      4  C   UNL d   1      10.186   7.614  -7.394  0.00  0.00     0.761 C 
ATOM      5  N   UNL d   1       9.957   6.789  -6.434  0.00  0.00     0.061 N 
ATOM      6  N   UNL d   1      10.769   8.858  -7.163  0.00  0.00     0.136 NA
ATOM      7  C   UNL d   1      11.293   9.491  -6.047  0.00  0.00     0.802 C 
ATOM      8  N   UNL d   1      11.615  10.727  -6.079  0.00  0.00     0.064 N 
ATOM      9  N   UNL d   1      11.461   8.725  -4.915  0.00  0.00     0.064 N 
ENDROOT
TORSDOF 0
