REMARK  4 active torsions:
REMARK  status: ('A' for Active; 'I' for Inactive)
REMARK    1  A    between atoms: C_3  and  C_4 
REMARK    2  A    between atoms: N_13  and  C_14 
REMARK    3  A    between atoms: N_17  and  C_18 
REMARK    4  A    between atoms: C_18  and  C_19 
ROOT
ATOM      1  C   UNL d   1       8.776   7.082  -6.637  0.00  0.00     0.052 C 
ATOM      2  C   UNL d   1      10.091   7.529  -7.229  0.00  0.00     0.059 A 
ATOM      3  C   UNL d   1      11.164   8.028  -6.616  0.00  0.00     0.098 A 
ATOM      4  N   UNL d   1      12.078   8.335  -7.593  0.00  0.00    -0.191 NA
ATOM      5  C   UNL d   1      11.591   8.008  -8.787  0.00  0.00     0.350 A 
ATOM      6  O   UNL d   1      12.216   8.114  -9.838  0.00  0.00    -0.244 OA
ATOM      7  N   UNL d   1      10.338   7.528  -8.600  0.00  0.00    -0.284 N 
ENDROOT
BRANCH   7   8
ATOM      8  C   UNL d   1       9.405   7.005  -9.601  0.00  0.00     0.094 C 
ATOM      9  C   UNL d   1       9.459   7.771 -10.937  0.00  0.00     0.058 C 
ATOM     10  C   UNL d   1       8.596   7.136 -12.037  0.00  0.00     0.252 C 
ATOM     11  N   UNL d   1       8.984   5.750 -12.259  0.00  0.00     0.137 N 
ATOM     12  C   UNL d   1       8.715   5.015 -11.019  0.00  0.00     0.252 C 
ATOM     13  C   UNL d   1       9.580   5.517  -9.843  0.00  0.00     0.058 C 
BRANCH  11  14
ATOM     14  C   UNL d   1       8.203   5.215 -13.380  0.00  0.00     0.250 C 
BRANCH  14  15
ATOM     15  C   UNL d   1       8.691   3.823 -13.864  0.00  0.00     0.033 C 
ATOM     16  C   UNL d   1       7.531   2.837 -14.121  0.00  0.00     0.002 C 
ATOM     17  C   UNL d   1       8.063   1.451 -14.514  0.00  0.00     0.000 C 
ATOM     18  C   UNL d   1       8.994   1.533 -15.735  0.00  0.00     0.000 C 
ATOM     19  C   UNL d   1      10.133   2.539 -15.504  0.00  0.00     0.000 C 
ATOM     20  C   UNL d   1       9.593   3.922 -15.108  0.00  0.00     0.002 C 
ENDBRANCH  14  15
ENDBRANCH  11  14
ENDBRANCH   7   8
BRANCH   3  21
ATOM     21  C   UNL d   1      11.446   8.177  -5.192  0.00  0.00     0.019 A 
ATOM     22  C   UNL d   1      11.652   7.045  -4.377  0.00  0.00     0.002 A 
ATOM     23  C   UNL d   1      11.970   7.213  -3.016  0.00  0.00     0.000 A 
ATOM     24  C   UNL d   1      12.075   8.510  -2.478  0.00  0.00     0.000 A 
ATOM     25  C   UNL d   1      11.857   9.634  -3.296  0.00  0.00     0.000 A 
ATOM     26  C   UNL d   1      11.555   9.474  -4.661  0.00  0.00     0.002 A 
ENDBRANCH   3  21
TORSDOF 4
