REMARK  7 active torsions:
REMARK  status: ('A' for Active; 'I' for Inactive)
REMARK    1  A    between atoms: C_5  and  C_6 
REMARK    2  A    between atoms: C_7  and  C_8 
REMARK    3  A    between atoms: C_8  and  O_9 
REMARK    4  A    between atoms: O_9  and  C_10 
REMARK    5  A    between atoms: C_10  and  C_11 
REMARK    6  A    between atoms: N_14  and  C_15 
REMARK    7  A    between atoms: C_15  and  C_16 
ROOT
ATOM      1  C   UNL d   1       9.777   3.394 -13.501  0.00  0.00     0.034 C 
ATOM      2  C   UNL d   1      10.934   3.074 -14.439  0.00  0.00     0.038 C 
ATOM      3  C   UNL d   1      10.868   1.627 -14.903  0.00  0.00     0.251 C 
ATOM      4  N   UNL d   1       9.623   1.356 -15.637  0.00  0.00     0.141 N 
ATOM      5  C   UNL d   1       8.505   1.540 -14.707  0.00  0.00     0.251 C 
ATOM      6  C   UNL d   1       8.461   2.993 -14.201  0.00  0.00     0.038 C 
ENDROOT
BRANCH   1   7
ATOM      7  C   UNL d   1       9.815   4.875 -13.120  0.00  0.00     0.143 C 
BRANCH   7   8
ATOM      8  O   UNL d   1       8.585   5.233 -12.523  0.00  0.00    -0.349 OA
BRANCH   8   9
ATOM      9  C   UNL d   1       8.536   6.597 -12.158  0.00  0.00     0.169 C 
BRANCH   9  10
ATOM     10  C   UNL d   1       8.982   6.775 -10.732  0.00  0.00     0.006 C 
ATOM     11  C   UNL d   1       9.933   7.628 -10.312  0.00  0.00    -0.002 C 
BRANCH  11  12
ATOM     12  C   UNL d   1      10.274   7.855  -8.900  0.00  0.00    -0.000 A 
ATOM     13  C   UNL d   1       9.504   7.349  -7.829  0.00  0.00     0.002 A 
ATOM     14  C   UNL d   1       9.891   7.557  -6.496  0.00  0.00     0.030 A 
ATOM     15  C   UNL d   1      11.065   8.281  -6.211  0.00  0.00     0.140 A 
ATOM     16  F   UNL d   1      11.442   8.481  -4.926  0.00  0.00    -0.204 F 
ATOM     17  C   UNL d   1      11.845   8.787  -7.267  0.00  0.00     0.030 A 
ATOM     18  C   UNL d   1      11.456   8.576  -8.607  0.00  0.00     0.002 A 
ENDBRANCH  11  12
ENDBRANCH   9  10
ENDBRANCH   8   9
ENDBRANCH   7   8
ENDBRANCH   1   7
BRANCH   4  19
ATOM     19  C   UNL d   1       9.601  -0.001 -16.185  0.00  0.00     0.277 C 
BRANCH  19  20
ATOM     20  C   UNL d   1      10.199  -0.150 -17.587  0.00  0.00     0.011 A 
ATOM     21  C   UNL d   1      11.546   0.193 -17.882  0.00  0.00    -0.002 A 
ATOM     22  C   UNL d   1      12.052   0.089 -19.193  0.00  0.00    -0.000 A 
ATOM     23  C   UNL d   1      11.246  -0.415 -20.220  0.00  0.00    -0.000 A 
ATOM     24  C   UNL d   1       9.920  -0.804 -19.942  0.00  0.00    -0.000 A 
ATOM     25  C   UNL d   1       9.403  -0.663 -18.637  0.00  0.00    -0.002 A 
ENDBRANCH  19  20
ENDBRANCH   4  19
TORSDOF 7
