REMARK  5 active torsions:
REMARK  status: ('A' for Active; 'I' for Inactive)
REMARK    1  A    between atoms: O_2  and  C_3 
REMARK    2  A    between atoms: C_6  and  N_7 
REMARK    3  A    between atoms: N_10  and  C_11 
REMARK    4  A    between atoms: C_11  and  C_12 
REMARK    5  A    between atoms: C_12  and  C_13 
ROOT
ATOM      1  N   UNL d   1       9.821   7.722  -7.720  0.00  0.00    -0.344 N 
ATOM      2  C   UNL d   1       9.728   8.704  -8.794  0.00  0.00     0.137 C 
ATOM      3  C   UNL d   1      10.201   8.083 -10.118  0.00  0.00     0.274 C 
ATOM      4  N   UNL d   1       9.427   6.870 -10.423  0.00  0.00     0.141 N 
ATOM      5  C   UNL d   1       9.620   5.893  -9.338  0.00  0.00     0.274 C 
ATOM      6  C   UNL d   1       9.139   6.463  -7.999  0.00  0.00     0.137 C 
ENDROOT
BRANCH   4   7
ATOM      7  C   UNL d   1       9.786   6.371 -11.730  0.00  0.00     0.253 C 
BRANCH   7   8
ATOM      8  C   UNL d   1       8.887   5.227 -12.226  0.00  0.00     0.070 C 
BRANCH   8   9
ATOM      9  C   UNL d   1       9.304   4.650 -13.593  0.00  0.00     0.139 C 
ATOM     10  C   UNL d   1       8.491   3.406 -13.960  0.00  0.00     0.001 A 
ATOM     11  C   UNL d   1       9.139   2.303 -14.586  0.00  0.00    -0.021 A 
ATOM     12  C   UNL d   1       7.109   3.335 -13.693  0.00  0.00    -0.002 A 
ATOM     13  C   UNL d   1      10.634   2.351 -14.848  0.00  0.00     0.058 C 
ATOM     14  C   UNL d   1       8.392   1.160 -14.940  0.00  0.00    -0.004 A 
ATOM     15  C   UNL d   1      11.186   3.780 -14.762  0.00  0.00     0.147 C 
ATOM     16  O   UNL d   1      10.710   4.392 -13.573  0.00  0.00    -0.352 OA
ATOM     17  C   UNL d   1       7.012   1.105 -14.667  0.00  0.00    -0.000 A 
ATOM     18  C   UNL d   1       6.378   2.187 -14.042  0.00  0.00    -0.000 A 
ENDBRANCH   8   9
ENDBRANCH   7   8
ENDBRANCH   4   7
BRANCH   1  19
ATOM     19  C   UNL d   1      10.492   7.994  -6.502  0.00  0.00     0.056 A 
ATOM     20  C   UNL d   1      10.673   9.324  -6.056  0.00  0.00     0.019 A 
ATOM     21  C   UNL d   1      11.357   9.594  -4.864  0.00  0.00     0.026 A 
ATOM     22  C   UNL d   1      11.860   8.555  -4.065  0.00  0.00     0.094 A 
ATOM     23  C   UNL d   1      11.670   7.219  -4.489  0.00  0.00     0.026 A 
ATOM     24  C   UNL d   1      11.010   6.950  -5.700  0.00  0.00     0.019 A 
BRANCH  22  25
ATOM     25  O   UNL d   1      12.515   8.912  -2.918  0.00  0.00    -0.328 OA
ATOM     26  C   UNL d   1      12.542   7.956  -1.877  0.00  0.00     0.181 C 
ENDBRANCH  22  25
ENDBRANCH   1  19
TORSDOF 5
