REMARK  1 active torsions:
REMARK  status: ('A' for Active; 'I' for Inactive)
REMARK    1  A    between atoms: C_2  and  C_3 
ROOT
ATOM      1  C   UNL d   1       5.941   0.228 -15.809  0.00  0.00    -0.022 A 
ATOM      2  C   UNL d   1       5.165  -0.359 -14.791  0.00  0.00    -0.005 A 
ATOM      3  C   UNL d   1       5.006   0.312 -13.562  0.00  0.00    -0.003 A 
ATOM      4  C   UNL d   1       5.651   1.537 -13.299  0.00  0.00     0.010 A 
ATOM      5  C   UNL d   1       6.509   2.072 -14.276  0.00  0.00    -0.019 A 
ATOM      6  C   UNL d   1       6.627   1.439 -15.546  0.00  0.00    -0.008 A 
ATOM      7  C   UNL d   1       7.114   3.446 -13.987  0.00  0.00     0.078 C 
ATOM      8  C   UNL d   1       8.602   3.622 -14.286  0.00  0.00    -0.018 A 
ATOM      9  C   UNL d   1       9.387   2.629 -14.937  0.00  0.00     0.025 A 
ATOM     10  C   UNL d   1      10.746   2.836 -15.213  0.00  0.00     0.156 A 
ATOM     11  O   UNL d   1      11.450   1.859 -15.861  0.00  0.00    -0.188 OA
ATOM     12  C   UNL d   1      11.333   4.067 -14.840  0.00  0.00     0.156 A 
ATOM     13  O   UNL d   1      12.649   4.352 -15.061  0.00  0.00    -0.188 OA
ATOM     14  C   UNL d   1      10.548   5.047 -14.224  0.00  0.00     0.025 A 
ATOM     15  C   UNL d   1       9.208   4.829 -13.871  0.00  0.00    -0.024 A 
ATOM     16  C   UNL d   1       8.482   5.889 -13.034  0.00  0.00     0.028 C 
ATOM     17  C   UNL d   1       7.068   5.535 -12.557  0.00  0.00     0.041 C 
ATOM     18  C   UNL d   1       6.862   4.021 -12.569  0.00  0.00     0.265 C 
ATOM     19  N   UNL d   1       5.495   3.770 -12.169  0.00  0.00     0.342 N 
ATOM     20  C   UNL d   1       5.394   2.340 -12.034  0.00  0.00     0.316 C 
ENDROOT
BRANCH   1  21
ATOM     21  C   UNL d   1       6.014  -0.416 -17.183  0.00  0.00     0.026 C 
ATOM     22  C   UNL d   1       4.787  -0.119 -18.058  0.00  0.00     0.005 C 
ENDBRANCH   1  21
TORSDOF 1
