REMARK  9 active torsions:
REMARK  status: ('A' for Active; 'I' for Inactive)
REMARK    1  A    between atoms: C_8  and  O_9 
REMARK    2  A    between atoms: O_9  and  C_10 
REMARK    3  A    between atoms: C_10  and  C_11 
REMARK    4  A    between atoms: C_11  and  C_12 
REMARK    5  A    between atoms: C_12  and  C_13 
REMARK    6  A    between atoms: C_13  and  N_14 
REMARK    7  A    between atoms: N_14  and  C_15 
REMARK    8  A    between atoms: C_15  and  C_16 
REMARK    9  A    between atoms: C_18  and  C_19 
ROOT
ATOM      1  C   UNL d   1       7.826   4.540 -11.407  0.00  0.00     0.041 C 
ENDROOT
BRANCH   1   2
ATOM      2  C   UNL d   1       8.827   4.010 -12.437  0.00  0.00     0.035 C 
BRANCH   2   3
ATOM      3  C   UNL d   1       8.123   3.540 -13.724  0.00  0.00     0.149 C 
BRANCH   3   4
ATOM      4  O   UNL d   1       8.908   2.560 -14.398  0.00  0.00    -0.331 OA
BRANCH   4   5
ATOM      5  C   UNL d   1      10.018   2.980 -15.097  0.00  0.00     0.096 A 
ATOM      6  C   UNL d   1      10.780   2.009 -15.787  0.00  0.00     0.024 A 
ATOM      7  C   UNL d   1      11.896   2.398 -16.557  0.00  0.00    -0.001 A 
ATOM      8  C   UNL d   1      12.275   3.755 -16.619  0.00  0.00    -0.004 A 
ATOM      9  C   UNL d   1      13.443   4.233 -17.456  0.00  0.00     0.038 C 
ATOM     10  C   UNL d   1      11.531   4.718 -15.912  0.00  0.00     0.082 A 
ATOM     11  C   UNL d   1      14.084   5.506 -16.861  0.00  0.00     0.095 C 
ATOM     12  C   UNL d   1      13.049   6.550 -16.425  0.00  0.00     0.256 C 
ATOM     13  O   UNL d   1      13.305   7.752 -16.471  0.00  0.00    -0.270 OA
ATOM     14  N   UNL d   1      11.881   6.090 -15.957  0.00  0.00    -0.212 NA
ATOM     15  C   UNL d   1      10.414   4.339 -15.175  0.00  0.00     0.043 A 
ENDBRANCH   4   5
ENDBRANCH   3   4
ENDBRANCH   2   3
ENDBRANCH   1   2
BRANCH   1  16
ATOM     16  C   UNL d   1       8.540   5.100 -10.181  0.00  0.00     0.290 C 
BRANCH  16  17
ATOM     17  N   UNL d   1       9.030   6.430 -10.507  0.00  0.00     0.339 N 
BRANCH  17  18
ATOM     18  C   UNL d   1       9.534   6.997  -9.290  0.00  0.00     0.290 C 
BRANCH  18  19
ATOM     19  C   UNL d   1      10.286   8.293  -9.591  0.00  0.00     0.041 A 
ATOM     20  C   UNL d   1      11.195   8.918  -8.549  0.00  0.00     0.025 A 
ATOM     21  C   UNL d   1      11.787   8.338  -9.807  0.00  0.00     0.007 A 
BRANCH  20  22
ATOM     22  C   UNL d   1      11.450   8.332  -7.177  0.00  0.00    -0.011 A 
ATOM     23  C   UNL d   1      11.527   9.083  -5.973  0.00  0.00     0.064 A 
ATOM     24  C   UNL d   1      11.710   8.450  -4.705  0.00  0.00     0.068 A 
ATOM     25 CL   UNL d   1      11.464  10.777  -6.047  0.00  0.00    -0.082 Cl
ATOM     26  C   UNL d   1      11.821   7.046  -4.639  0.00  0.00     0.012 A 
ATOM     27 CL   UNL d   1      11.861   9.353  -3.242  0.00  0.00    -0.082 Cl
ATOM     28  C   UNL d   1      11.799   6.345  -5.839  0.00  0.00     0.001 A 
ATOM     29  C   UNL d   1      11.646   6.957  -7.063  0.00  0.00    -0.003 A 
ENDBRANCH  20  22
ENDBRANCH  18  19
ENDBRANCH  17  18
ENDBRANCH  16  17
ENDBRANCH   1  16
TORSDOF 9
