REMARK  7 active torsions:
REMARK  status: ('A' for Active; 'I' for Inactive)
REMARK    1  A    between atoms: O_2  and  C_3 
REMARK    2  A    between atoms: C_8  and  N_9 
REMARK    3  A    between atoms: N_12  and  C_13 
REMARK    4  A    between atoms: C_13  and  C_14 
REMARK    5  A    between atoms: C_14  and  C_15 
REMARK    6  A    between atoms: C_15  and  C_16 
REMARK       I    between atoms: C_16  and  N_18 
REMARK    7  A    between atoms: N_18  and  C_19 
ROOT
ATOM      1  C   UNL d   1       7.108   3.988 -13.104  0.00  0.00     0.087 A 
ATOM      2  C   UNL d   1       5.882   3.415 -12.663  0.00  0.00     0.040 A 
ATOM      3  C   UNL d   1       5.465   2.194 -13.139  0.00  0.00     0.102 A 
ATOM      4  N   UNL d   1       6.234   1.548 -14.059  0.00  0.00    -0.228 N 
ATOM      5  N   UNL d   1       5.941   0.331 -14.633  0.00  0.00    -0.163 NA
ATOM      6  C   UNL d   1       6.947   0.112 -15.456  0.00  0.00     0.132 A 
ATOM      7  C   UNL d   1       7.907   1.148 -15.435  0.00  0.00     0.107 A 
ATOM      8  C   UNL d   1       9.110   1.207 -16.188  0.00  0.00     0.104 C 
ATOM      9  N   UNL d   1      10.093   1.258 -16.798  0.00  0.00    -0.191 NA
ATOM     10  C   UNL d   1       7.448   2.073 -14.542  0.00  0.00     0.096 A 
ATOM     11  C   UNL d   1       7.880   3.323 -14.053  0.00  0.00     0.039 A 
ENDROOT
BRANCH   1  12
ATOM     12  N   UNL d   1       7.465   5.250 -12.561  0.00  0.00    -0.212 NA
ATOM     13  C   UNL d   1       8.608   5.949 -12.684  0.00  0.00     0.256 C 
ATOM     14  O   UNL d   1       9.640   5.559 -13.226  0.00  0.00    -0.270 OA
BRANCH  13  15
ATOM     15  C   UNL d   1       8.573   7.339 -12.077  0.00  0.00     0.092 C 
BRANCH  15  16
ATOM     16  C   UNL d   1       9.537   7.471 -10.892  0.00  0.00     0.045 C 
BRANCH  16  17
ATOM     17  C   UNL d   1       9.173   6.661  -9.642  0.00  0.00     0.251 C 
BRANCH  17  18
ATOM     18  N   UNL d   1      10.272   6.639  -8.675  0.00  0.00     0.141 N 
ATOM     19  C   UNL d   1       9.730   6.112  -7.416  0.00  0.00     0.274 C 
ATOM     20  C   UNL d   1      10.871   6.053  -6.387  0.00  0.00     0.137 C 
ATOM     21  N   UNL d   1      11.460   7.312  -6.199  0.00  0.00    -0.343 N 
ATOM     22  C   UNL d   1      11.981   7.893  -7.432  0.00  0.00     0.137 C 
ATOM     23  C   UNL d   1      10.825   7.980  -8.432  0.00  0.00     0.274 C 
BRANCH  21  24
ATOM     24  C   UNL d   1      11.648   7.859  -4.909  0.00  0.00     0.079 A 
ATOM     25  C   UNL d   1      11.455   9.221  -4.740  0.00  0.00     0.110 A 
ATOM     26  C   UNL d   1      11.655   9.775  -3.461  0.00  0.00     0.026 A 
ATOM     27  C   UNL d   1      12.058   8.998  -2.371  0.00  0.00     0.002 A 
ATOM     28  C   UNL d   1      12.221   7.617  -2.541  0.00  0.00     0.002 A 
ATOM     29  C   UNL d   1      12.017   7.046  -3.821  0.00  0.00     0.019 A 
BRANCH  25  30
ATOM     30  O   UNL d   1      11.029   9.983  -5.805  0.00  0.00    -0.327 OA
ATOM     31  C   UNL d   1      11.760  11.168  -6.045  0.00  0.00     0.181 C 
ENDBRANCH  25  30
ENDBRANCH  21  24
ENDBRANCH  17  18
ENDBRANCH  16  17
ENDBRANCH  15  16
ENDBRANCH  13  15
ENDBRANCH   1  12
TORSDOF 7
