REMARK  3 active torsions:
REMARK  status: ('A' for Active; 'I' for Inactive)
REMARK    1  A    between atoms: C_5  and  C_6 
REMARK    2  A    between atoms: N_8  and  C_9 
REMARK    3  A    between atoms: C_18  and  C_19 
ROOT
ATOM      1  C   UNL d   1       9.189   2.614 -15.833  0.00  0.00    -0.003 A 
ATOM      2  C   UNL d   1       8.292   1.652 -16.202  0.00  0.00     0.076 A 
ATOM      3  N   UNL d   1       7.208   1.610 -15.323  0.00  0.00    -0.305 N 
ATOM      4  C   UNL d   1       7.364   2.634 -14.369  0.00  0.00     0.064 A 
ATOM      5  C   UNL d   1       6.570   3.111 -13.295  0.00  0.00     0.018 A 
ATOM      6  C   UNL d   1       7.074   4.071 -12.408  0.00  0.00     0.002 A 
ATOM      7  C   UNL d   1       8.323   4.678 -12.652  0.00  0.00     0.000 A 
ATOM      8  C   UNL d   1       9.052   4.303 -13.796  0.00  0.00     0.001 A 
ATOM      9  C   UNL d   1       8.639   3.248 -14.653  0.00  0.00     0.014 A 
ENDROOT
BRANCH   1  10
ATOM     10  C   UNL d   1      10.462   2.948 -16.554  0.00  0.00     0.028 C 
ATOM     11  C   UNL d   1      11.665   3.081 -15.583  0.00  0.00     0.040 C 
ATOM     12  C   UNL d   1      12.921   3.604 -16.290  0.00  0.00     0.251 C 
ATOM     13  N   UNL d   1      12.639   4.878 -16.933  0.00  0.00     0.139 N 
ATOM     14  C   UNL d   1      13.871   5.389 -17.508  0.00  0.00     0.285 C 
ATOM     15  C   UNL d   1      11.642   4.699 -17.986  0.00  0.00     0.251 C 
ATOM     16  C   UNL d   1      10.308   4.241 -17.376  0.00  0.00     0.040 C 
ENDBRANCH   1  10
BRANCH   3  17
ATOM     17  C   UNL d   1       6.129   0.673 -15.421  0.00  0.00     0.067 A 
ATOM     18  C   UNL d   1       5.386   0.270 -14.286  0.00  0.00     0.038 A 
ATOM     19  C   UNL d   1       4.266  -0.561 -14.468  0.00  0.00     0.101 A 
ATOM     20  N   UNL d   1       3.902  -1.078 -15.658  0.00  0.00    -0.242 NA
ATOM     21  C   UNL d   1       4.664  -0.769 -16.732  0.00  0.00     0.101 A 
ATOM     22  C   UNL d   1       5.754   0.120 -16.675  0.00  0.00     0.038 A 
ENDBRANCH   3  17
BRANCH   7  23
ATOM     23  C   UNL d   1       8.844   5.708 -11.760  0.00  0.00     0.003 A 
ATOM     24  C   UNL d   1       9.237   5.429 -10.435  0.00  0.00     0.021 A 
ATOM     25  C   UNL d   1       9.738   6.480  -9.642  0.00  0.00     0.099 A 
ATOM     26  N   UNL d   1       9.876   7.746 -10.086  0.00  0.00    -0.242 NA
ATOM     27  C   UNL d   1       9.473   8.010 -11.347  0.00  0.00     0.099 A 
ATOM     28  C   UNL d   1       8.981   7.028 -12.222  0.00  0.00     0.021 A 
ENDBRANCH   7  23
TORSDOF 3
