REMARK  3 active torsions:
REMARK  status: ('A' for Active; 'I' for Inactive)
REMARK    1  A    between atoms: C_9  and  C_10 
REMARK    2  A    between atoms: C_10  and  N_11 
REMARK    3  A    between atoms: N_14  and  C_15 
ROOT
ATOM      1  N   UNL d   1      11.732   1.412 -16.858  0.00  0.00    -0.191 NA
ATOM      2  C   UNL d   1      10.825   1.783 -16.247  0.00  0.00     0.101 C 
ATOM      3  C   UNL d   1       9.678   2.252 -15.484  0.00  0.00     0.068 A 
ATOM      4  C   UNL d   1       8.377   1.908 -15.906  0.00  0.00     0.012 A 
ATOM      5  C   UNL d   1       7.263   2.352 -15.171  0.00  0.00     0.020 A 
ATOM      6  C   UNL d   1       7.455   3.161 -14.037  0.00  0.00     0.081 A 
ATOM      7  N   UNL d   1       6.567   3.748 -13.156  0.00  0.00    -0.244 NA
ATOM      8  C   UNL d   1       7.251   4.438 -12.172  0.00  0.00     0.097 A 
ATOM      9  C   UNL d   1       8.597   4.328 -12.407  0.00  0.00     0.032 A 
ATOM     10  C   UNL d   1       8.755   3.528 -13.590  0.00  0.00     0.018 A 
ATOM     11  C   UNL d   1       9.862   3.047 -14.333  0.00  0.00     0.011 A 
ENDROOT
BRANCH   9  12
ATOM     12  C   UNL d   1       9.683   4.922 -11.586  0.00  0.00     0.279 C 
BRANCH  12  13
ATOM     13  N   UNL d   1       9.341   5.881 -10.547  0.00  0.00     0.145 N 
ATOM     14  C   UNL d   1      10.295   6.996 -10.525  0.00  0.00     0.275 C 
ATOM     15  C   UNL d   1       9.946   8.057  -9.484  0.00  0.00     0.137 C 
ATOM     16  N   UNL d   1       9.777   7.420  -8.184  0.00  0.00    -0.344 N 
ATOM     17  C   UNL d   1       8.879   6.261  -8.157  0.00  0.00     0.137 C 
ATOM     18  C   UNL d   1       9.304   5.236  -9.224  0.00  0.00     0.275 C 
BRANCH  16  19
ATOM     19  C   UNL d   1      10.451   7.897  -7.042  0.00  0.00     0.057 A 
ATOM     20  C   UNL d   1      10.796   7.023  -5.982  0.00  0.00     0.029 A 
ATOM     21  C   UNL d   1      11.460   7.511  -4.848  0.00  0.00     0.070 A 
ATOM     22  C   UNL d   1      11.804   8.864  -4.753  0.00  0.00     0.068 A 
ATOM     23 CL   UNL d   1      11.861   6.458  -3.547  0.00  0.00    -0.081 Cl
ATOM     24  C   UNL d   1      11.493   9.741  -5.803  0.00  0.00     0.014 A 
ATOM     25 CL   UNL d   1      12.581   9.399  -3.321  0.00  0.00    -0.082 Cl
ATOM     26  C   UNL d   1      10.812   9.262  -6.942  0.00  0.00     0.018 A 
ENDBRANCH  16  19
ENDBRANCH  12  13
ENDBRANCH   9  12
TORSDOF 3
