REMARK  5 active torsions:
REMARK  status: ('A' for Active; 'I' for Inactive)
REMARK    1  A    between atoms: C_2  and  O_3 
REMARK    2  A    between atoms: O_3  and  C_4 
REMARK    3  A    between atoms: C_4  and  C_6 
REMARK    4  A    between atoms: C_6  and  C_7 
REMARK    5  A    between atoms: C_6  and  C_9 
ROOT
ATOM      1  C   UNL d   1       9.492   6.708  -8.889  0.00  0.00     0.120 C 
ENDROOT
BRANCH   1   2
ATOM      2  C   UNL d   1       9.842   7.638 -10.049  0.00  0.00     0.276 C 
ATOM      3  O   UNL d   1      10.502   8.677  -9.939  0.00  0.00    -0.264 OA
BRANCH   2   4
ATOM      4  O   UNL d   1       9.258   7.200 -11.189  0.00  0.00    -0.301 OA
BRANCH   4   5
ATOM      5  C   UNL d   1       9.248   7.997 -12.348  0.00  0.00     0.152 C 
ATOM      6  C   UNL d   1       8.268   9.167 -12.208  0.00  0.00     0.035 C 
ENDBRANCH   4   5
ENDBRANCH   2   4
ENDBRANCH   1   2
BRANCH   1   7
ATOM      7  C   UNL d   1       9.846   5.261  -9.305  0.00  0.00     0.082 C 
ATOM      8 BR   UNL d   1       8.645   3.982  -8.447  0.00  0.00    -0.080 Br
ENDBRANCH   1   7
BRANCH   1   9
ATOM      9  C   UNL d   1      10.061   7.186  -7.544  0.00  0.00    -0.012 A 
ATOM     10  C   UNL d   1       9.705   8.454  -7.031  0.00  0.00    -0.004 A 
ATOM     11  C   UNL d   1      10.299   8.951  -5.833  0.00  0.00    -0.000 A 
ATOM     12  C   UNL d   1      11.179   8.160  -5.093  0.00  0.00    -0.000 A 
ATOM     13  C   UNL d   1      11.475   6.864  -5.563  0.00  0.00    -0.000 A 
ATOM     14  C   UNL d   1      10.982   6.402  -6.793  0.00  0.00    -0.004 A 
ENDBRANCH   1   9
TORSDOF 5
