REMARK  4 active torsions:
REMARK  status: ('A' for Active; 'I' for Inactive)
REMARK    1  A    between atoms: C_6  and  C_7 
REMARK    2  A    between atoms: C_10  and  C_11 
REMARK    3  A    between atoms: C_11  and  N_12 
REMARK    4  A    between atoms: N_15  and  C_16 
ROOT
ATOM      1  N   UNL d   1       8.797   0.487 -15.257  0.00  0.00    -0.191 NA
ATOM      2  C   UNL d   1       7.839   0.918 -14.773  0.00  0.00     0.111 C 
ATOM      3  C   UNL d   1       6.647   1.402 -14.155  0.00  0.00     0.138 C 
ATOM      4  C   UNL d   1       5.475   0.603 -14.081  0.00  0.00     0.111 C 
ATOM      5  N   UNL d   1       4.507  -0.023 -13.974  0.00  0.00    -0.191 NA
ATOM      6  C   UNL d   1       6.601   2.627 -13.597  0.00  0.00     0.040 C 
ENDROOT
BRANCH   6   7
ATOM      7  C   UNL d   1       7.605   3.642 -13.499  0.00  0.00     0.082 A 
ATOM      8  N   UNL d   1       7.483   4.628 -12.541  0.00  0.00    -0.248 NA
ATOM      9  C   UNL d   1       8.572   5.477 -12.566  0.00  0.00     0.092 A 
ATOM     10  C   UNL d   1       9.406   5.015 -13.542  0.00  0.00     0.018 A 
ATOM     11  C   UNL d   1       8.819   3.845 -14.103  0.00  0.00     0.020 A 
BRANCH   9  12
ATOM     12  C   UNL d   1       8.652   6.673 -11.693  0.00  0.00     0.296 C 
BRANCH  12  13
ATOM     13  N   UNL d   1       9.704   6.614 -10.676  0.00  0.00     0.147 N 
ATOM     14  C   UNL d   1      10.226   7.964 -10.421  0.00  0.00     0.275 C 
ATOM     15  C   UNL d   1      11.396   7.898  -9.421  0.00  0.00     0.137 C 
ATOM     16  N   UNL d   1      10.943   7.278  -8.180  0.00  0.00    -0.344 N 
ATOM     17  C   UNL d   1      10.245   6.005  -8.322  0.00  0.00     0.137 C 
ATOM     18  C   UNL d   1       9.160   6.096  -9.409  0.00  0.00     0.275 C 
BRANCH  16  19
ATOM     19  C   UNL d   1      11.091   7.921  -6.931  0.00  0.00     0.056 A 
ATOM     20  C   UNL d   1      11.057   9.332  -6.818  0.00  0.00     0.017 A 
ATOM     21  C   UNL d   1      11.233   9.963  -5.575  0.00  0.00     0.002 A 
ATOM     22  C   UNL d   1      11.450   9.196  -4.419  0.00  0.00     0.000 A 
ATOM     23  C   UNL d   1      11.471   7.790  -4.511  0.00  0.00     0.002 A 
ATOM     24  C   UNL d   1      11.287   7.156  -5.755  0.00  0.00     0.017 A 
ENDBRANCH  16  19
ENDBRANCH  12  13
ENDBRANCH   9  12
ENDBRANCH   6   7
TORSDOF 4
