REMARK  4 active torsions:
REMARK  status: ('A' for Active; 'I' for Inactive)
REMARK    1  A    between atoms: C_2  and  O_3 
REMARK    2  A    between atoms: C_2  and  C_12 
REMARK    3  A    between atoms: O_3  and  C_4 
REMARK    4  A    between atoms: C_17  and  N_18 
ROOT
ATOM      1  C   UNL d   1      11.883   4.257 -16.730  0.00  0.00     0.203 A 
ATOM      2  N   UNL d   1      12.846   5.112 -16.359  0.00  0.00    -0.039 NA
ATOM      3  C   UNL d   1      13.954   4.944 -17.074  0.00  0.00     0.785 A 
ATOM      4  N   UNL d   1      14.990   5.780 -16.772  0.00  0.00     0.063 N 
ATOM      5  N   UNL d   1      14.187   4.074 -18.052  0.00  0.00     0.134 NA
ATOM      6  C   UNL d   1      13.136   3.290 -18.310  0.00  0.00     0.744 A 
ATOM      7  N   UNL d   1      11.948   3.338 -17.700  0.00  0.00    -0.043 NA
ENDROOT
BRANCH   1   8
ATOM      8  C   UNL d   1      10.531   4.380 -16.037  0.00  0.00     0.181 C 
ATOM      9  C   UNL d   1       9.666   5.434 -16.766  0.00  0.00     0.041 C 
BRANCH   8  10
ATOM     10  O   UNL d   1      10.676   4.720 -14.651  0.00  0.00    -0.326 OA
BRANCH  10  11
ATOM     11  C   UNL d   1       9.593   4.606 -13.801  0.00  0.00     0.096 A 
ATOM     12  C   UNL d   1       8.377   3.952 -14.127  0.00  0.00     0.036 A 
ATOM     13  C   UNL d   1       7.318   3.905 -13.198  0.00  0.00     0.061 A 
ATOM     14  C   UNL d   1       7.469   4.471 -11.918  0.00  0.00     0.023 A 
ATOM     15 CL   UNL d   1       5.862   3.101 -13.606  0.00  0.00    -0.082 Cl
ATOM     16  C   UNL d   1       8.684   5.088 -11.570  0.00  0.00     0.061 A 
ATOM     17  C   UNL d   1       9.727   5.159 -12.512  0.00  0.00     0.036 A 
ATOM     18 CL   UNL d   1       8.938   5.699  -9.979  0.00  0.00    -0.082 Cl
ENDBRANCH  10  11
ENDBRANCH   8  10
ENDBRANCH   1   8
BRANCH   6  19
ATOM     19  N   UNL d   1      13.296   2.327 -19.319  0.00  0.00    -0.178 N 
ATOM     20  C   UNL d   1      12.206   1.503 -19.846  0.00  0.00     0.155 C 
ATOM     21  C   UNL d   1      12.584   0.010 -19.792  0.00  0.00     0.275 C 
ATOM     22  N   UNL d   1      13.822  -0.227 -20.536  0.00  0.00     0.143 N 
ATOM     23  C   UNL d   1      14.896   0.550 -19.916  0.00  0.00     0.275 C 
ATOM     24  C   UNL d   1      14.153  -1.637 -20.483  0.00  0.00     0.286 C 
ATOM     25  C   UNL d   1      14.574   2.052 -19.982  0.00  0.00     0.155 C 
ENDBRANCH   6  19
TORSDOF 4
