REMARK  3 active torsions:
REMARK  status: ('A' for Active; 'I' for Inactive)
REMARK    1  A    between atoms: C_2  and  C_3 
REMARK    2  A    between atoms: N_12  and  C_13 
REMARK    3  A    between atoms: C_13  and  C_14 
ROOT
ATOM      1  O   UNL d   1       8.835   8.412  -7.262  0.00  0.00    -0.221 OA
ATOM      2  C   UNL d   1      10.092   7.792  -7.480  0.00  0.00     0.150 C 
ATOM      3  C   UNL d   1       9.764   6.359  -7.978  0.00  0.00     0.070 C 
ATOM      4  C   UNL d   1       9.096   6.302  -9.334  0.00  0.00     0.254 C 
ATOM      5  N   UNL d   1       9.874   6.959 -10.371  0.00  0.00     0.142 N 
ATOM      6  C   UNL d   1      10.092   8.354 -10.003  0.00  0.00     0.254 C 
ATOM      7  C   UNL d   1      10.823   8.503  -8.657  0.00  0.00     0.070 C 
ENDROOT
BRANCH   5   8
ATOM      8  C   UNL d   1       9.176   6.945 -11.665  0.00  0.00     0.278 C 
BRANCH   8   9
ATOM      9  C   UNL d   1       8.534   5.694 -12.172  0.00  0.00     0.032 A 
ATOM     10  C   UNL d   1       8.995   4.757 -13.165  0.00  0.00     0.017 A 
ATOM     11  C   UNL d   1       8.029   3.709 -13.247  0.00  0.00     0.081 A 
ATOM     12  C   UNL d   1      10.135   4.661 -13.997  0.00  0.00     0.001 A 
ATOM     13  N   UNL d   1       7.047   4.006 -12.325  0.00  0.00    -0.244 NA
ATOM     14  C   UNL d   1       8.201   2.615 -14.112  0.00  0.00     0.019 A 
ATOM     15  C   UNL d   1       7.351   5.201 -11.686  0.00  0.00     0.097 A 
ATOM     16  C   UNL d   1       9.354   2.538 -14.922  0.00  0.00     0.002 A 
ATOM     17  C   UNL d   1      10.317   3.566 -14.863  0.00  0.00     0.000 A 
ENDBRANCH   8   9
ENDBRANCH   5   8
BRANCH   2  18
ATOM     18  C   UNL d   1      10.916   7.804  -6.156  0.00  0.00     0.016 A 
ATOM     19  C   UNL d   1      11.375   8.989  -5.515  0.00  0.00     0.056 A 
ATOM     20  C   UNL d   1      12.094   8.956  -4.304  0.00  0.00     0.011 A 
ATOM     21 CL   UNL d   1      11.074  10.531  -6.181  0.00  0.00    -0.083 Cl
ATOM     22  C   UNL d   1      12.345   7.746  -3.649  0.00  0.00     0.001 A 
ATOM     23  C   UNL d   1      11.865   6.572  -4.254  0.00  0.00    -0.000 A 
ATOM     24  C   UNL d   1      11.183   6.599  -5.492  0.00  0.00    -0.001 A 
ENDBRANCH   2  18
TORSDOF 3
