REMARK  11 active torsions:
REMARK  status: ('A' for Active; 'I' for Inactive)
REMARK    1  A    between atoms: C_2  and  C_3 
REMARK    2  A    between atoms: C_3  and  N_4 
REMARK    3  A    between atoms: N_4  and  C_5 
REMARK    4  A    between atoms: N_4  and  C_22 
REMARK    5  A    between atoms: C_5  and  C_6 
REMARK    6  A    between atoms: C_6  and  C_7 
REMARK    7  A    between atoms: C_7  and  C_8 
REMARK    8  A    between atoms: C_8  and  N_9 
REMARK       I    between atoms: N_9  and  C_10 
REMARK    9  A    between atoms: C_10  and  C_12 
REMARK   10  A    between atoms: C_22  and  C_23 
REMARK   11  A    between atoms: C_25  and  C_26 
ROOT
ATOM      1  C   UNL d   1      10.467   4.565 -14.117  0.00  0.00     0.250 C 
ENDROOT
BRANCH   1   2
ATOM      2  N   UNL d   1      10.034   4.242 -15.482  0.00  0.00     0.137 N 
BRANCH   2   3
ATOM      3  C   UNL d   1      10.585   5.178 -16.468  0.00  0.00     0.250 C 
BRANCH   3   4
ATOM      4  C   UNL d   1       9.700   5.235 -17.733  0.00  0.00     0.035 C 
ATOM      5  C   UNL d   1      10.266   6.163 -18.811  0.00  0.00     0.002 C 
ENDBRANCH   3   4
ENDBRANCH   2   3
BRANCH   2   6
ATOM      6  C   UNL d   1      10.436   2.878 -15.840  0.00  0.00     0.251 C 
BRANCH   6   7
ATOM      7  C   UNL d   1       9.553   1.865 -15.149  0.00  0.00     0.038 A 
ATOM      8  C   UNL d   1       8.554   1.038 -15.950  0.00  0.00     0.024 A 
ATOM      9  C   UNL d   1       9.786   0.388 -15.364  0.00  0.00     0.007 A 
BRANCH   8  10
ATOM     10  C   UNL d   1       7.183   0.697 -15.445  0.00  0.00    -0.022 A 
ATOM     11  C   UNL d   1       6.357  -0.185 -16.177  0.00  0.00     0.007 A 
ATOM     12  C   UNL d   1       5.082  -0.548 -15.688  0.00  0.00     0.057 A 
ATOM     13  C   UNL d   1       4.626  -0.044 -14.454  0.00  0.00     0.011 A 
ATOM     14 CL   UNL d   1       4.085  -1.602 -16.608  0.00  0.00    -0.082 Cl
ATOM     15  C   UNL d   1       5.447   0.838 -13.720  0.00  0.00     0.001 A 
ATOM     16  C   UNL d   1       6.700   1.225 -14.224  0.00  0.00    -0.004 A 
ENDBRANCH   8  10
ENDBRANCH   6   7
ENDBRANCH   2   6
ENDBRANCH   1   2
BRANCH   1  17
ATOM     17  C   UNL d   1       9.260   4.980 -13.246  0.00  0.00     0.037 C 
BRANCH  17  18
ATOM     18  C   UNL d   1       9.681   5.353 -11.815  0.00  0.00     0.029 C 
BRANCH  18  19
ATOM     19  C   UNL d   1       8.643   6.146 -11.019  0.00  0.00     0.129 C 
BRANCH  19  20
ATOM     20  N   UNL d   1       9.182   6.449  -9.699  0.00  0.00    -0.234 NA
ATOM     21  C   UNL d   1       9.896   7.544  -9.368  0.00  0.00     0.275 C 
ATOM     22  O   UNL d   1      10.144   8.475 -10.132  0.00  0.00    -0.266 OA
BRANCH  21  23
ATOM     23  C   UNL d   1      10.372   7.570  -7.943  0.00  0.00     0.058 A 
ATOM     24  C   UNL d   1      10.390   8.773  -7.200  0.00  0.00     0.005 A 
ATOM     25  C   UNL d   1      10.916   8.789  -5.884  0.00  0.00     0.000 A 
ATOM     26  C   UNL d   1      11.439   7.605  -5.319  0.00  0.00     0.000 A 
ATOM     27  C   UNL d   1      10.941   9.969  -5.119  0.00  0.00     0.000 A 
ATOM     28  C   UNL d   1      11.455   6.436  -6.081  0.00  0.00     0.000 A 
ATOM     29  C   UNL d   1      11.971   7.582  -4.011  0.00  0.00     0.000 A 
ATOM     30  C   UNL d   1      10.917   6.404  -7.373  0.00  0.00     0.005 A 
ATOM     31  C   UNL d   1      11.978   8.757  -3.250  0.00  0.00     0.000 A 
ATOM     32  C   UNL d   1      11.461   9.934  -3.805  0.00  0.00     0.000 A 
ENDBRANCH  21  23
ENDBRANCH  19  20
ENDBRANCH  18  19
ENDBRANCH  17  18
ENDBRANCH   1  17
TORSDOF 11
