REMARK  11 active torsions:
REMARK  status: ('A' for Active; 'I' for Inactive)
REMARK    1  A    between atoms: C_3  and  C_4 
REMARK    2  A    between atoms: C_3  and  C_26 
REMARK    3  A    between atoms: C_3  and  C_32 
REMARK    4  A    between atoms: C_4  and  C_5 
REMARK    5  A    between atoms: C_5  and  N_6 
REMARK    6  A    between atoms: N_6  and  C_7 
REMARK    7  A    between atoms: C_7  and  C_8 
REMARK    8  A    between atoms: C_8  and  C_9 
REMARK    9  A    between atoms: C_9  and  C_11 
REMARK   10  A    between atoms: C_11  and  N_12 
REMARK   11  A    between atoms: N_15  and  C_16 
ROOT
ATOM      1  N   UNL d   1       6.745  -0.646 -13.243  0.00  0.00    -0.196 NA
ATOM      2  C   UNL d   1       6.893  -0.001 -14.183  0.00  0.00     0.080 C 
ATOM      3  C   UNL d   1       7.068   0.841 -15.383  0.00  0.00     0.119 C 
ENDROOT
BRANCH   3   4
ATOM      4  C   UNL d   1       6.444   2.219 -14.997  0.00  0.00     0.060 C 
BRANCH   4   5
ATOM      5  C   UNL d   1       7.212   3.165 -14.098  0.00  0.00     0.292 C 
BRANCH   5   6
ATOM      6  N   UNL d   1       6.515   4.323 -13.584  0.00  0.00     0.339 N 
BRANCH   6   7
ATOM      7  C   UNL d   1       7.559   5.281 -13.194  0.00  0.00     0.293 C 
BRANCH   7   8
ATOM      8  C   UNL d   1       7.771   5.290 -11.681  0.00  0.00     0.073 C 
BRANCH   8   9
ATOM      9  C   UNL d   1       8.728   6.388 -11.188  0.00  0.00     0.188 C 
ATOM     10  O   UNL d   1       9.823   6.387 -12.055  0.00  0.00    -0.221 OA
BRANCH   9  11
ATOM     11  C   UNL d   1       9.293   6.058  -9.798  0.00  0.00     0.283 C 
BRANCH  11  12
ATOM     12  N   UNL d   1       9.765   7.220  -9.038  0.00  0.00     0.144 N 
ATOM     13  C   UNL d   1      11.117   7.019  -8.564  0.00  0.00     0.274 C 
ATOM     14  C   UNL d   1      11.665   8.222  -7.770  0.00  0.00     0.137 C 
ATOM     15  N   UNL d   1      10.749   8.588  -6.700  0.00  0.00    -0.344 N 
ATOM     16  C   UNL d   1       9.346   8.699  -7.047  0.00  0.00     0.137 C 
ATOM     17  C   UNL d   1       8.941   7.450  -7.844  0.00  0.00     0.274 C 
BRANCH  15  18
ATOM     18  C   UNL d   1      11.169   8.675  -5.362  0.00  0.00     0.068 A 
ATOM     19  C   UNL d   1      11.708   7.569  -4.676  0.00  0.00     0.084 A 
ATOM     20  C   UNL d   1      12.174   7.670  -3.346  0.00  0.00     0.070 A 
ATOM     21 CL   UNL d   1      11.701   6.100  -5.465  0.00  0.00    -0.080 Cl
ATOM     22  C   UNL d   1      12.118   8.874  -2.685  0.00  0.00     0.012 A 
ATOM     23 CL   UNL d   1      12.656   6.332  -2.414  0.00  0.00    -0.081 Cl
ATOM     24  C   UNL d   1      11.521   9.964  -3.357  0.00  0.00     0.002 A 
ATOM     25  C   UNL d   1      11.056   9.868  -4.667  0.00  0.00     0.018 A 
ENDBRANCH  15  18
ENDBRANCH  11  12
ENDBRANCH   9  11
ENDBRANCH   8   9
ENDBRANCH   7   8
ENDBRANCH   6   7
ENDBRANCH   5   6
ENDBRANCH   4   5
ENDBRANCH   3   4
BRANCH   3  26
ATOM     26  C   UNL d   1       8.585   0.861 -15.747  0.00  0.00    -0.006 C 
ATOM     27  C   UNL d   1       9.554   1.682 -15.101  0.00  0.00    -0.003 C 
ATOM     28  C   UNL d   1      10.867   1.743 -15.559  0.00  0.00    -0.000 C 
ATOM     29  C   UNL d   1      11.317   0.865 -16.566  0.00  0.00    -0.000 C 
ATOM     30  C   UNL d   1      10.415  -0.062 -17.126  0.00  0.00    -0.000 C 
ATOM     31  C   UNL d   1       9.060  -0.049 -16.744  0.00  0.00    -0.003 C 
ENDBRANCH   3  26
BRANCH   3  32
ATOM     32  C   UNL d   1       6.209   0.274 -16.552  0.00  0.00    -0.006 A 
ATOM     33  C   UNL d   1       6.289   0.882 -17.829  0.00  0.00    -0.003 A 
ATOM     34  C   UNL d   1       5.608   0.352 -18.941  0.00  0.00    -0.000 A 
ATOM     35  C   UNL d   1       4.805  -0.793 -18.788  0.00  0.00    -0.000 A 
ATOM     36  C   UNL d   1       4.701  -1.410 -17.527  0.00  0.00    -0.000 A 
ATOM     37  C   UNL d   1       5.391  -0.880 -16.416  0.00  0.00    -0.003 A 
ENDBRANCH   3  32
TORSDOF 11
