REMARK  5 active torsions:
REMARK  status: ('A' for Active; 'I' for Inactive)
REMARK    1  A    between atoms: C_2  and  C_3 
REMARK    2  A    between atoms: N_12  and  C_13 
REMARK    3  A    between atoms: C_13  and  C_14 
REMARK    4  A    between atoms: C_14  and  C_15 
REMARK    5  A    between atoms: C_16  and  C_17 
ROOT
ATOM      1  O   UNL d   1       6.828   5.766 -11.986  0.00  0.00    -0.221 OA
ATOM      2  C   UNL d   1       8.112   5.189 -12.178  0.00  0.00     0.149 C 
ATOM      3  C   UNL d   1       9.012   6.314 -12.722  0.00  0.00     0.070 C 
ATOM      4  C   UNL d   1       9.219   7.434 -11.700  0.00  0.00     0.253 C 
ATOM      5  N   UNL d   1       9.779   6.915 -10.447  0.00  0.00     0.138 N 
ATOM      6  C   UNL d   1       8.872   5.930  -9.845  0.00  0.00     0.253 C 
ATOM      7  C   UNL d   1       8.638   4.746 -10.794  0.00  0.00     0.070 C 
ENDROOT
BRANCH   5   8
ATOM      8  C   UNL d   1       9.971   8.030  -9.517  0.00  0.00     0.255 C 
BRANCH   8   9
ATOM      9  C   UNL d   1      11.478   8.215  -9.212  0.00  0.00     0.061 C 
BRANCH   9  10
ATOM     10  C   UNL d   1      11.804   8.370  -7.733  0.00  0.00    -0.024 C 
ATOM     11  C   UNL d   1      11.177   7.739  -6.721  0.00  0.00    -0.004 C 
BRANCH  11  12
ATOM     12  C   UNL d   1      11.456   7.940  -5.300  0.00  0.00    -0.000 A 
ATOM     13  C   UNL d   1      11.767   9.212  -4.774  0.00  0.00     0.002 A 
ATOM     14  C   UNL d   1      12.061   9.360  -3.404  0.00  0.00     0.030 A 
ATOM     15  C   UNL d   1      12.091   8.230  -2.563  0.00  0.00     0.140 A 
ATOM     16  C   UNL d   1      11.803   6.957  -3.082  0.00  0.00     0.030 A 
ATOM     17  F   UNL d   1      12.389   8.387  -1.253  0.00  0.00    -0.204 F 
ATOM     18  C   UNL d   1      11.473   6.816  -4.444  0.00  0.00     0.002 A 
ENDBRANCH  11  12
ENDBRANCH   9  10
ENDBRANCH   8   9
ENDBRANCH   5   8
BRANCH   2  19
ATOM     19  C   UNL d   1       8.075   4.005 -13.156  0.00  0.00     0.005 A 
ATOM     20  C   UNL d   1       6.846   3.454 -13.586  0.00  0.00    -0.001 A 
ATOM     21  C   UNL d   1       6.822   2.357 -14.470  0.00  0.00     0.011 A 
ATOM     22  C   UNL d   1       8.016   1.801 -14.961  0.00  0.00     0.058 A 
ATOM     23  C   UNL d   1       9.247   2.334 -14.539  0.00  0.00     0.011 A 
ATOM     24 CL   UNL d   1       7.967   0.474 -16.068  0.00  0.00    -0.082 Cl
ATOM     25  C   UNL d   1       9.275   3.421 -13.638  0.00  0.00    -0.001 A 
ENDBRANCH   2  19
TORSDOF 5
