REMARK  5 active torsions:
REMARK  status: ('A' for Active; 'I' for Inactive)
REMARK    1  A    between atoms: N_10  and  C_11 
REMARK    2  A    between atoms: C_11  and  C_12 
REMARK    3  A    between atoms: C_12  and  N_13 
REMARK    4  A    between atoms: N_16  and  C_17 
REMARK    5  A    between atoms: C_17  and  C_18 
ROOT
ATOM      1  N   UNL d   1       8.775   5.445 -11.341  0.00  0.00     0.143 N 
ATOM      2  C   UNL d   1       8.953   5.056  -9.939  0.00  0.00     0.286 C 
ATOM      3  C   UNL d   1       8.833   6.255  -8.987  0.00  0.00     0.286 C 
ATOM      4  N   UNL d   1       9.868   7.274  -9.273  0.00  0.00     0.146 N 
ATOM      5  C   UNL d   1       9.690   7.681 -10.684  0.00  0.00     0.286 C 
ATOM      6  C   UNL d   1       9.744   6.476 -11.642  0.00  0.00     0.286 C 
ENDROOT
BRANCH   1   7
ATOM      7  C   UNL d   1       8.956   4.301 -12.214  0.00  0.00     0.275 C 
BRANCH   7   8
ATOM      8  C   UNL d   1       8.497   4.521 -13.661  0.00  0.00     0.145 C 
BRANCH   8   9
ATOM      9  N   UNL d   1       8.544   3.277 -14.430  0.00  0.00    -0.288 N 
ATOM     10  C   UNL d   1       7.461   2.389 -14.483  0.00  0.00     0.292 A 
ATOM     11  O   UNL d   1       6.362   2.486 -13.938  0.00  0.00    -0.259 OA
ATOM     12  S   UNL d   1       7.883   1.026 -15.585  0.00  0.00    -0.026 SA
ATOM     13  C   UNL d   1       9.457   1.695 -15.889  0.00  0.00     0.050 A 
ATOM     14  C   UNL d   1       9.664   2.892 -15.207  0.00  0.00     0.069 A 
ATOM     15  C   UNL d   1      10.443   1.128 -16.712  0.00  0.00     0.008 A 
ATOM     16  C   UNL d   1      10.886   3.583 -15.336  0.00  0.00     0.018 A 
ATOM     17  C   UNL d   1      11.889   3.029 -16.159  0.00  0.00     0.002 A 
ATOM     18  C   UNL d   1      11.673   1.808 -16.839  0.00  0.00     0.001 A 
ENDBRANCH   8   9
ENDBRANCH   7   8
ENDBRANCH   1   7
BRANCH   4  19
ATOM     19  C   UNL d   1       9.772   8.438  -8.384  0.00  0.00     0.277 C 
BRANCH  19  20
ATOM     20  C   UNL d   1      10.464   8.270  -7.024  0.00  0.00     0.011 A 
ATOM     21  C   UNL d   1      11.213   9.354  -6.485  0.00  0.00    -0.002 A 
ATOM     22  C   UNL d   1      11.876   9.215  -5.235  0.00  0.00     0.011 A 
ATOM     23  C   UNL d   1      11.800   8.002  -4.518  0.00  0.00     0.058 A 
ATOM     24  C   UNL d   1      11.064   6.934  -5.066  0.00  0.00     0.011 A 
ATOM     25 CL   UNL d   1      12.580   7.800  -2.988  0.00  0.00    -0.082 Cl
ATOM     26  C   UNL d   1      10.396   7.067  -6.290  0.00  0.00    -0.002 A 
ENDBRANCH  19  20
ENDBRANCH   4  19
TORSDOF 5
