REMARK  12 active torsions:
REMARK  status: ('A' for Active; 'I' for Inactive)
REMARK    1  A    between atoms: C_3  and  S_4 
REMARK    2  A    between atoms: S_4  and  C_5 
REMARK    3  A    between atoms: C_5  and  C_6 
REMARK    4  A    between atoms: C_6  and  C_7 
REMARK    5  A    between atoms: C_7  and  N_8 
REMARK    6  A    between atoms: N_8  and  C_9 
REMARK    7  A    between atoms: C_9  and  C_10 
REMARK    8  A    between atoms: C_12  and  C_13 
REMARK    9  A    between atoms: C_19  and  O_20 
REMARK   10  A    between atoms: O_20  and  C_21 
REMARK   11  A    between atoms: C_21  and  C_22 
REMARK   12  A    between atoms: C_26  and  C_27 
ROOT
ATOM      1  C   UNL d   1       8.334   4.724 -12.453  0.00  0.00     0.291 C 
ENDROOT
BRANCH   1   2
ATOM      2  C   UNL d   1       9.405   5.385 -11.587  0.00  0.00     0.050 C 
BRANCH   2   3
ATOM      3  C   UNL d   1       8.865   6.659 -10.930  0.00  0.00     0.067 C 
BRANCH   3   4
ATOM      4  S   UNL d   1      10.189   7.755 -10.318  0.00  0.00    -0.075 SA
BRANCH   4   5
ATOM      5  C   UNL d   1      10.176   7.404  -8.593  0.00  0.00     0.193 A 
ATOM      6  N   UNL d   1      10.928   8.106  -7.721  0.00  0.00    -0.289 N 
ATOM      7  C   UNL d   1      11.862   9.182  -8.020  0.00  0.00     0.134 C 
ATOM      8  C   UNL d   1      10.610   7.524  -6.544  0.00  0.00     0.167 A 
ATOM      9  N   UNL d   1       9.721   6.540  -6.679  0.00  0.00    -0.128 NA
ATOM     10  N   UNL d   1       9.457   6.441  -8.021  0.00  0.00    -0.122 NA
BRANCH   8  11
ATOM     11  C   UNL d   1      11.167   7.857  -5.237  0.00  0.00     0.036 A 
ATOM     12  C   UNL d   1      11.222   9.195  -4.793  0.00  0.00     0.003 A 
ATOM     13  C   UNL d   1      11.790   9.497  -3.539  0.00  0.00     0.000 A 
ATOM     14  C   UNL d   1      12.271   8.467  -2.709  0.00  0.00     0.000 A 
ATOM     15  C   UNL d   1      12.195   7.128  -3.135  0.00  0.00     0.000 A 
ATOM     16  C   UNL d   1      11.645   6.827  -4.400  0.00  0.00     0.003 A 
ENDBRANCH   8  11
ENDBRANCH   4   5
ENDBRANCH   3   4
ENDBRANCH   2   3
ENDBRANCH   1   2
BRANCH   1  17
ATOM     17  N   UNL d   1       8.948   3.662 -13.231  0.00  0.00     0.339 N 
BRANCH  17  18
ATOM     18  C   UNL d   1       7.999   3.081 -14.157  0.00  0.00     0.290 C 
BRANCH  18  19
ATOM     19  C   UNL d   1       8.692   2.161 -15.148  0.00  0.00     0.041 A 
ATOM     20  C   UNL d   1      10.182   1.853 -15.098  0.00  0.00     0.026 A 
ATOM     21  C   UNL d   1       9.166   0.803 -14.685  0.00  0.00     0.007 A 
BRANCH  20  22
ATOM     22  C   UNL d   1      10.962   1.748 -16.381  0.00  0.00     0.002 A 
ATOM     23  C   UNL d   1      11.602   2.892 -16.936  0.00  0.00     0.090 A 
ATOM     24  C   UNL d   1      12.336   2.745 -18.141  0.00  0.00     0.026 A 
ATOM     25  C   UNL d   1      12.436   1.493 -18.772  0.00  0.00     0.032 A 
ATOM     26  C   UNL d   1      11.807   0.370 -18.212  0.00  0.00     0.140 A 
ATOM     27  C   UNL d   1      11.075   0.497 -17.019  0.00  0.00     0.027 A 
ATOM     28  F   UNL d   1      11.902  -0.834 -18.821  0.00  0.00    -0.204 F 
BRANCH  23  29
ATOM     29  O   UNL d   1      11.487   4.093 -16.257  0.00  0.00    -0.328 OA
BRANCH  29  30
ATOM     30  C   UNL d   1      12.270   5.209 -16.680  0.00  0.00     0.187 C 
BRANCH  30  31
ATOM     31  C   UNL d   1      13.750   5.003 -16.300  0.00  0.00     0.226 C 
ATOM     32  F   UNL d   1      14.470   6.093 -16.564  0.00  0.00    -0.232 F 
ENDBRANCH  30  31
ENDBRANCH  29  30
ENDBRANCH  23  29
ENDBRANCH  20  22
ENDBRANCH  18  19
ENDBRANCH  17  18
ENDBRANCH   1  17
TORSDOF 12
