REMARK  1 active torsions:
REMARK  status: ('A' for Active; 'I' for Inactive)
REMARK    1  A    between atoms: N_5  and  C_6 
ROOT
ATOM      1  C   UNL d   1       8.145   1.660 -15.904  0.00  0.00     0.142 C 
ATOM      2  N   UNL d   1       7.938   0.879 -16.917  0.00  0.00    -0.227 NA
ATOM      3  C   UNL d   1       6.744   0.186 -17.166  0.00  0.00     0.106 A 
ATOM      4  C   UNL d   1       6.396   0.011 -18.517  0.00  0.00     0.021 A 
ATOM      5  C   UNL d   1       5.233  -0.695 -18.884  0.00  0.00     0.002 A 
ATOM      6  C   UNL d   1       4.407  -1.248 -17.887  0.00  0.00     0.002 A 
ATOM      7  C   UNL d   1       4.756  -1.107 -16.532  0.00  0.00     0.026 A 
ATOM      8  C   UNL d   1       5.923  -0.396 -16.166  0.00  0.00     0.118 A 
ATOM      9  O   UNL d   1       6.255  -0.321 -14.844  0.00  0.00    -0.305 OA
ATOM     10  C   UNL d   1       6.289   0.935 -14.300  0.00  0.00     0.103 A 
ATOM     11  C   UNL d   1       5.421   1.235 -13.225  0.00  0.00     0.026 A 
ATOM     12  C   UNL d   1       5.423   2.507 -12.624  0.00  0.00     0.013 A 
ATOM     13  C   UNL d   1       6.294   3.493 -13.102  0.00  0.00     0.058 A 
ATOM     14 CL   UNL d   1       6.369   5.053 -12.373  0.00  0.00    -0.082 Cl
ATOM     15  C   UNL d   1       7.167   3.202 -14.156  0.00  0.00     0.016 A 
ATOM     16  C   UNL d   1       7.177   1.927 -14.780  0.00  0.00     0.058 A 
ENDROOT
BRANCH   1  17
ATOM     17  N   UNL d   1       9.351   2.341 -15.812  0.00  0.00    -0.330 N 
ATOM     18  C   UNL d   1       9.501   3.583 -16.571  0.00  0.00     0.138 C 
ATOM     19  C   UNL d   1      10.971   3.911 -16.829  0.00  0.00     0.274 C 
ATOM     20  N   UNL d   1      11.675   3.989 -15.547  0.00  0.00     0.143 N 
ATOM     21  C   UNL d   1      13.060   4.346 -15.798  0.00  0.00     0.286 C 
ATOM     22  C   UNL d   1      11.627   2.680 -14.897  0.00  0.00     0.274 C 
ATOM     23  C   UNL d   1      10.176   2.295 -14.600  0.00  0.00     0.138 C 
ENDBRANCH   1  17
TORSDOF 1
