REMARK  5 active torsions:
REMARK  status: ('A' for Active; 'I' for Inactive)
REMARK    1  A    between atoms: N_3  and  C_4 
REMARK    2  A    between atoms: C_4  and  C_5 
REMARK    3  A    between atoms: C_5  and  N_6 
REMARK    4  A    between atoms: N_17  and  C_18 
REMARK    5  A    between atoms: C_18  and  C_19 
ROOT
ATOM      1  O   UNL d   1       9.861   3.646 -11.639  0.00  0.00    -0.247 OA
ATOM      2  C   UNL d   1       8.988   4.365 -12.096  0.00  0.00     0.324 A 
ATOM      3  N   UNL d   1       8.400   5.389 -11.473  0.00  0.00    -0.299 N 
ATOM      4  C   UNL d   1       7.411   6.034 -12.313  0.00  0.00     0.130 A 
ATOM      5  C   UNL d   1       7.495   5.200 -13.608  0.00  0.00     0.130 A 
ATOM      6  N   UNL d   1       8.478   4.197 -13.306  0.00  0.00    -0.297 N 
ENDROOT
BRANCH   3   7
ATOM      7  C   UNL d   1       8.658   5.798 -10.097  0.00  0.00     0.141 C 
BRANCH   7   8
ATOM      8  C   UNL d   1       9.810   6.809 -10.039  0.00  0.00     0.275 C 
BRANCH   8   9
ATOM      9  N   UNL d   1       9.960   7.366  -8.703  0.00  0.00     0.148 N 
ATOM     10  C   UNL d   1      10.306   6.399  -7.660  0.00  0.00     0.277 C 
ATOM     11  C   UNL d   1      10.892   7.271  -6.586  0.00  0.00     0.009 A 
ATOM     12  C   UNL d   1      11.267   8.476  -7.147  0.00  0.00     0.009 A 
ATOM     13  C   UNL d   1      11.084   6.995  -5.225  0.00  0.00    -0.003 A 
ATOM     14  C   UNL d   1      10.958   8.437  -8.620  0.00  0.00     0.277 C 
ATOM     15  C   UNL d   1      11.857   9.493  -6.378  0.00  0.00    -0.003 A 
ATOM     16  C   UNL d   1      12.066   9.238  -5.004  0.00  0.00    -0.000 A 
ATOM     17  C   UNL d   1      11.685   7.999  -4.429  0.00  0.00    -0.000 A 
ENDBRANCH   8   9
ENDBRANCH   7   8
ENDBRANCH   3   7
BRANCH   6  18
ATOM     18  C   UNL d   1       8.949   3.216 -14.293  0.00  0.00     0.134 C 
BRANCH  18  19
ATOM     19  C   UNL d   1      10.279   3.563 -14.969  0.00  0.00     0.012 A 
ATOM     20  C   UNL d   1      11.053   2.556 -15.600  0.00  0.00     0.056 A 
ATOM     21  C   UNL d   1      12.259   2.899 -16.244  0.00  0.00     0.012 A 
ATOM     22 CL   UNL d   1      10.568   0.893 -15.572  0.00  0.00    -0.083 Cl
ATOM     23  C   UNL d   1      12.714   4.231 -16.269  0.00  0.00     0.012 A 
ATOM     24  C   UNL d   1      11.953   5.233 -15.649  0.00  0.00     0.058 A 
ATOM     25  C   UNL d   1      10.758   4.893 -14.992  0.00  0.00     0.010 A 
ATOM     26 CL   UNL d   1      12.501   6.868 -15.692  0.00  0.00    -0.082 Cl
ENDBRANCH  18  19
ENDBRANCH   6  18
TORSDOF 5
