REMARK  2 active torsions:
REMARK  status: ('A' for Active; 'I' for Inactive)
REMARK    1  A    between atoms: O_2  and  C_3 
REMARK    2  A    between atoms: C_6  and  C_7 
ROOT
ATOM      1  C   UNL d   1       7.926   0.835 -15.136  0.00  0.00     0.146 A 
ATOM      2  C   UNL d   1       7.441   0.964 -16.590  0.00  0.00     0.184 A 
ATOM      3  O   UNL d   1       8.008   1.632 -17.456  0.00  0.00    -0.290 OA
ATOM      4  C   UNL d   1       6.211   0.183 -16.744  0.00  0.00     0.038 A 
ATOM      5  C   UNL d   1       5.434  -0.018 -17.900  0.00  0.00     0.003 A 
ATOM      6  C   UNL d   1       4.273  -0.817 -17.784  0.00  0.00     0.000 A 
ATOM      7  C   UNL d   1       3.919  -1.393 -16.540  0.00  0.00     0.000 A 
ATOM      8  C   UNL d   1       4.703  -1.171 -15.390  0.00  0.00     0.003 A 
ATOM      9  C   UNL d   1       5.849  -0.374 -15.521  0.00  0.00     0.038 A 
ATOM     10  C   UNL d   1       6.820  -0.019 -14.488  0.00  0.00     0.184 A 
ATOM     11  O   UNL d   1       6.791  -0.348 -13.301  0.00  0.00    -0.290 OA
ENDROOT
BRANCH   1  12
ATOM     12  C   UNL d   1       8.152   2.190 -14.469  0.00  0.00    -0.008 A 
ATOM     13  C   UNL d   1       7.068   2.990 -14.039  0.00  0.00    -0.001 A 
ATOM     14  C   UNL d   1       7.299   4.223 -13.402  0.00  0.00     0.024 A 
ATOM     15  C   UNL d   1       8.620   4.694 -13.209  0.00  0.00     0.094 A 
ATOM     16  C   UNL d   1       9.696   3.901 -13.653  0.00  0.00     0.024 A 
ATOM     17  C   UNL d   1       9.468   2.659 -14.278  0.00  0.00    -0.001 A 
BRANCH  15  18
ATOM     18  O   UNL d   1       8.931   5.896 -12.612  0.00  0.00    -0.328 OA
ATOM     19  C   UNL d   1       7.866   6.667 -12.072  0.00  0.00     0.181 C 
ENDBRANCH  15  18
ENDBRANCH   1  12
TORSDOF 2
