REMARK  7 active torsions:
REMARK  status: ('A' for Active; 'I' for Inactive)
REMARK       I    between atoms: C_2  and  N_3 
REMARK    1  A    between atoms: C_2  and  C_22 
REMARK    2  A    between atoms: N_3  and  C_4 
REMARK    3  A    between atoms: C_4  and  C_5 
REMARK    4  A    between atoms: C_5  and  C_6 
REMARK    5  A    between atoms: C_6  and  C_7 
REMARK    6  A    between atoms: C_7  and  N_8 
REMARK    7  A    between atoms: N_11  and  C_12 
ROOT
ATOM      1  C   UNL d   1       9.511   6.373 -12.313  0.00  0.00     0.037 C 
ENDROOT
BRANCH   1   2
ATOM      2  C   UNL d   1       9.998   6.200 -10.877  0.00  0.00     0.029 C 
BRANCH   2   3
ATOM      3  C   UNL d   1       9.288   7.129  -9.910  0.00  0.00     0.129 C 
BRANCH   3   4
ATOM      4  N   UNL d   1      10.028   7.261  -8.670  0.00  0.00    -0.233 NA
ATOM      5  C   UNL d   1      10.724   8.347  -8.299  0.00  0.00     0.293 C 
ATOM      6  O   UNL d   1      10.953   9.297  -9.048  0.00  0.00    -0.264 OA
BRANCH   5   7
ATOM      7  C   UNL d   1      11.135   8.394  -6.881  0.00  0.00     0.139 A 
ATOM      8  N   UNL d   1      11.039   7.246  -6.107  0.00  0.00    -0.241 NA
ATOM      9  C   UNL d   1      11.462   7.492  -4.825  0.00  0.00     0.082 A 
ATOM     10  C   UNL d   1      11.819   8.864  -4.772  0.00  0.00     0.022 A 
ATOM     11  C   UNL d   1      11.575   6.644  -3.721  0.00  0.00     0.021 A 
ATOM     12  C   UNL d   1      11.611   9.413  -6.087  0.00  0.00     0.026 A 
ATOM     13  C   UNL d   1      12.277   9.342  -3.515  0.00  0.00     0.031 A 
ATOM     14  C   UNL d   1      12.402   8.485  -2.414  0.00  0.00     0.140 A 
ATOM     15  F   UNL d   1      12.886   8.957  -1.250  0.00  0.00    -0.204 F 
ATOM     16  C   UNL d   1      12.053   7.138  -2.499  0.00  0.00     0.031 A 
ENDBRANCH   5   7
ENDBRANCH   3   4
ENDBRANCH   2   3
ENDBRANCH   1   2
BRANCH   1  17
ATOM     17  C   UNL d   1      10.051   5.262 -13.244  0.00  0.00     0.251 C 
BRANCH  17  18
ATOM     18  N   UNL d   1       9.224   4.061 -13.299  0.00  0.00     0.141 N 
ATOM     19  C   UNL d   1       7.896   4.375 -13.842  0.00  0.00     0.274 C 
ATOM     20  C   UNL d   1       7.018   3.129 -13.899  0.00  0.00     0.137 C 
ATOM     21  N   UNL d   1       7.700   2.087 -14.652  0.00  0.00    -0.344 N 
ATOM     22  C   UNL d   1       9.065   1.779 -14.249  0.00  0.00     0.137 C 
ATOM     23  C   UNL d   1       9.884   3.074 -14.178  0.00  0.00     0.274 C 
BRANCH  21  24
ATOM     24  C   UNL d   1       7.070   1.384 -15.659  0.00  0.00     0.068 A 
ATOM     25  C   UNL d   1       5.977   0.504 -15.405  0.00  0.00     0.084 A 
ATOM     26  C   UNL d   1       5.357  -0.169 -16.472  0.00  0.00     0.070 A 
ATOM     27 CL   UNL d   1       5.407   0.275 -13.779  0.00  0.00    -0.080 Cl
ATOM     28  C   UNL d   1       5.800   0.022 -17.795  0.00  0.00     0.012 A 
ATOM     29 CL   UNL d   1       4.024  -1.225 -16.178  0.00  0.00    -0.081 Cl
ATOM     30  C   UNL d   1       6.875   0.894 -18.057  0.00  0.00     0.002 A 
ATOM     31  C   UNL d   1       7.501   1.569 -16.999  0.00  0.00     0.018 A 
ENDBRANCH  21  24
ENDBRANCH  17  18
ENDBRANCH   1  17
TORSDOF 7
