REMARK  8 active torsions:
REMARK  status: ('A' for Active; 'I' for Inactive)
REMARK    1  A    between atoms: O_2  and  C_3 
REMARK    2  A    between atoms: C_9  and  C_10 
REMARK       I    between atoms: C_10  and  N_12 
REMARK    3  A    between atoms: N_12  and  C_13 
REMARK    4  A    between atoms: C_13  and  C_14 
REMARK    5  A    between atoms: C_14  and  C_15 
REMARK    6  A    between atoms: C_15  and  C_16 
REMARK    7  A    between atoms: C_16  and  N_17 
REMARK    8  A    between atoms: N_20  and  C_21 
ROOT
ATOM      1  C   UNL d   1       7.798   1.962 -15.000  0.00  0.00     0.037 C 
ENDROOT
BRANCH   1   2
ATOM      2  C   UNL d   1       8.435   2.929 -14.001  0.00  0.00     0.029 C 
BRANCH   2   3
ATOM      3  C   UNL d   1       7.401   3.855 -13.324  0.00  0.00     0.129 C 
BRANCH   3   4
ATOM      4  N   UNL d   1       7.891   4.475 -12.095  0.00  0.00    -0.233 NA
ATOM      5  C   UNL d   1       9.044   5.138 -11.945  0.00  0.00     0.298 C 
ATOM      6  O   UNL d   1       9.868   5.280 -12.848  0.00  0.00    -0.263 OA
BRANCH   5   7
ATOM      7  C   UNL d   1       9.261   5.749 -10.623  0.00  0.00     0.157 A 
ATOM      8  C   UNL d   1       8.669   5.530  -9.396  0.00  0.00     0.032 A 
ATOM      9  C   UNL d   1       9.303   6.439  -8.485  0.00  0.00     0.027 A 
ATOM     10  C   UNL d   1       9.184   6.789  -7.121  0.00  0.00     0.002 A 
ATOM     11  C   UNL d   1      10.290   7.130  -9.232  0.00  0.00     0.122 A 
ATOM     12  C   UNL d   1      10.021   7.772  -6.549  0.00  0.00     0.002 A 
ATOM     13  C   UNL d   1      10.989   8.439  -7.331  0.00  0.00     0.026 A 
ATOM     14  C   UNL d   1      11.144   8.106  -8.686  0.00  0.00     0.117 A 
ATOM     15  O   UNL d   1      10.257   6.688 -10.529  0.00  0.00    -0.300 OA
BRANCH  14  16
ATOM     16  O   UNL d   1      12.076   8.778  -9.435  0.00  0.00    -0.326 OA
ATOM     17  C   UNL d   1      13.163   7.975  -9.883  0.00  0.00     0.181 C 
ENDBRANCH  14  16
ENDBRANCH   5   7
ENDBRANCH   3   4
ENDBRANCH   2   3
ENDBRANCH   1   2
BRANCH   1  18
ATOM     18  C   UNL d   1       8.765   0.824 -15.389  0.00  0.00     0.251 C 
BRANCH  18  19
ATOM     19  N   UNL d   1       9.735   1.219 -16.404  0.00  0.00     0.141 N 
ATOM     20  C   UNL d   1       9.091   1.363 -17.718  0.00  0.00     0.274 C 
ATOM     21  C   UNL d   1      10.119   1.777 -18.781  0.00  0.00     0.137 C 
ATOM     22  N   UNL d   1      11.203   0.814 -18.829  0.00  0.00    -0.343 N 
ATOM     23  C   UNL d   1      11.822   0.530 -17.543  0.00  0.00     0.137 C 
ATOM     24  C   UNL d   1      10.750   0.161 -16.501  0.00  0.00     0.274 C 
BRANCH  22  25
ATOM     25  C   UNL d   1      11.626   0.216 -20.036  0.00  0.00     0.075 A 
ATOM     26  C   UNL d   1      13.002   0.049 -20.359  0.00  0.00     0.114 A 
ATOM     27  C   UNL d   1      13.367  -0.600 -21.579  0.00  0.00     0.100 A 
ATOM     28  N   UNL d   1      13.980   0.508 -19.529  0.00  0.00    -0.239 NA
ATOM     29  C   UNL d   1      12.355  -1.034 -22.459  0.00  0.00     0.021 A 
ATOM     30  N   UNL d   1      14.668  -0.805 -21.907  0.00  0.00    -0.241 NA
ATOM     31  C   UNL d   1      10.999  -0.841 -22.153  0.00  0.00     0.003 A 
ATOM     32  C   UNL d   1      10.636  -0.226 -20.944  0.00  0.00     0.018 A 
ATOM     33  C   UNL d   1      15.614  -0.364 -21.052  0.00  0.00     0.120 A 
ATOM     34  C   UNL d   1      15.262   0.291 -19.864  0.00  0.00     0.120 A 
ENDBRANCH  22  25
ENDBRANCH  18  19
ENDBRANCH   1  18
TORSDOF 8
