REMARK  6 active torsions:
REMARK  status: ('A' for Active; 'I' for Inactive)
REMARK    1  A    between atoms: S_2  and  C_4 
REMARK    2  A    between atoms: S_2  and  N_14 
REMARK    3  A    between atoms: C_20  and  C_21 
REMARK    4  A    between atoms: C_21  and  C_22 
REMARK    5  A    between atoms: C_22  and  N_23 
REMARK    6  A    between atoms: N_26  and  C_27 
ROOT
ATOM      1  N   UNL d   1       8.697   2.604 -14.051  0.00  0.00    -0.276 N 
ATOM      2  C   UNL d   1       9.940   1.848 -14.197  0.00  0.00     0.113 C 
ATOM      3  C   UNL d   1      10.862   2.302 -15.343  0.00  0.00     0.025 C 
ATOM      4  C   UNL d   1      11.388   3.721 -15.192  0.00  0.00     0.002 C 
ATOM      5  C   UNL d   1      10.318   4.754 -15.554  0.00  0.00     0.002 C 
ATOM      6  C   UNL d   1       9.302   5.066 -14.441  0.00  0.00     0.023 C 
ATOM      7  C   UNL d   1       8.882   3.958 -13.433  0.00  0.00     0.094 C 
ENDROOT
BRANCH   7   8
ATOM      8  C   UNL d   1       7.677   4.426 -12.547  0.00  0.00     0.058 C 
BRANCH   8   9
ATOM      9  C   UNL d   1       7.843   5.830 -11.919  0.00  0.00     0.252 C 
BRANCH   9  10
ATOM     10  N   UNL d   1       9.014   5.927 -11.047  0.00  0.00     0.141 N 
ATOM     11  C   UNL d   1       8.593   5.797  -9.641  0.00  0.00     0.274 C 
ATOM     12  C   UNL d   1       9.791   5.883  -8.696  0.00  0.00     0.138 C 
ATOM     13  N   UNL d   1      10.551   7.117  -8.931  0.00  0.00    -0.329 N 
ATOM     14  C   UNL d   1      10.906   7.314 -10.324  0.00  0.00     0.138 C 
ATOM     15  C   UNL d   1       9.669   7.229 -11.235  0.00  0.00     0.274 C 
BRANCH  13  16
ATOM     16  C   UNL d   1      10.901   8.052  -7.936  0.00  0.00     0.148 A 
ATOM     17  C   UNL d   1      11.264   7.706  -6.596  0.00  0.00     0.042 A 
ATOM     18  C   UNL d   1      11.540   8.864  -5.791  0.00  0.00     0.050 A 
ATOM     19  C   UNL d   1      11.456   6.458  -5.982  0.00  0.00     0.004 A 
ATOM     20  S   UNL d   1      11.434  10.195  -6.839  0.00  0.00     0.015 SA
ATOM     21  C   UNL d   1      11.925   8.808  -4.441  0.00  0.00     0.008 A 
ATOM     22  N   UNL d   1      11.034   9.330  -8.230  0.00  0.00    -0.192 NA
ATOM     23  C   UNL d   1      12.111   7.542  -3.832  0.00  0.00     0.001 A 
ATOM     24  C   UNL d   1      11.870   6.400  -4.634  0.00  0.00     0.000 A 
ENDBRANCH  13  16
ENDBRANCH   9  10
ENDBRANCH   8   9
ENDBRANCH   7   8
BRANCH   1  25
ATOM     25  S   UNL d   1       7.497   2.337 -15.241  0.00  0.00     0.264 S 
ATOM     26  O   UNL d   1       8.153   2.372 -16.574  0.00  0.00    -0.200 OA
ATOM     27  O   UNL d   1       6.370   3.163 -14.800  0.00  0.00    -0.200 OA
BRANCH  25  28
ATOM     28  C   UNL d   1       6.844   0.712 -15.101  0.00  0.00     0.106 C 
ATOM     29  C   UNL d   1       6.204   0.060 -16.185  0.00  0.00     0.030 C 
ATOM     30  C   UNL d   1       5.632  -1.209 -15.902  0.00  0.00     0.082 C 
ATOM     31  C   UNL d   1       6.044   0.654 -17.475  0.00  0.00     0.002 C 
ATOM     32  N   UNL d   1       5.580  -1.720 -14.656  0.00  0.00    -0.244 NA
ATOM     33  C   UNL d   1       5.168  -1.971 -16.993  0.00  0.00     0.019 C 
ATOM     34  C   UNL d   1       6.202  -1.062 -13.655  0.00  0.00     0.100 C 
ATOM     35  C   UNL d   1       6.757   0.187 -13.817  0.00  0.00     0.034 C 
ATOM     36  C   UNL d   1       5.136  -1.440 -18.299  0.00  0.00     0.002 C 
ATOM     37  C   UNL d   1       5.523  -0.109 -18.532  0.00  0.00     0.000 C 
ENDBRANCH  25  28
ENDBRANCH   1  25
TORSDOF 6
