REMARK  7 active torsions:
REMARK  status: ('A' for Active; 'I' for Inactive)
REMARK    1  A    between atoms: C_6  and  C_7 
REMARK    2  A    between atoms: C_10  and  S_11 
REMARK    3  A    between atoms: S_11  and  C_12 
REMARK    4  A    between atoms: C_12  and  C_13 
REMARK    5  A    between atoms: C_13  and  C_14 
REMARK    6  A    between atoms: C_14  and  N_15 
REMARK    7  A    between atoms: C_20  and  C_21 
ROOT
ATOM      1  C   UNL d   1       8.541  -0.056 -18.265  0.00  0.00     0.047 C 
ENDROOT
BRANCH   1   2
ATOM      2  C   UNL d   1       9.022  -0.260 -19.710  0.00  0.00     0.067 C 
BRANCH   2   3
ATOM      3  S   UNL d   1      10.771   0.155 -19.897  0.00  0.00    -0.075 SA
BRANCH   3   4
ATOM      4  C   UNL d   1      10.668   1.891 -19.594  0.00  0.00     0.193 A 
ATOM      5  N   UNL d   1       9.610   2.657 -19.863  0.00  0.00    -0.122 NA
ATOM      6  N   UNL d   1       9.929   3.906 -19.392  0.00  0.00    -0.126 NA
ATOM      7  C   UNL d   1      11.158   3.815 -18.866  0.00  0.00     0.191 A 
ATOM      8  N   UNL d   1      11.677   2.562 -18.989  0.00  0.00    -0.287 N 
ATOM      9  C   UNL d   1      12.952   2.030 -18.497  0.00  0.00     0.134 C 
BRANCH   7  10
ATOM     10  C   UNL d   1      11.800   4.989 -18.275  0.00  0.00     0.151 A 
ATOM     11  C   UNL d   1      12.660   5.203 -17.201  0.00  0.00     0.087 A 
ATOM     12  C   UNL d   1      13.277   4.253 -16.227  0.00  0.00     0.054 C 
ATOM     13  N   UNL d   1      12.947   6.560 -17.140  0.00  0.00    -0.221 NA
ATOM     14  C   UNL d   1      12.271   7.102 -18.144  0.00  0.00     0.225 A 
ATOM     15  O   UNL d   1      11.560   6.200 -18.870  0.00  0.00    -0.282 OA
ENDBRANCH   7  10
ENDBRANCH   3   4
ENDBRANCH   2   3
ENDBRANCH   1   2
BRANCH   1  16
ATOM     16  C   UNL d   1       7.007  -0.042 -18.148  0.00  0.00     0.251 C 
BRANCH  16  17
ATOM     17  N   UNL d   1       6.555  -0.097 -16.759  0.00  0.00     0.137 N 
ATOM     18  C   UNL d   1       6.976   1.091 -16.010  0.00  0.00     0.254 C 
ATOM     19  C   UNL d   1       6.477   1.091 -14.568  0.00  0.00     0.051 A 
ATOM     20  C   UNL d   1       5.270   0.240 -14.213  0.00  0.00     0.008 A 
ATOM     21  C   UNL d   1       6.646  -0.148 -13.718  0.00  0.00     0.006 A 
ATOM     22  C   UNL d   1       4.593  -0.546 -15.315  0.00  0.00     0.036 C 
ATOM     23  C   UNL d   1       5.096  -0.180 -16.725  0.00  0.00     0.250 C 
BRANCH  19  24
ATOM     24  C   UNL d   1       6.692   2.452 -13.943  0.00  0.00    -0.021 A 
ATOM     25  C   UNL d   1       7.943   3.101 -14.046  0.00  0.00    -0.004 A 
ATOM     26  C   UNL d   1       8.155   4.363 -13.444  0.00  0.00    -0.000 A 
ATOM     27  C   UNL d   1       7.119   4.975 -12.717  0.00  0.00    -0.000 A 
ATOM     28  C   UNL d   1       5.878   4.335 -12.594  0.00  0.00    -0.000 A 
ATOM     29  C   UNL d   1       5.665   3.086 -13.206  0.00  0.00    -0.004 A 
ENDBRANCH  19  24
ENDBRANCH  16  17
ENDBRANCH   1  16
TORSDOF 7
