REMARK  7 active torsions:
REMARK  status: ('A' for Active; 'I' for Inactive)
REMARK    1  A    between atoms: O_2  and  C_3 
REMARK    2  A    between atoms: C_8  and  N_9 
REMARK    3  A    between atoms: N_12  and  C_13 
REMARK    4  A    between atoms: C_13  and  C_14 
REMARK    5  A    between atoms: C_14  and  C_15 
REMARK    6  A    between atoms: C_15  and  N_16 
REMARK    7  A    between atoms: N_19  and  C_20 
ROOT
ATOM      1  C   UNL d   1       7.182   0.467 -15.446  0.00  0.00     0.150 A 
ATOM      2  N   UNL d   1       6.596  -0.080 -14.359  0.00  0.00    -0.227 NA
ATOM      3  C   UNL d   1       5.435  -0.758 -14.515  0.00  0.00     0.101 A 
ATOM      4  C   UNL d   1       4.772  -0.879 -15.744  0.00  0.00     0.021 A 
ATOM      5  C   UNL d   1       5.339  -0.276 -16.869  0.00  0.00     0.015 A 
ATOM      6  C   UNL d   1       6.574   0.408 -16.736  0.00  0.00     0.102 A 
ATOM      7  C   UNL d   1       7.082   1.053 -17.932  0.00  0.00     0.104 C 
ATOM      8  N   UNL d   1       7.479   1.575 -18.890  0.00  0.00    -0.191 NA
ENDROOT
BRANCH   1   9
ATOM      9  N   UNL d   1       8.428   1.062 -15.214  0.00  0.00    -0.329 N 
ATOM     10  C   UNL d   1       9.621   0.711 -15.966  0.00  0.00     0.138 C 
ATOM     11  C   UNL d   1      10.217   1.978 -16.599  0.00  0.00     0.274 C 
ATOM     12  N   UNL d   1      10.545   2.955 -15.553  0.00  0.00     0.141 N 
ATOM     13  C   UNL d   1       9.301   3.341 -14.869  0.00  0.00     0.274 C 
ATOM     14  C   UNL d   1       8.623   2.109 -14.221  0.00  0.00     0.138 C 
BRANCH  12  15
ATOM     15  C   UNL d   1      11.119   4.132 -16.207  0.00  0.00     0.253 C 
BRANCH  15  16
ATOM     16  C   UNL d   1      12.587   3.872 -16.602  0.00  0.00     0.071 C 
BRANCH  16  17
ATOM     17  C   UNL d   1      12.927   4.704 -17.843  0.00  0.00     0.253 C 
BRANCH  17  18
ATOM     18  N   UNL d   1      14.292   4.437 -18.289  0.00  0.00     0.141 N 
ATOM     19  C   UNL d   1      14.519   4.855 -19.675  0.00  0.00     0.274 C 
ATOM     20  C   UNL d   1      14.393   6.392 -19.804  0.00  0.00     0.137 C 
ATOM     21  N   UNL d   1      15.291   7.052 -18.848  0.00  0.00    -0.343 N 
ATOM     22  C   UNL d   1      15.221   6.596 -17.462  0.00  0.00     0.137 C 
ATOM     23  C   UNL d   1      15.321   5.066 -17.450  0.00  0.00     0.274 C 
BRANCH  21  24
ATOM     24  C   UNL d   1      16.219   8.003 -19.276  0.00  0.00     0.079 A 
ATOM     25  C   UNL d   1      17.564   8.005 -18.808  0.00  0.00     0.110 A 
ATOM     26  C   UNL d   1      18.430   9.056 -19.232  0.00  0.00     0.026 A 
ATOM     27  C   UNL d   1      17.981  10.017 -20.152  0.00  0.00     0.002 A 
ATOM     28  C   UNL d   1      16.665   9.988 -20.639  0.00  0.00     0.002 A 
ATOM     29  C   UNL d   1      15.785   8.985 -20.188  0.00  0.00     0.019 A 
BRANCH  25  30
ATOM     30  O   UNL d   1      17.997   6.983 -17.991  0.00  0.00    -0.327 OA
ATOM     31  C   UNL d   1      19.212   7.160 -17.273  0.00  0.00     0.181 C 
ENDBRANCH  25  30
ENDBRANCH  21  24
ENDBRANCH  17  18
ENDBRANCH  16  17
ENDBRANCH  15  16
ENDBRANCH  12  15
ENDBRANCH   1   9
TORSDOF 7
