REMARK  5 active torsions:
REMARK  status: ('A' for Active; 'I' for Inactive)
REMARK    1  A    between atoms: N_5  and  C_6 
REMARK    2  A    between atoms: C_6  and  C_7 
REMARK    3  A    between atoms: C_7  and  C_8 
REMARK    4  A    between atoms: N_13  and  S_14 
REMARK    5  A    between atoms: S_14  and  C_17 
ROOT
ATOM      1  C   UNL d   1       8.938   4.337 -11.768  0.00  0.00     0.094 C 
ATOM      2  C   UNL d   1       7.487   4.146 -11.202  0.00  0.00     0.023 C 
ATOM      3  C   UNL d   1       6.536   5.242 -11.603  0.00  0.00     0.004 C 
ATOM      4  C   UNL d   1       6.469   5.253 -13.097  0.00  0.00     0.025 C 
ATOM      5  C   UNL d   1       7.870   5.524 -13.691  0.00  0.00     0.113 C 
ATOM      6  N   UNL d   1       8.881   4.549 -13.237  0.00  0.00    -0.276 N 
ENDROOT
BRANCH   6   7
ATOM      7  S   UNL d   1       9.635   3.419 -14.393  0.00  0.00     0.264 S 
ATOM      8  O   UNL d   1      10.540   2.507 -13.707  0.00  0.00    -0.200 OA
ATOM      9  O   UNL d   1       8.518   2.913 -15.222  0.00  0.00    -0.200 OA
BRANCH   7  10
ATOM     10  C   UNL d   1      10.732   4.401 -15.396  0.00  0.00     0.103 A 
ATOM     11  C   UNL d   1      11.350   3.897 -16.557  0.00  0.00     0.012 A 
ATOM     12  C   UNL d   1      12.232   4.730 -17.287  0.00  0.00     0.001 A 
ATOM     13  C   UNL d   1      11.114   2.580 -16.979  0.00  0.00     0.001 A 
ATOM     14  C   UNL d   1      12.530   6.044 -16.839  0.00  0.00     0.000 A 
ATOM     15  C   UNL d   1      12.824   4.272 -18.473  0.00  0.00     0.000 A 
ATOM     16  C   UNL d   1      11.964   6.489 -15.646  0.00  0.00     0.001 A 
ATOM     17  C   UNL d   1      11.100   5.666 -14.909  0.00  0.00     0.013 A 
ATOM     18  C   UNL d   1      12.545   2.962 -18.920  0.00  0.00     0.000 A 
ATOM     19  C   UNL d   1      11.703   2.120 -18.172  0.00  0.00     0.000 A 
ENDBRANCH   7  10
ENDBRANCH   6   7
BRANCH   1  20
ATOM     20  C   UNL d   1       9.620   5.543 -11.128  0.00  0.00     0.058 C 
BRANCH  20  21
ATOM     21  C   UNL d   1       9.856   5.373  -9.596  0.00  0.00     0.252 C 
BRANCH  21  22
ATOM     22  N   UNL d   1      10.423   6.577  -8.975  0.00  0.00     0.137 N 
ATOM     23  C   UNL d   1      10.779   6.274  -7.594  0.00  0.00     0.250 C 
ATOM     24  C   UNL d   1      11.431   7.503  -6.933  0.00  0.00     0.035 C 
ATOM     25  C   UNL d   1      10.468   8.689  -6.934  0.00  0.00     0.004 C 
ATOM     26  C   UNL d   1      11.137   9.950  -6.366  0.00  0.00     0.000 C 
ATOM     27  C   UNL d   1       9.979   8.898  -8.362  0.00  0.00     0.035 C 
ATOM     28  C   UNL d   1       9.409   7.619  -8.955  0.00  0.00     0.250 C 
ENDBRANCH  21  22
ENDBRANCH  20  21
ENDBRANCH   1  20
TORSDOF 5
