REMARK  7 active torsions:
REMARK  status: ('A' for Active; 'I' for Inactive)
REMARK    1  A    between atoms: S_2  and  N_4 
REMARK    2  A    between atoms: S_2  and  C_22 
REMARK    3  A    between atoms: N_4  and  C_5 
REMARK    4  A    between atoms: N_8  and  C_9 
REMARK    5  A    between atoms: C_9  and  C_10 
REMARK    6  A    between atoms: C_10  and  C_11 
REMARK    7  A    between atoms: C_11  and  C_12 
ROOT
ATOM      1  C   UNL d   1       8.246   4.768 -11.955  0.00  0.00     0.151 C 
ATOM      2  C   UNL d   1       8.164   6.109 -12.739  0.00  0.00     0.063 C 
ATOM      3  C   UNL d   1       8.937   7.103 -11.891  0.00  0.00     0.252 C 
ATOM      4  N   UNL d   1       9.790   6.242 -11.088  0.00  0.00     0.139 N 
ATOM      5  C   UNL d   1       9.002   5.074 -10.700  0.00  0.00     0.275 C 
ENDROOT
BRANCH   1   6
ATOM      6  N   UNL d   1       6.906   4.260 -11.691  0.00  0.00    -0.184 NA
BRANCH   6   7
ATOM      7  S   UNL d   1       5.916   3.600 -12.909  0.00  0.00     0.287 S 
ATOM      8  O   UNL d   1       5.105   2.546 -12.292  0.00  0.00    -0.198 OA
ATOM      9  O   UNL d   1       5.290   4.733 -13.586  0.00  0.00    -0.198 OA
BRANCH   7  10
ATOM     10  C   UNL d   1       7.016   2.765 -14.057  0.00  0.00     0.134 A 
ATOM     11  S   UNL d   1       6.662   1.139 -14.615  0.00  0.00    -0.074 SA
ATOM     12  C   UNL d   1       8.179   1.103 -15.519  0.00  0.00     0.032 A 
ATOM     13  C   UNL d   1       8.923   2.307 -15.307  0.00  0.00     0.007 A 
ATOM     14  C   UNL d   1       8.673   0.096 -16.342  0.00  0.00     0.036 A 
ATOM     15  C   UNL d   1       8.226   3.253 -14.516  0.00  0.00     0.020 A 
ATOM     16  C   UNL d   1      10.206   2.409 -15.901  0.00  0.00     0.003 A 
ATOM     17  C   UNL d   1      10.712   1.397 -16.722  0.00  0.00     0.030 A 
ATOM     18  C   UNL d   1       9.934   0.239 -16.960  0.00  0.00     0.141 A 
ATOM     19  F   UNL d   1      10.392  -0.729 -17.769  0.00  0.00    -0.204 F 
ENDBRANCH   7  10
ENDBRANCH   6   7
ENDBRANCH   1   6
BRANCH   4  20
ATOM     20  C   UNL d   1      10.411   6.946  -9.984  0.00  0.00     0.251 C 
BRANCH  20  21
ATOM     21  C   UNL d   1       9.451   7.132  -8.779  0.00  0.00     0.042 C 
BRANCH  21  22
ATOM     22  C   UNL d   1      10.110   6.673  -7.464  0.00  0.00     0.050 C 
BRANCH  22  23
ATOM     23  C   UNL d   1      10.497   7.829  -6.583  0.00  0.00     0.088 A 
ATOM     24  C   UNL d   1      11.065   7.843  -5.299  0.00  0.00     0.041 A 
ATOM     25  C   UNL d   1      11.233   9.168  -4.896  0.00  0.00     0.126 A 
ATOM     26  C   UNL d   1      11.481   6.791  -4.459  0.00  0.00     0.003 A 
ATOM     27  O   UNL d   1      10.745   9.941  -5.927  0.00  0.00    -0.211 OA
ATOM     28  C   UNL d   1      11.779   9.515  -3.662  0.00  0.00     0.027 A 
ATOM     29  N   UNL d   1      10.306   9.091  -6.968  0.00  0.00    -0.131 NA
ATOM     30  C   UNL d   1      12.204   8.475  -2.821  0.00  0.00     0.002 A 
ATOM     31  C   UNL d   1      12.058   7.123  -3.213  0.00  0.00     0.000 A 
ENDBRANCH  22  23
ENDBRANCH  21  22
ENDBRANCH  20  21
ENDBRANCH   4  20
TORSDOF 7
