REMARK  4 active torsions:
REMARK  status: ('A' for Active; 'I' for Inactive)
REMARK    1  A    between atoms: C_2  and  C_3 
REMARK    2  A    between atoms: C_3  and  N_4 
REMARK    3  A    between atoms: C_7  and  C_8 
REMARK    4  A    between atoms: C_12  and  O_13 
ROOT
ATOM      1  N   UNL d   1       8.831   5.974  -9.867  0.00  0.00     0.137 N 
ATOM      2  C   UNL d   1       9.465   7.220 -10.263  0.00  0.00     0.251 C 
ATOM      3  C   UNL d   1       9.847   8.040  -9.026  0.00  0.00     0.040 C 
ATOM      4  C   UNL d   1      10.790   7.276  -8.070  0.00  0.00     0.026 C 
ATOM      5  C   UNL d   1      10.181   5.890  -7.816  0.00  0.00     0.040 C 
ATOM      6  C   UNL d   1       9.762   5.168  -9.096  0.00  0.00     0.251 C 
ENDROOT
BRANCH   4   7
ATOM      7  C   UNL d   1      11.069   8.026  -6.750  0.00  0.00    -0.020 A 
ATOM      8  C   UNL d   1      11.427   7.369  -5.546  0.00  0.00     0.020 A 
ATOM      9  C   UNL d   1      11.703   8.101  -4.373  0.00  0.00     0.094 A 
ATOM     10  C   UNL d   1      11.551   9.518  -4.385  0.00  0.00     0.024 A 
ATOM     11  C   UNL d   1      11.185  10.150  -5.580  0.00  0.00     0.002 A 
ATOM     12  C   UNL d   1      10.964   9.430  -6.750  0.00  0.00    -0.004 A 
BRANCH   9  13
ATOM     13  O   UNL d   1      12.090   7.394  -3.251  0.00  0.00    -0.328 OA
ATOM     14  C   UNL d   1      12.398   8.166  -2.098  0.00  0.00     0.181 C 
ENDBRANCH   9  13
ENDBRANCH   4   7
BRANCH   1  15
ATOM     15  C   UNL d   1       8.393   5.233 -11.052  0.00  0.00     0.250 C 
BRANCH  15  16
ATOM     16  C   UNL d   1       7.140   5.861 -11.676  0.00  0.00     0.035 C 
ATOM     17  C   UNL d   1       6.577   5.000 -12.808  0.00  0.00     0.002 C 
ENDBRANCH  15  16
ENDBRANCH   1  15
TORSDOF 4
