REMARK  6 active torsions:
REMARK  status: ('A' for Active; 'I' for Inactive)
REMARK    1  A    between atoms: C_5  and  N_6 
REMARK    2  A    between atoms: N_9  and  C_10 
REMARK    3  A    between atoms: C_10  and  C_11 
REMARK    4  A    between atoms: C_11  and  C_12 
REMARK    5  A    between atoms: C_15  and  N_16 
REMARK       I    between atoms: N_16  and  C_17 
REMARK    6  A    between atoms: C_25  and  C_26 
ROOT
ATOM      1  N   UNL d   1       4.218  -0.531 -14.040  0.00  0.00    -0.191 NA
ATOM      2  C   UNL d   1       5.200   0.064 -14.206  0.00  0.00     0.101 C 
ATOM      3  C   UNL d   1       6.422   0.819 -14.401  0.00  0.00     0.070 A 
ATOM      4  C   UNL d   1       6.476   2.185 -14.042  0.00  0.00     0.027 A 
ATOM      5  C   UNL d   1       7.671   2.927 -14.210  0.00  0.00     0.057 A 
ATOM      6  C   UNL d   1       8.801   2.282 -14.776  0.00  0.00     0.021 A 
ATOM      7  C   UNL d   1       8.736   0.935 -15.192  0.00  0.00     0.074 A 
ATOM      8  C   UNL d   1       7.548   0.222 -14.974  0.00  0.00     0.014 A 
ENDROOT
BRANCH   7   9
ATOM      9  C   UNL d   1       9.964   0.313 -15.824  0.00  0.00     0.419 C 
ATOM     10  F   UNL d   1       9.707  -0.801 -16.504  0.00  0.00    -0.166 F 
ATOM     11  F   UNL d   1      10.559   1.176 -16.643  0.00  0.00    -0.166 F 
ATOM     12  F   UNL d   1      10.792   0.034 -14.828  0.00  0.00    -0.166 F 
ENDBRANCH   7   9
BRANCH   5  13
ATOM     13  N   UNL d   1       7.720   4.280 -13.845  0.00  0.00    -0.344 N 
ATOM     14  C   UNL d   1       6.756   4.890 -12.912  0.00  0.00     0.137 C 
ATOM     15  C   UNL d   1       7.523   5.607 -11.798  0.00  0.00     0.274 C 
ATOM     16  N   UNL d   1       8.527   6.556 -12.317  0.00  0.00     0.141 N 
ATOM     17  C   UNL d   1       9.488   5.862 -13.178  0.00  0.00     0.274 C 
ATOM     18  C   UNL d   1       8.748   5.201 -14.347  0.00  0.00     0.137 C 
BRANCH  16  19
ATOM     19  C   UNL d   1       9.238   7.271 -11.241  0.00  0.00     0.250 C 
BRANCH  19  20
ATOM     20  C   UNL d   1       9.441   6.428  -9.962  0.00  0.00     0.035 C 
BRANCH  20  21
ATOM     21  C   UNL d   1      10.287   7.080  -8.879  0.00  0.00     0.002 C 
ATOM     22  C   UNL d   1      10.364   6.109  -7.695  0.00  0.00     0.002 C 
ATOM     23  C   UNL d   1      11.234   6.675  -6.587  0.00  0.00     0.025 C 
ATOM     24  C   UNL d   1      10.698   8.041  -6.093  0.00  0.00     0.108 C 
ATOM     25  C   UNL d   1      10.574   9.011  -7.284  0.00  0.00     0.025 C 
ATOM     26  C   UNL d   1       9.709   8.422  -8.405  0.00  0.00     0.002 C 
BRANCH  24  27
ATOM     27  N   UNL d   1      11.562   8.631  -5.078  0.00  0.00    -0.218 NA
ATOM     28  C   UNL d   1      11.867   8.109  -3.886  0.00  0.00     0.382 C 
ATOM     29  N   UNL d   1      12.625   8.901  -3.147  0.00  0.00    -0.084 N 
ATOM     30  O   UNL d   1      11.494   7.011  -3.478  0.00  0.00    -0.241 OA
ENDBRANCH  24  27
ENDBRANCH  20  21
ENDBRANCH  19  20
ENDBRANCH  16  19
ENDBRANCH   5  13
TORSDOF 6
