REMARK  8 active torsions:
REMARK  status: ('A' for Active; 'I' for Inactive)
REMARK    1  A    between atoms: C_2  and  C_4 
REMARK    2  A    between atoms: C_4  and  N_5 
REMARK    3  A    between atoms: N_8  and  C_9 
REMARK    4  A    between atoms: C_9  and  C_10 
REMARK    5  A    between atoms: C_10  and  S_11 
REMARK    6  A    between atoms: S_11  and  C_13 
REMARK    7  A    between atoms: C_13  and  C_14 
REMARK    8  A    between atoms: C_13  and  C_21 
ROOT
ATOM      1  C   UNL d   1       9.073   3.717 -14.663  0.00  0.00     0.124 C 
ENDROOT
BRANCH   1   2
ATOM      2  S   UNL d   1      10.230   4.010 -13.238  0.00  0.00     0.051 S 
ATOM      3  O   UNL d   1      11.435   4.787 -13.775  0.00  0.00    -0.256 OA
BRANCH   2   4
ATOM      4  C   UNL d   1       9.293   5.285 -12.264  0.00  0.00     0.128 C 
BRANCH   4   5
ATOM      5  C   UNL d   1       9.319   4.872 -10.780  0.00  0.00     0.265 C 
BRANCH   5   6
ATOM      6  N   UNL d   1       9.113   5.953  -9.813  0.00  0.00     0.142 N 
ATOM      7  C   UNL d   1       9.034   5.434  -8.442  0.00  0.00     0.285 C 
ATOM      8  C   UNL d   1       8.835   6.562  -7.406  0.00  0.00     0.286 C 
ATOM      9  N   UNL d   1       9.906   7.561  -7.476  0.00  0.00     0.144 N 
ATOM     10  C   UNL d   1       9.968   8.079  -8.839  0.00  0.00     0.286 C 
ATOM     11  C   UNL d   1      10.182   6.955  -9.862  0.00  0.00     0.285 C 
BRANCH   9  12
ATOM     12  C   UNL d   1       9.700   8.623  -6.494  0.00  0.00     0.283 C 
BRANCH  12  13
ATOM     13  C   UNL d   1      10.866   9.625  -6.339  0.00  0.00     0.186 C 
ATOM     14  C   UNL d   1      12.232   8.956  -6.217  0.00  0.00     0.038 C 
ATOM     15  O   UNL d   1      10.677  10.390  -5.165  0.00  0.00    -0.221 OA
ENDBRANCH  12  13
ENDBRANCH   9  12
ENDBRANCH   5   6
ENDBRANCH   4   5
ENDBRANCH   2   4
ENDBRANCH   1   2
BRANCH   1  16
ATOM     16  C   UNL d   1       7.965   2.713 -14.299  0.00  0.00    -0.006 A 
ATOM     17  C   UNL d   1       6.773   3.177 -13.686  0.00  0.00    -0.001 A 
ATOM     18  C   UNL d   1       5.738   2.286 -13.324  0.00  0.00     0.029 A 
ATOM     19  C   UNL d   1       5.864   0.910 -13.597  0.00  0.00     0.140 A 
ATOM     20  C   UNL d   1       7.042   0.429 -14.210  0.00  0.00     0.029 A 
ATOM     21  F   UNL d   1       4.854   0.064 -13.281  0.00  0.00    -0.204 F 
ATOM     22  C   UNL d   1       8.093   1.317 -14.557  0.00  0.00    -0.001 A 
ENDBRANCH   1  16
BRANCH   1  23
ATOM     23  C   UNL d   1       9.896   3.329 -15.890  0.00  0.00    -0.006 A 
ATOM     24  C   UNL d   1       9.878   4.144 -17.050  0.00  0.00    -0.001 A 
ATOM     25  C   UNL d   1      10.583   3.763 -18.207  0.00  0.00     0.029 A 
ATOM     26  C   UNL d   1      11.310   2.553 -18.224  0.00  0.00     0.140 A 
ATOM     27  C   UNL d   1      11.347   1.748 -17.063  0.00  0.00     0.029 A 
ATOM     28  F   UNL d   1      11.959   2.167 -19.347  0.00  0.00    -0.204 F 
ATOM     29  C   UNL d   1      10.683   2.156 -15.898  0.00  0.00    -0.001 A 
ENDBRANCH   1  23
TORSDOF 8
