REMARK  9 active torsions:
REMARK  status: ('A' for Active; 'I' for Inactive)
REMARK       I    between atoms: C_2  and  N_3 
REMARK    1  A    between atoms: C_2  and  C_7 
REMARK    2  A    between atoms: N_3  and  C_4 
REMARK    3  A    between atoms: C_9  and  O_10 
REMARK    4  A    between atoms: O_10  and  C_11 
REMARK    5  A    between atoms: C_11  and  C_12 
REMARK    6  A    between atoms: C_12  and  C_13 
REMARK    7  A    between atoms: C_13  and  C_14 
REMARK    8  A    between atoms: C_14  and  N_15 
REMARK    9  A    between atoms: C_18  and  C_19 
ROOT
ATOM      1  C   UNL d   1       9.200   6.105 -11.492  0.00  0.00     0.250 C 
ENDROOT
BRANCH   1   2
ATOM      2  C   UNL d   1       7.686   5.920 -11.729  0.00  0.00     0.038 C 
BRANCH   2   3
ATOM      3  C   UNL d   1       7.360   5.199 -13.040  0.00  0.00     0.035 C 
BRANCH   3   4
ATOM      4  C   UNL d   1       7.646   3.702 -12.929  0.00  0.00     0.149 C 
BRANCH   4   5
ATOM      5  O   UNL d   1       7.557   3.110 -14.221  0.00  0.00    -0.331 OA
BRANCH   5   6
ATOM      6  C   UNL d   1       6.776   1.999 -14.440  0.00  0.00     0.097 A 
ATOM      7  C   UNL d   1       6.906   1.348 -15.686  0.00  0.00     0.048 A 
ATOM      8  C   UNL d   1       6.104   0.221 -15.977  0.00  0.00     0.141 A 
ATOM      9  N   UNL d   1       5.206  -0.268 -15.088  0.00  0.00    -0.239 NA
ATOM     10  C   UNL d   1       5.085   0.351 -13.900  0.00  0.00     0.101 A 
ATOM     11  C   UNL d   1       5.835   1.482 -13.528  0.00  0.00     0.045 A 
BRANCH   8  12
ATOM     12  C   UNL d   1       6.226  -0.470 -17.310  0.00  0.00     0.293 C 
ATOM     13  O   UNL d   1       7.184  -0.256 -18.057  0.00  0.00    -0.264 OA
ATOM     14  N   UNL d   1       5.205  -1.278 -17.625  0.00  0.00    -0.235 NA
BRANCH  14  15
ATOM     15  C   UNL d   1       5.091  -2.025 -18.831  0.00  0.00     0.107 A 
ATOM     16  C   UNL d   1       4.025  -3.096 -18.903  0.00  0.00     0.026 A 
ATOM     17  C   UNL d   1       3.856  -1.813 -19.671  0.00  0.00     0.026 A 
ENDBRANCH  14  15
ENDBRANCH   8  12
ENDBRANCH   5   6
ENDBRANCH   4   5
ENDBRANCH   3   4
ENDBRANCH   2   3
ENDBRANCH   1   2
BRANCH   1  18
ATOM     18  N   UNL d   1       9.461   6.891 -10.282  0.00  0.00     0.137 N 
ATOM     19  C   UNL d   1       9.215   6.086  -9.086  0.00  0.00     0.251 C 
ATOM     20  C   UNL d   1       9.407   6.928  -7.818  0.00  0.00     0.041 C 
ATOM     21  C   UNL d   1      10.820   7.509  -7.752  0.00  0.00     0.047 C 
ATOM     22  C   UNL d   1      11.132   8.255  -9.056  0.00  0.00     0.041 C 
ATOM     23  C   UNL d   1      10.837   7.387 -10.281  0.00  0.00     0.251 C 
BRANCH  21  24
ATOM     24  C   UNL d   1      11.005   8.399  -6.537  0.00  0.00     0.087 A 
ATOM     25  C   UNL d   1      11.456   8.102  -5.237  0.00  0.00     0.041 A 
ATOM     26  C   UNL d   1      11.449   9.273  -4.472  0.00  0.00     0.129 A 
ATOM     27  C   UNL d   1      11.860   6.890  -4.640  0.00  0.00     0.006 A 
ATOM     28  O   UNL d   1      10.951  10.252  -5.305  0.00  0.00    -0.211 OA
ATOM     29  C   UNL d   1      11.843   9.312  -3.129  0.00  0.00     0.057 A 
ATOM     30  N   UNL d   1      10.660   9.682  -6.576  0.00  0.00    -0.131 NA
ATOM     31  C   UNL d   1      12.262   8.102  -2.537  0.00  0.00     0.142 A 
ATOM     32  F   UNL d   1      12.669   8.099  -1.244  0.00  0.00    -0.204 F 
ATOM     33  C   UNL d   1      12.261   6.899  -3.282  0.00  0.00     0.030 A 
ENDBRANCH  21  24
ENDBRANCH   1  18
TORSDOF 9
