REMARK  11 active torsions:
REMARK  status: ('A' for Active; 'I' for Inactive)
REMARK    1  A    between atoms: C_2  and  N_3 
REMARK    2  A    between atoms: N_3  and  C_4 
REMARK    3  A    between atoms: N_3  and  C_20 
REMARK    4  A    between atoms: C_4  and  C_5 
REMARK    5  A    between atoms: C_5  and  C_6 
REMARK    6  A    between atoms: C_6  and  S_7 
REMARK    7  A    between atoms: S_7  and  C_8 
REMARK    8  A    between atoms: C_11  and  C_12 
REMARK    9  A    between atoms: C_20  and  C_21 
REMARK   10  A    between atoms: C_23  and  C_24 
REMARK   11  A    between atoms: C_30  and  O_31 
ROOT
ATOM      1  N   UNL d   1      10.822   3.573 -14.694  0.00  0.00     0.137 N 
ENDROOT
BRANCH   1   2
ATOM      2  C   UNL d   1      11.707   3.972 -15.795  0.00  0.00     0.250 C 
ATOM      3  C   UNL d   1      12.855   4.862 -15.310  0.00  0.00     0.037 C 
ENDBRANCH   1   2
BRANCH   1   4
ATOM      4  C   UNL d   1       9.970   4.677 -14.267  0.00  0.00     0.251 C 
BRANCH   4   5
ATOM      5  C   UNL d   1       9.441   4.433 -12.851  0.00  0.00     0.047 C 
BRANCH   5   6
ATOM      6  C   UNL d   1       8.752   5.662 -12.266  0.00  0.00     0.067 C 
BRANCH   6   7
ATOM      7  S   UNL d   1       8.348   5.339 -10.523  0.00  0.00    -0.075 SA
BRANCH   7   8
ATOM      8  C   UNL d   1       9.495   6.391  -9.688  0.00  0.00     0.193 A 
ATOM      9  N   UNL d   1       9.481   6.582  -8.352  0.00  0.00    -0.289 N 
ATOM     10  C   UNL d   1      10.509   7.451  -8.189  0.00  0.00     0.167 A 
ATOM     11  C   UNL d   1       8.563   6.051  -7.365  0.00  0.00     0.134 C 
ATOM     12  N   UNL d   1      11.114   7.771  -9.329  0.00  0.00    -0.128 NA
ATOM     13  N   UNL d   1      10.438   7.067 -10.326  0.00  0.00    -0.122 NA
BRANCH  10  14
ATOM     14  C   UNL d   1      10.953   8.028  -6.934  0.00  0.00     0.036 A 
ATOM     15  C   UNL d   1      11.256   9.402  -6.880  0.00  0.00     0.003 A 
ATOM     16  C   UNL d   1      11.684   9.995  -5.676  0.00  0.00     0.000 A 
ATOM     17  C   UNL d   1      11.805   9.207  -4.511  0.00  0.00     0.000 A 
ATOM     18  C   UNL d   1      11.516   7.827  -4.563  0.00  0.00     0.000 A 
ATOM     19  C   UNL d   1      11.116   7.235  -5.783  0.00  0.00     0.003 A 
ENDBRANCH  10  14
ENDBRANCH   7   8
ENDBRANCH   6   7
ENDBRANCH   5   6
ENDBRANCH   4   5
ENDBRANCH   1   4
BRANCH   1  20
ATOM     20  C   UNL d   1       9.962   2.465 -15.114  0.00  0.00     0.251 C 
BRANCH  20  21
ATOM     21  C   UNL d   1      10.718   1.174 -15.359  0.00  0.00     0.038 A 
ATOM     22  C   UNL d   1      10.036   0.062 -16.128  0.00  0.00     0.026 A 
ATOM     23  C   UNL d   1      11.195   0.812 -16.746  0.00  0.00     0.007 A 
BRANCH  22  24
ATOM     24  C   UNL d   1       8.635   0.277 -16.654  0.00  0.00     0.001 A 
ATOM     25  C   UNL d   1       7.537   0.241 -15.765  0.00  0.00     0.090 A 
ATOM     26  C   UNL d   1       6.237   0.489 -16.279  0.00  0.00     0.025 A 
ATOM     27  C   UNL d   1       6.052   0.776 -17.641  0.00  0.00     0.013 A 
ATOM     28  C   UNL d   1       7.150   0.796 -18.514  0.00  0.00     0.058 A 
ATOM     29  C   UNL d   1       8.441   0.539 -18.017  0.00  0.00     0.009 A 
ATOM     30 CL   UNL d   1       6.932   1.188 -20.180  0.00  0.00    -0.082 Cl
BRANCH  25  31
ATOM     31  O   UNL d   1       7.790  -0.006 -14.431  0.00  0.00    -0.328 OA
ATOM     32  C   UNL d   1       6.688  -0.230 -13.564  0.00  0.00     0.181 C 
ENDBRANCH  25  31
ENDBRANCH  22  24
ENDBRANCH  20  21
ENDBRANCH   1  20
TORSDOF 11
