REMARK  8 active torsions:
REMARK  status: ('A' for Active; 'I' for Inactive)
REMARK    1  A    between atoms: C_3  and  S_4 
REMARK    2  A    between atoms: S_4  and  C_5 
REMARK    3  A    between atoms: C_5  and  C_6 
REMARK    4  A    between atoms: C_6  and  C_7 
REMARK    5  A    between atoms: C_7  and  N_8 
REMARK    6  A    between atoms: N_13  and  C_14 
REMARK    7  A    between atoms: C_17  and  C_18 
REMARK    8  A    between atoms: C_28  and  C_29 
ROOT
ATOM      1  N   UNL d   1       7.889   2.360 -15.665  0.00  0.00     0.139 N 
ATOM      2  C   UNL d   1       8.883   2.801 -16.638  0.00  0.00     0.252 C 
ATOM      3  C   UNL d   1       8.541   2.030 -17.914  0.00  0.00     0.058 C 
ATOM      4  C   UNL d   1       9.720   1.348 -18.610  0.00  0.00     0.028 C 
ATOM      5  C   UNL d   1       9.138   0.008 -19.049  0.00  0.00     0.102 C 
ATOM      6  N   UNL d   1       8.132  -0.320 -18.044  0.00  0.00    -0.348 N 
ATOM      7  C   UNL d   1       7.634   0.904 -17.440  0.00  0.00     0.117 C 
ATOM      8  C   UNL d   1       7.745   0.926 -15.919  0.00  0.00     0.272 C 
ENDROOT
BRANCH   1   9
ATOM      9  C   UNL d   1       8.259   2.666 -14.294  0.00  0.00     0.251 C 
BRANCH   9  10
ATOM     10  C   UNL d   1       8.272   4.182 -14.001  0.00  0.00     0.047 C 
BRANCH  10  11
ATOM     11  C   UNL d   1       8.707   4.467 -12.565  0.00  0.00     0.067 C 
BRANCH  11  12
ATOM     12  S   UNL d   1       8.760   6.245 -12.197  0.00  0.00    -0.075 SA
BRANCH  12  13
ATOM     13  C   UNL d   1       9.274   6.185 -10.498  0.00  0.00     0.193 A 
ATOM     14  N   UNL d   1       9.826   7.245  -9.865  0.00  0.00    -0.289 N 
ATOM     15  C   UNL d   1      10.066   8.571 -10.405  0.00  0.00     0.134 C 
ATOM     16  C   UNL d   1       9.993   6.747  -8.612  0.00  0.00     0.168 A 
ATOM     17  N   UNL d   1       9.643   5.463  -8.507  0.00  0.00    -0.128 NA
ATOM     18  N   UNL d   1       9.169   5.097  -9.735  0.00  0.00    -0.122 NA
BRANCH  16  19
ATOM     19  C   UNL d   1      10.528   7.449  -7.422  0.00  0.00     0.053 A 
ATOM     20  C   UNL d   1      10.806   8.756  -7.334  0.00  0.00     0.082 A 
ATOM     21  N   UNL d   1      11.321   9.349  -6.167  0.00  0.00    -0.292 N 
ATOM     22  C   UNL d   1      11.503   8.676  -4.993  0.00  0.00     0.261 A 
ATOM     23  C   UNL d   1      11.619  10.753  -6.212  0.00  0.00     0.134 C 
ATOM     24  C   UNL d   1      11.209   7.255  -5.056  0.00  0.00     0.061 A 
ATOM     25  O   UNL d   1      11.901   9.224  -3.963  0.00  0.00    -0.267 OA
ATOM     26  C   UNL d   1      10.771   6.694  -6.199  0.00  0.00     0.009 A 
ENDBRANCH  16  19
ENDBRANCH  12  13
ENDBRANCH  11  12
ENDBRANCH  10  11
ENDBRANCH   9  10
ENDBRANCH   1   9
BRANCH   6  27
ATOM     27  C   UNL d   1       7.290  -1.437 -18.224  0.00  0.00     0.056 A 
ATOM     28  C   UNL d   1       6.056  -1.563 -17.537  0.00  0.00     0.017 A 
ATOM     29  C   UNL d   1       5.269  -2.726 -17.667  0.00  0.00     0.005 A 
ATOM     30  C   UNL d   1       5.694  -3.780 -18.502  0.00  0.00     0.072 A 
ATOM     31  C   UNL d   1       6.919  -3.661 -19.191  0.00  0.00     0.005 A 
ATOM     32  C   UNL d   1       7.699  -2.499 -19.055  0.00  0.00     0.017 A 
BRANCH  30  33
ATOM     33  C   UNL d   1       4.835  -5.028 -18.650  0.00  0.00     0.419 C 
ATOM     34  F   UNL d   1       4.893  -5.756 -17.533  0.00  0.00    -0.166 F 
ATOM     35  F   UNL d   1       3.572  -4.662 -18.877  0.00  0.00    -0.166 F 
ATOM     36  F   UNL d   1       5.235  -5.789 -19.668  0.00  0.00    -0.166 F 
ENDBRANCH  30  33
ENDBRANCH   6  27
TORSDOF 8
