REMARK  7 active torsions:
REMARK  status: ('A' for Active; 'I' for Inactive)
REMARK    1  A    between atoms: C_6  and  C_7 
REMARK    2  A    between atoms: C_10  and  S_11 
REMARK    3  A    between atoms: S_11  and  C_12 
REMARK    4  A    between atoms: C_12  and  C_13 
REMARK    5  A    between atoms: C_13  and  C_14 
REMARK    6  A    between atoms: C_14  and  N_15 
REMARK    7  A    between atoms: C_19  and  C_20 
ROOT
ATOM      1  C   UNL d   1       8.353   5.612 -10.324  0.00  0.00     0.047 C 
ENDROOT
BRANCH   1   2
ATOM      2  C   UNL d   1       8.023   4.463 -11.242  0.00  0.00     0.067 C 
BRANCH   2   3
ATOM      3  S   UNL d   1       7.389   5.113 -12.816  0.00  0.00    -0.075 SA
BRANCH   3   4
ATOM      4  C   UNL d   1       7.285   3.585 -13.686  0.00  0.00     0.193 A 
ATOM      5  N   UNL d   1       6.231   2.780 -13.629  0.00  0.00    -0.122 NA
ATOM      6  N   UNL d   1       6.558   1.724 -14.446  0.00  0.00    -0.126 NA
ATOM      7  C   UNL d   1       7.785   1.975 -14.925  0.00  0.00     0.191 A 
ATOM      8  N   UNL d   1       8.285   3.151 -14.471  0.00  0.00    -0.287 N 
ATOM      9  C   UNL d   1       9.552   3.807 -14.723  0.00  0.00     0.134 C 
BRANCH   7  10
ATOM     10  C   UNL d   1       8.457   1.031 -15.849  0.00  0.00     0.151 A 
ATOM     11  C   UNL d   1       9.741   0.586 -16.022  0.00  0.00     0.087 A 
ATOM     12  C   UNL d   1      11.005   0.891 -15.287  0.00  0.00     0.054 C 
ATOM     13  N   UNL d   1       9.768  -0.310 -17.079  0.00  0.00    -0.221 NA
ATOM     14  C   UNL d   1       8.513  -0.367 -17.510  0.00  0.00     0.225 A 
ATOM     15  O   UNL d   1       7.660   0.435 -16.811  0.00  0.00    -0.282 OA
ENDBRANCH   7  10
ENDBRANCH   3   4
ENDBRANCH   2   3
ENDBRANCH   1   2
BRANCH   1  16
ATOM     16  C   UNL d   1       8.775   5.166  -8.900  0.00  0.00     0.251 C 
BRANCH  16  17
ATOM     17  N   UNL d   1       9.730   6.055  -8.229  0.00  0.00     0.137 N 
ATOM     18  C   UNL d   1       9.123   7.095  -7.398  0.00  0.00     0.254 C 
ATOM     19  C   UNL d   1      10.253   8.105  -7.205  0.00  0.00     0.054 A 
ATOM     20  C   UNL d   1      11.245   7.820  -8.280  0.00  0.00     0.040 A 
ATOM     21  C   UNL d   1      10.545   9.155  -8.244  0.00  0.00     0.009 A 
ATOM     22  C   UNL d   1      10.678   6.739  -9.114  0.00  0.00     0.251 C 
BRANCH  19  23
ATOM     23  C   UNL d   1      10.812   8.184  -5.815  0.00  0.00     0.007 A 
ATOM     24  C   UNL d   1      11.017   9.437  -5.166  0.00  0.00     0.137 A 
ATOM     25  C   UNL d   1      11.588   9.480  -3.886  0.00  0.00     0.041 A 
ATOM     26  F   UNL d   1      10.674  10.593  -5.757  0.00  0.00    -0.204 F 
ATOM     27  C   UNL d   1      11.977   8.307  -3.240  0.00  0.00     0.060 A 
ATOM     28  C   UNL d   1      11.789   7.063  -3.867  0.00  0.00     0.011 A 
ATOM     29 CL   UNL d   1      12.661   8.385  -1.672  0.00  0.00    -0.082 Cl
ATOM     30  C   UNL d   1      11.211   7.011  -5.151  0.00  0.00    -0.001 A 
ENDBRANCH  19  23
ENDBRANCH  16  17
ENDBRANCH   1  16
TORSDOF 7
