REMARK  6 active torsions:
REMARK  status: ('A' for Active; 'I' for Inactive)
REMARK    1  A    between atoms: S_2  and  C_5 
REMARK    2  A    between atoms: N_13  and  C_14 
REMARK    3  A    between atoms: C_14  and  C_15 
REMARK    4  A    between atoms: C_15  and  C_16 
REMARK    5  A    between atoms: C_19  and  N_20 
REMARK       I    between atoms: N_20  and  C_21 
REMARK    6  A    between atoms: C_21  and  C_23 
ROOT
ATOM      1  C   UNL d   1       8.433   3.699 -13.084  0.00  0.00     0.002 C 
ATOM      2  C   UNL d   1       6.920   3.381 -12.928  0.00  0.00     0.002 C 
ATOM      3  C   UNL d   1       6.514   2.148 -13.763  0.00  0.00     0.024 C 
ATOM      4  C   UNL d   1       6.912   2.320 -15.224  0.00  0.00     0.107 C 
ATOM      5  C   UNL d   1       8.399   2.685 -15.383  0.00  0.00     0.024 C 
ATOM      6  C   UNL d   1       8.801   3.907 -14.552  0.00  0.00     0.002 C 
ENDROOT
BRANCH   1   7
ATOM      7  C   UNL d   1       8.836   4.932 -12.285  0.00  0.00     0.035 C 
BRANCH   7   8
ATOM      8  C   UNL d   1       9.115   4.621 -10.801  0.00  0.00     0.250 C 
BRANCH   8   9
ATOM      9  N   UNL d   1       9.222   5.829  -9.986  0.00  0.00     0.138 N 
ATOM     10  C   UNL d   1       9.240   5.426  -8.584  0.00  0.00     0.255 C 
ATOM     11  C   UNL d   1       8.927   6.570  -7.628  0.00  0.00     0.061 C 
ATOM     12  C   UNL d   1      10.073   7.530  -7.385  0.00  0.00    -0.023 A 
ATOM     13  C   UNL d   1      10.781   8.183  -8.428  0.00  0.00    -0.024 A 
ATOM     14  C   UNL d   1      10.427   7.818  -6.056  0.00  0.00     0.006 A 
ATOM     15  C   UNL d   1      11.851   9.053  -8.116  0.00  0.00    -0.004 A 
ATOM     16  C   UNL d   1      10.440   8.003  -9.896  0.00  0.00     0.061 C 
ATOM     17  C   UNL d   1      12.201   9.336  -6.789  0.00  0.00     0.011 A 
ATOM     18  C   UNL d   1      11.480   8.695  -5.781  0.00  0.00     0.084 A 
ATOM     19  C   UNL d   1      10.426   6.563 -10.332  0.00  0.00     0.255 C 
BRANCH  18  20
ATOM     20  S   UNL d   1      11.828   9.051  -4.127  0.00  0.00     0.191 S 
ATOM     21  C   UNL d   1      11.890   7.413  -3.247  0.00  0.00     0.145 C 
ATOM     22  O   UNL d   1      10.735   9.918  -3.692  0.00  0.00    -0.222 OA
ATOM     23  O   UNL d   1      13.201   9.591  -4.122  0.00  0.00    -0.222 OA
ENDBRANCH  18  20
ENDBRANCH   8   9
ENDBRANCH   7   8
ENDBRANCH   1   7
BRANCH   4  24
ATOM     24  N   UNL d   1       6.592   1.115 -15.979  0.00  0.00    -0.236 NA
ATOM     25  C   UNL d   1       6.615   1.013 -17.316  0.00  0.00     0.275 C 
ATOM     26  O   UNL d   1       7.042   1.905 -18.050  0.00  0.00    -0.266 OA
BRANCH  25  27
ATOM     27  C   UNL d   1       6.082  -0.287 -17.860  0.00  0.00     0.058 A 
ATOM     28  C   UNL d   1       6.691  -0.978 -18.951  0.00  0.00     0.005 A 
ATOM     29  C   UNL d   1       6.126  -2.212 -19.382  0.00  0.00     0.000 A 
ATOM     30  C   UNL d   1       7.854  -0.510 -19.624  0.00  0.00     0.000 A 
ATOM     31  C   UNL d   1       4.969  -2.729 -18.762  0.00  0.00     0.000 A 
ATOM     32  C   UNL d   1       6.714  -2.938 -20.436  0.00  0.00     0.000 A 
ATOM     33  C   UNL d   1       4.356  -2.031 -17.712  0.00  0.00     0.000 A 
ATOM     34  C   UNL d   1       4.911  -0.824 -17.266  0.00  0.00     0.005 A 
ATOM     35  C   UNL d   1       7.857  -2.449 -21.093  0.00  0.00     0.000 A 
ATOM     36  C   UNL d   1       8.421  -1.229 -20.690  0.00  0.00     0.000 A 
ENDBRANCH  25  27
ENDBRANCH   4  24
TORSDOF 6
