REMARK  0 active torsions:
REMARK  status: ('A' for Active; 'I' for Inactive)
ROOT
ATOM      1  C   UNL d   1       9.268   6.814  -6.679  0.00  0.00     0.043 C 
ATOM      2  C   UNL d   1      10.789   7.014  -6.761  0.00  0.00     0.279 C 
ATOM      3  N   UNL d   1      11.114   7.878  -7.878  0.00  0.00     0.342 N 
ATOM      4  C   UNL d   1      10.704   9.245  -7.579  0.00  0.00     0.295 C 
ATOM      5  C   UNL d   1      11.553   9.830  -6.437  0.00  0.00     0.064 C 
ATOM      6  C   UNL d   1      11.656   8.889  -5.260  0.00  0.00    -0.020 A 
ATOM      7  C   UNL d   1      12.091   9.353  -4.000  0.00  0.00     0.025 A 
ATOM      8  C   UNL d   1      12.233   8.463  -2.919  0.00  0.00     0.156 A 
ATOM      9  O   UNL d   1      12.663   8.921  -1.702  0.00  0.00    -0.188 OA
ATOM     10  C   UNL d   1      11.915   7.114  -3.099  0.00  0.00     0.156 A 
ATOM     11  O   UNL d   1      12.025   6.251  -2.036  0.00  0.00    -0.188 OA
ATOM     12  C   UNL d   1      11.460   6.647  -4.346  0.00  0.00     0.027 A 
ATOM     13  C   UNL d   1      11.333   7.527  -5.434  0.00  0.00     0.009 A 
ENDROOT
TORSDOF 0
