REMARK  4 active torsions:
REMARK  status: ('A' for Active; 'I' for Inactive)
REMARK    1  A    between atoms: O_2  and  C_3 
REMARK    2  A    between atoms: C_6  and  N_7 
REMARK    3  A    between atoms: N_10  and  C_11 
REMARK    4  A    between atoms: C_11  and  C_12 
ROOT
ATOM      1  N   UNL d   1       9.251   5.195 -12.085  0.00  0.00    -0.344 N 
ATOM      2  C   UNL d   1       9.601   3.788 -12.045  0.00  0.00     0.137 C 
ATOM      3  C   UNL d   1      10.488   3.420 -13.256  0.00  0.00     0.275 C 
ATOM      4  N   UNL d   1       9.791   3.726 -14.497  0.00  0.00     0.147 N 
ATOM      5  C   UNL d   1       9.518   5.171 -14.492  0.00  0.00     0.275 C 
ATOM      6  C   UNL d   1       8.632   5.597 -13.320  0.00  0.00     0.137 C 
ENDROOT
BRANCH   4   7
ATOM      7  C   UNL d   1      10.652   3.388 -15.632  0.00  0.00     0.295 C 
BRANCH   7   8
ATOM      8  C   UNL d   1       9.876   3.091 -16.886  0.00  0.00     0.091 A 
ATOM      9  N   UNL d   1       9.459   1.808 -17.282  0.00  0.00    -0.281 N 
ATOM     10  C   UNL d   1       8.786   1.984 -18.517  0.00  0.00     0.149 A 
ATOM     11  C   UNL d   1       9.567   0.520 -16.775  0.00  0.00     0.125 A 
ATOM     12  N   UNL d   1       8.784   3.265 -18.874  0.00  0.00    -0.231 NA
ATOM     13  C   UNL d   1       8.251   0.846 -19.163  0.00  0.00     0.052 A 
ATOM     14  C   UNL d   1       9.466   3.951 -17.885  0.00  0.00     0.075 A 
ATOM     15  C   UNL d   1       9.675   5.439 -18.060  0.00  0.00     0.053 C 
ATOM     16  C   UNL d   1       8.437  -0.372 -18.559  0.00  0.00     0.064 A 
ATOM     17  C   UNL d   1       7.884  -1.636 -19.181  0.00  0.00     0.052 C 
ATOM     18  N   UNL d   1       9.110  -0.534 -17.378  0.00  0.00    -0.236 NA
ATOM     19  C   UNL d   1      10.259   0.244 -15.454  0.00  0.00     0.072 C 
ENDBRANCH   7   8
ENDBRANCH   4   7
BRANCH   1  20
ATOM     20  C   UNL d   1       9.431   6.079 -10.986  0.00  0.00     0.056 A 
ATOM     21  C   UNL d   1       9.636   7.458 -11.201  0.00  0.00     0.019 A 
ATOM     22  C   UNL d   1       9.863   8.318 -10.116  0.00  0.00     0.026 A 
ATOM     23  C   UNL d   1       9.863   7.836  -8.793  0.00  0.00     0.094 A 
ATOM     24  C   UNL d   1       9.641   6.454  -8.580  0.00  0.00     0.026 A 
ATOM     25  C   UNL d   1       9.421   5.591  -9.663  0.00  0.00     0.019 A 
BRANCH  23  26
ATOM     26  O   UNL d   1      10.078   8.751  -7.796  0.00  0.00    -0.328 OA
ATOM     27  C   UNL d   1       9.888   8.309  -6.466  0.00  0.00     0.181 C 
ENDBRANCH  23  26
ENDBRANCH   1  20
TORSDOF 4
