REMARK  6 active torsions:
REMARK  status: ('A' for Active; 'I' for Inactive)
REMARK    1  A    between atoms: C_2  and  N_3 
REMARK    2  A    between atoms: N_3  and  C_4 
REMARK    3  A    between atoms: N_3  and  C_6 
REMARK    4  A    between atoms: C_6  and  C_7 
REMARK    5  A    between atoms: C_7  and  N_8 
REMARK    6  A    between atoms: N_11  and  C_12 
ROOT
ATOM      1  N   UNL d   1       8.274   4.035 -13.559  0.00  0.00    -0.298 N 
ATOM      2  C   UNL d   1       6.923   3.860 -13.040  0.00  0.00     0.131 A 
ATOM      3  C   UNL d   1       7.018   4.522 -11.662  0.00  0.00     0.135 A 
ATOM      4  N   UNL d   1       8.396   4.994 -11.623  0.00  0.00    -0.280 N 
ATOM      5  C   UNL d   1       9.086   4.673 -12.723  0.00  0.00     0.328 A 
ATOM      6  O   UNL d   1      10.290   4.922 -12.933  0.00  0.00    -0.247 OA
ENDROOT
BRANCH   1   7
ATOM      7  C   UNL d   1       8.692   3.504 -14.844  0.00  0.00     0.141 C 
BRANCH   7   8
ATOM      8  C   UNL d   1       9.675   2.346 -14.672  0.00  0.00     0.274 C 
BRANCH   8   9
ATOM      9  N   UNL d   1       9.694   1.530 -15.890  0.00  0.00     0.139 N 
BRANCH   9  10
ATOM     10  C   UNL d   1       8.717   0.429 -15.816  0.00  0.00     0.250 C 
ATOM     11  C   UNL d   1       7.236   0.867 -15.776  0.00  0.00     0.037 C 
ENDBRANCH   9  10
BRANCH   9  12
ATOM     12  C   UNL d   1      11.039   0.973 -16.074  0.00  0.00     0.250 C 
ATOM     13  C   UNL d   1      12.090   2.039 -16.465  0.00  0.00     0.037 C 
ENDBRANCH   9  12
ENDBRANCH   8   9
ENDBRANCH   7   8
ENDBRANCH   1   7
BRANCH   4  14
ATOM     14  C   UNL d   1       8.942   5.668 -10.518  0.00  0.00     0.065 A 
ATOM     15  C   UNL d   1       9.784   6.790 -10.695  0.00  0.00     0.029 A 
ATOM     16  C   UNL d   1      10.356   7.462  -9.598  0.00  0.00     0.059 A 
ATOM     17  C   UNL d   1      10.066   7.033  -8.284  0.00  0.00     0.011 A 
ATOM     18 CL   UNL d   1      11.418   8.798  -9.856  0.00  0.00    -0.082 Cl
ATOM     19  C   UNL d   1       9.214   5.932  -8.088  0.00  0.00     0.002 A 
ATOM     20  C   UNL d   1       8.659   5.250  -9.195  0.00  0.00     0.017 A 
ENDBRANCH   4  14
TORSDOF 6
