REMARK  6 active torsions:
REMARK  status: ('A' for Active; 'I' for Inactive)
REMARK    1  A    between atoms: C_8  and  O_9 
REMARK    2  A    between atoms: O_9  and  C_10 
REMARK    3  A    between atoms: C_10  and  C_11 
REMARK    4  A    between atoms: C_11  and  C_12 
REMARK    5  A    between atoms: C_12  and  N_13 
REMARK    6  A    between atoms: N_16  and  C_17 
ROOT
ATOM      1  C   UNL d   1       8.303   5.192 -10.588  0.00  0.00     0.253 C 
ENDROOT
BRANCH   1   2
ATOM      2  C   UNL d   1       9.448   6.207 -10.450  0.00  0.00     0.068 C 
BRANCH   2   3
ATOM      3  C   UNL d   1      10.015   6.238  -9.029  0.00  0.00     0.151 C 
BRANCH   3   4
ATOM      4  O   UNL d   1      10.851   7.370  -8.937  0.00  0.00    -0.331 OA
BRANCH   4   5
ATOM      5  C   UNL d   1      11.047   7.853  -7.664  0.00  0.00     0.096 A 
ATOM      6  C   UNL d   1      11.004   9.241  -7.477  0.00  0.00     0.024 A 
ATOM      7  C   UNL d   1      11.132   9.801  -6.196  0.00  0.00    -0.001 A 
ATOM      8  C   UNL d   1      11.348   8.967  -5.089  0.00  0.00    -0.004 A 
ATOM      9  C   UNL d   1      11.461   9.510  -3.667  0.00  0.00     0.038 C 
ATOM     10  C   UNL d   1      11.445   7.569  -5.272  0.00  0.00     0.082 A 
ATOM     11  C   UNL d   1      12.377   8.654  -2.790  0.00  0.00     0.095 C 
ATOM     12  C   UNL d   1      12.111   7.158  -2.971  0.00  0.00     0.256 C 
ATOM     13  O   UNL d   1      12.302   6.394  -2.043  0.00  0.00    -0.270 OA
ATOM     14  N   UNL d   1      11.695   6.732  -4.176  0.00  0.00    -0.212 NA
ATOM     15  C   UNL d   1      11.287   7.006  -6.562  0.00  0.00     0.043 A 
ENDBRANCH   4   5
ENDBRANCH   3   4
ENDBRANCH   2   3
ENDBRANCH   1   2
BRANCH   1  16
ATOM     16  N   UNL d   1       7.975   4.913 -11.988  0.00  0.00     0.141 N 
ATOM     17  C   UNL d   1       9.026   4.077 -12.580  0.00  0.00     0.274 C 
ATOM     18  C   UNL d   1       8.718   3.775 -14.048  0.00  0.00     0.137 C 
ATOM     19  N   UNL d   1       7.404   3.162 -14.180  0.00  0.00    -0.344 N 
ATOM     20  C   UNL d   1       6.316   3.884 -13.508  0.00  0.00     0.137 C 
ATOM     21  C   UNL d   1       6.686   4.205 -12.047  0.00  0.00     0.274 C 
BRANCH  19  22
ATOM     22  C   UNL d   1       7.182   1.984 -14.923  0.00  0.00     0.068 A 
ATOM     23  C   UNL d   1       7.852   1.684 -16.146  0.00  0.00     0.084 A 
ATOM     24  C   UNL d   1       7.570   0.469 -16.821  0.00  0.00     0.070 A 
ATOM     25 CL   UNL d   1       8.982   2.760 -16.904  0.00  0.00    -0.080 Cl
ATOM     26  C   UNL d   1       6.616  -0.412 -16.308  0.00  0.00     0.012 A 
ATOM     27 CL   UNL d   1       8.377   0.064 -18.291  0.00  0.00    -0.081 Cl
ATOM     28  C   UNL d   1       5.951  -0.132 -15.111  0.00  0.00     0.002 A 
ATOM     29  C   UNL d   1       6.237   1.062 -14.422  0.00  0.00     0.018 A 
ENDBRANCH  19  22
ENDBRANCH   1  16
TORSDOF 6
