REMARK  5 active torsions:
REMARK  status: ('A' for Active; 'I' for Inactive)
REMARK    1  A    between atoms: N_2  and  C_4 
REMARK    2  A    between atoms: C_4  and  C_5 
REMARK    3  A    between atoms: C_5  and  N_6 
REMARK    4  A    between atoms: C_8  and  S_9 
REMARK    5  A    between atoms: S_9  and  C_12 
ROOT
ATOM      1  N   UNL d   1       7.846   1.252 -17.017  0.00  0.00    -0.309 N 
ATOM      2  C   UNL d   1       8.489   1.581 -15.835  0.00  0.00     0.089 C 
ATOM      3  C   UNL d   1       9.216   2.728 -16.010  0.00  0.00     0.108 C 
ATOM      4  C   UNL d   1       9.208   3.027 -17.416  0.00  0.00     0.046 A 
ATOM      5  C   UNL d   1       9.787   3.978 -18.279  0.00  0.00     0.005 A 
ATOM      6  C   UNL d   1       9.521   3.908 -19.662  0.00  0.00     0.021 A 
ATOM      7  C   UNL d   1       8.656   2.900 -20.142  0.00  0.00     0.101 A 
ATOM      8  N   UNL d   1       8.032   1.994 -19.363  0.00  0.00    -0.227 NA
ATOM      9  C   UNL d   1       8.347   2.068 -18.032  0.00  0.00     0.145 A 
ENDROOT
BRANCH   3  10
ATOM     10  S   UNL d   1      10.037   3.712 -14.785  0.00  0.00     0.211 S 
ATOM     11  O   UNL d   1      10.873   2.786 -14.020  0.00  0.00    -0.217 OA
ATOM     12  O   UNL d   1      10.655   4.867 -15.464  0.00  0.00    -0.217 OA
BRANCH  10  13
ATOM     13  C   UNL d   1       8.723   4.345 -13.722  0.00  0.00     0.090 A 
ATOM     14  C   UNL d   1       7.503   3.627 -13.583  0.00  0.00     0.041 A 
ATOM     15  C   UNL d   1       6.483   4.138 -12.760  0.00  0.00     0.141 A 
ATOM     16  C   UNL d   1       6.654   5.348 -12.061  0.00  0.00     0.030 A 
ATOM     17  F   UNL d   1       5.335   3.436 -12.653  0.00  0.00    -0.204 F 
ATOM     18  C   UNL d   1       7.870   6.061 -12.193  0.00  0.00     0.003 A 
ATOM     19  C   UNL d   1       8.911   5.564 -13.024  0.00  0.00     0.011 A 
ENDBRANCH  10  13
ENDBRANCH   3  10
BRANCH   1  20
ATOM     20  C   UNL d   1       6.877   0.173 -17.175  0.00  0.00     0.143 C 
BRANCH  20  21
ATOM     21  C   UNL d   1       5.926   0.013 -15.961  0.00  0.00     0.275 C 
BRANCH  21  22
ATOM     22  N   UNL d   1       4.769  -0.831 -16.254  0.00  0.00     0.143 N 
ATOM     23  C   UNL d   1       5.151  -2.195 -16.601  0.00  0.00     0.286 C 
ATOM     24  C   UNL d   1       3.900  -0.895 -15.085  0.00  0.00     0.286 C 
ENDBRANCH  21  22
ENDBRANCH  20  21
ENDBRANCH   1  20
TORSDOF 5
