REMARK  0 active torsions:
REMARK  status: ('A' for Active; 'I' for Inactive)
ROOT
ATOM      1  C   UNL d   1      12.176   6.884  -2.854  0.00  0.00     0.035 A 
ATOM      2  C   UNL d   1      11.865   6.503  -4.129  0.00  0.00     0.005 A 
ATOM      3  C   UNL d   1      11.452   7.554  -4.973  0.00  0.00     0.009 A 
ATOM      4  C   UNL d   1      11.477   8.754  -4.328  0.00  0.00     0.006 A 
ATOM      5  S   UNL d   1      12.083   8.614  -2.695  0.00  0.00    -0.091 SA
ATOM      6  C   UNL d   1      11.060  10.030  -4.955  0.00  0.00     0.035 C 
ATOM      7  C   UNL d   1      10.930   9.923  -6.473  0.00  0.00     0.044 C 
ATOM      8  C   UNL d   1      10.234   8.628  -6.886  0.00  0.00     0.288 C 
ATOM      9  N   UNL d   1       9.989   8.555  -8.325  0.00  0.00     0.343 N 
ATOM     10  C   UNL d   1       9.334   7.293  -8.664  0.00  0.00     0.322 C 
ATOM     11  C   UNL d   1      10.121   6.097  -8.121  0.00  0.00     0.181 C 
ATOM     12  O   UNL d   1      10.328   6.266  -6.717  0.00  0.00    -0.348 OA
ATOM     13  C   UNL d   1      11.082   7.429  -6.432  0.00  0.00     0.172 C 
ENDROOT
TORSDOF 0
