REMARK  9 active torsions:
REMARK  status: ('A' for Active; 'I' for Inactive)
REMARK    1  A    between atoms: O_2  and  C_3 
REMARK    2  A    between atoms: C_8  and  C_9 
REMARK       I    between atoms: C_9  and  N_11 
REMARK    3  A    between atoms: N_11  and  C_12 
REMARK    4  A    between atoms: C_12  and  C_13 
REMARK    5  A    between atoms: C_13  and  C_14 
REMARK    6  A    between atoms: C_14  and  C_16 
REMARK    7  A    between atoms: C_16  and  N_17 
REMARK    8  A    between atoms: N_20  and  C_21 
REMARK    9  A    between atoms: C_26  and  O_27 
ROOT
ATOM      1  C   UNL d   1       8.629   4.633 -13.164  0.00  0.00     0.196 C 
ATOM      2  F   UNL d   1       7.298   4.566 -13.116  0.00  0.00    -0.235 F 
ENDROOT
BRANCH   1   3
ATOM      3  C   UNL d   1       9.180   4.885 -11.755  0.00  0.00     0.064 C 
BRANCH   3   4
ATOM      4  C   UNL d   1       8.531   6.064 -11.025  0.00  0.00     0.132 C 
BRANCH   4   5
ATOM      5  N   UNL d   1       9.235   6.365  -9.785  0.00  0.00    -0.233 NA
ATOM      6  C   UNL d   1       9.899   7.508  -9.532  0.00  0.00     0.293 C 
ATOM      7  O   UNL d   1      10.081   8.397 -10.361  0.00  0.00    -0.264 OA
BRANCH   6   8
ATOM      8  C   UNL d   1      10.324   7.684  -8.135  0.00  0.00     0.139 A 
ATOM      9  N   UNL d   1      10.470   8.971  -7.631  0.00  0.00    -0.241 NA
ATOM     10  C   UNL d   1      10.917   8.937  -6.322  0.00  0.00     0.082 A 
ATOM     11  C   UNL d   1      11.223   9.923  -5.361  0.00  0.00     0.021 A 
ATOM     12  C   UNL d   1      11.047   7.552  -6.029  0.00  0.00     0.021 A 
ATOM     13  C   UNL d   1      11.683   9.528  -4.089  0.00  0.00     0.026 A 
ATOM     14  C   UNL d   1      11.856   8.163  -3.776  0.00  0.00     0.094 A 
ATOM     15  C   UNL d   1      11.505   7.189  -4.751  0.00  0.00     0.026 A 
ATOM     16  C   UNL d   1      10.680   6.789  -7.173  0.00  0.00     0.026 A 
BRANCH  14  17
ATOM     17  O   UNL d   1      12.296   7.831  -2.515  0.00  0.00    -0.328 OA
ATOM     18  C   UNL d   1      12.308   6.444  -2.204  0.00  0.00     0.181 C 
ENDBRANCH  14  17
ENDBRANCH   6   8
ENDBRANCH   4   5
ENDBRANCH   3   4
ENDBRANCH   1   3
BRANCH   1  19
ATOM     19  C   UNL d   1       9.141   3.309 -13.765  0.00  0.00     0.285 C 
BRANCH  19  20
ATOM     20  N   UNL d   1       9.694   3.509 -15.113  0.00  0.00     0.144 N 
ATOM     21  C   UNL d   1       9.252   2.426 -15.996  0.00  0.00     0.274 C 
ATOM     22  C   UNL d   1       9.783   2.659 -17.425  0.00  0.00     0.137 C 
ATOM     23  N   UNL d   1      11.240   2.747 -17.403  0.00  0.00    -0.343 N 
ATOM     24  C   UNL d   1      11.773   3.730 -16.462  0.00  0.00     0.137 C 
ATOM     25  C   UNL d   1      11.161   3.507 -15.058  0.00  0.00     0.274 C 
BRANCH  23  26
ATOM     26  C   UNL d   1      12.067   1.903 -18.163  0.00  0.00     0.079 A 
ATOM     27  C   UNL d   1      11.791   0.517 -18.294  0.00  0.00     0.110 A 
ATOM     28  C   UNL d   1      12.612  -0.283 -19.140  0.00  0.00     0.026 A 
ATOM     29  C   UNL d   1      13.707   0.282 -19.817  0.00  0.00     0.002 A 
ATOM     30  C   UNL d   1      13.999   1.644 -19.664  0.00  0.00     0.002 A 
ATOM     31  C   UNL d   1      13.180   2.451 -18.839  0.00  0.00     0.019 A 
BRANCH  27  32
ATOM     32  O   UNL d   1      10.748  -0.005 -17.559  0.00  0.00    -0.327 OA
ATOM     33  C   UNL d   1      10.286  -1.304 -17.863  0.00  0.00     0.181 C 
ENDBRANCH  27  32
ENDBRANCH  23  26
ENDBRANCH  19  20
ENDBRANCH   1  19
TORSDOF 9
