REMARK  6 active torsions:
REMARK  status: ('A' for Active; 'I' for Inactive)
REMARK    1  A    between atoms: N_3  and  C_4 
REMARK    2  A    between atoms: C_4  and  C_5 
REMARK    3  A    between atoms: C_5  and  C_6 
REMARK    4  A    between atoms: C_6  and  C_7 
REMARK    5  A    between atoms: C_7  and  N_8 
REMARK    6  A    between atoms: N_11  and  C_12 
ROOT
ATOM      1  N   UNL d   1       8.727   4.547 -13.035  0.00  0.00     0.141 N 
ATOM      2  C   UNL d   1       9.650   4.222 -11.935  0.00  0.00     0.274 C 
ATOM      3  C   UNL d   1       9.229   4.904 -10.632  0.00  0.00     0.137 C 
ATOM      4  N   UNL d   1       9.157   6.328 -10.858  0.00  0.00    -0.344 N 
ATOM      5  C   UNL d   1       8.308   6.742 -11.954  0.00  0.00     0.137 C 
ATOM      6  C   UNL d   1       8.730   6.002 -13.231  0.00  0.00     0.274 C 
ENDROOT
BRANCH   1   7
ATOM      7  C   UNL d   1       9.188   3.913 -14.264  0.00  0.00     0.251 C 
BRANCH   7   8
ATOM      8  C   UNL d   1       9.052   2.392 -14.105  0.00  0.00     0.037 C 
BRANCH   8   9
ATOM      9  C   UNL d   1       9.515   1.595 -15.364  0.00  0.00     0.029 C 
BRANCH   9  10
ATOM     10  C   UNL d   1       8.556   1.496 -16.568  0.00  0.00     0.133 C 
BRANCH  10  11
ATOM     11  N   UNL d   1       7.303   0.771 -16.277  0.00  0.00    -0.201 N 
ATOM     12  C   UNL d   1       6.597  -0.006 -17.106  0.00  0.00     0.352 A 
ATOM     13  O   UNL d   1       6.807  -0.306 -18.278  0.00  0.00    -0.244 OA
ATOM     14  N   UNL d   1       5.550  -0.378 -16.341  0.00  0.00    -0.241 N 
ATOM     15  C   UNL d   1       5.690   0.204 -15.109  0.00  0.00     0.171 A 
ATOM     16  C   UNL d   1       4.462  -1.186 -16.714  0.00  0.00     0.086 A 
ATOM     17  N   UNL d   1       6.748   0.907 -15.065  0.00  0.00    -0.147 NA
ATOM     18  C   UNL d   1       4.655  -0.052 -14.133  0.00  0.00     0.039 A 
ATOM     19  C   UNL d   1       3.594  -0.814 -14.457  0.00  0.00     0.005 A 
ATOM     20  C   UNL d   1       3.485  -1.406 -15.789  0.00  0.00     0.019 A 
ENDBRANCH  10  11
ENDBRANCH   9  10
ENDBRANCH   8   9
ENDBRANCH   7   8
ENDBRANCH   1   7
BRANCH   4  21
ATOM     21  C   UNL d   1       9.787   7.255 -10.008  0.00  0.00     0.057 A 
ATOM     22  C   UNL d   1       9.681   7.161  -8.604  0.00  0.00     0.022 A 
ATOM     23  C   UNL d   1      10.392   8.134  -7.825  0.00  0.00     0.031 A 
ATOM     24  C   UNL d   1       8.948   6.260  -7.766  0.00  0.00     0.009 A 
ATOM     25  C   UNL d   1      11.149   9.141  -8.412  0.00  0.00     0.007 A 
ATOM     26  S   UNL d   1      10.189   7.880  -6.114  0.00  0.00    -0.086 SA
ATOM     27  C   UNL d   1      11.233   9.207  -9.797  0.00  0.00     0.002 A 
ATOM     28  C   UNL d   1      10.526   8.297 -10.584  0.00  0.00     0.017 A 
ATOM     29  C   UNL d   1       9.115   6.572  -6.452  0.00  0.00     0.035 A 
ENDBRANCH   4  21
TORSDOF 6
