REMARK  4 active torsions:
REMARK  status: ('A' for Active; 'I' for Inactive)
REMARK    1  A    between atoms: C_4  and  C_5 
REMARK    2  A    between atoms: N_8  and  C_9 
REMARK    3  A    between atoms: C_9  and  C_10 
REMARK    4  A    between atoms: N_13  and  C_14 
ROOT
ATOM      1  C   UNL d   1       9.089   2.898 -14.043  0.00  0.00     0.026 C 
ATOM      2  C   UNL d   1      10.086   3.475 -15.072  0.00  0.00     0.040 C 
ATOM      3  C   UNL d   1      10.795   2.367 -15.876  0.00  0.00     0.251 C 
ATOM      4  N   UNL d   1       9.804   1.515 -16.547  0.00  0.00     0.141 N 
ATOM      5  C   UNL d   1       8.996   0.859 -15.518  0.00  0.00     0.251 C 
ATOM      6  C   UNL d   1       8.203   1.880 -14.754  0.00  0.00     0.040 C 
ENDROOT
BRANCH   4   7
ATOM      7  C   UNL d   1      10.478   0.523 -17.385  0.00  0.00     0.280 C 
BRANCH   7   8
ATOM      8  C   UNL d   1       9.566  -0.253 -18.320  0.00  0.00     0.051 A 
ATOM      9  C   UNL d   1       8.360  -0.860 -18.096  0.00  0.00     0.100 A 
ATOM     10  N   UNL d   1       7.917  -1.433 -19.259  0.00  0.00    -0.229 N 
ATOM     11  N   UNL d   1       8.808  -1.227 -20.257  0.00  0.00    -0.164 NA
ATOM     12  C   UNL d   1       9.796  -0.542 -19.697  0.00  0.00     0.120 A 
BRANCH  10  13
ATOM     13  C   UNL d   1       6.697  -2.132 -19.441  0.00  0.00     0.083 A 
ATOM     14  C   UNL d   1       5.939  -2.575 -18.326  0.00  0.00     0.019 A 
ATOM     15  C   UNL d   1       4.727  -3.266 -18.508  0.00  0.00     0.002 A 
ATOM     16  C   UNL d   1       4.259  -3.519 -19.810  0.00  0.00     0.000 A 
ATOM     17  C   UNL d   1       4.995  -3.070 -20.922  0.00  0.00     0.002 A 
ATOM     18  C   UNL d   1       6.208  -2.375 -20.741  0.00  0.00     0.019 A 
ENDBRANCH  10  13
ENDBRANCH   7   8
ENDBRANCH   4   7
BRANCH   1  19
ATOM     19  C   UNL d   1       8.269   3.982 -13.351  0.00  0.00    -0.022 A 
ATOM     20  C   UNL d   1       8.922   5.101 -12.788  0.00  0.00    -0.004 A 
ATOM     21  C   UNL d   1       8.178   6.122 -12.168  0.00  0.00    -0.000 A 
ATOM     22  C   UNL d   1       6.775   6.022 -12.090  0.00  0.00    -0.000 A 
ATOM     23  C   UNL d   1       6.120   4.899 -12.623  0.00  0.00    -0.000 A 
ATOM     24  C   UNL d   1       6.856   3.888 -13.246  0.00  0.00    -0.004 A 
ENDBRANCH   1  19
TORSDOF 4
