REMARK  7 active torsions:
REMARK  status: ('A' for Active; 'I' for Inactive)
REMARK    1  A    between atoms: C_8  and  O_9 
REMARK    2  A    between atoms: O_9  and  C_10 
REMARK    3  A    between atoms: C_10  and  C_11 
REMARK    4  A    between atoms: C_11  and  C_12 
REMARK    5  A    between atoms: C_12  and  C_13 
REMARK    6  A    between atoms: C_13  and  N_14 
REMARK    7  A    between atoms: N_17  and  C_18 
ROOT
ATOM      1  N   UNL d   1       9.114   5.523 -12.371  0.00  0.00     0.141 N 
ATOM      2  C   UNL d   1       9.517   4.119 -12.199  0.00  0.00     0.274 C 
ATOM      3  C   UNL d   1       9.319   3.322 -13.489  0.00  0.00     0.137 C 
ATOM      4  N   UNL d   1       7.939   3.428 -13.921  0.00  0.00    -0.344 N 
ATOM      5  C   UNL d   1       7.419   4.777 -13.983  0.00  0.00     0.137 C 
ATOM      6  C   UNL d   1       7.677   5.550 -12.678  0.00  0.00     0.274 C 
ENDROOT
BRANCH   1   7
ATOM      7  C   UNL d   1       9.360   6.268 -11.139  0.00  0.00     0.251 C 
BRANCH   7   8
ATOM      8  C   UNL d   1       9.625   7.756 -11.441  0.00  0.00     0.038 C 
BRANCH   8   9
ATOM      9  C   UNL d   1      10.442   8.429 -10.327  0.00  0.00     0.035 C 
BRANCH   9  10
ATOM     10  C   UNL d   1       9.517   8.919  -9.197  0.00  0.00     0.151 C 
BRANCH  10  11
ATOM     11  O   UNL d   1      10.247   9.541  -8.153  0.00  0.00    -0.315 OA
BRANCH  11  12
ATOM     12  C   UNL d   1      10.693   8.764  -7.121  0.00  0.00     0.179 A 
ATOM     13  C   UNL d   1      10.800   7.347  -7.225  0.00  0.00     0.044 A 
ATOM     14  C   UNL d   1      11.256   6.648  -6.121  0.00  0.00     0.002 A 
ATOM     15  C   UNL d   1      11.517   7.332  -4.928  0.00  0.00     0.014 A 
ATOM     16  C   UNL d   1      11.914   6.544  -3.698  0.00  0.00     0.039 C 
ATOM     17  C   UNL d   1      11.394   8.743  -4.907  0.00  0.00     0.163 A 
ATOM     18  C   UNL d   1      12.656   7.382  -2.672  0.00  0.00     0.095 C 
ATOM     19  C   UNL d   1      12.155   8.823  -2.602  0.00  0.00     0.257 C 
ATOM     20  O   UNL d   1      12.258   9.393  -1.537  0.00  0.00    -0.270 OA
ATOM     21  N   UNL d   1      11.655   9.406  -3.691  0.00  0.00    -0.193 NA
ATOM     22  N   UNL d   1      11.009   9.438  -6.000  0.00  0.00    -0.204 NA
ENDBRANCH  11  12
ENDBRANCH  10  11
ENDBRANCH   9  10
ENDBRANCH   8   9
ENDBRANCH   7   8
ENDBRANCH   1   7
BRANCH   4  23
ATOM     23  C   UNL d   1       7.155   2.323 -14.289  0.00  0.00     0.058 A 
ATOM     24  C   UNL d   1       7.427   1.501 -15.422  0.00  0.00     0.043 A 
ATOM     25  C   UNL d   1       6.553   0.398 -15.686  0.00  0.00     0.004 A 
ATOM     26  C   UNL d   1       8.502   1.726 -16.332  0.00  0.00     0.141 A 
ATOM     27  C   UNL d   1       5.488   0.095 -14.819  0.00  0.00     0.000 A 
ATOM     28  C   UNL d   1       6.730  -0.400 -16.830  0.00  0.00     0.000 A 
ATOM     29  C   UNL d   1       5.247   0.885 -13.691  0.00  0.00     0.002 A 
ATOM     30  C   UNL d   1       6.049   2.025 -13.459  0.00  0.00     0.017 A 
ATOM     31  C   UNL d   1       7.797  -0.157 -17.713  0.00  0.00     0.002 A 
ATOM     32  C   UNL d   1       8.687   0.895 -17.443  0.00  0.00     0.030 A 
ATOM     33  F   UNL d   1       9.370   2.760 -16.202  0.00  0.00    -0.204 F 
ENDBRANCH   4  23
TORSDOF 7
