REMARK  0 active torsions:
REMARK  status: ('A' for Active; 'I' for Inactive)
ROOT
ATOM      1  C   UNL d   1      10.062   7.045  -5.640  0.00  0.00     0.038 C 
ATOM      2  C   UNL d   1      10.179   7.328  -7.083  0.00  0.00     0.005 A 
ATOM      3  S   UNL d   1      11.277   8.572  -7.587  0.00  0.00    -0.094 SA
ATOM      4  C   UNL d   1      10.912   8.288  -9.238  0.00  0.00     0.023 A 
ATOM      5  C   UNL d   1      11.623   9.027 -10.246  0.00  0.00     0.040 C 
ATOM      6  C   UNL d   1       9.925   7.354  -9.363  0.00  0.00     0.064 A 
ATOM      7  C   UNL d   1       9.480   6.774  -8.138  0.00  0.00    -0.004 A 
ATOM      8  C   UNL d   1       8.382   5.715  -8.075  0.00  0.00     0.029 C 
ATOM      9  C   UNL d   1       8.745   4.374  -8.754  0.00  0.00     0.013 C 
ATOM     10  C   UNL d   1       9.616   4.549 -10.002  0.00  0.00     0.067 C 
ATOM     11  C   UNL d   1       9.219   5.636 -10.946  0.00  0.00     0.147 A 
ATOM     12  N   UNL d   1       8.649   5.456 -12.142  0.00  0.00    -0.133 NA
ATOM     13  N   UNL d   1       8.458   6.733 -12.655  0.00  0.00    -0.133 NA
ATOM     14  C   UNL d   1       8.935   7.557 -11.711  0.00  0.00     0.147 A 
ATOM     15  C   UNL d   1       8.676   9.024 -11.742  0.00  0.00     0.074 C 
ATOM     16  N   UNL d   1       9.444   6.921 -10.629  0.00  0.00    -0.281 N 
ENDROOT
TORSDOF 0
