REMARK  5 active torsions:
REMARK  status: ('A' for Active; 'I' for Inactive)
REMARK    1  A    between atoms: O_2  and  C_3 
REMARK    2  A    between atoms: C_9  and  C_10 
REMARK    3  A    between atoms: C_12  and  C_13 
REMARK    4  A    between atoms: C_13  and  N_14 
REMARK    5  A    between atoms: N_17  and  C_18 
ROOT
ATOM      1  C   UNL d   1       9.281   4.199 -13.317  0.00  0.00     0.175 C 
ATOM      2  N   UNL d   1       9.828   4.716 -12.307  0.00  0.00    -0.246 NA
ATOM      3  C   UNL d   1       8.851   4.955 -11.286  0.00  0.00     0.166 C 
ATOM      4  C   UNL d   1       7.510   4.815 -12.051  0.00  0.00     0.147 C 
ATOM      5  C   UNL d   1       6.811   6.122 -12.480  0.00  0.00     0.035 C 
ATOM      6  O   UNL d   1       7.920   4.133 -13.227  0.00  0.00    -0.315 OA
ENDROOT
BRANCH   3   7
ATOM      7  C   UNL d   1       9.111   6.293 -10.551  0.00  0.00     0.277 C 
BRANCH   7   8
ATOM      8  N   UNL d   1       9.644   6.152  -9.192  0.00  0.00     0.143 N 
ATOM      9  C   UNL d   1       8.742   6.798  -8.231  0.00  0.00     0.274 C 
ATOM     10  C   UNL d   1       9.207   6.725  -6.788  0.00  0.00     0.137 C 
ATOM     11  N   UNL d   1      10.553   7.213  -6.688  0.00  0.00    -0.344 N 
ATOM     12  C   UNL d   1      11.492   6.705  -7.655  0.00  0.00     0.137 C 
ATOM     13  C   UNL d   1      10.912   6.863  -9.088  0.00  0.00     0.274 C 
BRANCH  11  14
ATOM     14  C   UNL d   1      10.932   8.099  -5.706  0.00  0.00     0.056 A 
ATOM     15  C   UNL d   1      11.523   7.652  -4.499  0.00  0.00     0.017 A 
ATOM     16  C   UNL d   1      11.861   8.572  -3.496  0.00  0.00     0.002 A 
ATOM     17  C   UNL d   1      11.574   9.937  -3.682  0.00  0.00     0.000 A 
ATOM     18  C   UNL d   1      11.024  10.389  -4.901  0.00  0.00     0.002 A 
ATOM     19  C   UNL d   1      10.697   9.475  -5.909  0.00  0.00     0.017 A 
ENDBRANCH  11  14
ENDBRANCH   7   8
ENDBRANCH   3   7
BRANCH   1  20
ATOM     20  C   UNL d   1      10.050   3.800 -14.523  0.00  0.00     0.063 A 
ATOM     21  C   UNL d   1       9.766   2.595 -15.213  0.00  0.00     0.098 A 
ATOM     22  C   UNL d   1      10.543   2.270 -16.358  0.00  0.00     0.025 A 
ATOM     23  C   UNL d   1      11.574   3.122 -16.798  0.00  0.00     0.009 A 
ATOM     24  C   UNL d   1      11.856   4.305 -16.097  0.00  0.00     0.035 A 
ATOM     25 BR   UNL d   1      13.246   5.460 -16.689  0.00  0.00    -0.049 Br
ATOM     26  C   UNL d   1      11.099   4.641 -14.964  0.00  0.00     0.012 A 
BRANCH  21  27
ATOM     27  O   UNL d   1       8.751   1.781 -14.745  0.00  0.00    -0.328 OA
ATOM     28  C   UNL d   1       8.557   0.515 -15.369  0.00  0.00     0.181 C 
ENDBRANCH  21  27
ENDBRANCH   1  20
TORSDOF 5
