REMARK  12 active torsions:
REMARK  status: ('A' for Active; 'I' for Inactive)
REMARK    1  A    between atoms: N_2  and  C_3 
REMARK    2  A    between atoms: N_2  and  C_19 
REMARK    3  A    between atoms: C_3  and  C_4 
REMARK    4  A    between atoms: C_4  and  C_5 
REMARK    5  A    between atoms: C_5  and  S_6 
REMARK    6  A    between atoms: S_6  and  C_7 
REMARK    7  A    between atoms: C_10  and  C_11 
REMARK    8  A    between atoms: C_19  and  C_20 
REMARK    9  A    between atoms: C_22  and  C_23 
REMARK   10  A    between atoms: C_29  and  O_30 
REMARK   11  A    between atoms: O_30  and  C_31 
REMARK   12  A    between atoms: C_31  and  C_32 
ROOT
ATOM      1  C   UNL d   1      12.794   4.584 -14.821  0.00  0.00     0.285 C 
ATOM      2  N   UNL d   1      11.810   4.058 -15.764  0.00  0.00     0.139 N 
ENDROOT
BRANCH   2   3
ATOM      3  C   UNL d   1      10.477   4.594 -15.468  0.00  0.00     0.251 C 
BRANCH   3   4
ATOM      4  C   UNL d   1       9.970   4.221 -14.063  0.00  0.00     0.047 C 
BRANCH   4   5
ATOM      5  C   UNL d   1       8.564   4.772 -13.780  0.00  0.00     0.067 C 
BRANCH   5   6
ATOM      6  S   UNL d   1       8.051   4.462 -12.058  0.00  0.00    -0.075 SA
BRANCH   6   7
ATOM      7  C   UNL d   1       8.881   5.766 -11.200  0.00  0.00     0.193 A 
ATOM      8  N   UNL d   1       9.113   5.726  -9.868  0.00  0.00    -0.289 N 
ATOM      9  C   UNL d   1       9.747   6.905  -9.649  0.00  0.00     0.167 A 
ATOM     10  C   UNL d   1       8.752   4.674  -8.932  0.00  0.00     0.134 C 
ATOM     11  N   UNL d   1       9.903   7.620 -10.768  0.00  0.00    -0.128 NA
ATOM     12  N   UNL d   1       9.335   6.875 -11.781  0.00  0.00    -0.122 NA
BRANCH   9  13
ATOM     13  C   UNL d   1      10.234   7.410  -8.359  0.00  0.00     0.036 A 
ATOM     14  C   UNL d   1      10.758   6.527  -7.391  0.00  0.00     0.003 A 
ATOM     15  C   UNL d   1      11.194   7.009  -6.138  0.00  0.00     0.000 A 
ATOM     16  C   UNL d   1      11.161   8.386  -5.862  0.00  0.00     0.000 A 
ATOM     17  C   UNL d   1      10.673   9.281  -6.838  0.00  0.00     0.000 A 
ATOM     18  C   UNL d   1      10.197   8.794  -8.076  0.00  0.00     0.003 A 
ENDBRANCH   9  13
ENDBRANCH   6   7
ENDBRANCH   5   6
ENDBRANCH   4   5
ENDBRANCH   3   4
ENDBRANCH   2   3
BRANCH   2  19
ATOM     19  C   UNL d   1      12.140   4.503 -17.123  0.00  0.00     0.251 C 
BRANCH  19  20
ATOM     20  C   UNL d   1      13.443   3.914 -17.690  0.00  0.00     0.038 A 
ATOM     21  C   UNL d   1      13.977   4.420 -19.017  0.00  0.00     0.026 A 
ATOM     22  C   UNL d   1      13.409   3.017 -18.902  0.00  0.00     0.007 A 
BRANCH  21  23
ATOM     23  C   UNL d   1      13.215   5.489 -19.781  0.00  0.00     0.002 A 
ATOM     24  C   UNL d   1      13.155   6.813 -19.283  0.00  0.00     0.090 A 
ATOM     25  C   UNL d   1      12.363   7.765 -19.969  0.00  0.00     0.026 A 
ATOM     26  C   UNL d   1      11.692   7.400 -21.165  0.00  0.00     0.032 A 
ATOM     27  C   UNL d   1      11.783   6.088 -21.654  0.00  0.00     0.140 A 
ATOM     28  C   UNL d   1      12.545   5.130 -20.959  0.00  0.00     0.027 A 
ATOM     29  F   UNL d   1      11.111   5.725 -22.771  0.00  0.00    -0.204 F 
BRANCH  24  30
ATOM     30  O   UNL d   1      13.864   7.122 -18.144  0.00  0.00    -0.328 OA
BRANCH  30  31
ATOM     31  C   UNL d   1      13.734   8.403 -17.550  0.00  0.00     0.187 C 
BRANCH  31  32
ATOM     32  C   UNL d   1      14.474   9.479 -18.363  0.00  0.00     0.226 C 
ATOM     33  F   UNL d   1      15.792   9.264 -18.340  0.00  0.00    -0.232 F 
ENDBRANCH  31  32
ENDBRANCH  30  31
ENDBRANCH  24  30
ENDBRANCH  21  23
ENDBRANCH  19  20
ENDBRANCH   2  19
TORSDOF 12
