REMARK  8 active torsions:
REMARK  status: ('A' for Active; 'I' for Inactive)
REMARK    1  A    between atoms: C_3  and  S_4 
REMARK    2  A    between atoms: S_4  and  C_5 
REMARK    3  A    between atoms: C_5  and  C_6 
REMARK    4  A    between atoms: C_6  and  C_7 
REMARK    5  A    between atoms: C_7  and  N_8 
REMARK    6  A    between atoms: N_13  and  C_14 
REMARK    7  A    between atoms: C_19  and  C_20 
REMARK    8  A    between atoms: C_28  and  C_29 
ROOT
ATOM      1  N   UNL d   1       9.689   2.171 -16.528  0.00  0.00     0.138 N 
ATOM      2  C   UNL d   1      10.548   2.122 -17.709  0.00  0.00     0.252 C 
ATOM      3  C   UNL d   1       9.841   1.122 -18.634  0.00  0.00     0.052 C 
ATOM      4  C   UNL d   1      10.243  -0.359 -18.455  0.00  0.00     0.021 C 
ATOM      5  C   UNL d   1       8.906  -1.100 -18.486  0.00  0.00     0.077 C 
ATOM      6  N   UNL d   1       7.961  -0.172 -17.880  0.00  0.00    -0.252 NA
ATOM      7  C   UNL d   1       8.397   1.181 -18.189  0.00  0.00     0.097 C 
ATOM      8  C   UNL d   1       8.321   2.156 -17.041  0.00  0.00     0.266 C 
ENDROOT
BRANCH   1   9
ATOM      9  C   UNL d   1       9.959   3.338 -15.706  0.00  0.00     0.251 C 
BRANCH   9  10
ATOM     10  C   UNL d   1       9.039   3.381 -14.475  0.00  0.00     0.047 C 
BRANCH  10  11
ATOM     11  C   UNL d   1       9.335   4.595 -13.596  0.00  0.00     0.067 C 
BRANCH  11  12
ATOM     12  S   UNL d   1       8.100   4.784 -12.282  0.00  0.00    -0.075 SA
BRANCH  12  13
ATOM     13  C   UNL d   1       8.885   6.094 -11.411  0.00  0.00     0.193 A 
ATOM     14  N   UNL d   1       9.173   6.038 -10.097  0.00  0.00    -0.289 N 
ATOM     15  C   UNL d   1       8.907   4.983  -9.154  0.00  0.00     0.134 C 
ATOM     16  C   UNL d   1       9.759   7.231  -9.879  0.00  0.00     0.167 A 
ATOM     17  N   UNL d   1       9.831   7.977 -10.986  0.00  0.00    -0.128 NA
ATOM     18  N   UNL d   1       9.270   7.227 -11.998  0.00  0.00    -0.122 NA
BRANCH  16  19
ATOM     19  C   UNL d   1      10.255   7.715  -8.593  0.00  0.00     0.039 A 
ATOM     20  C   UNL d   1       9.604   7.403  -7.380  0.00  0.00     0.024 A 
ATOM     21  C   UNL d   1      10.137   7.887  -6.178  0.00  0.00     0.099 A 
ATOM     22  N   UNL d   1      11.241   8.659  -6.110  0.00  0.00    -0.242 NA
ATOM     23  C   UNL d   1      11.857   8.964  -7.269  0.00  0.00     0.099 A 
ATOM     24  C   UNL d   1      11.415   8.521  -8.527  0.00  0.00     0.024 A 
ENDBRANCH  16  19
ENDBRANCH  12  13
ENDBRANCH  11  12
ENDBRANCH  10  11
ENDBRANCH   9  10
ENDBRANCH   1   9
BRANCH   6  25
ATOM     25  C   UNL d   1       6.598  -0.472 -18.111  0.00  0.00     0.040 A 
ATOM     26  C   UNL d   1       5.976  -0.323 -19.392  0.00  0.00     0.082 A 
ATOM     27  C   UNL d   1       4.602  -0.688 -19.493  0.00  0.00     0.005 A 
ATOM     28  C   UNL d   1       3.865  -1.168 -18.389  0.00  0.00     0.000 A 
ATOM     29  C   UNL d   1       4.479  -1.293 -17.136  0.00  0.00     0.001 A 
ATOM     30  C   UNL d   1       5.841  -0.945 -16.998  0.00  0.00     0.011 A 
BRANCH  26  31
ATOM     31  C   UNL d   1       6.663   0.182 -20.698  0.00  0.00     0.420 C 
ATOM     32  F   UNL d   1       5.811   0.139 -21.717  0.00  0.00    -0.166 F 
ATOM     33  F   UNL d   1       7.048   1.453 -20.652  0.00  0.00    -0.166 F 
ATOM     34  F   UNL d   1       7.697  -0.574 -21.059  0.00  0.00    -0.166 F 
ENDBRANCH  26  31
ENDBRANCH   6  25
TORSDOF 8
