REMARK  1 active torsions:
REMARK  status: ('A' for Active; 'I' for Inactive)
REMARK    1  A    between atoms: C_16  and  C_17 
ROOT
ATOM      1  C   UNL d   1       5.860  -0.250 -15.445  0.00  0.00     0.285 C 
ATOM      2  N   UNL d   1       6.884   0.720 -15.802  0.00  0.00     0.140 N 
ATOM      3  C   UNL d   1       6.648   1.262 -17.133  0.00  0.00     0.255 C 
ATOM      4  C   UNL d   1       7.701   0.711 -18.106  0.00  0.00     0.063 C 
ATOM      5  C   UNL d   1       9.009   1.462 -18.081  0.00  0.00    -0.005 A 
ATOM      6  C   UNL d   1       9.944   1.518 -17.069  0.00  0.00     0.055 A 
ATOM      7  N   UNL d   1      10.989   2.333 -17.475  0.00  0.00    -0.250 NA
ATOM      8  C   UNL d   1      10.774   2.820 -18.748  0.00  0.00     0.081 A 
ATOM      9  C   UNL d   1      11.530   3.664 -19.580  0.00  0.00     0.019 A 
ATOM     10  C   UNL d   1      11.042   3.990 -20.859  0.00  0.00     0.002 A 
ATOM     11  C   UNL d   1       9.805   3.472 -21.288  0.00  0.00     0.000 A 
ATOM     12  C   UNL d   1       9.055   2.629 -20.446  0.00  0.00     0.001 A 
ATOM     13  C   UNL d   1       9.520   2.278 -19.153  0.00  0.00     0.015 A 
ATOM     14  C   UNL d   1       9.950   0.888 -15.711  0.00  0.00     0.046 C 
ATOM     15  C   UNL d   1       9.507   1.843 -14.583  0.00  0.00     0.013 C 
ATOM     16  C   UNL d   1       8.202   2.658 -14.809  0.00  0.00     0.056 C 
ATOM     17  C   UNL d   1       6.937   1.758 -14.777  0.00  0.00     0.255 C 
ENDROOT
BRANCH  16  18
ATOM     18  C   UNL d   1       8.098   3.823 -13.800  0.00  0.00    -0.021 A 
ATOM     19  C   UNL d   1       6.990   3.970 -12.930  0.00  0.00    -0.004 A 
ATOM     20  C   UNL d   1       6.921   5.043 -12.020  0.00  0.00    -0.000 A 
ATOM     21  C   UNL d   1       7.952   5.984 -11.970  0.00  0.00    -0.000 A 
ATOM     22  C   UNL d   1       9.058   5.862 -12.832  0.00  0.00    -0.000 A 
ATOM     23  C   UNL d   1       9.118   4.800 -13.757  0.00  0.00    -0.004 A 
ENDBRANCH  16  18
TORSDOF 1
