REMARK  2 active torsions:
REMARK  status: ('A' for Active; 'I' for Inactive)
REMARK    1  A    between atoms: N_14  and  C_15 
REMARK    2  A    between atoms: C_15  and  C_16 
ROOT
ATOM      1  C   UNL d   1      12.719   3.439 -18.087  0.00  0.00    -0.007 A 
ATOM      2  C   UNL d   1      13.685   4.405 -17.764  0.00  0.00     0.002 A 
ATOM      3  C   UNL d   1      13.663   5.094 -16.566  0.00  0.00     0.090 A 
ATOM      4  C   UNL d   1      12.655   4.846 -15.621  0.00  0.00     0.022 A 
ATOM      5  C   UNL d   1      11.655   3.885 -15.915  0.00  0.00     0.004 A 
ATOM      6  C   UNL d   1      11.695   3.176 -17.147  0.00  0.00    -0.024 A 
ATOM      7  C   UNL d   1      10.630   2.149 -17.497  0.00  0.00     0.028 C 
ATOM      8  C   UNL d   1       9.771   1.698 -16.305  0.00  0.00     0.041 C 
ATOM      9  C   UNL d   1       9.314   2.894 -15.439  0.00  0.00     0.251 C 
ATOM     10  C   UNL d   1      10.581   3.599 -14.873  0.00  0.00     0.169 C 
ATOM     11  O   UNL d   1      10.204   4.788 -14.184  0.00  0.00    -0.348 OA
ATOM     12  C   UNL d   1       9.315   4.534 -13.105  0.00  0.00     0.178 C 
ATOM     13  C   UNL d   1       8.063   3.818 -13.625  0.00  0.00     0.282 C 
ATOM     14  N   UNL d   1       8.369   2.579 -14.351  0.00  0.00     0.140 N 
ATOM     15  O   UNL d   1      14.700   5.976 -16.440  0.00  0.00    -0.331 OA
ATOM     16  C   UNL d   1      15.537   5.841 -17.602  0.00  0.00     0.154 A 
ATOM     17  C   UNL d   1      14.845   4.859 -18.577  0.00  0.00     0.061 A 
ENDROOT
BRANCH  14  18
ATOM     18  C   UNL d   1       7.130   1.924 -14.789  0.00  0.00     0.250 C 
BRANCH  18  19
ATOM     19  C   UNL d   1       6.254   1.361 -13.673  0.00  0.00     0.033 A 
ATOM     20  C   UNL d   1       5.157   0.378 -14.011  0.00  0.00     0.002 A 
ATOM     21  C   UNL d   1       6.379  -0.086 -13.258  0.00  0.00     0.002 A 
ENDBRANCH  18  19
ENDBRANCH  14  18
TORSDOF 2
