REMARK  4 active torsions:
REMARK  status: ('A' for Active; 'I' for Inactive)
REMARK    1  A    between atoms: C_6  and  N_7 
REMARK    2  A    between atoms: N_7  and  C_9 
REMARK    3  A    between atoms: C_9  and  O_11 
REMARK    4  A    between atoms: O_11  and  C_12 
ROOT
ATOM      1  C   UNL d   1       9.462   6.453  -9.726  0.00  0.00     0.223 C 
ATOM      2  S   UNL d   1       8.971   5.089  -8.871  0.00  0.00    -0.032 SA
ENDROOT
BRANCH   1   3
ATOM      3  N   UNL d   1      10.171   7.516  -9.214  0.00  0.00    -0.298 N 
ATOM      4  C   UNL d   1      10.459   8.668 -10.088  0.00  0.00     0.133 C 
BRANCH   3   5
ATOM      5  C   UNL d   1      10.574   7.641  -7.833  0.00  0.00     0.062 A 
ATOM      6  C   UNL d   1      11.126   6.553  -7.114  0.00  0.00     0.017 A 
ATOM      7  C   UNL d   1      11.467   6.694  -5.748  0.00  0.00     0.001 A 
ATOM      8  C   UNL d   1      11.378   7.940  -5.107  0.00  0.00    -0.004 A 
ATOM      9  C   UNL d   1      10.899   9.037  -5.832  0.00  0.00    -0.020 A 
ATOM     10  C   UNL d   1      10.808  10.378  -5.158  0.00  0.00     0.031 C 
ATOM     11  C   UNL d   1      10.470   8.886  -7.171  0.00  0.00     0.013 A 
ENDBRANCH   3   5
ENDBRANCH   1   3
BRANCH   1  12
ATOM     12  O   UNL d   1       9.207   6.701 -11.054  0.00  0.00    -0.282 OA
BRANCH  12  13
ATOM     13  C   UNL d   1       8.628   5.738 -11.851  0.00  0.00     0.102 A 
ATOM     14  C   UNL d   1       9.460   4.860 -12.572  0.00  0.00     0.025 A 
ATOM     15  C   UNL d   1       8.896   3.873 -13.404  0.00  0.00     0.002 A 
ATOM     16  C   UNL d   1       7.489   3.777 -13.523  0.00  0.00     0.000 A 
ATOM     17  C   UNL d   1       9.733   2.983 -14.102  0.00  0.00     0.000 A 
ATOM     18  C   UNL d   1       6.654   4.664 -12.816  0.00  0.00     0.002 A 
ATOM     19  C   UNL d   1       6.930   2.786 -14.353  0.00  0.00     0.000 A 
ATOM     20  C   UNL d   1       7.225   5.659 -11.994  0.00  0.00     0.025 A 
ATOM     21  C   UNL d   1       7.769   1.906 -15.067  0.00  0.00     0.000 A 
ATOM     22  C   UNL d   1       9.168   2.003 -14.942  0.00  0.00     0.000 A 
ENDBRANCH  12  13
ENDBRANCH   1  12
TORSDOF 4
