REMARK  6 active torsions:
REMARK  status: ('A' for Active; 'I' for Inactive)
REMARK    1  A    between atoms: O_2  and  C_3 
REMARK    2  A    between atoms: C_8  and  N_9 
REMARK    3  A    between atoms: N_12  and  C_13 
REMARK    4  A    between atoms: C_13  and  C_14 
REMARK    5  A    between atoms: C_17  and  C_18 
REMARK    6  A    between atoms: C_18  and  N_19 
ROOT
ATOM      1  C   UNL d   1      11.794   2.901 -19.542  0.00  0.00     0.011 A 
ATOM      2  C   UNL d   1      10.522   2.291 -19.426  0.00  0.00    -0.003 A 
ATOM      3  C   UNL d   1      10.120   1.708 -18.209  0.00  0.00    -0.003 A 
ATOM      4  C   UNL d   1      10.974   1.731 -17.087  0.00  0.00     0.001 A 
ATOM      5  C   UNL d   1      12.248   2.342 -17.206  0.00  0.00    -0.003 A 
ATOM      6  C   UNL d   1      12.669   2.885 -18.431  0.00  0.00    -0.003 A 
ENDROOT
BRANCH   1   7
ATOM      7  C   UNL d   1      12.221   3.563 -20.843  0.00  0.00     0.277 C 
BRANCH   7   8
ATOM      8  N   UNL d   1      12.192   5.045 -20.829  0.00  0.00     0.145 N 
ATOM      9  C   UNL d   1      12.641   5.539 -22.135  0.00  0.00     0.275 C 
ATOM     10  C   UNL d   1      12.597   7.086 -22.176  0.00  0.00     0.137 C 
ATOM     11  N   UNL d   1      13.339   7.669 -21.065  0.00  0.00    -0.343 N 
ATOM     12  C   UNL d   1      13.035   7.120 -19.756  0.00  0.00     0.137 C 
ATOM     13  C   UNL d   1      13.075   5.584 -19.788  0.00  0.00     0.275 C 
BRANCH  11  14
ATOM     14  C   UNL d   1      14.398   8.558 -21.247  0.00  0.00     0.079 A 
ATOM     15  C   UNL d   1      15.512   8.211 -22.035  0.00  0.00     0.110 A 
ATOM     16  C   UNL d   1      16.547   9.182 -22.223  0.00  0.00     0.026 A 
ATOM     17  C   UNL d   1      16.441  10.452 -21.630  0.00  0.00     0.002 A 
ATOM     18  C   UNL d   1      15.342  10.772 -20.829  0.00  0.00     0.002 A 
ATOM     19  C   UNL d   1      14.320   9.812 -20.622  0.00  0.00     0.019 A 
BRANCH  15  20
ATOM     20  O   UNL d   1      15.563   6.949 -22.589  0.00  0.00    -0.327 OA
ATOM     21  C   UNL d   1      16.770   6.513 -23.192  0.00  0.00     0.181 C 
ENDBRANCH  15  20
ENDBRANCH  11  14
ENDBRANCH   7   8
ENDBRANCH   1   7
BRANCH   4  22
ATOM     22  C   UNL d   1      10.543   1.104 -15.777  0.00  0.00     0.148 C 
BRANCH  22  23
ATOM     23  N   UNL d   1       9.636   1.935 -14.978  0.00  0.00    -0.216 N 
ATOM     24  S   UNL d   1       7.927   1.712 -15.049  0.00  0.00     0.270 S 
ATOM     25  C   UNL d   1       7.623   3.126 -14.034  0.00  0.00     0.108 A 
ATOM     26  O   UNL d   1       7.454   1.980 -16.420  0.00  0.00    -0.200 OA
ATOM     27  O   UNL d   1       7.582   0.480 -14.331  0.00  0.00    -0.200 OA
ATOM     28  C   UNL d   1       8.833   3.723 -13.664  0.00  0.00     0.069 A 
ATOM     29  C   UNL d   1       6.379   3.608 -13.600  0.00  0.00     0.013 A 
ATOM     30  C   UNL d   1      10.045   3.042 -14.218  0.00  0.00     0.271 A 
ATOM     31  C   UNL d   1       8.831   4.858 -12.831  0.00  0.00     0.005 A 
ATOM     32  O   UNL d   1      11.208   3.409 -14.044  0.00  0.00    -0.266 OA
ATOM     33  C   UNL d   1       7.590   5.371 -12.389  0.00  0.00     0.000 A 
ATOM     34  C   UNL d   1       6.377   4.751 -12.771  0.00  0.00     0.001 A 
ENDBRANCH  22  23
ENDBRANCH   4  22
TORSDOF 6
