REMARK  7 active torsions:
REMARK  status: ('A' for Active; 'I' for Inactive)
REMARK    1  A    between atoms: O_2  and  C_3 
REMARK    2  A    between atoms: C_7  and  N_8 
REMARK    3  A    between atoms: N_11  and  C_12 
REMARK    4  A    between atoms: C_12  and  C_13 
REMARK    5  A    between atoms: C_13  and  N_14 
REMARK    6  A    between atoms: N_14  and  C_16 
REMARK    7  A    between atoms: C_16  and  C_17 
ROOT
ATOM      1  N   UNL d   1      10.603   3.714 -15.472  0.00  0.00    -0.280 N 
ATOM      2  C   UNL d   1       9.300   3.127 -15.765  0.00  0.00     0.135 A 
ATOM      3  C   UNL d   1       8.591   3.164 -14.412  0.00  0.00     0.131 A 
ATOM      4  N   UNL d   1       9.609   3.741 -13.550  0.00  0.00    -0.298 N 
ATOM      5  C   UNL d   1      10.759   3.988 -14.176  0.00  0.00     0.328 A 
ATOM      6  O   UNL d   1      11.787   4.421 -13.651  0.00  0.00    -0.247 OA
ENDROOT
BRANCH   4   7
ATOM      7  C   UNL d   1       9.379   3.960 -12.136  0.00  0.00     0.141 C 
BRANCH   7   8
ATOM      8  C   UNL d   1       9.526   5.452 -11.753  0.00  0.00     0.274 C 
BRANCH   8   9
ATOM      9  N   UNL d   1       9.406   5.589 -10.312  0.00  0.00     0.141 N 
ATOM     10  C   UNL d   1       7.988   5.478 -10.028  0.00  0.00     0.285 C 
BRANCH   9  11
ATOM     11  C   UNL d   1       9.998   6.872  -9.874  0.00  0.00     0.250 C 
BRANCH  11  12
ATOM     12  C   UNL d   1      10.072   7.069  -8.339  0.00  0.00     0.032 C 
ATOM     13  C   UNL d   1      10.501   5.853  -7.544  0.00  0.00     0.002 C 
ATOM     14  C   UNL d   1      10.844   6.424  -6.137  0.00  0.00     0.000 C 
ATOM     15  C   UNL d   1      10.629   7.945  -6.355  0.00  0.00     0.000 C 
ATOM     16  C   UNL d   1       9.114   8.162  -6.391  0.00  0.00     0.000 C 
ATOM     17  C   UNL d   1      11.033   8.163  -7.822  0.00  0.00     0.002 C 
ATOM     18  C   UNL d   1       8.729   7.533  -7.713  0.00  0.00     0.002 C 
ATOM     19  C   UNL d   1      12.543   7.975  -8.045  0.00  0.00     0.000 C 
ATOM     20  C   UNL d   1      10.712   9.527  -8.338  0.00  0.00     0.000 C 
ENDBRANCH  11  12
ENDBRANCH   9  11
ENDBRANCH   8   9
ENDBRANCH   7   8
ENDBRANCH   4   7
BRANCH   1  21
ATOM     21  C   UNL d   1      11.611   3.920 -16.437  0.00  0.00     0.066 A 
ATOM     22  C   UNL d   1      11.976   2.880 -17.311  0.00  0.00     0.018 A 
ATOM     23  C   UNL d   1      13.022   3.079 -18.235  0.00  0.00     0.004 A 
ATOM     24  C   UNL d   1      13.694   4.318 -18.288  0.00  0.00     0.024 A 
ATOM     25  C   UNL d   1      13.339   5.374 -17.421  0.00  0.00     0.096 A 
ATOM     26  C   UNL d   1      12.287   5.160 -16.499  0.00  0.00     0.042 A 
BRANCH  25  27
ATOM     27  O   UNL d   1      14.041   6.559 -17.514  0.00  0.00    -0.328 OA
ATOM     28  C   UNL d   1      13.604   7.660 -16.723  0.00  0.00     0.181 C 
ENDBRANCH  25  27
ENDBRANCH   1  21
TORSDOF 7
