REMARK  10 active torsions:
REMARK  status: ('A' for Active; 'I' for Inactive)
REMARK    1  A    between atoms: S_2  and  C_3 
REMARK    2  A    between atoms: S_2  and  C_21 
REMARK    3  A    between atoms: C_3  and  C_4 
REMARK    4  A    between atoms: C_4  and  N_5 
REMARK    5  A    between atoms: N_8  and  C_9 
REMARK    6  A    between atoms: C_9  and  C_10 
REMARK    7  A    between atoms: C_10  and  C_12 
REMARK    8  A    between atoms: C_12  and  C_13 
REMARK    9  A    between atoms: C_21  and  C_22 
REMARK   10  A    between atoms: C_21  and  C_29 
ROOT
ATOM      1  C   UNL d   1       9.208   5.250 -12.280  0.00  0.00     0.128 C 
ENDROOT
BRANCH   1   2
ATOM      2  S   UNL d   1      10.181   3.987 -13.235  0.00  0.00     0.051 S 
ATOM      3  O   UNL d   1      11.443   4.756 -13.653  0.00  0.00    -0.256 OA
BRANCH   2   4
ATOM      4  C   UNL d   1       9.126   3.767 -14.745  0.00  0.00     0.124 C 
BRANCH   4   5
ATOM      5  C   UNL d   1       7.990   2.772 -14.443  0.00  0.00    -0.006 A 
ATOM      6  C   UNL d   1       6.829   3.224 -13.767  0.00  0.00    -0.001 A 
ATOM      7  C   UNL d   1       5.802   2.323 -13.424  0.00  0.00     0.029 A 
ATOM      8  C   UNL d   1       5.870   0.974 -13.810  0.00  0.00     0.140 A 
ATOM      9  C   UNL d   1       7.000   0.518 -14.512  0.00  0.00     0.029 A 
ATOM     10  F   UNL d   1       4.848   0.130 -13.538  0.00  0.00    -0.204 F 
ATOM     11  C   UNL d   1       8.052   1.402 -14.821  0.00  0.00    -0.001 A 
ENDBRANCH   4   5
BRANCH   4  12
ATOM     12  C   UNL d   1      10.004   3.385 -15.941  0.00  0.00    -0.006 A 
ATOM     13  C   UNL d   1       9.896   4.108 -17.148  0.00  0.00    -0.001 A 
ATOM     14  C   UNL d   1      10.634   3.715 -18.289  0.00  0.00     0.029 A 
ATOM     15  C   UNL d   1      11.479   2.597 -18.229  0.00  0.00     0.140 A 
ATOM     16  C   UNL d   1      11.606   1.877 -17.023  0.00  0.00     0.029 A 
ATOM     17  F   UNL d   1      12.164   2.198 -19.329  0.00  0.00    -0.204 F 
ATOM     18  C   UNL d   1      10.900   2.289 -15.877  0.00  0.00    -0.001 A 
ENDBRANCH   4  12
ENDBRANCH   2   4
ENDBRANCH   1   2
BRANCH   1  19
ATOM     19  C   UNL d   1       9.275   4.907 -10.771  0.00  0.00     0.265 C 
BRANCH  19  20
ATOM     20  N   UNL d   1       9.069   6.031  -9.850  0.00  0.00     0.142 N 
ATOM     21  C   UNL d   1       9.105   5.596  -8.446  0.00  0.00     0.285 C 
ATOM     22  C   UNL d   1       8.919   6.767  -7.459  0.00  0.00     0.286 C 
ATOM     23  N   UNL d   1       9.940   7.797  -7.642  0.00  0.00     0.144 N 
ATOM     24  C   UNL d   1       9.866   8.256  -9.029  0.00  0.00     0.286 C 
ATOM     25  C   UNL d   1      10.062   7.101 -10.023  0.00  0.00     0.285 C 
BRANCH  23  26
ATOM     26  C   UNL d   1       9.718   8.897  -6.711  0.00  0.00     0.283 C 
BRANCH  26  27
ATOM     27  C   UNL d   1      10.932   9.829  -6.481  0.00  0.00     0.190 C 
ATOM     28  O   UNL d   1      10.659  10.742  -5.424  0.00  0.00    -0.221 OA
BRANCH  27  29
ATOM     29  C   UNL d   1      12.238   9.146  -6.133  0.00  0.00     0.061 C 
BRANCH  29  30
ATOM     30  C   UNL d   1      12.235   8.491  -4.759  0.00  0.00    -0.020 A 
ATOM     31  C   UNL d   1      12.663   9.201  -3.612  0.00  0.00    -0.004 A 
ATOM     32  C   UNL d   1      12.661   8.620  -2.330  0.00  0.00    -0.000 A 
ATOM     33  C   UNL d   1      12.258   7.289  -2.205  0.00  0.00    -0.000 A 
ATOM     34  C   UNL d   1      11.827   6.595  -3.335  0.00  0.00    -0.000 A 
ATOM     35  C   UNL d   1      11.826   7.158  -4.614  0.00  0.00    -0.004 A 
ENDBRANCH  29  30
ENDBRANCH  27  29
ENDBRANCH  26  27
ENDBRANCH  23  26
ENDBRANCH  19  20
ENDBRANCH   1  19
TORSDOF 10
