REMARK  2 active torsions:
REMARK  status: ('A' for Active; 'I' for Inactive)
REMARK    1  A    between atoms: C_3  and  O_4 
REMARK    2  A    between atoms: O_4  and  C_5 
ROOT
ATOM      1  C   UNL d   1      11.262   7.356  -9.798  0.00  0.00     0.079 C 
ATOM      2  C   UNL d   1      10.264   7.034 -10.425  0.00  0.00    -0.121 C 
ATOM      3  C   UNL d   1       9.042   6.623 -11.127  0.00  0.00     0.212 C 
ENDROOT
BRANCH   3   4
ATOM      4  O   UNL d   1       9.355   5.591 -12.062  0.00  0.00    -0.318 OA
BRANCH   4   5
ATOM      5  C   UNL d   1       8.337   4.845 -12.623  0.00  0.00     0.095 A 
ATOM      6  C   UNL d   1       8.626   4.043 -13.768  0.00  0.00     0.018 A 
ATOM      7  C   UNL d   1       7.622   3.166 -14.250  0.00  0.00    -0.018 A 
ATOM      8  C   UNL d   1       9.923   4.059 -14.505  0.00  0.00    -0.001 A 
ATOM      9  C   UNL d   1       6.340   3.131 -13.668  0.00  0.00    -0.004 A 
ATOM     10  C   UNL d   1       7.939   2.225 -15.396  0.00  0.00     0.064 C 
ATOM     11  C   UNL d   1       6.046   3.959 -12.578  0.00  0.00     0.002 A 
ATOM     12  C   UNL d   1       7.037   4.803 -12.056  0.00  0.00     0.024 A 
ATOM     13  C   UNL d   1       9.415   1.761 -15.371  0.00  0.00     0.246 C 
ATOM     14  C   UNL d   1      10.361   2.975 -15.311  0.00  0.00     0.005 A 
ATOM     15  N   UNL d   1       9.679   0.844 -16.490  0.00  0.00     0.142 N 
ATOM     16  C   UNL d   1      11.588   2.958 -16.027  0.00  0.00    -0.022 A 
ATOM     17  C   UNL d   1      12.418   4.087 -15.972  0.00  0.00    -0.004 A 
ATOM     18  C   UNL d   1      11.877   1.719 -16.849  0.00  0.00     0.061 C 
ATOM     19  C   UNL d   1      12.006   5.206 -15.240  0.00  0.00    -0.000 A 
ATOM     20  C   UNL d   1      10.786   5.181 -14.539  0.00  0.00    -0.000 A 
ATOM     21  C   UNL d   1      11.085   0.486 -16.434  0.00  0.00     0.255 C 
ATOM     22  C   UNL d   1       8.922  -0.391 -16.352  0.00  0.00     0.286 C 
ENDBRANCH   4   5
ENDBRANCH   3   4
TORSDOF 2
