REMARK  9 active torsions:
REMARK  status: ('A' for Active; 'I' for Inactive)
REMARK    1  A    between atoms: N_5  and  C_6 
REMARK    2  A    between atoms: C_6  and  C_7 
REMARK    3  A    between atoms: C_7  and  C_8 
REMARK    4  A    between atoms: C_11  and  O_12 
REMARK    5  A    between atoms: O_12  and  C_13 
REMARK    6  A    between atoms: C_13  and  C_14 
REMARK    7  A    between atoms: C_14  and  C_15 
REMARK    8  A    between atoms: C_15  and  N_16 
REMARK    9  A    between atoms: C_19  and  C_20 
ROOT
ATOM      1  C   UNL d   1      10.335   1.155 -18.392  0.00  0.00     0.068 C 
ENDROOT
BRANCH   1   2
ATOM      2  C   UNL d   1      11.440   2.224 -18.399  0.00  0.00     0.151 C 
BRANCH   2   3
ATOM      3  O   UNL d   1      10.964   3.465 -17.891  0.00  0.00    -0.331 OA
BRANCH   3   4
ATOM      4  C   UNL d   1      10.614   3.555 -16.562  0.00  0.00     0.094 A 
ATOM      5  C   UNL d   1       9.764   4.615 -16.196  0.00  0.00     0.024 A 
ATOM      6  C   UNL d   1       9.351   4.783 -14.860  0.00  0.00    -0.002 A 
ATOM      7  C   UNL d   1       9.815   3.903 -13.858  0.00  0.00    -0.020 A 
ATOM      8  C   UNL d   1      10.652   2.830 -14.223  0.00  0.00    -0.002 A 
ATOM      9  C   UNL d   1      11.051   2.653 -15.562  0.00  0.00     0.024 A 
BRANCH   7  10
ATOM     10  C   UNL d   1       9.424   4.105 -12.405  0.00  0.00     0.062 C 
BRANCH  10  11
ATOM     11  C   UNL d   1       9.255   5.579 -11.989  0.00  0.00     0.255 C 
BRANCH  11  12
ATOM     12  N   UNL d   1       9.508   5.738 -10.565  0.00  0.00     0.137 N 
ATOM     13  C   UNL d   1       8.342   5.342  -9.779  0.00  0.00     0.250 C 
ATOM     14  C   UNL d   1       8.688   5.407  -8.281  0.00  0.00     0.035 C 
ATOM     15  C   UNL d   1       9.144   6.810  -7.857  0.00  0.00     0.004 C 
ATOM     16  C   UNL d   1       9.587   6.831  -6.389  0.00  0.00     0.000 C 
ATOM     17  C   UNL d   1      10.264   7.282  -8.782  0.00  0.00     0.035 C 
ATOM     18  C   UNL d   1       9.865   7.132 -10.260  0.00  0.00     0.250 C 
ENDBRANCH  11  12
ENDBRANCH  10  11
ENDBRANCH   7  10
ENDBRANCH   3   4
ENDBRANCH   2   3
ENDBRANCH   1   2
BRANCH   1  19
ATOM     19  C   UNL d   1       9.046   1.594 -19.127  0.00  0.00     0.253 C 
BRANCH  19  20
ATOM     20  N   UNL d   1       8.021   0.547 -19.202  0.00  0.00     0.137 N 
ATOM     21  C   UNL d   1       8.528  -0.654 -19.869  0.00  0.00     0.251 C 
ATOM     22  C   UNL d   1       7.420  -1.698 -20.054  0.00  0.00     0.041 C 
ATOM     23  C   UNL d   1       6.797  -2.046 -18.695  0.00  0.00     0.047 C 
ATOM     24  C   UNL d   1       6.326  -0.771 -17.980  0.00  0.00     0.041 C 
ATOM     25  C   UNL d   1       7.470   0.246 -17.879  0.00  0.00     0.251 C 
BRANCH  23  26
ATOM     26  C   UNL d   1       5.673  -3.037 -18.853  0.00  0.00     0.087 A 
ATOM     27  C   UNL d   1       5.541  -4.368 -18.403  0.00  0.00     0.041 A 
ATOM     28  C   UNL d   1       4.307  -4.864 -18.823  0.00  0.00     0.129 A 
ATOM     29  C   UNL d   1       6.406  -5.198 -17.650  0.00  0.00     0.006 A 
ATOM     30  O   UNL d   1       3.715  -3.829 -19.530  0.00  0.00    -0.211 OA
ATOM     31  C   UNL d   1       3.866  -6.158 -18.545  0.00  0.00     0.057 A 
ATOM     32  N   UNL d   1       4.581  -2.704 -19.541  0.00  0.00    -0.131 NA
ATOM     33  C   UNL d   1       4.724  -6.993 -17.795  0.00  0.00     0.142 A 
ATOM     34  F   UNL d   1       4.348  -8.264 -17.514  0.00  0.00    -0.204 F 
ATOM     35  C   UNL d   1       5.984  -6.515 -17.351  0.00  0.00     0.030 A 
ENDBRANCH  23  26
ENDBRANCH  19  20
ENDBRANCH   1  19
TORSDOF 9
