REMARK  12 active torsions:
REMARK  status: ('A' for Active; 'I' for Inactive)
REMARK       I    between atoms: C_2  and  N_3 
REMARK    1  A    between atoms: C_2  and  C_24 
REMARK    2  A    between atoms: N_3  and  C_4 
REMARK    3  A    between atoms: C_4  and  C_5 
REMARK    4  A    between atoms: C_6  and  C_7 
REMARK    5  A    between atoms: C_7  and  N_8 
REMARK    6  A    between atoms: N_11  and  C_12 
REMARK    7  A    between atoms: C_17  and  O_18 
REMARK    8  A    between atoms: O_18  and  C_19 
REMARK    9  A    between atoms: C_19  and  C_20 
REMARK   10  A    between atoms: C_27  and  O_28 
REMARK   11  A    between atoms: O_28  and  C_29 
REMARK   12  A    between atoms: C_29  and  C_30 
ROOT
ATOM      1  C   UNL d   1       7.461   4.699 -12.927  0.00  0.00     0.276 C 
ENDROOT
BRANCH   1   2
ATOM      2  C   UNL d   1       8.241   5.751 -12.167  0.00  0.00     0.006 C 
ATOM      3  C   UNL d   1       8.247   7.048 -12.507  0.00  0.00    -0.003 C 
BRANCH   3   4
ATOM      4  C   UNL d   1       9.046   8.153 -11.845  0.00  0.00     0.155 C 
BRANCH   4   5
ATOM      5  N   UNL d   1       9.537   7.772 -10.531  0.00  0.00    -0.229 NA
ATOM      6  C   UNL d   1      10.600   8.302  -9.907  0.00  0.00     0.275 C 
ATOM      7  O   UNL d   1      11.410   9.046 -10.442  0.00  0.00    -0.266 OA
BRANCH   6   8
ATOM      8  C   UNL d   1      10.705   8.030  -8.437  0.00  0.00     0.058 A 
ATOM      9  C   UNL d   1       9.947   7.017  -7.810  0.00  0.00     0.007 A 
ATOM     10  C   UNL d   1      10.097   6.798  -6.430  0.00  0.00     0.024 A 
ATOM     11  C   UNL d   1      10.986   7.571  -5.658  0.00  0.00     0.094 A 
ATOM     12  C   UNL d   1      11.725   8.603  -6.283  0.00  0.00     0.024 A 
ATOM     13  C   UNL d   1      11.593   8.805  -7.662  0.00  0.00     0.007 A 
BRANCH  11  14
ATOM     14  O   UNL d   1      11.085   7.244  -4.328  0.00  0.00    -0.328 OA
BRANCH  14  15
ATOM     15  C   UNL d   1      11.878   8.077  -3.490  0.00  0.00     0.187 C 
BRANCH  15  16
ATOM     16  C   UNL d   1      11.896   7.488  -2.081  0.00  0.00     0.226 C 
ATOM     17  F   UNL d   1      12.648   6.389  -2.061  0.00  0.00    -0.232 F 
ENDBRANCH  15  16
ENDBRANCH  14  15
ENDBRANCH  11  14
ENDBRANCH   6   8
ENDBRANCH   4   5
ENDBRANCH   3   4
ENDBRANCH   1   2
BRANCH   1  18
ATOM     18  N   UNL d   1       8.306   3.581 -13.352  0.00  0.00     0.145 N 
ATOM     19  C   UNL d   1       7.479   2.571 -14.021  0.00  0.00     0.275 C 
ATOM     20  C   UNL d   1       8.329   1.331 -14.388  0.00  0.00     0.137 C 
ATOM     21  N   UNL d   1       9.468   1.731 -15.210  0.00  0.00    -0.343 N 
ATOM     22  C   UNL d   1      10.277   2.807 -14.639  0.00  0.00     0.137 C 
ATOM     23  C   UNL d   1       9.382   4.009 -14.257  0.00  0.00     0.275 C 
BRANCH  21  24
ATOM     24  C   UNL d   1       9.734   1.182 -16.475  0.00  0.00     0.079 A 
ATOM     25  C   UNL d   1       8.693   0.917 -17.415  0.00  0.00     0.110 A 
ATOM     26  C   UNL d   1       9.024   0.318 -18.658  0.00  0.00     0.026 A 
ATOM     27  C   UNL d   1      10.362   0.028 -18.984  0.00  0.00     0.002 A 
ATOM     28  C   UNL d   1      11.391   0.319 -18.074  0.00  0.00     0.002 A 
ATOM     29  C   UNL d   1      11.074   0.888 -16.825  0.00  0.00     0.019 A 
BRANCH  25  30
ATOM     30  O   UNL d   1       7.411   1.343 -17.109  0.00  0.00    -0.326 OA
BRANCH  30  31
ATOM     31  C   UNL d   1       6.271   0.826 -17.805  0.00  0.00     0.187 C 
BRANCH  31  32
ATOM     32  C   UNL d   1       5.696  -0.406 -17.089  0.00  0.00     0.226 C 
ATOM     33  F   UNL d   1       5.116  -0.071 -15.940  0.00  0.00    -0.232 F 
ENDBRANCH  31  32
ENDBRANCH  30  31
ENDBRANCH  25  30
ENDBRANCH  21  24
ENDBRANCH   1  18
TORSDOF 12
