REMARK  7 active torsions:
REMARK  status: ('A' for Active; 'I' for Inactive)
REMARK    1  A    between atoms: C_6  and  C_7 
REMARK    2  A    between atoms: C_10  and  S_11 
REMARK    3  A    between atoms: S_11  and  C_12 
REMARK    4  A    between atoms: C_12  and  C_13 
REMARK    5  A    between atoms: C_13  and  C_14 
REMARK    6  A    between atoms: C_14  and  N_16 
REMARK    7  A    between atoms: C_23  and  C_24 
ROOT
ATOM      1  C   UNL d   1       9.466  -1.143 -20.308  0.00  0.00     0.220 C 
ATOM      2  C   UNL d   1      10.049  -0.976 -21.709  0.00  0.00     0.035 C 
ENDROOT
BRANCH   1   3
ATOM      3  C   UNL d   1       7.990  -1.523 -20.343  0.00  0.00     0.045 C 
BRANCH   3   4
ATOM      4  C   UNL d   1       7.629  -2.811 -21.127  0.00  0.00     0.067 C 
BRANCH   4   5
ATOM      5  S   UNL d   1       5.853  -3.269 -21.094  0.00  0.00    -0.075 SA
BRANCH   5   6
ATOM      6  C   UNL d   1       5.234  -2.110 -19.926  0.00  0.00     0.193 A 
ATOM      7  N   UNL d   1       4.641  -0.965 -20.269  0.00  0.00    -0.122 NA
ATOM      8  N   UNL d   1       4.426  -0.289 -19.094  0.00  0.00    -0.128 NA
ATOM      9  C   UNL d   1       4.899  -1.086 -18.133  0.00  0.00     0.167 A 
ATOM     10  N   UNL d   1       5.436  -2.232 -18.603  0.00  0.00    -0.289 N 
ATOM     11  C   UNL d   1       6.127  -3.290 -17.884  0.00  0.00     0.134 C 
BRANCH   9  12
ATOM     12  C   UNL d   1       4.869  -0.705 -16.718  0.00  0.00     0.037 A 
ATOM     13  C   UNL d   1       5.835   0.113 -16.096  0.00  0.00     0.021 A 
ATOM     14  C   UNL d   1       6.955   0.641 -16.794  0.00  0.00     0.003 A 
ATOM     15  C   UNL d   1       5.732   0.458 -14.712  0.00  0.00     0.081 A 
ATOM     16  C   UNL d   1       7.888   1.443 -16.097  0.00  0.00     0.015 A 
ATOM     17  C   UNL d   1       7.650   1.733 -14.745  0.00  0.00     0.059 A 
ATOM     18  C   UNL d   1       8.634   2.631 -14.053  0.00  0.00     0.052 C 
ATOM     19  N   UNL d   1       6.579   1.249 -14.056  0.00  0.00    -0.250 NA
ATOM     20  C   UNL d   1       4.636  -0.067 -13.989  0.00  0.00     0.019 A 
ATOM     21  C   UNL d   1       3.681  -0.882 -14.602  0.00  0.00     0.002 A 
ATOM     22  C   UNL d   1       3.800  -1.194 -15.956  0.00  0.00     0.003 A 
ENDBRANCH   9  12
ENDBRANCH   5   6
ENDBRANCH   4   5
ENDBRANCH   3   4
ENDBRANCH   1   3
BRANCH   1  23
ATOM     23  N   UNL d   1       9.667   0.015 -19.424  0.00  0.00     0.136 N 
ATOM     24  C   UNL d   1       9.249   1.277 -20.066  0.00  0.00     0.255 C 
ATOM     25  C   UNL d   1       8.987   2.397 -19.052  0.00  0.00     0.062 C 
ATOM     26  C   UNL d   1      10.275   3.097 -18.583  0.00  0.00    -0.016 A 
ATOM     27  C   UNL d   1      11.313   2.374 -17.921  0.00  0.00    -0.022 A 
ATOM     28  C   UNL d   1      10.432   4.490 -18.779  0.00  0.00     0.055 A 
ATOM     29  C   UNL d   1      11.208   0.880 -17.643  0.00  0.00     0.061 C 
ATOM     30  C   UNL d   1      12.508   3.031 -17.517  0.00  0.00     0.017 A 
ATOM     31  C   UNL d   1      11.040   0.034 -18.913  0.00  0.00     0.255 C 
ATOM     32  C   UNL d   1      12.683   4.414 -17.756  0.00  0.00     0.106 A 
ATOM     33  C   UNL d   1      11.625   5.105 -18.376  0.00  0.00     0.125 A 
ATOM     34  N   UNL d   1      13.717   5.280 -17.497  0.00  0.00    -0.217 NA
ATOM     35  O   UNL d   1      12.012   6.433 -18.526  0.00  0.00    -0.284 OA
ATOM     36  C   UNL d   1      13.271   6.446 -17.996  0.00  0.00     0.256 A 
ATOM     37 BR   UNL d   1       9.091   5.565 -19.619  0.00  0.00    -0.047 Br
BRANCH  36  38
ATOM     38  C   UNL d   1      13.998   7.750 -17.973  0.00  0.00     0.458 C 
ATOM     39  F   UNL d   1      13.728   8.399 -16.842  0.00  0.00    -0.163 F 
ATOM     40  F   UNL d   1      15.313   7.554 -18.043  0.00  0.00    -0.163 F 
ATOM     41  F   UNL d   1      13.641   8.511 -19.006  0.00  0.00    -0.163 F 
ENDBRANCH  36  38
ENDBRANCH   1  23
TORSDOF 7
