REMARK  8 active torsions:
REMARK  status: ('A' for Active; 'I' for Inactive)
REMARK    1  A    between atoms: C_4  and  N_5 
REMARK    2  A    between atoms: N_8  and  C_9 
REMARK    3  A    between atoms: C_9  and  C_10 
REMARK    4  A    between atoms: C_10  and  C_11 
REMARK    5  A    between atoms: C_11  and  C_12 
REMARK    6  A    between atoms: C_12  and  C_13 
REMARK    7  A    between atoms: C_13  and  N_14 
REMARK    8  A    between atoms: N_14  and  C_15 
ROOT
ATOM      1  C   UNL d   1       7.793   4.559 -11.965  0.00  0.00     0.035 C 
ENDROOT
BRANCH   1   2
ATOM      2  C   UNL d   1       8.039   5.988 -11.473  0.00  0.00     0.250 C 
BRANCH   2   3
ATOM      3  N   UNL d   1       9.191   6.020 -10.571  0.00  0.00     0.141 N 
ATOM      4  C   UNL d   1       9.781   7.365 -10.588  0.00  0.00     0.274 C 
ATOM      5  C   UNL d   1      11.014   7.439  -9.681  0.00  0.00     0.138 C 
ATOM      6  N   UNL d   1      10.654   7.029  -8.326  0.00  0.00    -0.330 N 
ATOM      7  C   UNL d   1       9.972   5.739  -8.244  0.00  0.00     0.138 C 
ATOM      8  C   UNL d   1       8.766   5.704  -9.199  0.00  0.00     0.274 C 
BRANCH   6   9
ATOM      9  C   UNL d   1      10.946   7.805  -7.181  0.00  0.00     0.140 A 
ATOM     10  C   UNL d   1      11.129   9.206  -7.270  0.00  0.00     0.037 A 
ATOM     11  C   UNL d   1      11.433   9.943  -6.108  0.00  0.00     0.005 A 
ATOM     12  C   UNL d   1      11.546   9.264  -4.885  0.00  0.00     0.021 A 
ATOM     13  C   UNL d   1      11.360   7.869  -4.888  0.00  0.00     0.101 A 
ATOM     14  N   UNL d   1      11.061   7.157  -5.997  0.00  0.00    -0.227 NA
ENDBRANCH   6   9
ENDBRANCH   2   3
ENDBRANCH   1   2
BRANCH   1  15
ATOM     15  C   UNL d   1       6.807   4.489 -13.140  0.00  0.00     0.004 C 
BRANCH  15  16
ATOM     16  C   UNL d   1       6.402   3.053 -13.518  0.00  0.00     0.026 C 
BRANCH  16  17
ATOM     17  C   UNL d   1       7.528   2.251 -14.205  0.00  0.00     0.127 C 
BRANCH  17  18
ATOM     18  N   UNL d   1       7.210   0.833 -14.275  0.00  0.00    -0.255 NA
BRANCH  18  19
ATOM     19  C   UNL d   1       6.463   0.227 -15.271  0.00  0.00     0.165 C 
ATOM     20  C   UNL d   1       5.705  -1.008 -14.765  0.00  0.00     0.214 C 
ATOM     21  O   UNL d   1       5.293  -1.923 -15.777  0.00  0.00    -0.321 OA
ATOM     22  C   UNL d   1       5.042  -1.385 -17.015  0.00  0.00     0.112 A 
ATOM     23  C   UNL d   1       5.566  -0.117 -17.372  0.00  0.00     0.105 A 
ATOM     24  C   UNL d   1       4.276  -2.121 -17.938  0.00  0.00     0.026 A 
ATOM     25  N   UNL d   1       6.348   0.642 -16.491  0.00  0.00    -0.227 NA
ATOM     26  C   UNL d   1       5.317   0.393 -18.662  0.00  0.00     0.021 A 
ATOM     27  C   UNL d   1       4.532  -0.333 -19.575  0.00  0.00     0.002 A 
ATOM     28  C   UNL d   1       4.020  -1.593 -19.217  0.00  0.00     0.002 A 
ENDBRANCH  18  19
ENDBRANCH  17  18
ENDBRANCH  16  17
ENDBRANCH  15  16
ENDBRANCH   1  15
TORSDOF 8
