REMARK  1 active torsions:
REMARK  status: ('A' for Active; 'I' for Inactive)
REMARK    1  A    between atoms: N_17  and  C_18 
ROOT
ATOM      1  C   UNL d   1       4.630  -1.172 -17.749  0.00  0.00     0.033 C 
ATOM      2  C   UNL d   1       5.908  -0.376 -17.715  0.00  0.00     0.000 A 
ATOM      3  C   UNL d   1       6.633  -0.163 -18.900  0.00  0.00     0.018 A 
ATOM      4  C   UNL d   1       7.781   0.628 -18.824  0.00  0.00     0.100 A 
ATOM      5  N   UNL d   1       8.220   1.207 -17.711  0.00  0.00    -0.225 NA
ATOM      6  C   UNL d   1       7.590   0.968 -16.549  0.00  0.00     0.163 A 
ATOM      7  C   UNL d   1       6.412   0.193 -16.495  0.00  0.00     0.115 A 
ATOM      8  N   UNL d   1       5.718  -0.174 -15.282  0.00  0.00    -0.205 NA
ATOM      9  C   UNL d   1       5.611   0.497 -14.109  0.00  0.00     0.282 C 
ATOM     10  O   UNL d   1       4.900   0.057 -13.210  0.00  0.00    -0.265 OA
ATOM     11  C   UNL d   1       6.235   1.851 -13.911  0.00  0.00     0.092 A 
ATOM     12  C   UNL d   1       5.566   2.751 -13.037  0.00  0.00     0.009 A 
ATOM     13  C   UNL d   1       6.140   3.990 -12.713  0.00  0.00     0.021 A 
ATOM     14  C   UNL d   1       7.401   4.278 -13.252  0.00  0.00     0.101 A 
ATOM     15  N   UNL d   1       8.053   3.445 -14.087  0.00  0.00    -0.227 NA
ATOM     16  C   UNL d   1       7.489   2.258 -14.437  0.00  0.00     0.150 A 
ATOM     17  N   UNL d   1       8.217   1.497 -15.377  0.00  0.00    -0.299 N 
ENDROOT
BRANCH  17  18
ATOM     18  C   UNL d   1       9.700   1.588 -15.290  0.00  0.00     0.088 A 
ATOM     19  C   UNL d   1      10.680   0.765 -16.114  0.00  0.00     0.025 A 
ATOM     20  C   UNL d   1      10.565   2.275 -16.340  0.00  0.00     0.025 A 
ENDBRANCH  17  18
TORSDOF 1
