REMARK  6 active torsions:
REMARK  status: ('A' for Active; 'I' for Inactive)
REMARK    1  A    between atoms: S_2  and  C_3 
REMARK    2  A    between atoms: C_6  and  C_7 
REMARK    3  A    between atoms: C_10  and  C_11 
REMARK       I    between atoms: C_11  and  N_13 
REMARK    4  A    between atoms: N_13  and  C_14 
REMARK    5  A    between atoms: N_17  and  C_18 
REMARK    6  A    between atoms: C_18  and  C_19 
ROOT
ATOM      1  C   UNL d   1       8.506   5.515 -11.995  0.00  0.00     0.275 C 
ATOM      2  O   UNL d   1       9.051   5.767 -13.070  0.00  0.00    -0.266 OA
ATOM      3  N   UNL d   1       7.370   4.809 -11.893  0.00  0.00    -0.234 NA
ENDROOT
BRANCH   1   4
ATOM      4  C   UNL d   1       9.046   6.041 -10.705  0.00  0.00     0.058 A 
ATOM      5  C   UNL d   1       8.743   5.427  -9.471  0.00  0.00     0.005 A 
ATOM      6  C   UNL d   1       9.242   5.974  -8.276  0.00  0.00     0.000 A 
ATOM      7  C   UNL d   1      10.069   7.118  -8.281  0.00  0.00     0.000 A 
ATOM      8  C   UNL d   1      10.378   7.712  -9.520  0.00  0.00     0.000 A 
ATOM      9  C   UNL d   1       9.858   7.193 -10.716  0.00  0.00     0.005 A 
BRANCH   7  10
ATOM     10  C   UNL d   1      10.595   7.670  -7.022  0.00  0.00     0.000 A 
ATOM     11  C   UNL d   1      10.754   9.059  -6.828  0.00  0.00     0.001 A 
ATOM     12  C   UNL d   1      11.261   9.560  -5.610  0.00  0.00     0.006 A 
ATOM     13  C   UNL d   1      11.613   8.668  -4.570  0.00  0.00     0.025 A 
ATOM     14  C   UNL d   1      11.461   7.286  -4.764  0.00  0.00     0.006 A 
ATOM     15  C   UNL d   1      10.965   6.808  -5.977  0.00  0.00     0.001 A 
BRANCH  13  16
ATOM     16  S   UNL d   1      12.261   9.289  -3.064  0.00  0.00    -0.113 SA
ATOM     17  C   UNL d   1      12.374   7.924  -1.883  0.00  0.00     0.074 C 
ENDBRANCH  13  16
ENDBRANCH   7  10
ENDBRANCH   1   4
BRANCH   3  18
ATOM     18  C   UNL d   1       6.619   4.291 -13.021  0.00  0.00     0.142 C 
ATOM     19  C   UNL d   1       7.439   3.302 -13.870  0.00  0.00     0.275 C 
ATOM     20  N   UNL d   1       6.440   2.356 -14.356  0.00  0.00     0.143 N 
ATOM     21  C   UNL d   1       5.597   2.122 -13.188  0.00  0.00     0.253 C 
ATOM     22  C   UNL d   1       5.402   3.495 -12.564  0.00  0.00     0.062 C 
BRANCH  20  23
ATOM     23  C   UNL d   1       7.047   1.132 -14.884  0.00  0.00     0.277 C 
BRANCH  23  24
ATOM     24  C   UNL d   1       6.064   0.145 -15.509  0.00  0.00     0.011 A 
ATOM     25  C   UNL d   1       6.199  -0.222 -16.869  0.00  0.00    -0.002 A 
ATOM     26  C   UNL d   1       5.280  -1.110 -17.473  0.00  0.00    -0.000 A 
ATOM     27  C   UNL d   1       4.199  -1.612 -16.723  0.00  0.00    -0.000 A 
ATOM     28  C   UNL d   1       4.061  -1.243 -15.365  0.00  0.00    -0.000 A 
ATOM     29  C   UNL d   1       5.008  -0.411 -14.746  0.00  0.00    -0.002 A 
ENDBRANCH  23  24
ENDBRANCH  20  23
ENDBRANCH   3  18
TORSDOF 6
