REMARK  6 active torsions:
REMARK  status: ('A' for Active; 'I' for Inactive)
REMARK    1  A    between atoms: N_11  and  C_12 
REMARK    2  A    between atoms: C_12  and  C_13 
REMARK    3  A    between atoms: C_13  and  C_14 
REMARK    4  A    between atoms: C_14  and  N_15 
REMARK    5  A    between atoms: N_18  and  C_19 
REMARK    6  A    between atoms: C_23  and  N_24 
ROOT
ATOM      1  N   UNL d   1       9.151   5.463 -10.046  0.00  0.00     0.141 N 
ATOM      2  C   UNL d   1       9.082   6.928 -10.036  0.00  0.00     0.274 C 
ATOM      3  C   UNL d   1       8.819   7.413  -8.588  0.00  0.00     0.137 C 
ATOM      4  N   UNL d   1       9.895   6.988  -7.728  0.00  0.00    -0.344 N 
ATOM      5  C   UNL d   1      10.149   5.554  -7.747  0.00  0.00     0.137 C 
ATOM      6  C   UNL d   1      10.292   5.152  -9.206  0.00  0.00     0.274 C 
ENDROOT
BRANCH   1   7
ATOM      7  C   UNL d   1       9.500   5.038 -11.392  0.00  0.00     0.252 C 
BRANCH   7   8
ATOM      8  C   UNL d   1       8.237   4.934 -12.245  0.00  0.00     0.060 C 
BRANCH   8   9
ATOM      9  C   UNL d   1       8.540   4.966 -13.756  0.00  0.00     0.111 C 
BRANCH   9  10
ATOM     10  N   UNL d   1       9.262   3.751 -14.209  0.00  0.00    -0.299 N 
ATOM     11  C   UNL d   1      10.609   3.782 -14.280  0.00  0.00     0.238 C 
ATOM     12  O   UNL d   1      11.292   4.791 -14.039  0.00  0.00    -0.272 OA
ATOM     13  C   UNL d   1      11.339   2.483 -14.626  0.00  0.00     0.093 C 
ATOM     14  C   UNL d   1      10.537   1.600 -15.591  0.00  0.00     0.038 C 
ATOM     15  C   UNL d   1       9.090   1.486 -15.189  0.00  0.00    -0.006 A 
ATOM     16  C   UNL d   1       8.473   2.591 -14.499  0.00  0.00     0.058 A 
ATOM     17  C   UNL d   1       8.325   0.350 -15.483  0.00  0.00    -0.003 A 
ATOM     18  C   UNL d   1       7.114   2.501 -14.157  0.00  0.00     0.017 A 
ATOM     19  C   UNL d   1       6.363   1.349 -14.446  0.00  0.00     0.002 A 
ATOM     20  C   UNL d   1       6.973   0.264 -15.115  0.00  0.00    -0.000 A 
ENDBRANCH   9  10
ENDBRANCH   8   9
ENDBRANCH   7   8
ENDBRANCH   1   7
BRANCH   4  21
ATOM     21  C   UNL d   1      10.554   7.879  -6.854  0.00  0.00     0.058 A 
ATOM     22  C   UNL d   1      10.978   7.440  -5.584  0.00  0.00     0.040 A 
ATOM     23  C   UNL d   1      11.656   8.337  -4.707  0.00  0.00     0.128 A 
ATOM     24  C   UNL d   1      11.889   9.651  -5.138  0.00  0.00     0.024 A 
ATOM     25  C   UNL d   1      11.477  10.091  -6.405  0.00  0.00     0.003 A 
ATOM     26  C   UNL d   1      10.792   9.200  -7.262  0.00  0.00     0.017 A 
BRANCH  23  27
ATOM     27  N   UNL d   1      12.118   7.888  -3.380  0.00  0.00    -0.114 N 
ATOM     28  O   UNL d   1      11.940   6.723  -3.056  0.00  0.00    -0.532 OA
ATOM     29  O   UNL d   1      12.687   8.709  -2.652  0.00  0.00    -0.532 OA
ENDBRANCH  23  27
ENDBRANCH   4  21
TORSDOF 6
