REMARK  8 active torsions:
REMARK  status: ('A' for Active; 'I' for Inactive)
REMARK    1  A    between atoms: C_2  and  C_3 
REMARK    2  A    between atoms: C_7  and  N_8 
REMARK    3  A    between atoms: N_11  and  C_12 
REMARK    4  A    between atoms: C_12  and  C_13 
REMARK    5  A    between atoms: C_13  and  C_15 
REMARK    6  A    between atoms: C_15  and  C_16 
REMARK    7  A    between atoms: C_16  and  N_17 
REMARK       I    between atoms: N_17  and  C_18 
REMARK    8  A    between atoms: C_18  and  C_20 
ROOT
ATOM      1  C   UNL d   1       7.915   5.028 -13.639  0.00  0.00     0.283 C 
ENDROOT
BRANCH   1   2
ATOM      2  N   UNL d   1       7.590   3.600 -13.512  0.00  0.00     0.144 N 
ATOM      3  C   UNL d   1       6.140   3.380 -13.633  0.00  0.00     0.274 C 
ATOM      4  C   UNL d   1       5.746   1.885 -13.483  0.00  0.00     0.137 C 
ATOM      5  N   UNL d   1       6.528   1.085 -14.426  0.00  0.00    -0.344 N 
ATOM      6  C   UNL d   1       7.971   1.281 -14.410  0.00  0.00     0.137 C 
ATOM      7  C   UNL d   1       8.280   2.785 -14.520  0.00  0.00     0.274 C 
BRANCH   5   8
ATOM      8  C   UNL d   1       5.911   0.253 -15.379  0.00  0.00     0.067 A 
ATOM      9  C   UNL d   1       4.990  -0.709 -14.910  0.00  0.00     0.018 A 
ATOM     10  C   UNL d   1       4.368  -1.599 -15.804  0.00  0.00     0.001 A 
ATOM     11  C   UNL d   1       4.650  -1.540 -17.174  0.00  0.00    -0.003 A 
ATOM     12  C   UNL d   1       5.555  -0.580 -17.667  0.00  0.00    -0.010 A 
ATOM     13  C   UNL d   1       6.182   0.325 -16.775  0.00  0.00     0.069 A 
ATOM     14 CL   UNL d   1       7.216   1.540 -17.463  0.00  0.00    -0.081 Cl
BRANCH  12  15
ATOM     15  C   UNL d   1       5.835  -0.510 -19.159  0.00  0.00     0.027 C 
ATOM     16  C   UNL d   1       5.039   0.610 -19.843  0.00  0.00     0.005 C 
ENDBRANCH  12  15
ENDBRANCH   5   8
ENDBRANCH   1   2
BRANCH   1  17
ATOM     17  C   UNL d   1       9.239   5.468 -12.998  0.00  0.00     0.188 C 
ATOM     18  O   UNL d   1      10.365   4.949 -13.669  0.00  0.00    -0.221 OA
BRANCH  17  19
ATOM     19  C   UNL d   1       9.357   5.132 -11.512  0.00  0.00     0.061 C 
BRANCH  19  20
ATOM     20  C   UNL d   1       8.204   5.681 -10.640  0.00  0.00     0.132 C 
BRANCH  20  21
ATOM     21  N   UNL d   1       8.661   6.376  -9.434  0.00  0.00    -0.233 NA
ATOM     22  C   UNL d   1       9.553   5.939  -8.562  0.00  0.00     0.293 C 
ATOM     23  O   UNL d   1       9.995   4.794  -8.592  0.00  0.00    -0.264 OA
BRANCH  22  24
ATOM     24  C   UNL d   1       9.995   6.892  -7.529  0.00  0.00     0.139 A 
ATOM     25  N   UNL d   1      10.757   6.423  -6.481  0.00  0.00    -0.241 NA
ATOM     26  C   UNL d   1      11.061   7.420  -5.590  0.00  0.00     0.082 A 
ATOM     27  C   UNL d   1      10.505   8.603  -6.162  0.00  0.00     0.019 A 
ATOM     28  C   UNL d   1      11.751   7.426  -4.365  0.00  0.00     0.019 A 
ATOM     29  C   UNL d   1       9.852   8.249  -7.389  0.00  0.00     0.025 A 
ATOM     30  C   UNL d   1      10.685   9.805  -5.436  0.00  0.00     0.002 A 
ATOM     31  C   UNL d   1      11.345   9.816  -4.195  0.00  0.00     0.000 A 
ATOM     32  C   UNL d   1      11.893   8.639  -3.659  0.00  0.00     0.002 A 
ENDBRANCH  22  24
ENDBRANCH  20  21
ENDBRANCH  19  20
ENDBRANCH  17  19
ENDBRANCH   1  17
TORSDOF 8
