REMARK  0 active torsions:
REMARK  status: ('A' for Active; 'I' for Inactive)
ROOT
ATOM      1  O   UNL d   1       9.861   8.790  -7.235  0.00  0.00    -0.188 OA
ATOM      2  C   UNL d   1      10.657   8.498  -6.164  0.00  0.00     0.156 A 
ATOM      3  C   UNL d   1      10.667   7.190  -5.642  0.00  0.00     0.029 A 
ATOM      4  C   UNL d   1      11.462   6.887  -4.520  0.00  0.00     0.002 A 
ATOM      5  C   UNL d   1      12.254   7.881  -3.917  0.00  0.00     0.002 A 
ATOM      6  C   UNL d   1      12.253   9.188  -4.439  0.00  0.00     0.029 A 
ATOM      7  C   UNL d   1      11.456   9.498  -5.562  0.00  0.00     0.156 A 
ATOM      8  O   UNL d   1      11.460  10.769  -6.060  0.00  0.00    -0.188 OA
ENDROOT
TORSDOF 0
