REMARK  3 active torsions:
REMARK  status: ('A' for Active; 'I' for Inactive)
REMARK    1  A    between atoms: C_2  and  C_3 
REMARK    2  A    between atoms: C_3  and  C_4 
REMARK    3  A    between atoms: C_15  and  O_16 
ROOT
ATOM      1  C   UNL d   1      10.501   8.136  -9.139  0.00  0.00     0.007 A 
ATOM      2  C   UNL d   1       9.809   8.555 -10.242  0.00  0.00    -0.000 A 
ATOM      3  C   UNL d   1       9.392   7.477 -11.083  0.00  0.00     0.013 A 
ATOM      4  C   UNL d   1       9.761   6.255 -10.609  0.00  0.00     0.007 A 
ATOM      5  S   UNL d   1      10.608   6.407  -9.079  0.00  0.00    -0.096 SA
ATOM      6  C   UNL d   1       9.362   4.973 -11.287  0.00  0.00     0.070 C 
ATOM      7  C   UNL d   1       8.814   5.204 -12.732  0.00  0.00     0.246 C 
ATOM      8  C   UNL d   1       8.222   3.926 -13.309  0.00  0.00     0.007 A 
ATOM      9  C   UNL d   1       9.060   2.898 -13.790  0.00  0.00     0.027 A 
ATOM     10  C   UNL d   1       8.505   1.694 -14.279  0.00  0.00     0.153 A 
ATOM     11  O   UNL d   1       9.316   0.666 -14.669  0.00  0.00    -0.188 OA
ATOM     12  C   UNL d   1       7.106   1.487 -14.271  0.00  0.00     0.119 A 
ATOM     13  C   UNL d   1       6.271   2.526 -13.776  0.00  0.00     0.022 A 
ATOM     14  C   UNL d   1       6.820   3.735 -13.310  0.00  0.00    -0.020 A 
ATOM     15  C   UNL d   1       5.893   4.844 -12.830  0.00  0.00     0.061 C 
ATOM     16  C   UNL d   1       6.632   5.997 -12.095  0.00  0.00     0.256 C 
ATOM     17  N   UNL d   1       7.876   6.333 -12.797  0.00  0.00     0.144 N 
ATOM     18  C   UNL d   1       8.548   7.554 -12.319  0.00  0.00     0.277 C 
ENDROOT
BRANCH   1  19
ATOM     19  C   UNL d   1      11.072   8.960  -8.047  0.00  0.00     0.033 C 
BRANCH  19  20
ATOM     20  C   UNL d   1      10.324   8.831  -6.711  0.00  0.00     0.005 C 
ATOM     21  C   UNL d   1      10.906   9.765  -5.644  0.00  0.00     0.000 C 
ENDBRANCH  19  20
ENDBRANCH   1  19
BRANCH  12  22
ATOM     22  O   UNL d   1       6.650   0.249 -14.674  0.00  0.00    -0.326 OA
ATOM     23  C   UNL d   1       5.247   0.029 -14.699  0.00  0.00     0.181 C 
ENDBRANCH  12  22
TORSDOF 3
