REMARK  3 active torsions:
REMARK  status: ('A' for Active; 'I' for Inactive)
REMARK    1  A    between atoms: C_2  and  C_3 
REMARK    2  A    between atoms: C_18  and  O_19 
REMARK    3  A    between atoms: C_21  and  O_22 
ROOT
ATOM      1  C   UNL d   1       7.519   4.293 -13.287  0.00  0.00    -0.026 A 
ATOM      2  C   UNL d   1       8.679   4.717 -13.945  0.00  0.00    -0.005 A 
ATOM      3  C   UNL d   1       9.287   3.917 -14.924  0.00  0.00    -0.001 A 
ATOM      4  C   UNL d   1       8.782   2.649 -15.320  0.00  0.00    -0.001 A 
ATOM      5  C   UNL d   1       7.582   2.275 -14.652  0.00  0.00     0.005 A 
ATOM      6  C   UNL d   1       6.952   3.054 -13.638  0.00  0.00    -0.026 A 
ATOM      7  C   UNL d   1       5.700   2.454 -13.021  0.00  0.00     0.061 C 
ATOM      8  C   UNL d   1       5.524   0.949 -13.235  0.00  0.00     0.255 C 
ATOM      9  N   UNL d   1       5.600   0.686 -14.658  0.00  0.00     0.142 N 
ATOM     10  C   UNL d   1       5.142  -0.685 -14.883  0.00  0.00     0.286 C 
ATOM     11  C   UNL d   1       6.989   0.910 -15.075  0.00  0.00     0.246 C 
ATOM     12  C   UNL d   1       7.130   0.701 -16.604  0.00  0.00     0.064 C 
ATOM     13  C   UNL d   1       8.565   0.879 -17.057  0.00  0.00    -0.018 A 
ATOM     14  C   UNL d   1       9.053   0.090 -18.119  0.00  0.00    -0.002 A 
ATOM     15  C   UNL d   1      10.396   0.190 -18.512  0.00  0.00     0.026 A 
ATOM     16  C   UNL d   1      11.267   1.076 -17.838  0.00  0.00     0.116 A 
ATOM     17  C   UNL d   1      10.757   1.896 -16.797  0.00  0.00     0.116 A 
ATOM     18  C   UNL d   1       9.394   1.813 -16.393  0.00  0.00     0.020 A 
ENDROOT
BRANCH   1  19
ATOM     19  C   UNL d   1       6.927   5.199 -12.213  0.00  0.00     0.026 C 
ATOM     20  C   UNL d   1       7.873   5.353 -11.010  0.00  0.00     0.005 C 
ENDBRANCH   1  19
BRANCH  17  21
ATOM     21  O   UNL d   1      11.622   2.739 -16.146  0.00  0.00    -0.326 OA
ATOM     22  C   UNL d   1      12.050   3.860 -16.908  0.00  0.00     0.181 C 
ENDBRANCH  17  21
BRANCH  16  23
ATOM     23  O   UNL d   1      12.610   1.185 -18.137  0.00  0.00    -0.326 OA
ATOM     24  C   UNL d   1      13.154   0.370 -19.168  0.00  0.00     0.181 C 
ENDBRANCH  16  23
TORSDOF 3
