REMARK  3 active torsions:
REMARK  status: ('A' for Active; 'I' for Inactive)
REMARK    1  A    between atoms: N_2  and  C_4 
REMARK    2  A    between atoms: C_4  and  C_5 
REMARK    3  A    between atoms: C_10  and  C_11 
ROOT
ATOM      1  C   UNL d   1      11.355   1.888 -17.476  0.00  0.00     0.137 C 
ATOM      2  C   UNL d   1      11.607   3.299 -16.912  0.00  0.00     0.033 C 
ATOM      3  C   UNL d   1      10.030   1.798 -18.242  0.00  0.00     0.099 C 
ATOM      4  C   UNL d   1       8.848   1.944 -17.315  0.00  0.00     0.177 C 
ATOM      5  O   UNL d   1       7.831   2.482 -17.742  0.00  0.00    -0.291 OA
ATOM      6  C   UNL d   1       8.984   1.395 -15.953  0.00  0.00     0.059 C 
ATOM      7  C   UNL d   1      10.206   0.899 -15.611  0.00  0.00     0.119 C 
ATOM      8  O   UNL d   1      11.348   1.001 -16.354  0.00  0.00    -0.331 OA
ENDROOT
BRANCH   6   9
ATOM      9  C   UNL d   1       7.839   1.323 -15.038  0.00  0.00     0.005 A 
ATOM     10  C   UNL d   1       7.160   0.106 -14.796  0.00  0.00     0.000 A 
ATOM     11  C   UNL d   1       6.023   0.071 -13.963  0.00  0.00     0.000 A 
ATOM     12  C   UNL d   1       5.542   1.264 -13.389  0.00  0.00     0.000 A 
ATOM     13  C   UNL d   1       6.195   2.484 -13.641  0.00  0.00     0.000 A 
ATOM     14  C   UNL d   1       7.346   2.514 -14.458  0.00  0.00     0.000 A 
ENDBRANCH   6   9
BRANCH   1  15
ATOM     15  C   UNL d   1      12.549   1.557 -18.424  0.00  0.00     0.278 C 
BRANCH  15  16
ATOM     16  N   UNL d   1      12.348   0.426 -19.332  0.00  0.00     0.144 N 
ATOM     17  C   UNL d   1      12.181  -0.803 -18.583  0.00  0.00     0.286 C 
ATOM     18  C   UNL d   1      13.491   0.279 -20.232  0.00  0.00     0.286 C 
ENDBRANCH  15  16
ENDBRANCH   1  15
TORSDOF 3
