REMARK  2 active torsions:
REMARK  status: ('A' for Active; 'I' for Inactive)
REMARK    1  A    between atoms: C_2  and  C_3 
REMARK    2  A    between atoms: C_3  and  N_4 
ROOT
ATOM      1  N   UNL d   1       6.345   0.240 -13.713  0.00  0.00     0.140 N 
ATOM      2  C   UNL d   1       5.077   0.909 -13.564  0.00  0.00     0.255 C 
ATOM      3  C   UNL d   1       5.217   2.155 -12.730  0.00  0.00     0.061 C 
ATOM      4  C   UNL d   1       6.271   3.135 -13.217  0.00  0.00    -0.022 A 
ATOM      5  C   UNL d   1       6.369   4.468 -12.809  0.00  0.00    -0.004 A 
ATOM      6  C   UNL d   1       7.493   5.223 -13.202  0.00  0.00    -0.000 A 
ATOM      7  C   UNL d   1       8.488   4.663 -14.017  0.00  0.00    -0.000 A 
ATOM      8  C   UNL d   1       8.438   3.320 -14.479  0.00  0.00    -0.001 A 
ATOM      9  C   UNL d   1       7.324   2.585 -14.022  0.00  0.00     0.005 A 
ATOM     10  C   UNL d   1       7.251   1.119 -14.485  0.00  0.00     0.245 C 
ATOM     11  C   UNL d   1       8.664   0.471 -14.556  0.00  0.00     0.064 C 
ATOM     12  C   UNL d   1       9.624   1.310 -15.345  0.00  0.00    -0.018 A 
ATOM     13  C   UNL d   1      10.615   0.673 -16.113  0.00  0.00    -0.004 A 
ATOM     14  C   UNL d   1      11.486   1.429 -16.913  0.00  0.00     0.002 A 
ATOM     15  C   UNL d   1      11.364   2.837 -16.977  0.00  0.00     0.024 A 
ATOM     16  C   UNL d   1      12.024   3.897 -17.668  0.00  0.00     0.022 A 
ATOM     17  C   UNL d   1      11.380   5.051 -17.291  0.00  0.00     0.078 A 
ATOM     18  C   UNL d   1      11.592   6.468 -17.683  0.00  0.00     0.058 C 
ATOM     19  O   UNL d   1      10.371   4.806 -16.407  0.00  0.00    -0.311 OA
ATOM     20  C   UNL d   1      10.352   3.442 -16.180  0.00  0.00     0.099 A 
ATOM     21  C   UNL d   1       9.482   2.716 -15.331  0.00  0.00     0.019 A 
ENDROOT
BRANCH   1  22
ATOM     22  C   UNL d   1       6.061  -1.051 -14.351  0.00  0.00     0.251 C 
BRANCH  22  23
ATOM     23  C   UNL d   1       5.383  -1.011 -15.770  0.00  0.00     0.035 C 
ATOM     24  C   UNL d   1       3.821  -1.073 -15.770  0.00  0.00     0.002 C 
ENDBRANCH  22  23
ENDBRANCH   1  22
TORSDOF 2
