REMARK  4 active torsions:
REMARK  status: ('A' for Active; 'I' for Inactive)
REMARK    1  A    between atoms: O_2  and  C_3 
REMARK    2  A    between atoms: C_10  and  C_11 
REMARK    3  A    between atoms: C_11  and  N_12 
REMARK    4  A    between atoms: C_15  and  C_17 
ROOT
ATOM      1  N   UNL d   1      10.218   6.642 -10.366  0.00  0.00    -0.252 NA
ATOM      2  C   UNL d   1       9.235   6.226  -9.374  0.00  0.00     0.080 C 
ATOM      3  C   UNL d   1       9.755   6.407  -7.965  0.00  0.00     0.052 C 
ATOM      4  C   UNL d   1      10.146   7.863  -7.675  0.00  0.00     0.148 C 
ATOM      5  O   UNL d   1       9.002   8.686  -7.763  0.00  0.00    -0.221 OA
ATOM      6  C   UNL d   1      11.121   8.330  -8.768  0.00  0.00     0.052 C 
ATOM      7  C   UNL d   1      10.566   8.056 -10.180  0.00  0.00     0.080 C 
ENDROOT
BRANCH   1   8
ATOM      8  C   UNL d   1       9.702   6.424 -11.718  0.00  0.00     0.049 C 
BRANCH   8   9
ATOM      9  C   UNL d   1       8.535   5.517 -12.025  0.00  0.00     0.034 A 
ATOM     10  C   UNL d   1       7.346   5.515 -11.352  0.00  0.00     0.100 A 
ATOM     11  N   UNL d   1       6.517   4.535 -11.866  0.00  0.00    -0.244 NA
ATOM     12  C   UNL d   1       7.122   3.905 -12.930  0.00  0.00     0.083 A 
ATOM     13  C   UNL d   1       6.682   2.848 -13.740  0.00  0.00     0.019 A 
ATOM     14  C   UNL d   1       8.411   4.511 -13.066  0.00  0.00     0.042 A 
ATOM     15  C   UNL d   1       7.529   2.376 -14.759  0.00  0.00     0.004 A 
ATOM     16  C   UNL d   1       8.804   2.960 -14.944  0.00  0.00     0.024 A 
ATOM     17  C   UNL d   1       9.254   4.021 -14.100  0.00  0.00     0.096 A 
BRANCH  17  18
ATOM     18  O   UNL d   1      10.493   4.622 -14.233  0.00  0.00    -0.328 OA
ATOM     19  C   UNL d   1      11.361   4.170 -15.265  0.00  0.00     0.181 C 
ENDBRANCH  17  18
ENDBRANCH   8   9
ENDBRANCH   1   8
BRANCH   4  20
ATOM     20  C   UNL d   1      10.764   7.999  -6.283  0.00  0.00     0.005 A 
ATOM     21  C   UNL d   1      11.122   6.859  -5.515  0.00  0.00    -0.002 A 
ATOM     22  C   UNL d   1      11.677   6.980  -4.229  0.00  0.00     0.006 A 
ATOM     23  C   UNL d   1      11.867   8.259  -3.680  0.00  0.00     0.030 A 
ATOM     24  C   UNL d   1      11.532   9.410  -4.427  0.00  0.00     0.006 A 
ATOM     25  I   UNL d   1      12.583   8.429  -1.725  0.00  0.00    -0.043 I 
ATOM     26  C   UNL d   1      10.983   9.279  -5.726  0.00  0.00    -0.002 A 
ENDBRANCH   4  20
TORSDOF 4
