REMARK  4 active torsions:
REMARK  status: ('A' for Active; 'I' for Inactive)
REMARK    1  A    between atoms: C_4  and  N_5 
REMARK    2  A    between atoms: N_8  and  C_9 
REMARK    3  A    between atoms: C_9  and  C_10 
REMARK    4  A    between atoms: N_13  and  C_14 
ROOT
ATOM      1  C   UNL d   1       8.942   5.388 -12.287  0.00  0.00     0.051 A 
ATOM      2  C   UNL d   1       9.545   4.119 -12.116  0.00  0.00     0.120 A 
ATOM      3  N   UNL d   1       9.724   3.507 -13.251  0.00  0.00    -0.164 NA
ATOM      4  N   UNL d   1       9.180   4.280 -14.201  0.00  0.00    -0.229 N 
ATOM      5  C   UNL d   1       8.697   5.450 -13.625  0.00  0.00     0.100 A 
ENDROOT
BRANCH   4   6
ATOM      6  C   UNL d   1       9.149   3.895 -15.573  0.00  0.00     0.079 C 
ATOM      7  C   UNL d   1       8.835   2.600 -16.104  0.00  0.00    -0.004 C 
ATOM      8  C   UNL d   1       8.601   2.312 -17.471  0.00  0.00    -0.003 C 
ATOM      9  C   UNL d   1       9.166   1.435 -15.149  0.00  0.00     0.033 C 
ATOM     10  C   UNL d   1       8.953   3.300 -18.437  0.00  0.00    -0.004 C 
ATOM     11  C   UNL d   1       9.502   4.488 -17.901  0.00  0.00    -0.020 C 
ATOM     12  C   UNL d   1       9.499   4.852 -16.549  0.00  0.00     0.015 C 
ATOM     13  C   UNL d   1      10.471   5.362 -18.720  0.00  0.00     0.031 C 
ATOM     14  C   UNL d   1      11.866   4.676 -18.956  0.00  0.00     0.031 C 
ATOM     15  C   UNL d   1      12.186   3.605 -17.912  0.00  0.00    -0.022 C 
ATOM     16  C   UNL d   1      11.892   2.269 -18.271  0.00  0.00    -0.005 C 
ATOM     17  C   UNL d   1      12.508   4.061 -16.619  0.00  0.00    -0.005 C 
ATOM     18  C   UNL d   1      11.573   1.393 -17.212  0.00  0.00    -0.005 C 
ATOM     19  C   UNL d   1      11.585   1.941 -15.918  0.00  0.00    -0.022 C 
ATOM     20  C   UNL d   1      10.716   1.211 -14.878  0.00  0.00     0.031 C 
ATOM     21  C   UNL d   1      12.167   3.184 -15.563  0.00  0.00    -0.005 C 
ENDBRANCH   4   6
BRANCH   1  22
ATOM     22  C   UNL d   1       8.660   6.397 -11.214  0.00  0.00     0.280 C 
BRANCH  22  23
ATOM     23  N   UNL d   1       9.736   6.420 -10.208  0.00  0.00     0.146 N 
ATOM     24  C   UNL d   1      10.266   7.780 -10.084  0.00  0.00     0.275 C 
ATOM     25  C   UNL d   1      11.428   7.833  -9.075  0.00  0.00     0.137 C 
ATOM     26  N   UNL d   1      10.994   7.292  -7.788  0.00  0.00    -0.344 N 
ATOM     27  C   UNL d   1      10.313   6.005  -7.824  0.00  0.00     0.137 C 
ATOM     28  C   UNL d   1       9.217   5.993  -8.902  0.00  0.00     0.275 C 
BRANCH  26  29
ATOM     29  C   UNL d   1      11.101   8.019  -6.589  0.00  0.00     0.056 A 
ATOM     30  C   UNL d   1      11.348   7.359  -5.365  0.00  0.00     0.017 A 
ATOM     31  C   UNL d   1      11.486   8.093  -4.169  0.00  0.00     0.002 A 
ATOM     32  C   UNL d   1      11.356   9.494  -4.179  0.00  0.00     0.000 A 
ATOM     33  C   UNL d   1      11.089  10.143  -5.394  0.00  0.00     0.002 A 
ATOM     34  C   UNL d   1      10.967   9.421  -6.589  0.00  0.00     0.017 A 
ENDBRANCH  26  29
ENDBRANCH  22  23
ENDBRANCH   1  22
TORSDOF 4
