REMARK  10 active torsions:
REMARK  status: ('A' for Active; 'I' for Inactive)
REMARK    1  A    between atoms: O_2  and  C_3 
REMARK    2  A    between atoms: C_3  and  C_4 
REMARK    3  A    between atoms: C_4  and  O_5 
REMARK    4  A    between atoms: O_5  and  C_6 
REMARK    5  A    between atoms: C_6  and  C_8 
REMARK    6  A    between atoms: C_14  and  C_15 
REMARK    7  A    between atoms: C_15  and  O_17 
REMARK    8  A    between atoms: O_17  and  C_18 
REMARK    9  A    between atoms: C_21  and  C_22 
REMARK   10  A    between atoms: C_26  and  N_27 
ROOT
ATOM      1  C   UNL d   1       9.050   3.092 -14.991  0.00  0.00     0.062 C 
ATOM      2  C   UNL d   1       7.894   2.383 -15.133  0.00  0.00     0.061 C 
ATOM      3  C   UNL d   1       6.623   2.492 -14.309  0.00  0.00     0.052 C 
ATOM      4  N   UNL d   1       7.764   1.409 -16.111  0.00  0.00    -0.254 NA
ATOM      5  C   UNL d   1       8.815   0.993 -16.906  0.00  0.00     0.061 C 
ATOM      6  C   UNL d   1       8.428  -0.208 -17.760  0.00  0.00     0.052 C 
ATOM      7  C   UNL d   1      10.007   1.641 -16.865  0.00  0.00     0.062 C 
ATOM      8  C   UNL d   1      10.244   2.856 -15.942  0.00  0.00     0.080 C 
ENDROOT
BRANCH   8   9
ATOM      9  C   UNL d   1      10.632   4.118 -16.726  0.00  0.00    -0.012 A 
ATOM     10  C   UNL d   1      11.904   4.716 -16.545  0.00  0.00     0.020 A 
ATOM     11  C   UNL d   1      12.274   5.863 -17.283  0.00  0.00     0.126 A 
ATOM     12  C   UNL d   1      11.357   6.404 -18.211  0.00  0.00     0.024 A 
ATOM     13  C   UNL d   1      10.094   5.809 -18.400  0.00  0.00     0.001 A 
ATOM     14  C   UNL d   1       9.736   4.668 -17.662  0.00  0.00    -0.004 A 
BRANCH  11  15
ATOM     15  N   UNL d   1      13.598   6.488 -17.086  0.00  0.00    -0.114 N 
ATOM     16  O   UNL d   1      14.440   5.882 -16.441  0.00  0.00    -0.532 OA
ATOM     17  O   UNL d   1      13.796   7.593 -17.581  0.00  0.00    -0.532 OA
ENDBRANCH  11  15
ENDBRANCH   8   9
BRANCH   1  18
ATOM     18  C   UNL d   1       9.284   4.139 -13.926  0.00  0.00     0.294 C 
ATOM     19  O   UNL d   1      10.371   4.640 -13.676  0.00  0.00    -0.259 OA
BRANCH  18  20
ATOM     20  O   UNL d   1       8.145   4.453 -13.290  0.00  0.00    -0.296 OA
BRANCH  20  21
ATOM     21  C   UNL d   1       8.117   5.375 -12.195  0.00  0.00     0.184 C 
BRANCH  21  22
ATOM     22  C   UNL d   1       6.646   5.474 -11.752  0.00  0.00     0.175 C 
BRANCH  22  23
ATOM     23  O   UNL d   1       5.860   6.148 -12.727  0.00  0.00    -0.349 OA
ATOM     24  C   UNL d   1       5.892   7.558 -12.602  0.00  0.00     0.174 C 
ENDBRANCH  22  23
ENDBRANCH  21  22
ENDBRANCH  20  21
ENDBRANCH  18  20
ENDBRANCH   1  18
BRANCH   7  25
ATOM     25  C   UNL d   1      11.215   1.247 -17.685  0.00  0.00     0.293 C 
ATOM     26  O   UNL d   1      12.300   1.812 -17.646  0.00  0.00    -0.259 OA
BRANCH  25  27
ATOM     27  O   UNL d   1      10.949   0.194 -18.485  0.00  0.00    -0.301 OA
BRANCH  27  28
ATOM     28  C   UNL d   1      11.857  -0.234 -19.539  0.00  0.00     0.125 C 
ATOM     29  C   UNL d   1      13.207  -0.662 -18.974  0.00  0.00     0.033 C 
ATOM     30  C   UNL d   1      11.898   0.808 -20.652  0.00  0.00     0.033 C 
ENDBRANCH  27  28
ENDBRANCH  25  27
ENDBRANCH   7  25
TORSDOF 10
