REMARK  3 active torsions:
REMARK  status: ('A' for Active; 'I' for Inactive)
REMARK    1  A    between atoms: C_5  and  S_6 
REMARK    2  A    between atoms: S_6  and  N_9 
REMARK    3  A    between atoms: C_18  and  N_19 
ROOT
ATOM      1  N   UNL d   1       9.600   1.868 -17.159  0.00  0.00    -0.231 N 
ATOM      2  C   UNL d   1       8.718   0.834 -17.525  0.00  0.00     0.092 C 
ATOM      3  C   UNL d   1       7.412   0.800 -16.980  0.00  0.00     0.021 C 
ATOM      4  C   UNL d   1       6.579  -0.297 -17.262  0.00  0.00     0.013 C 
ATOM      5  C   UNL d   1       6.955  -1.257 -18.233  0.00  0.00     0.059 C 
ATOM      6 CL   UNL d   1       5.840  -2.517 -18.670  0.00  0.00    -0.082 Cl
ATOM      7  C   UNL d   1       8.204  -1.141 -18.874  0.00  0.00     0.032 C 
ATOM      8  C   UNL d   1       9.117  -0.115 -18.526  0.00  0.00     0.101 C 
ATOM      9  N   UNL d   1      10.369  -0.133 -19.172  0.00  0.00    -0.227 NA
ATOM     10  C   UNL d   1      11.014   0.944 -19.548  0.00  0.00     0.141 C 
ATOM     11  C   UNL d   1      10.492   2.353 -19.370  0.00  0.00     0.051 A 
ATOM     12  C   UNL d   1      10.696   3.297 -20.409  0.00  0.00     0.004 A 
ATOM     13  C   UNL d   1      10.341   4.647 -20.248  0.00  0.00     0.000 A 
ATOM     14  C   UNL d   1       9.756   5.077 -19.045  0.00  0.00     0.002 A 
ATOM     15  C   UNL d   1       9.531   4.153 -18.005  0.00  0.00     0.018 A 
ATOM     16  C   UNL d   1       9.887   2.792 -18.168  0.00  0.00     0.078 A 
ENDROOT
BRANCH   1  17
ATOM     17  S   UNL d   1      10.411   1.913 -15.601  0.00  0.00     0.271 S 
ATOM     18  O   UNL d   1      11.668   2.655 -15.822  0.00  0.00    -0.200 OA
ATOM     19  O   UNL d   1      10.430   0.523 -15.121  0.00  0.00    -0.200 OA
BRANCH  17  20
ATOM     20  C   UNL d   1       9.308   2.879 -14.550  0.00  0.00     0.104 C 
ATOM     21  C   UNL d   1       9.778   4.090 -13.970  0.00  0.00     0.013 C 
ATOM     22  C   UNL d   1       8.887   4.857 -13.186  0.00  0.00    -0.004 C 
ATOM     23  C   UNL d   1       7.535   4.465 -13.052  0.00  0.00    -0.022 C 
ATOM     24  C   UNL d   1       6.563   5.277 -12.219  0.00  0.00     0.031 C 
ATOM     25  C   UNL d   1       7.093   3.252 -13.646  0.00  0.00    -0.004 C 
ATOM     26  C   UNL d   1       8.002   2.406 -14.308  0.00  0.00     0.013 C 
ENDBRANCH  17  20
ENDBRANCH   1  17
BRANCH  10  27
ATOM     27  N   UNL d   1      12.270   0.838 -20.118  0.00  0.00    -0.330 N 
ATOM     28  C   UNL d   1      12.700  -0.304 -20.924  0.00  0.00     0.138 C 
ATOM     29  C   UNL d   1      14.021  -0.891 -20.393  0.00  0.00     0.274 C 
ATOM     30  N   UNL d   1      15.050   0.151 -20.358  0.00  0.00     0.143 N 
ATOM     31  C   UNL d   1      14.620   1.213 -19.450  0.00  0.00     0.274 C 
ATOM     32  C   UNL d   1      16.301  -0.410 -19.869  0.00  0.00     0.286 C 
ATOM     33  C   UNL d   1      13.320   1.842 -19.956  0.00  0.00     0.138 C 
ENDBRANCH  10  27
TORSDOF 3
