REMARK  13 active torsions:
REMARK  status: ('A' for Active; 'I' for Inactive)
REMARK    1  A    between atoms: C_2  and  C_3 
REMARK    2  A    between atoms: C_3  and  N_4 
REMARK    3  A    between atoms: N_4  and  C_5 
REMARK    4  A    between atoms: N_4  and  C_24 
REMARK    5  A    between atoms: C_5  and  C_6 
REMARK    6  A    between atoms: C_6  and  C_7 
REMARK    7  A    between atoms: C_7  and  C_8 
REMARK    8  A    between atoms: C_8  and  N_9 
REMARK       I    between atoms: N_9  and  C_10 
REMARK    9  A    between atoms: C_10  and  C_12 
REMARK   10  A    between atoms: C_15  and  C_16 
REMARK   11  A    between atoms: C_32  and  O_33 
REMARK   12  A    between atoms: O_33  and  S_34 
REMARK   13  A    between atoms: S_34  and  C_37 
ROOT
ATOM      1  N   UNL d   1      10.234   3.976 -16.934  0.00  0.00     0.135 N 
ENDROOT
BRANCH   1   2
ATOM      2  C   UNL d   1       9.962   5.358 -17.383  0.00  0.00     0.250 C 
BRANCH   2   3
ATOM      3  C   UNL d   1       9.661   5.466 -18.881  0.00  0.00     0.035 C 
ATOM      4  C   UNL d   1       9.323   6.850 -19.400  0.00  0.00     0.002 C 
ENDBRANCH   2   3
ENDBRANCH   1   2
BRANCH   1   5
ATOM      5  C   UNL d   1      10.563   3.975 -15.495  0.00  0.00     0.250 C 
BRANCH   5   6
ATOM      6  C   UNL d   1       9.362   4.344 -14.564  0.00  0.00     0.037 C 
BRANCH   6   7
ATOM      7  C   UNL d   1       9.829   4.663 -13.143  0.00  0.00     0.029 C 
BRANCH   7   8
ATOM      8  C   UNL d   1       8.668   5.247 -12.325  0.00  0.00     0.129 C 
BRANCH   8   9
ATOM      9  N   UNL d   1       9.140   5.709 -11.033  0.00  0.00    -0.234 NA
ATOM     10  C   UNL d   1       9.482   6.972 -10.752  0.00  0.00     0.275 C 
ATOM     11  O   UNL d   1       9.473   7.885 -11.584  0.00  0.00    -0.266 OA
BRANCH  10  12
ATOM     12  C   UNL d   1       9.960   7.199  -9.350  0.00  0.00     0.058 A 
ATOM     13  C   UNL d   1      11.031   8.078  -9.089  0.00  0.00     0.005 A 
ATOM     14  C   UNL d   1      11.460   8.303  -7.765  0.00  0.00     0.000 A 
ATOM     15  C   UNL d   1      10.826   7.662  -6.677  0.00  0.00     0.000 A 
ATOM     16  C   UNL d   1       9.749   6.791  -6.947  0.00  0.00     0.000 A 
ATOM     17  C   UNL d   1       9.319   6.558  -8.266  0.00  0.00     0.005 A 
BRANCH  15  18
ATOM     18  C   UNL d   1      11.277   7.893  -5.292  0.00  0.00     0.000 A 
ATOM     19  C   UNL d   1      11.439   9.204  -4.793  0.00  0.00     0.000 A 
ATOM     20  C   UNL d   1      11.863   9.420  -3.467  0.00  0.00     0.000 A 
ATOM     21  C   UNL d   1      12.155   8.332  -2.626  0.00  0.00     0.000 A 
ATOM     22  C   UNL d   1      11.998   7.021  -3.109  0.00  0.00     0.000 A 
ATOM     23  C   UNL d   1      11.557   6.808  -4.431  0.00  0.00     0.000 A 
ENDBRANCH  15  18
ENDBRANCH  10  12
ENDBRANCH   8   9
ENDBRANCH   7   8
ENDBRANCH   6   7
ENDBRANCH   5   6
ENDBRANCH   1   5
BRANCH   1  24
ATOM     24  C   UNL d   1       9.267   2.948 -17.357  0.00  0.00     0.224 C 
ATOM     25  C   UNL d   1       9.557   2.450 -18.812  0.00  0.00     0.059 C 
ATOM     26  C   UNL d   1       8.714   1.256 -19.227  0.00  0.00    -0.022 A 
ATOM     27  C   UNL d   1       8.044   0.461 -18.275  0.00  0.00    -0.002 A 
ATOM     28  C   UNL d   1       8.595   0.964 -20.603  0.00  0.00    -0.004 A 
ATOM     29  C   UNL d   1       8.143   0.777 -16.793  0.00  0.00     0.030 C 
ATOM     30  C   UNL d   1       7.251  -0.636 -18.693  0.00  0.00     0.109 A 
ATOM     31  C   UNL d   1       9.282   1.700 -16.425  0.00  0.00     0.038 C 
ATOM     32  C   UNL d   1       7.186  -0.951 -20.070  0.00  0.00     0.025 A 
ATOM     33  C   UNL d   1       7.843  -0.151 -21.022  0.00  0.00     0.002 A 
BRANCH  30  34
ATOM     34  O   UNL d   1       6.624  -1.421 -17.760  0.00  0.00    -0.225 OA
BRANCH  34  35
ATOM     35  S   UNL d   1       5.127  -0.936 -17.169  0.00  0.00     0.374 S 
ATOM     36  O   UNL d   1       5.288   0.383 -16.523  0.00  0.00    -0.189 OA
ATOM     37  O   UNL d   1       4.147  -1.175 -18.235  0.00  0.00    -0.189 OA
BRANCH  35  38
ATOM     38  C   UNL d   1       4.933  -2.166 -15.833  0.00  0.00     0.524 C 
ATOM     39  F   UNL d   1       5.832  -1.915 -14.888  0.00  0.00    -0.155 F 
ATOM     40  F   UNL d   1       3.715  -2.016 -15.324  0.00  0.00    -0.155 F 
ATOM     41  F   UNL d   1       5.104  -3.402 -16.326  0.00  0.00    -0.155 F 
ENDBRANCH  35  38
ENDBRANCH  34  35
ENDBRANCH  30  34
ENDBRANCH   1  24
TORSDOF 13
