REMARK  11 active torsions:
REMARK  status: ('A' for Active; 'I' for Inactive)
REMARK    1  A    between atoms: C_2  and  C_3 
REMARK    2  A    between atoms: C_3  and  N_4 
REMARK    3  A    between atoms: N_4  and  C_5 
REMARK    4  A    between atoms: N_4  and  C_21 
REMARK    5  A    between atoms: C_5  and  C_6 
REMARK    6  A    between atoms: C_6  and  C_7 
REMARK    7  A    between atoms: C_7  and  C_8 
REMARK    8  A    between atoms: C_8  and  N_9 
REMARK       I    between atoms: N_9  and  C_10 
REMARK    9  A    between atoms: C_10  and  C_12 
REMARK   10  A    between atoms: C_21  and  C_22 
REMARK   11  A    between atoms: C_24  and  C_25 
ROOT
ATOM      1  C   UNL d   1      10.086   3.672 -13.222  0.00  0.00     0.250 C 
ENDROOT
BRANCH   1   2
ATOM      2  N   UNL d   1      10.007   3.700 -14.682  0.00  0.00     0.137 N 
BRANCH   2   3
ATOM      3  C   UNL d   1      11.327   3.471 -15.257  0.00  0.00     0.250 C 
BRANCH   3   4
ATOM      4  C   UNL d   1      12.412   4.506 -14.891  0.00  0.00     0.035 C 
ATOM      5  C   UNL d   1      12.175   5.836 -15.623  0.00  0.00     0.002 C 
ENDBRANCH   3   4
ENDBRANCH   2   3
BRANCH   2   6
ATOM      6  C   UNL d   1       9.060   2.667 -15.137  0.00  0.00     0.251 C 
BRANCH   6   7
ATOM      7  C   UNL d   1       9.319   2.002 -16.492  0.00  0.00     0.038 A 
ATOM      8  C   UNL d   1       8.460   0.837 -16.969  0.00  0.00     0.024 A 
ATOM      9  C   UNL d   1       8.367   2.176 -17.666  0.00  0.00     0.007 A 
BRANCH   8  10
ATOM     10  C   UNL d   1       7.335   0.309 -16.132  0.00  0.00    -0.020 A 
ATOM     11  C   UNL d   1       7.526   0.018 -14.755  0.00  0.00     0.025 A 
ATOM     12  C   UNL d   1       6.436  -0.330 -13.959  0.00  0.00     0.140 A 
ATOM     13  C   UNL d   1       5.155  -0.516 -14.535  0.00  0.00     0.030 A 
ATOM     14  F   UNL d   1       6.549  -0.444 -12.616  0.00  0.00    -0.204 F 
ATOM     15  C   UNL d   1       4.984  -0.335 -15.915  0.00  0.00     0.002 A 
ATOM     16  C   UNL d   1       6.060   0.097 -16.709  0.00  0.00    -0.004 A 
ENDBRANCH   8  10
ENDBRANCH   6   7
ENDBRANCH   2   6
ENDBRANCH   1   2
BRANCH   1  17
ATOM     17  C   UNL d   1       9.002   4.529 -12.544  0.00  0.00     0.037 C 
BRANCH  17  18
ATOM     18  C   UNL d   1       9.547   5.115 -11.241  0.00  0.00     0.029 C 
BRANCH  18  19
ATOM     19  C   UNL d   1       8.498   5.698 -10.304  0.00  0.00     0.129 C 
BRANCH  19  20
ATOM     20  N   UNL d   1       9.104   6.278  -9.109  0.00  0.00    -0.233 NA
ATOM     21  C   UNL d   1       9.870   7.384  -9.060  0.00  0.00     0.293 C 
ATOM     22  O   UNL d   1      10.163   8.068 -10.038  0.00  0.00    -0.264 OA
BRANCH  21  23
ATOM     23  C   UNL d   1      10.329   7.779  -7.717  0.00  0.00     0.139 A 
ATOM     24  N   UNL d   1      10.606   6.798  -6.777  0.00  0.00    -0.241 NA
ATOM     25  C   UNL d   1      11.057   7.360  -5.603  0.00  0.00     0.082 A 
ATOM     26  C   UNL d   1      11.050   8.767  -5.821  0.00  0.00     0.019 A 
ATOM     27  C   UNL d   1      11.466   6.795  -4.387  0.00  0.00     0.019 A 
ATOM     28  C   UNL d   1      10.600   9.004  -7.161  0.00  0.00     0.025 A 
ATOM     29  C   UNL d   1      11.461   9.590  -4.745  0.00  0.00     0.002 A 
ATOM     30  C   UNL d   1      11.867   9.032  -3.515  0.00  0.00     0.000 A 
ATOM     31  C   UNL d   1      11.874   7.636  -3.335  0.00  0.00     0.002 A 
ENDBRANCH  21  23
ENDBRANCH  19  20
ENDBRANCH  18  19
ENDBRANCH  17  18
ENDBRANCH   1  17
TORSDOF 11
