REMARK  3 active torsions:
REMARK  status: ('A' for Active; 'I' for Inactive)
REMARK    1  A    between atoms: C_5  and  N_6 
REMARK    2  A    between atoms: N_6  and  S_7 
REMARK    3  A    between atoms: S_7  and  C_10 
ROOT
ATOM      1  S   UNL d   1      10.968   8.331  -7.119  0.00  0.00     0.287 S 
ATOM      2  O   UNL d   1      12.193   8.383  -7.930  0.00  0.00    -0.198 OA
ATOM      3  O   UNL d   1       9.880   9.296  -7.285  0.00  0.00    -0.198 OA
ENDROOT
BRANCH   1   4
ATOM      4  N   UNL d   1      10.271   6.777  -7.355  0.00  0.00    -0.132 NA
BRANCH   4   5
ATOM      5  C   UNL d   1       9.708   6.348  -8.546  0.00  0.00     0.215 A 
ATOM      6  O   UNL d   1       9.185   5.092  -8.515  0.00  0.00    -0.192 OA
ATOM      7  N   UNL d   1       8.664   4.795  -9.777  0.00  0.00    -0.129 NA
ATOM      8  C   UNL d   1       8.891   5.876 -10.515  0.00  0.00     0.086 A 
ATOM      9  C   UNL d   1       8.431   5.892 -11.945  0.00  0.00     0.054 C 
ATOM     10  C   UNL d   1       9.561   6.905  -9.794  0.00  0.00     0.038 A 
ATOM     11  C   UNL d   1       9.947   8.263 -10.335  0.00  0.00     0.036 C 
ENDBRANCH   4   5
ENDBRANCH   1   4
BRANCH   1  12
ATOM     12  C   UNL d   1      11.438   8.342  -5.414  0.00  0.00     0.105 A 
ATOM     13  C   UNL d   1      11.457   9.571  -4.727  0.00  0.00     0.014 A 
ATOM     14  C   UNL d   1      11.858   9.585  -3.381  0.00  0.00     0.015 A 
ATOM     15  C   UNL d   1      12.245   8.381  -2.767  0.00  0.00     0.070 A 
ATOM     16  C   UNL d   1      12.225   7.159  -3.461  0.00  0.00     0.015 A 
ATOM     17  N   UNL d   1      12.661   8.387  -1.447  0.00  0.00    -0.101 NA
ATOM     18  C   UNL d   1      11.819   7.138  -4.803  0.00  0.00     0.014 A 
ENDBRANCH   1  12
TORSDOF 3
