REMARK  5 active torsions:
REMARK  status: ('A' for Active; 'I' for Inactive)
REMARK    1  A    between atoms: C_2  and  C_3 
REMARK    2  A    between atoms: C_3  and  N_4 
REMARK    3  A    between atoms: N_7  and  C_8 
REMARK    4  A    between atoms: N_15  and  S_16 
REMARK    5  A    between atoms: S_16  and  C_19 
ROOT
ATOM      1  C   UNL d   1      13.271   3.349 -18.740  0.00  0.00     0.034 A 
ATOM      2  C   UNL d   1      13.471   2.242 -19.608  0.00  0.00     0.011 A 
ATOM      3  C   UNL d   1      12.574   1.151 -19.622  0.00  0.00     0.001 A 
ATOM      4  C   UNL d   1      11.451   1.138 -18.774  0.00  0.00    -0.003 A 
ATOM      5  C   UNL d   1      11.264   2.238 -17.919  0.00  0.00    -0.001 A 
ATOM      6  C   UNL d   1      12.140   3.308 -17.891  0.00  0.00     0.009 A 
ATOM      7  C   UNL d   1      11.658   4.335 -16.893  0.00  0.00     0.141 C 
ATOM      8  N   UNL d   1      10.570   3.646 -16.170  0.00  0.00    -0.266 N 
ATOM      9  C   UNL d   1      10.152   2.455 -16.938  0.00  0.00     0.140 C 
ENDROOT
BRANCH   1  10
ATOM     10  N   UNL d   1      14.143   4.449 -18.715  0.00  0.00    -0.249 NA
ATOM     11  C   UNL d   1      14.903   4.706 -19.934  0.00  0.00     0.112 C 
ATOM     12  C   UNL d   1      15.653   6.042 -19.840  0.00  0.00     0.268 C 
ATOM     13  N   UNL d   1      16.558   6.017 -18.687  0.00  0.00     0.140 N 
ATOM     14  C   UNL d   1      15.757   5.836 -17.471  0.00  0.00     0.268 C 
ATOM     15  C   UNL d   1      14.998   4.502 -17.533  0.00  0.00     0.112 C 
BRANCH  13  16
ATOM     16  C   UNL d   1      17.284   7.281 -18.614  0.00  0.00     0.250 C 
BRANCH  16  17
ATOM     17  C   UNL d   1      18.655   7.065 -17.953  0.00  0.00     0.035 C 
ATOM     18  C   UNL d   1      19.713   6.542 -18.938  0.00  0.00     0.002 C 
ENDBRANCH  16  17
ENDBRANCH  13  16
ENDBRANCH   1  10
BRANCH   8  19
ATOM     19  S   UNL d   1      10.630   3.576 -14.441  0.00  0.00     0.265 S 
ATOM     20  O   UNL d   1      11.121   2.246 -14.068  0.00  0.00    -0.200 OA
ATOM     21  O   UNL d   1      11.323   4.784 -13.963  0.00  0.00    -0.200 OA
BRANCH  19  22
ATOM     22  C   UNL d   1       8.910   3.695 -13.966  0.00  0.00     0.103 A 
ATOM     23  C   UNL d   1       8.466   4.768 -13.164  0.00  0.00     0.013 A 
ATOM     24  C   UNL d   1       7.107   4.843 -12.795  0.00  0.00     0.001 A 
ATOM     25  C   UNL d   1       6.198   3.860 -13.238  0.00  0.00     0.000 A 
ATOM     26  C   UNL d   1       6.649   2.792 -14.037  0.00  0.00     0.001 A 
ATOM     27  C   UNL d   1       8.004   2.706 -14.400  0.00  0.00     0.013 A 
ENDBRANCH  19  22
ENDBRANCH   8  19
TORSDOF 5
