REMARK  7 active torsions:
REMARK  status: ('A' for Active; 'I' for Inactive)
REMARK    1  A    between atoms: C_6  and  C_7 
REMARK    2  A    between atoms: C_10  and  S_11 
REMARK    3  A    between atoms: S_11  and  C_12 
REMARK    4  A    between atoms: C_12  and  C_13 
REMARK    5  A    between atoms: C_13  and  C_14 
REMARK    6  A    between atoms: C_14  and  N_15 
REMARK    7  A    between atoms: C_19  and  C_20 
ROOT
ATOM      1  C   UNL d   1      13.332   3.798 -16.827  0.00  0.00     0.047 C 
ENDROOT
BRANCH   1   2
ATOM      2  C   UNL d   1      14.294   4.386 -17.864  0.00  0.00     0.067 C 
BRANCH   2   3
ATOM      3  S   UNL d   1      14.364   6.204 -17.761  0.00  0.00    -0.075 SA
BRANCH   3   4
ATOM      4  C   UNL d   1      16.112   6.443 -17.658  0.00  0.00     0.193 A 
ATOM      5  N   UNL d   1      16.869   5.954 -16.677  0.00  0.00    -0.122 NA
ATOM      6  N   UNL d   1      18.144   6.388 -16.944  0.00  0.00    -0.126 NA
ATOM      7  C   UNL d   1      18.055   7.123 -18.057  0.00  0.00     0.191 A 
ATOM      8  N   UNL d   1      16.801   7.181 -18.556  0.00  0.00    -0.287 N 
ATOM      9  C   UNL d   1      16.322   7.848 -19.763  0.00  0.00     0.134 C 
BRANCH   7  10
ATOM     10  C   UNL d   1      19.223   7.747 -18.660  0.00  0.00     0.151 A 
ATOM     11  C   UNL d   1      19.589   9.055 -18.872  0.00  0.00     0.087 A 
ATOM     12  C   UNL d   1      18.886  10.332 -18.517  0.00  0.00     0.054 C 
ATOM     13  N   UNL d   1      20.834   9.057 -19.488  0.00  0.00    -0.221 NA
ATOM     14  C   UNL d   1      21.150   7.771 -19.618  0.00  0.00     0.225 A 
ATOM     15  O   UNL d   1      20.220   6.920 -19.114  0.00  0.00    -0.282 OA
ENDBRANCH   7  10
ENDBRANCH   3   4
ENDBRANCH   2   3
ENDBRANCH   1   2
BRANCH   1  16
ATOM     16  C   UNL d   1      11.841   4.088 -17.076  0.00  0.00     0.251 C 
BRANCH  16  17
ATOM     17  N   UNL d   1      11.048   3.748 -15.893  0.00  0.00     0.137 N 
ATOM     18  C   UNL d   1       9.641   4.128 -16.044  0.00  0.00     0.254 C 
ATOM     19  C   UNL d   1       8.926   3.265 -15.021  0.00  0.00     0.052 A 
ATOM     20  C   UNL d   1       9.836   2.111 -14.757  0.00  0.00     0.039 A 
ATOM     21  C   UNL d   1       8.463   1.859 -15.338  0.00  0.00     0.008 A 
ATOM     22  C   UNL d   1      11.049   2.312 -15.619  0.00  0.00     0.251 C 
BRANCH  19  23
ATOM     23  C   UNL d   1       8.336   4.018 -13.863  0.00  0.00    -0.019 A 
ATOM     24  C   UNL d   1       9.170   4.720 -12.966  0.00  0.00     0.025 A 
ATOM     25  C   UNL d   1       8.616   5.400 -11.864  0.00  0.00     0.140 A 
ATOM     26  C   UNL d   1       7.224   5.386 -11.658  0.00  0.00     0.030 A 
ATOM     27  F   UNL d   1       9.425   6.048 -10.996  0.00  0.00    -0.204 F 
ATOM     28  C   UNL d   1       6.388   4.668 -12.540  0.00  0.00     0.002 A 
ATOM     29  C   UNL d   1       6.944   3.989 -13.637  0.00  0.00    -0.004 A 
ENDBRANCH  19  23
ENDBRANCH  16  17
ENDBRANCH   1  16
TORSDOF 7
