REMARK  7 active torsions:
REMARK  status: ('A' for Active; 'I' for Inactive)
REMARK    1  A    between atoms: C_2  and  C_3 
REMARK    2  A    between atoms: C_3  and  C_4 
REMARK    3  A    between atoms: C_4  and  C_5 
REMARK    4  A    between atoms: C_5  and  C_6 
REMARK    5  A    between atoms: C_6  and  C_7 
REMARK    6  A    between atoms: C_7  and  N_8 
REMARK    7  A    between atoms: N_11  and  C_12 
ROOT
ATOM      1  C   UNL d   1       9.162   4.740 -13.644  0.00  0.00     0.003 C 
ENDROOT
BRANCH   1   2
ATOM      2  C   UNL d   1       9.364   3.280 -14.080  0.00  0.00     0.013 C 
BRANCH   2   3
ATOM      3  C   UNL d   1      10.544   2.997 -15.062  0.00  0.00     0.093 A 
ATOM      4  C   UNL d   1      10.189   3.366 -16.495  0.00  0.00     0.004 A 
ATOM      5  C   UNL d   1      11.038   4.361 -16.974  0.00  0.00     0.083 A 
ATOM      6  C   UNL d   1       9.166   2.847 -17.313  0.00  0.00    -0.000 A 
ATOM      7  N   UNL d   1      11.953   4.703 -15.982  0.00  0.00    -0.212 NA
ATOM      8  C   UNL d   1      10.915   4.898 -18.264  0.00  0.00     0.049 A 
ATOM      9  C   UNL d   1      11.745   3.978 -14.880  0.00  0.00     0.259 A 
ATOM     10  O   UNL d   1      12.401   4.094 -13.847  0.00  0.00    -0.270 OA
ATOM     11  C   UNL d   1       9.912   4.364 -19.101  0.00  0.00     0.142 A 
ATOM     12  F   UNL d   1       9.770   4.833 -20.361  0.00  0.00    -0.204 F 
ATOM     13  C   UNL d   1       9.056   3.337 -18.633  0.00  0.00     0.029 A 
BRANCH   3  14
ATOM     14  C   UNL d   1      11.040   1.528 -14.927  0.00  0.00     0.013 C 
ATOM     15  C   UNL d   1       9.985   0.419 -15.117  0.00  0.00     0.001 C 
ENDBRANCH   3  14
ENDBRANCH   2   3
ENDBRANCH   1   2
BRANCH   1  16
ATOM     16  C   UNL d   1       7.960   4.924 -12.703  0.00  0.00     0.035 C 
BRANCH  16  17
ATOM     17  C   UNL d   1       8.046   6.223 -11.888  0.00  0.00     0.250 C 
BRANCH  17  18
ATOM     18  N   UNL d   1       9.191   6.172 -10.971  0.00  0.00     0.141 N 
ATOM     19  C   UNL d   1       9.787   7.504 -10.840  0.00  0.00     0.274 C 
ATOM     20  C   UNL d   1      11.012   7.468  -9.912  0.00  0.00     0.137 C 
ATOM     21  N   UNL d   1      10.642   6.911  -8.614  0.00  0.00    -0.344 N 
ATOM     22  C   UNL d   1       9.948   5.627  -8.678  0.00  0.00     0.137 C 
ATOM     23  C   UNL d   1       8.755   5.705  -9.651  0.00  0.00     0.274 C 
BRANCH  21  24
ATOM     24  C   UNL d   1      10.922   7.560  -7.395  0.00  0.00     0.056 A 
ATOM     25  C   UNL d   1      11.143   6.803  -6.223  0.00  0.00     0.018 A 
ATOM     26  C   UNL d   1      11.408   7.427  -4.991  0.00  0.00     0.013 A 
ATOM     27  C   UNL d   1      11.477   8.830  -4.911  0.00  0.00     0.058 A 
ATOM     28  C   UNL d   1      11.267   9.600  -6.074  0.00  0.00     0.013 A 
ATOM     29 CL   UNL d   1      11.845   9.587  -3.409  0.00  0.00    -0.082 Cl
ATOM     30  C   UNL d   1      10.991   8.970  -7.305  0.00  0.00     0.018 A 
ENDBRANCH  21  24
ENDBRANCH  17  18
ENDBRANCH  16  17
ENDBRANCH   1  16
TORSDOF 7
