REMARK  6 active torsions:
REMARK  status: ('A' for Active; 'I' for Inactive)
REMARK       I    between atoms: C_2  and  N_3 
REMARK    1  A    between atoms: C_2  and  C_27 
REMARK    2  A    between atoms: N_3  and  C_4 
REMARK    3  A    between atoms: C_7  and  C_8 
REMARK    4  A    between atoms: C_8  and  C_9 
REMARK    5  A    between atoms: C_9  and  N_10 
REMARK    6  A    between atoms: C_13  and  C_14 
ROOT
ATOM      1  C   UNL d   1       9.451   1.802 -16.556  0.00  0.00     0.107 C 
ATOM      2  C   UNL d   1       8.132   2.178 -15.852  0.00  0.00     0.024 C 
ATOM      3  C   UNL d   1       8.350   3.261 -14.790  0.00  0.00     0.002 C 
ATOM      4  C   UNL d   1       9.401   2.818 -13.761  0.00  0.00     0.002 C 
ATOM      5  C   UNL d   1      10.731   2.452 -14.453  0.00  0.00     0.002 C 
ATOM      6  C   UNL d   1      10.518   1.373 -15.526  0.00  0.00     0.024 C 
ENDROOT
BRANCH   4   7
ATOM      7  C   UNL d   1       9.661   3.892 -12.719  0.00  0.00     0.035 C 
BRANCH   7   8
ATOM      8  C   UNL d   1       8.413   4.520 -12.065  0.00  0.00     0.250 C 
BRANCH   8   9
ATOM      9  N   UNL d   1       8.739   5.466 -10.986  0.00  0.00     0.137 N 
ATOM     10  C   UNL d   1       9.172   4.771  -9.782  0.00  0.00     0.251 C 
ATOM     11  C   UNL d   1       9.382   5.763  -8.633  0.00  0.00     0.040 C 
ATOM     12  C   UNL d   1      10.383   6.857  -9.023  0.00  0.00     0.028 C 
ATOM     13  C   UNL d   1       9.950   7.529 -10.335  0.00  0.00     0.040 C 
ATOM     14  C   UNL d   1       9.691   6.486 -11.419  0.00  0.00     0.251 C 
BRANCH  12  15
ATOM     15  C   UNL d   1      10.547   7.856  -7.903  0.00  0.00     0.004 A 
ATOM     16  C   UNL d   1      11.008   7.655  -6.573  0.00  0.00     0.021 A 
ATOM     17  C   UNL d   1      10.976   8.919  -5.937  0.00  0.00     0.100 A 
ATOM     18  C   UNL d   1      11.461   6.574  -5.786  0.00  0.00     0.002 A 
ATOM     19  O   UNL d   1      10.544   9.852  -6.835  0.00  0.00    -0.305 OA
ATOM     20  C   UNL d   1      11.333   9.140  -4.600  0.00  0.00     0.025 A 
ATOM     21  C   UNL d   1      10.233   9.168  -7.984  0.00  0.00     0.118 A 
ATOM     22  C   UNL d   1      11.803   8.049  -3.850  0.00  0.00     0.002 A 
ATOM     23  C   UNL d   1      11.857   6.767  -4.445  0.00  0.00     0.000 A 
ENDBRANCH  12  15
ENDBRANCH   8   9
ENDBRANCH   7   8
ENDBRANCH   4   7
BRANCH   1  24
ATOM     24  N   UNL d   1       9.956   2.926 -17.326  0.00  0.00    -0.236 NA
ATOM     25  C   UNL d   1       9.476   3.353 -18.503  0.00  0.00     0.275 C 
ATOM     26  O   UNL d   1       8.542   2.808 -19.088  0.00  0.00    -0.266 OA
BRANCH  25  27
ATOM     27  C   UNL d   1      10.078   4.644 -18.984  0.00  0.00     0.058 A 
ATOM     28  C   UNL d   1      11.421   4.968 -18.695  0.00  0.00     0.006 A 
ATOM     29  C   UNL d   1      11.988   6.162 -19.181  0.00  0.00     0.018 A 
ATOM     30  C   UNL d   1      11.232   7.048 -19.995  0.00  0.00     0.081 A 
ATOM     31  C   UNL d   1      13.323   6.483 -18.872  0.00  0.00     0.003 A 
ATOM     32  C   UNL d   1       9.899   6.707 -20.291  0.00  0.00     0.019 A 
ATOM     33  N   UNL d   1      11.770   8.184 -20.495  0.00  0.00    -0.244 NA
ATOM     34  C   UNL d   1       9.326   5.511 -19.807  0.00  0.00     0.006 A 
ATOM     35  C   UNL d   1      13.048   8.486 -20.193  0.00  0.00     0.099 A 
ATOM     36  C   UNL d   1      13.869   7.671 -19.390  0.00  0.00     0.021 A 
ENDBRANCH  25  27
ENDBRANCH   1  24
TORSDOF 6
