REMARK  7 active torsions:
REMARK  status: ('A' for Active; 'I' for Inactive)
REMARK    1  A    between atoms: O_2  and  C_3 
REMARK    2  A    between atoms: C_5  and  N_6 
REMARK       I    between atoms: N_6  and  C_8 
REMARK    3  A    between atoms: C_14  and  C_15 
REMARK       I    between atoms: C_15  and  N_17 
REMARK    4  A    between atoms: N_17  and  C_18 
REMARK    5  A    between atoms: C_18  and  C_19 
REMARK    6  A    between atoms: N_22  and  C_23 
REMARK    7  A    between atoms: C_23  and  C_24 
ROOT
ATOM      1  C   UNL d   1       9.742   5.142 -13.539  0.00  0.00     0.277 C 
ATOM      2  O   UNL d   1      10.773   5.314 -14.194  0.00  0.00    -0.266 OA
ATOM      3  N   UNL d   1       9.408   6.037 -12.600  0.00  0.00    -0.234 NA
ENDROOT
BRANCH   1   4
ATOM      4  C   UNL d   1       8.838   3.981 -13.803  0.00  0.00     0.081 C 
ATOM      5  C   UNL d   1       9.290   2.792 -14.443  0.00  0.00     0.100 C 
ATOM      6  C   UNL d   1       8.358   1.750 -14.646  0.00  0.00     0.043 C 
ATOM      7  C   UNL d   1       7.011   1.879 -14.229  0.00  0.00     0.075 C 
ATOM      8  C   UNL d   1       6.586   3.085 -13.595  0.00  0.00     0.074 C 
ATOM      9 CL   UNL d   1       5.077   3.324 -12.786  0.00  0.00    -0.081 Cl
ATOM     10  C   UNL d   1       7.477   4.128 -13.480  0.00  0.00     0.020 C 
BRANCH   5  11
ATOM     11  O   UNL d   1      10.629   2.703 -14.834  0.00  0.00    -0.328 OA
ATOM     12  C   UNL d   1      11.068   1.542 -15.532  0.00  0.00     0.181 C 
ENDBRANCH   5  11
BRANCH   7  13
ATOM     13  N   UNL d   1       6.156   0.761 -14.361  0.00  0.00    -0.296 N 
ATOM     14  C   UNL d   1       5.475   0.221 -13.178  0.00  0.00     0.133 C 
ATOM     15  C   UNL d   1       5.925   0.236 -15.600  0.00  0.00     0.238 C 
ATOM     16  C   UNL d   1       5.001  -0.965 -15.736  0.00  0.00     0.098 C 
ATOM     17  O   UNL d   1       6.411   0.707 -16.633  0.00  0.00    -0.272 OA
ENDBRANCH   7  13
ENDBRANCH   1   4
BRANCH   3  18
ATOM     18  C   UNL d   1       8.711   5.789 -11.339  0.00  0.00     0.131 C 
BRANCH  18  19
ATOM     19  C   UNL d   1       9.717   5.708 -10.176  0.00  0.00     0.060 C 
ATOM     20  C   UNL d   1       9.034   5.731  -8.816  0.00  0.00     0.253 C 
ATOM     21  N   UNL d   1      10.005   6.370  -7.946  0.00  0.00     0.141 N 
ATOM     22  C   UNL d   1      10.512   7.471  -8.757  0.00  0.00     0.251 C 
ATOM     23  C   UNL d   1      10.750   6.855 -10.112  0.00  0.00     0.039 C 
BRANCH  21  24
ATOM     24  C   UNL d   1       9.351   6.861  -6.744  0.00  0.00     0.277 C 
BRANCH  24  25
ATOM     25  C   UNL d   1      10.314   7.618  -5.848  0.00  0.00     0.011 A 
ATOM     26  C   UNL d   1      10.465   9.011  -6.010  0.00  0.00    -0.002 A 
ATOM     27  C   UNL d   1      11.352   9.725  -5.181  0.00  0.00    -0.000 A 
ATOM     28  C   UNL d   1      12.089   9.049  -4.190  0.00  0.00    -0.000 A 
ATOM     29  C   UNL d   1      11.949   7.657  -4.036  0.00  0.00    -0.000 A 
ATOM     30  C   UNL d   1      11.070   6.942  -4.875  0.00  0.00    -0.002 A 
ENDBRANCH  24  25
ENDBRANCH  21  24
ENDBRANCH  18  19
ENDBRANCH   3  18
TORSDOF 7
