REMARK  7 active torsions:
REMARK  status: ('A' for Active; 'I' for Inactive)
REMARK    1  A    between atoms: O_2  and  C_3 
REMARK    2  A    between atoms: C_9  and  N_10 
REMARK       I    between atoms: N_10  and  C_11 
REMARK       I    between atoms: C_11  and  N_13 
REMARK    3  A    between atoms: N_13  and  C_14 
REMARK    4  A    between atoms: C_17  and  N_18 
REMARK    5  A    between atoms: N_21  and  C_22 
REMARK    6  A    between atoms: C_27  and  O_28 
REMARK    7  A    between atoms: O_28  and  C_29 
ROOT
ATOM      1  C   UNL d   1       8.426   4.305 -11.444  0.00  0.00     0.108 C 
ATOM      2  C   UNL d   1       9.681   3.496 -11.788  0.00  0.00     0.026 C 
ATOM      3  C   UNL d   1      10.509   4.172 -12.849  0.00  0.00     0.035 C 
ATOM      4  C   UNL d   1       9.720   4.440 -14.137  0.00  0.00     0.220 C 
ATOM      5  C   UNL d   1       8.456   5.248 -13.773  0.00  0.00     0.035 C 
ATOM      6  C   UNL d   1       7.614   4.564 -12.697  0.00  0.00     0.026 C 
ENDROOT
BRANCH   4   7
ATOM      7  N   UNL d   1      10.551   5.189 -15.089  0.00  0.00     0.139 N 
ATOM      8  C   UNL d   1      11.991   4.890 -15.030  0.00  0.00     0.274 C 
ATOM      9  C   UNL d   1      12.786   5.807 -15.950  0.00  0.00     0.137 C 
ATOM     10  N   UNL d   1      12.289   5.644 -17.306  0.00  0.00    -0.343 N 
ATOM     11  C   UNL d   1      10.843   5.764 -17.470  0.00  0.00     0.137 C 
ATOM     12  C   UNL d   1      10.094   4.885 -16.451  0.00  0.00     0.274 C 
BRANCH  10  13
ATOM     13  C   UNL d   1      13.133   5.302 -18.363  0.00  0.00     0.079 A 
ATOM     14  C   UNL d   1      12.822   4.212 -19.218  0.00  0.00     0.109 A 
ATOM     15  C   UNL d   1      13.654   3.980 -20.345  0.00  0.00     0.026 A 
ATOM     16  C   UNL d   1      14.837   4.710 -20.530  0.00  0.00     0.002 A 
ATOM     17  C   UNL d   1      15.148   5.780 -19.678  0.00  0.00     0.002 A 
ATOM     18  C   UNL d   1      14.287   6.088 -18.602  0.00  0.00     0.019 A 
BRANCH  14  19
ATOM     19  O   UNL d   1      11.736   3.427 -18.879  0.00  0.00    -0.332 OA
BRANCH  19  20
ATOM     20  C   UNL d   1      11.449   2.209 -19.568  0.00  0.00     0.122 C 
ATOM     21  C   UNL d   1      10.295   1.548 -18.762  0.00  0.00     0.033 C 
ATOM     22  C   UNL d   1      12.648   1.223 -19.617  0.00  0.00     0.033 C 
ENDBRANCH  19  20
ENDBRANCH  14  19
ENDBRANCH  10  13
ENDBRANCH   4   7
BRANCH   1  23
ATOM     23  N   UNL d   1       8.823   5.524 -10.768  0.00  0.00    -0.219 NA
ATOM     24  C   UNL d   1       9.111   5.612  -9.461  0.00  0.00     0.364 C 
ATOM     25  N   UNL d   1       9.314   6.890  -9.122  0.00  0.00    -0.189 NA
ATOM     26  O   UNL d   1       9.192   4.644  -8.705  0.00  0.00    -0.243 OA
BRANCH  25  27
ATOM     27  C   UNL d   1      10.024   7.464  -8.039  0.00  0.00     0.109 A 
ATOM     28  C   UNL d   1      10.482   8.792  -8.148  0.00  0.00     0.112 A 
ATOM     29  C   UNL d   1      11.118   9.428  -7.072  0.00  0.00     0.027 A 
ATOM     30  C   UNL d   1      11.327   8.730  -5.881  0.00  0.00     0.013 A 
ATOM     31  C   UNL d   1      10.900   7.404  -5.777  0.00  0.00     0.059 A 
ATOM     32 CL   UNL d   1      11.209   6.551  -4.321  0.00  0.00    -0.082 Cl
ATOM     33  C   UNL d   1      10.239   6.777  -6.842  0.00  0.00     0.033 A 
BRANCH  28  34
ATOM     34  O   UNL d   1      10.305   9.493  -9.295  0.00  0.00    -0.327 OA
ATOM     35  C   UNL d   1      10.846   8.908 -10.469  0.00  0.00     0.181 C 
ENDBRANCH  28  34
ENDBRANCH  25  27
ENDBRANCH   1  23
TORSDOF 7
