REMARK  5 active torsions:
REMARK  status: ('A' for Active; 'I' for Inactive)
REMARK    1  A    between atoms: C_2  and  C_3 
REMARK       I    between atoms: C_3  and  N_5 
REMARK    2  A    between atoms: N_5  and  C_6 
REMARK    3  A    between atoms: C_10  and  C_11 
REMARK    4  A    between atoms: N_13  and  S_14 
REMARK    5  A    between atoms: S_14  and  C_17 
ROOT
ATOM      1  C   UNL d   1       7.412   2.701 -14.084  0.00  0.00     0.039 A 
ATOM      2  C   UNL d   1       6.904   3.718 -13.331  0.00  0.00     0.093 A 
ATOM      3  N   UNL d   1       7.911   4.591 -12.988  0.00  0.00    -0.231 N 
ATOM      4  C   UNL d   1       9.112   4.156 -13.521  0.00  0.00     0.075 A 
ATOM      5  C   UNL d   1      10.414   4.683 -13.467  0.00  0.00     0.018 A 
ATOM      6  C   UNL d   1      11.477   3.992 -14.097  0.00  0.00     0.002 A 
ATOM      7  C   UNL d   1      11.215   2.787 -14.778  0.00  0.00     0.000 A 
ATOM      8  C   UNL d   1       9.902   2.282 -14.833  0.00  0.00     0.002 A 
ATOM      9  C   UNL d   1       8.819   2.950 -14.217  0.00  0.00     0.020 A 
ENDROOT
BRANCH   3  10
ATOM     10  S   UNL d   1       7.611   6.030 -12.116  0.00  0.00     0.271 S 
ATOM     11  O   UNL d   1       8.153   7.077 -12.966  0.00  0.00    -0.200 OA
ATOM     12  O   UNL d   1       6.175   5.957 -11.812  0.00  0.00    -0.200 OA
BRANCH  10  13
ATOM     13  C   UNL d   1       8.566   5.901 -10.611  0.00  0.00     0.104 A 
ATOM     14  C   UNL d   1       9.517   6.845 -10.111  0.00  0.00     0.012 A 
ATOM     15  C   UNL d   1      10.150   6.579  -8.867  0.00  0.00     0.001 A 
ATOM     16  C   UNL d   1       9.872   8.044 -10.768  0.00  0.00     0.001 A 
ATOM     17  C   UNL d   1       9.843   5.431  -8.164  0.00  0.00     0.000 A 
ATOM     18  C   UNL d   1      11.113   7.443  -8.291  0.00  0.00     0.000 A 
ATOM     19  C   UNL d   1       8.914   4.509  -8.644  0.00  0.00     0.001 A 
ATOM     20  C   UNL d   1       8.289   4.764  -9.862  0.00  0.00     0.013 A 
ATOM     21  C   UNL d   1      11.493   8.587  -8.983  0.00  0.00     0.000 A 
ATOM     22  C   UNL d   1      10.890   8.845 -10.215  0.00  0.00     0.000 A 
ENDBRANCH  10  13
ENDBRANCH   3  10
BRANCH   1  23
ATOM     23  C   UNL d   1       6.727   1.543 -14.615  0.00  0.00     0.115 A 
ATOM     24  C   UNL d   1       5.822   0.715 -13.984  0.00  0.00     0.096 A 
ATOM     25  N   UNL d   1       5.401  -0.188 -14.933  0.00  0.00    -0.062 NA
ATOM     26  C   UNL d   1       5.306   0.701 -12.594  0.00  0.00     0.054 C 
ATOM     27  C   UNL d   1       6.051   0.108 -16.058  0.00  0.00     0.752 A 
ATOM     28  N   UNL d   1       6.904   1.120 -15.939  0.00  0.00    -0.058 NA
BRANCH  27  29
ATOM     29  N   UNL d   1       5.883  -0.617 -17.255  0.00  0.00    -0.023 NA
ATOM     30  C   UNL d   1       4.795  -1.333 -17.592  0.00  0.00     0.272 C 
ATOM     31  O   UNL d   1       3.750  -1.321 -16.936  0.00  0.00    -0.270 OA
BRANCH  30  32
ATOM     32  C   UNL d   1       4.893  -2.156 -18.880  0.00  0.00     0.091 C 
ATOM     33  C   UNL d   1       3.945  -3.368 -18.907  0.00  0.00     0.010 C 
ENDBRANCH  30  32
ENDBRANCH  27  29
ENDBRANCH   1  23
TORSDOF 5
