REMARK  8 active torsions:
REMARK  status: ('A' for Active; 'I' for Inactive)
REMARK    1  A    between atoms: C_3  and  S_4 
REMARK    2  A    between atoms: S_4  and  C_5 
REMARK    3  A    between atoms: C_5  and  C_6 
REMARK    4  A    between atoms: C_6  and  C_7 
REMARK    5  A    between atoms: C_7  and  N_8 
REMARK    6  A    between atoms: N_13  and  C_14 
REMARK    7  A    between atoms: C_17  and  C_18 
REMARK    8  A    between atoms: C_28  and  C_29 
ROOT
ATOM      1  N   UNL d   1      10.891   3.612 -15.427  0.00  0.00     0.138 N 
ATOM      2  C   UNL d   1      11.091   3.793 -13.998  0.00  0.00     0.252 C 
ATOM      3  C   UNL d   1       9.763   3.323 -13.431  0.00  0.00     0.052 C 
ATOM      4  C   UNL d   1       8.680   4.406 -13.386  0.00  0.00     0.021 C 
ATOM      5  C   UNL d   1       7.439   3.643 -13.823  0.00  0.00     0.077 C 
ATOM      6  N   UNL d   1       7.914   2.693 -14.828  0.00  0.00    -0.252 NA
ATOM      7  C   UNL d   1       9.254   2.288 -14.434  0.00  0.00     0.097 C 
ATOM      8  C   UNL d   1      10.250   2.317 -15.595  0.00  0.00     0.266 C 
ENDROOT
BRANCH   1   9
ATOM      9  C   UNL d   1      12.136   3.640 -16.170  0.00  0.00     0.251 C 
BRANCH   9  10
ATOM     10  C   UNL d   1      12.854   4.965 -16.040  0.00  0.00     0.047 C 
BRANCH  10  11
ATOM     11  C   UNL d   1      12.207   6.128 -16.816  0.00  0.00     0.067 C 
BRANCH  11  12
ATOM     12  S   UNL d   1      13.200   7.662 -16.717  0.00  0.00    -0.075 SA
BRANCH  12  13
ATOM     13  C   UNL d   1      14.757   7.143 -17.352  0.00  0.00     0.193 A 
ATOM     14  N   UNL d   1      15.324   7.646 -18.450  0.00  0.00    -0.287 N 
ATOM     15  C   UNL d   1      14.877   8.801 -19.238  0.00  0.00     0.134 C 
ATOM     16  C   UNL d   1      16.441   6.852 -18.566  0.00  0.00     0.185 A 
ATOM     17  N   UNL d   1      16.552   5.984 -17.573  0.00  0.00    -0.127 NA
ATOM     18  N   UNL d   1      15.482   6.189 -16.750  0.00  0.00    -0.122 NA
BRANCH  16  19
ATOM     19  C   UNL d   1      17.509   6.944 -19.594  0.00  0.00     0.117 A 
ATOM     20  N   UNL d   1      18.703   6.388 -19.246  0.00  0.00    -0.241 NA
ATOM     21  C   UNL d   1      19.739   6.450 -20.111  0.00  0.00     0.099 A 
ATOM     22  C   UNL d   1      19.644   7.084 -21.364  0.00  0.00     0.021 A 
ATOM     23  C   UNL d   1      18.410   7.658 -21.732  0.00  0.00     0.003 A 
ATOM     24  C   UNL d   1      17.321   7.578 -20.846  0.00  0.00     0.022 A 
ENDBRANCH  16  19
ENDBRANCH  12  13
ENDBRANCH  11  12
ENDBRANCH  10  11
ENDBRANCH   9  10
ENDBRANCH   1   9
BRANCH   6  25
ATOM     25  C   UNL d   1       7.071   1.633 -15.199  0.00  0.00     0.036 A 
ATOM     26  C   UNL d   1       6.250   0.988 -14.249  0.00  0.00     0.011 A 
ATOM     27  C   UNL d   1       5.394  -0.050 -14.636  0.00  0.00     0.005 A 
ATOM     28  C   UNL d   1       5.351  -0.479 -15.975  0.00  0.00     0.071 A 
ATOM     29  C   UNL d   1       6.181   0.144 -16.929  0.00  0.00     0.005 A 
ATOM     30  C   UNL d   1       7.040   1.197 -16.544  0.00  0.00     0.011 A 
BRANCH  28  31
ATOM     31  C   UNL d   1       4.423  -1.612 -16.366  0.00  0.00     0.419 C 
ATOM     32  F   UNL d   1       4.027  -1.486 -17.634  0.00  0.00    -0.166 F 
ATOM     33  F   UNL d   1       5.081  -2.760 -16.211  0.00  0.00    -0.166 F 
ATOM     34  F   UNL d   1       3.348  -1.598 -15.579  0.00  0.00    -0.166 F 
ENDBRANCH  28  31
ENDBRANCH   6  25
TORSDOF 8
