REMARK  7 active torsions:
REMARK  status: ('A' for Active; 'I' for Inactive)
REMARK    1  A    between atoms: O_2  and  C_3 
REMARK    2  A    between atoms: C_8  and  N_9 
REMARK    3  A    between atoms: N_12  and  C_13 
REMARK    4  A    between atoms: C_13  and  C_14 
REMARK    5  A    between atoms: C_14  and  C_16 
REMARK    6  A    between atoms: C_16  and  N_17 
REMARK    7  A    between atoms: C_21  and  C_23 
ROOT
ATOM      1  C   UNL d   1      11.383   2.748 -16.455  0.00  0.00     0.208 C 
ATOM      2  O   UNL d   1      12.634   3.071 -17.030  0.00  0.00    -0.219 OA
ENDROOT
BRANCH   1   3
ATOM      3  C   UNL d   1      10.666   4.058 -15.979  0.00  0.00     0.285 C 
BRANCH   3   4
ATOM      4  N   UNL d   1       9.918   3.925 -14.745  0.00  0.00     0.144 N 
ATOM      5  C   UNL d   1      10.753   3.600 -13.577  0.00  0.00     0.274 C 
ATOM      6  C   UNL d   1       9.864   3.474 -12.317  0.00  0.00     0.137 C 
ATOM      7  N   UNL d   1       9.097   4.671 -12.066  0.00  0.00    -0.343 N 
ATOM      8  C   UNL d   1       8.284   5.095 -13.201  0.00  0.00     0.137 C 
ATOM      9  C   UNL d   1       9.222   5.177 -14.432  0.00  0.00     0.274 C 
BRANCH   7  10
ATOM     10  C   UNL d   1       9.285   5.405 -10.863  0.00  0.00     0.079 A 
ATOM     11  C   UNL d   1       9.415   6.817 -10.881  0.00  0.00     0.110 A 
ATOM     12  C   UNL d   1       9.561   7.531  -9.662  0.00  0.00     0.026 A 
ATOM     13  C   UNL d   1       9.498   6.881  -8.414  0.00  0.00     0.002 A 
ATOM     14  C   UNL d   1       9.414   5.477  -8.416  0.00  0.00     0.002 A 
ATOM     15  C   UNL d   1       9.353   4.761  -9.604  0.00  0.00     0.019 A 
BRANCH  11  16
ATOM     16  O   UNL d   1       9.359   7.413 -12.126  0.00  0.00    -0.327 OA
ATOM     17  C   UNL d   1       9.292   8.796 -12.094  0.00  0.00     0.181 C 
ENDBRANCH  11  16
ENDBRANCH   7  10
ENDBRANCH   3   4
ENDBRANCH   1   3
BRANCH   1  18
ATOM     18  C   UNL d   1      10.619   2.045 -17.605  0.00  0.00     0.148 C 
BRANCH  18  19
ATOM     19  N   UNL d   1       9.426   1.311 -17.163  0.00  0.00    -0.247 N 
ATOM     20  C   UNL d   1       8.268   1.369 -17.837  0.00  0.00     0.265 C 
ATOM     21  C   UNL d   1       7.272   0.380 -17.222  0.00  0.00     0.179 C 
ATOM     22  O   UNL d   1       8.003   2.098 -18.791  0.00  0.00    -0.269 OA
ATOM     23  N   UNL d   1       8.071  -0.018 -16.081  0.00  0.00    -0.209 NA
ATOM     24  C   UNL d   1       6.052   1.151 -16.725  0.00  0.00     0.039 C 
ATOM     25  C   UNL d   1       9.335   0.457 -16.133  0.00  0.00     0.348 C 
ATOM     26  O   UNL d   1      10.268   0.111 -15.423  0.00  0.00    -0.245 OA
BRANCH  21  27
ATOM     27  C   UNL d   1       6.930  -0.823 -18.136  0.00  0.00     0.006 A 
ATOM     28  C   UNL d   1       5.792  -1.623 -17.853  0.00  0.00    -0.001 A 
ATOM     29  C   UNL d   1       5.436  -2.713 -18.681  0.00  0.00     0.011 A 
ATOM     30  C   UNL d   1       6.219  -3.033 -19.802  0.00  0.00     0.058 A 
ATOM     31  C   UNL d   1       7.369  -2.273 -20.084  0.00  0.00     0.011 A 
ATOM     32 CL   UNL d   1       5.775  -4.350 -20.822  0.00  0.00    -0.082 Cl
ATOM     33  C   UNL d   1       7.726  -1.183 -19.260  0.00  0.00    -0.001 A 
ENDBRANCH  21  27
ENDBRANCH  18  19
ENDBRANCH   1  18
TORSDOF 7
