REMARK  8 active torsions:
REMARK  status: ('A' for Active; 'I' for Inactive)
REMARK    1  A    between atoms: C_6  and  C_7 
REMARK    2  A    between atoms: C_10  and  S_11 
REMARK    3  A    between atoms: S_11  and  C_12 
REMARK    4  A    between atoms: C_12  and  C_13 
REMARK    5  A    between atoms: C_13  and  C_14 
REMARK    6  A    between atoms: C_14  and  N_15 
REMARK    7  A    between atoms: C_19  and  C_20 
REMARK    8  A    between atoms: C_23  and  C_24 
ROOT
ATOM      1  N   UNL d   1       7.766   3.193 -13.654  0.00  0.00     0.137 N 
ATOM      2  C   UNL d   1       6.382   3.115 -13.246  0.00  0.00     0.251 C 
ATOM      3  C   UNL d   1       6.251   4.236 -12.254  0.00  0.00     0.039 A 
ATOM      4  C   UNL d   1       5.900   5.639 -12.656  0.00  0.00     0.008 A 
ATOM      5  C   UNL d   1       7.356   5.207 -12.546  0.00  0.00     0.052 A 
ATOM      6  C   UNL d   1       8.121   4.627 -13.708  0.00  0.00     0.254 C 
ENDROOT
BRANCH   1   7
ATOM      7  C   UNL d   1       7.994   2.363 -14.839  0.00  0.00     0.251 C 
BRANCH   7   8
ATOM      8  C   UNL d   1       9.495   2.266 -15.075  0.00  0.00     0.047 C 
BRANCH   8   9
ATOM      9  C   UNL d   1       9.828   1.823 -16.519  0.00  0.00     0.067 C 
BRANCH   9  10
ATOM     10  S   UNL d   1      11.617   1.686 -16.884  0.00  0.00    -0.075 SA
BRANCH  10  11
ATOM     11  C   UNL d   1      12.157   3.360 -16.905  0.00  0.00     0.193 A 
ATOM     12  N   UNL d   1      11.629   4.310 -16.118  0.00  0.00    -0.122 NA
ATOM     13  N   UNL d   1      12.339   5.436 -16.392  0.00  0.00    -0.126 NA
ATOM     14  C   UNL d   1      13.223   5.105 -17.321  0.00  0.00     0.191 A 
ATOM     15  N   UNL d   1      13.151   3.789 -17.673  0.00  0.00    -0.287 N 
ATOM     16  C   UNL d   1      13.981   3.057 -18.651  0.00  0.00     0.134 C 
BRANCH  14  17
ATOM     17  C   UNL d   1      14.156   6.103 -17.863  0.00  0.00     0.151 A 
ATOM     18  C   UNL d   1      14.218   7.462 -17.675  0.00  0.00     0.087 A 
ATOM     19  C   UNL d   1      13.339   8.373 -16.835  0.00  0.00     0.054 C 
ATOM     20  N   UNL d   1      15.283   7.966 -18.416  0.00  0.00    -0.221 NA
ATOM     21  C   UNL d   1      15.799   6.886 -18.999  0.00  0.00     0.225 A 
ATOM     22  O   UNL d   1      15.167   5.723 -18.698  0.00  0.00    -0.282 OA
ENDBRANCH  14  17
ENDBRANCH  10  11
ENDBRANCH   9  10
ENDBRANCH   8   9
ENDBRANCH   7   8
ENDBRANCH   1   7
BRANCH   5  23
ATOM     23  C   UNL d   1       8.270   5.772 -11.477  0.00  0.00    -0.021 A 
ATOM     24  C   UNL d   1       8.972   6.979 -11.697  0.00  0.00    -0.005 A 
ATOM     25  C   UNL d   1       9.756   7.553 -10.669  0.00  0.00    -0.005 A 
ATOM     26  C   UNL d   1       9.867   6.918  -9.398  0.00  0.00    -0.023 A 
ATOM     27  C   UNL d   1       9.164   5.709  -9.200  0.00  0.00    -0.005 A 
ATOM     28  C   UNL d   1       8.390   5.140 -10.234  0.00  0.00    -0.005 A 
BRANCH  26  29
ATOM     29  C   UNL d   1      10.731   7.535  -8.268  0.00  0.00     0.019 C 
ATOM     30  C   UNL d   1      11.022   6.507  -7.136  0.00  0.00     0.004 C 
ATOM     31  C   UNL d   1      10.000   8.721  -7.614  0.00  0.00     0.004 C 
ATOM     32  C   UNL d   1      12.069   8.038  -8.865  0.00  0.00     0.004 C 
ENDBRANCH  26  29
ENDBRANCH   5  23
TORSDOF 8
