REMARK  7 active torsions:
REMARK  status: ('A' for Active; 'I' for Inactive)
REMARK    1  A    between atoms: C_2  and  C_3 
REMARK       I    between atoms: C_2  and  N_11 
REMARK    2  A    between atoms: C_4  and  C_5 
REMARK    3  A    between atoms: N_11  and  C_12 
REMARK    4  A    between atoms: C_12  and  C_13 
REMARK    5  A    between atoms: C_13  and  C_14 
REMARK    6  A    between atoms: C_14  and  C_15 
REMARK    7  A    between atoms: C_15  and  N_16 
ROOT
ATOM      1  N   UNL d   1      11.299   4.994 -14.928  0.00  0.00     0.141 N 
ATOM      2  C   UNL d   1      12.690   4.558 -15.007  0.00  0.00     0.274 C 
ATOM      3  C   UNL d   1      13.448   5.476 -15.984  0.00  0.00     0.137 C 
ATOM      4  N   UNL d   1      12.846   5.417 -17.310  0.00  0.00    -0.343 N 
ATOM      5  C   UNL d   1      13.659   5.831 -18.386  0.00  0.00     0.053 A 
ATOM      6  C   UNL d   1      14.685   6.795 -18.230  0.00  0.00     0.017 A 
ATOM      7  C   UNL d   1      15.499   7.160 -19.321  0.00  0.00     0.002 A 
ATOM      8  C   UNL d   1      15.299   6.564 -20.580  0.00  0.00    -0.000 A 
ATOM      9  C   UNL d   1      14.283   5.606 -20.747  0.00  0.00    -0.003 A 
ATOM     10  C   UNL d   1      13.468   5.239 -19.654  0.00  0.00    -0.002 A 
ATOM     11  C   UNL d   1      12.352   4.236 -19.844  0.00  0.00     0.054 C 
ATOM     12  C   UNL d   1      11.022   4.954 -19.786  0.00  0.00    -0.020 A 
ATOM     13  C   UNL d   1      10.197   4.942 -20.933  0.00  0.00    -0.004 A 
ATOM     14  C   UNL d   1       8.980   5.647 -20.949  0.00  0.00    -0.000 A 
ATOM     15  C   UNL d   1       8.584   6.377 -19.816  0.00  0.00    -0.000 A 
ATOM     16  C   UNL d   1       9.401   6.386 -18.672  0.00  0.00    -0.003 A 
ATOM     17  C   UNL d   1      10.623   5.681 -18.631  0.00  0.00    -0.004 A 
ATOM     18  C   UNL d   1      11.408   5.730 -17.309  0.00  0.00     0.137 C 
ATOM     19  C   UNL d   1      10.696   4.840 -16.257  0.00  0.00     0.277 C 
ENDROOT
BRANCH   1  20
ATOM     20  C   UNL d   1      10.569   4.203 -13.946  0.00  0.00     0.251 C 
BRANCH  20  21
ATOM     21  C   UNL d   1       9.586   5.098 -13.179  0.00  0.00     0.037 C 
BRANCH  21  22
ATOM     22  C   UNL d   1       8.807   4.298 -12.138  0.00  0.00     0.029 C 
BRANCH  22  23
ATOM     23  C   UNL d   1       7.783   5.149 -11.366  0.00  0.00     0.129 C 
BRANCH  23  24
ATOM     24  N   UNL d   1       8.333   5.972 -10.287  0.00  0.00    -0.234 NA
ATOM     25  C   UNL d   1       9.066   5.522  -9.272  0.00  0.00     0.275 C 
ATOM     26  O   UNL d   1       9.409   4.337  -9.176  0.00  0.00    -0.266 OA
BRANCH  25  27
ATOM     27  C   UNL d   1       9.402   6.595  -8.335  0.00  0.00     0.062 C 
ATOM     28  C   UNL d   1      10.343   6.433  -7.401  0.00  0.00     0.005 C 
BRANCH  28  29
ATOM     29  C   UNL d   1      10.790   7.429  -6.411  0.00  0.00     0.000 A 
ATOM     30  C   UNL d   1      10.511   8.802  -6.617  0.00  0.00     0.000 A 
ATOM     31  C   UNL d   1      10.909   9.753  -5.656  0.00  0.00     0.000 A 
ATOM     32  C   UNL d   1      11.573   9.343  -4.490  0.00  0.00     0.000 A 
ATOM     33  C   UNL d   1      11.856   7.978  -4.278  0.00  0.00     0.000 A 
ATOM     34  C   UNL d   1      11.456   7.028  -5.240  0.00  0.00     0.000 A 
ENDBRANCH  28  29
ENDBRANCH  25  27
ENDBRANCH  23  24
ENDBRANCH  22  23
ENDBRANCH  21  22
ENDBRANCH  20  21
ENDBRANCH   1  20
TORSDOF 7
