REMARK  10 active torsions:
REMARK  status: ('A' for Active; 'I' for Inactive)
REMARK    1  A    between atoms: C_2  and  C_3 
REMARK    2  A    between atoms: C_3  and  N_4 
REMARK    3  A    between atoms: N_4  and  C_5 
REMARK    4  A    between atoms: N_4  and  C_24 
REMARK    5  A    between atoms: C_5  and  C_6 
REMARK    6  A    between atoms: C_6  and  C_7 
REMARK    7  A    between atoms: C_7  and  C_8 
REMARK    8  A    between atoms: C_8  and  N_9 
REMARK       I    between atoms: N_9  and  C_10 
REMARK    9  A    between atoms: C_10  and  C_12 
REMARK   10  A    between atoms: C_15  and  C_16 
ROOT
ATOM      1  C   UNL d   1       6.467   5.285 -12.576  0.00  0.00     0.029 C 
ENDROOT
BRANCH   1   2
ATOM      2  C   UNL d   1       7.013   3.847 -12.646  0.00  0.00     0.037 C 
BRANCH   2   3
ATOM      3  C   UNL d   1       7.140   3.338 -14.091  0.00  0.00     0.250 C 
BRANCH   3   4
ATOM      4  N   UNL d   1       7.800   2.028 -14.112  0.00  0.00     0.135 N 
BRANCH   4   5
ATOM      5  C   UNL d   1       6.925   0.939 -14.556  0.00  0.00     0.250 C 
BRANCH   5   6
ATOM      6  C   UNL d   1       5.691   0.746 -13.653  0.00  0.00     0.035 C 
ATOM      7  C   UNL d   1       4.729  -0.301 -14.222  0.00  0.00     0.002 C 
ENDBRANCH   5   6
ENDBRANCH   4   5
BRANCH   4   8
ATOM      8  C   UNL d   1       9.098   2.024 -14.803  0.00  0.00     0.224 C 
ATOM      9  C   UNL d   1       8.945   2.267 -16.329  0.00  0.00     0.062 C 
ATOM     10  C   UNL d   1      10.252   2.559 -17.021  0.00  0.00     0.013 A 
ATOM     11  C   UNL d   1      11.435   2.887 -16.319  0.00  0.00     0.058 A 
ATOM     12  C   UNL d   1      10.328   2.566 -18.419  0.00  0.00     0.098 A 
ATOM     13  C   UNL d   1      11.490   2.923 -14.795  0.00  0.00     0.048 C 
ATOM     14  N   UNL d   1      12.582   3.161 -16.974  0.00  0.00    -0.229 NA
ATOM     15  C   UNL d   1      10.119   2.976 -14.134  0.00  0.00     0.040 C 
ATOM     16  C   UNL d   1      12.539   3.109 -18.308  0.00  0.00     0.199 A 
ATOM     17  N   UNL d   1      11.477   2.837 -19.065  0.00  0.00    -0.223 NA
ENDBRANCH   4   8
ENDBRANCH   3   4
ENDBRANCH   2   3
ENDBRANCH   1   2
BRANCH   1  18
ATOM     18  C   UNL d   1       7.505   6.403 -12.843  0.00  0.00     0.129 C 
BRANCH  18  19
ATOM     19  N   UNL d   1       8.239   6.782 -11.640  0.00  0.00    -0.234 NA
ATOM     20  C   UNL d   1       9.319   6.169 -11.173  0.00  0.00     0.275 C 
ATOM     21  O   UNL d   1       9.858   5.239 -11.763  0.00  0.00    -0.266 OA
BRANCH  20  22
ATOM     22  C   UNL d   1       9.768   6.643  -9.830  0.00  0.00     0.058 A 
ATOM     23  C   UNL d   1       9.444   5.890  -8.687  0.00  0.00     0.005 A 
ATOM     24  C   UNL d   1       9.850   6.351  -7.419  0.00  0.00     0.000 A 
ATOM     25  C   UNL d   1      10.600   7.531  -7.251  0.00  0.00     0.000 A 
ATOM     26  C   UNL d   1      10.903   8.284  -8.408  0.00  0.00     0.000 A 
ATOM     27  C   UNL d   1      10.476   7.850  -9.683  0.00  0.00     0.005 A 
BRANCH  25  28
ATOM     28  C   UNL d   1      11.041   7.950  -5.902  0.00  0.00     0.000 A 
ATOM     29  C   UNL d   1      11.050   9.315  -5.546  0.00  0.00     0.000 A 
ATOM     30  C   UNL d   1      11.458   9.724  -4.264  0.00  0.00     0.000 A 
ATOM     31  C   UNL d   1      11.887   8.784  -3.311  0.00  0.00     0.000 A 
ATOM     32  C   UNL d   1      11.881   7.418  -3.643  0.00  0.00     0.000 A 
ATOM     33  C   UNL d   1      11.460   7.011  -4.928  0.00  0.00     0.000 A 
ENDBRANCH  25  28
ENDBRANCH  20  22
ENDBRANCH  18  19
ENDBRANCH   1  18
TORSDOF 10
