REMARK  7 active torsions:
REMARK  status: ('A' for Active; 'I' for Inactive)
REMARK    1  A    between atoms: O_2  and  C_3 
REMARK    2  A    between atoms: C_6  and  O_7 
REMARK    3  A    between atoms: O_7  and  C_8 
REMARK    4  A    between atoms: C_8  and  C_9 
REMARK    5  A    between atoms: C_9  and  N_10 
REMARK       I    between atoms: N_13  and  C_14 
REMARK    6  A    between atoms: C_14  and  C_16 
REMARK    7  A    between atoms: C_19  and  O_20 
ROOT
ATOM      1  N   UNL d   1       7.062   2.771 -13.648  0.00  0.00     0.144 N 
ATOM      2  C   UNL d   1       7.112   2.285 -15.044  0.00  0.00     0.274 C 
ATOM      3  C   UNL d   1       7.031   0.751 -15.082  0.00  0.00     0.140 C 
ATOM      4  N   UNL d   1       5.735   0.358 -14.488  0.00  0.00    -0.311 N 
ATOM      5  C   UNL d   1       4.756  -0.413 -15.051  0.00  0.00     0.275 C 
ATOM      6  O   UNL d   1       3.779  -0.809 -14.431  0.00  0.00    -0.266 OA
ATOM      7  C   UNL d   1       5.633   0.810 -13.070  0.00  0.00     0.140 C 
ATOM      8  C   UNL d   1       5.828   2.347 -13.003  0.00  0.00     0.274 C 
ENDROOT
BRANCH   5   9
ATOM      9  C   UNL d   1       4.872  -0.810 -16.491  0.00  0.00     0.137 A 
ATOM     10  N   UNL d   1       4.267  -1.997 -16.920  0.00  0.00    -0.241 NA
ATOM     11  C   UNL d   1       4.512  -2.218 -18.262  0.00  0.00     0.083 A 
ATOM     12  C   UNL d   1       5.322  -1.128 -18.685  0.00  0.00     0.042 A 
ATOM     13  C   UNL d   1       4.121  -3.244 -19.145  0.00  0.00     0.019 A 
ATOM     14  C   UNL d   1       5.469  -0.240 -17.599  0.00  0.00     0.027 A 
ATOM     15  C   UNL d   1       5.799  -1.117 -20.019  0.00  0.00     0.096 A 
ATOM     16  C   UNL d   1       5.421  -2.153 -20.920  0.00  0.00     0.024 A 
ATOM     17  C   UNL d   1       4.576  -3.192 -20.479  0.00  0.00     0.004 A 
BRANCH  15  18
ATOM     18  O   UNL d   1       6.626  -0.069 -20.366  0.00  0.00    -0.328 OA
ATOM     19  C   UNL d   1       7.095   0.026 -21.703  0.00  0.00     0.181 C 
ENDBRANCH  15  18
ENDBRANCH   5   9
BRANCH   1  20
ATOM     20  C   UNL d   1       7.250   4.204 -13.548  0.00  0.00     0.283 C 
BRANCH  20  21
ATOM     21  C   UNL d   1       8.752   4.565 -13.632  0.00  0.00     0.184 C 
BRANCH  21  22
ATOM     22  O   UNL d   1       8.960   5.850 -13.084  0.00  0.00    -0.329 OA
BRANCH  22  23
ATOM     23  C   UNL d   1       9.076   5.970 -11.716  0.00  0.00     0.094 A 
ATOM     24  C   UNL d   1       9.586   7.180 -11.233  0.00  0.00     0.026 A 
ATOM     25  C   UNL d   1       9.829   7.375  -9.868  0.00  0.00     0.026 A 
ATOM     26  C   UNL d   1       9.480   6.374  -8.927  0.00  0.00     0.094 A 
ATOM     27  C   UNL d   1       8.956   5.155  -9.401  0.00  0.00     0.026 A 
ATOM     28  C   UNL d   1       8.757   4.952 -10.782  0.00  0.00     0.026 A 
BRANCH  26  29
ATOM     29  O   UNL d   1       9.610   6.562  -7.569  0.00  0.00    -0.328 OA
ATOM     30  C   UNL d   1       9.361   7.877  -7.078  0.00  0.00     0.181 C 
ENDBRANCH  26  29
ENDBRANCH  22  23
ENDBRANCH  21  22
ENDBRANCH  20  21
ENDBRANCH   1  20
TORSDOF 7
