REMARK  9 active torsions:
REMARK  status: ('A' for Active; 'I' for Inactive)
REMARK    1  A    between atoms: C_2  and  C_3 
REMARK    2  A    between atoms: C_3  and  N_4 
REMARK    3  A    between atoms: N_4  and  C_5 
REMARK    4  A    between atoms: N_4  and  C_23 
REMARK    5  A    between atoms: C_5  and  C_6 
REMARK    6  A    between atoms: C_6  and  N_7 
REMARK    7  A    between atoms: N_10  and  C_11 
REMARK    8  A    between atoms: C_11  and  C_12 
REMARK    9  A    between atoms: C_26  and  O_27 
ROOT
ATOM      1  N   UNL d   1       9.422   5.837 -12.131  0.00  0.00     0.143 N 
ATOM      2  C   UNL d   1       8.746   7.141 -12.109  0.00  0.00     0.286 C 
ATOM      3  C   UNL d   1       9.565   8.230 -11.379  0.00  0.00     0.286 C 
ATOM      4  N   UNL d   1       9.891   7.832  -9.998  0.00  0.00     0.147 N 
ATOM      5  C   UNL d   1      10.544   6.527 -10.039  0.00  0.00     0.286 C 
ATOM      6  C   UNL d   1       9.699   5.482 -10.749  0.00  0.00     0.286 C 
ENDROOT
BRANCH   1   7
ATOM      7  C   UNL d   1       8.598   4.833 -12.779  0.00  0.00     0.274 C 
BRANCH   7   8
ATOM      8  C   UNL d   1       9.385   3.540 -13.108  0.00  0.00     0.137 C 
BRANCH   8   9
ATOM      9  N   UNL d   1       8.955   2.940 -14.386  0.00  0.00    -0.346 N 
BRANCH   9  10
ATOM     10  C   UNL d   1       9.332   3.549 -15.669  0.00  0.00     0.102 C 
BRANCH  10  11
ATOM     11  C   UNL d   1      10.824   3.369 -16.062  0.00  0.00     0.024 C 
ATOM     12  C   UNL d   1      11.882   4.087 -15.179  0.00  0.00     0.002 C 
ENDBRANCH  10  11
ENDBRANCH   9  10
BRANCH   9  13
ATOM     13  C   UNL d   1       7.795   2.140 -14.414  0.00  0.00     0.056 A 
ATOM     14  C   UNL d   1       7.788   0.936 -15.136  0.00  0.00     0.019 A 
ATOM     15  C   UNL d   1       6.664   0.108 -15.127  0.00  0.00     0.026 A 
ATOM     16  C   UNL d   1       5.498   0.426 -14.385  0.00  0.00     0.094 A 
ATOM     17  C   UNL d   1       5.510   1.624 -13.635  0.00  0.00     0.026 A 
ATOM     18  C   UNL d   1       6.628   2.483 -13.681  0.00  0.00     0.019 A 
BRANCH  16  19
ATOM     19  O   UNL d   1       4.365  -0.346 -14.391  0.00  0.00    -0.328 OA
ATOM     20  C   UNL d   1       4.362  -1.458 -15.285  0.00  0.00     0.181 C 
ENDBRANCH  16  19
ENDBRANCH   9  13
ENDBRANCH   8   9
ENDBRANCH   7   8
ENDBRANCH   1   7
BRANCH   4  21
ATOM     21  C   UNL d   1      10.657   8.853  -9.284  0.00  0.00     0.296 C 
BRANCH  21  22
ATOM     22  C   UNL d   1      10.950   8.546  -7.831  0.00  0.00     0.092 A 
ATOM     23  N   UNL d   1      11.043   9.577  -6.870  0.00  0.00    -0.248 NA
ATOM     24  C   UNL d   1      11.314   9.048  -5.627  0.00  0.00     0.081 A 
ATOM     25  C   UNL d   1      11.389   7.641  -5.814  0.00  0.00     0.019 A 
ATOM     26  C   UNL d   1      11.518   9.620  -4.346  0.00  0.00     0.019 A 
ATOM     27  C   UNL d   1      11.204   7.365  -7.167  0.00  0.00     0.018 A 
ATOM     28  C   UNL d   1      11.651   6.830  -4.699  0.00  0.00     0.002 A 
ATOM     29  C   UNL d   1      11.870   7.368  -3.432  0.00  0.00     0.000 A 
ATOM     30  C   UNL d   1      11.813   8.758  -3.268  0.00  0.00     0.002 A 
ENDBRANCH  21  22
ENDBRANCH   4  21
TORSDOF 9
