REMARK  1 active torsions:
REMARK  status: ('A' for Active; 'I' for Inactive)
REMARK    1  A    between atoms: C_13  and  C_14 
ROOT
ATOM      1  C   UNL d   1       5.247  -0.580 -14.079  0.00  0.00     0.285 C 
ATOM      2  N   UNL d   1       5.685   0.772 -14.403  0.00  0.00     0.140 N 
ATOM      3  C   UNL d   1       5.522   1.607 -13.223  0.00  0.00     0.255 C 
ATOM      4  C   UNL d   1       5.711   3.116 -13.463  0.00  0.00     0.061 C 
ATOM      5  C   UNL d   1       7.151   3.548 -13.508  0.00  0.00    -0.023 A 
ATOM      6  C   UNL d   1       7.583   4.485 -12.550  0.00  0.00     0.004 A 
ATOM      7  C   UNL d   1       8.919   4.907 -12.527  0.00  0.00     0.060 A 
ATOM      8 BR   UNL d   1       9.471   6.154 -11.197  0.00  0.00    -0.047 Br
ATOM      9  C   UNL d   1       9.825   4.392 -13.480  0.00  0.00     0.137 A 
ATOM     10  O   UNL d   1      11.125   4.785 -13.525  0.00  0.00    -0.190 OA
ATOM     11  C   UNL d   1       9.396   3.442 -14.419  0.00  0.00     0.024 A 
ATOM     12  C   UNL d   1       8.053   3.005 -14.455  0.00  0.00    -0.018 A 
ATOM     13  C   UNL d   1       7.587   1.992 -15.522  0.00  0.00     0.078 C 
ATOM     14  C   UNL d   1       7.053   0.681 -14.907  0.00  0.00     0.259 C 
ENDROOT
BRANCH  13  15
ATOM     15  C   UNL d   1       8.648   1.694 -16.591  0.00  0.00    -0.017 A 
ATOM     16  C   UNL d   1       9.591   0.652 -16.417  0.00  0.00    -0.004 A 
ATOM     17  C   UNL d   1      10.553   0.386 -17.409  0.00  0.00    -0.000 A 
ATOM     18  C   UNL d   1      10.591   1.161 -18.583  0.00  0.00    -0.000 A 
ATOM     19  C   UNL d   1       9.667   2.207 -18.763  0.00  0.00    -0.000 A 
ATOM     20  C   UNL d   1       8.703   2.473 -17.771  0.00  0.00    -0.004 A 
ENDBRANCH  13  15
TORSDOF 1
