REMARK  8 active torsions:
REMARK  status: ('A' for Active; 'I' for Inactive)
REMARK    1  A    between atoms: O_2  and  C_3 
REMARK    2  A    between atoms: N_11  and  C_12 
REMARK    3  A    between atoms: C_12  and  C_13 
REMARK    4  A    between atoms: C_13  and  C_14 
REMARK    5  A    between atoms: C_14  and  C_15 
REMARK    6  A    between atoms: C_15  and  N_16 
REMARK       I    between atoms: N_16  and  C_17 
REMARK    7  A    between atoms: C_17  and  C_19 
REMARK    8  A    between atoms: C_22  and  C_23 
ROOT
ATOM      1  C   UNL d   1       7.714   6.806 -12.881  0.00  0.00     0.037 C 
ENDROOT
BRANCH   1   2
ATOM      2  C   UNL d   1       6.358   6.162 -12.538  0.00  0.00     0.251 C 
BRANCH   2   3
ATOM      3  N   UNL d   1       6.435   4.697 -12.625  0.00  0.00     0.142 N 
ATOM      4  C   UNL d   1       6.462   4.226 -14.004  0.00  0.00     0.277 C 
ATOM      5  C   UNL d   1       6.416   2.708 -14.185  0.00  0.00     0.009 A 
ATOM      6  C   UNL d   1       5.844   1.952 -13.160  0.00  0.00    -0.020 A 
ATOM      7  C   UNL d   1       6.811   2.067 -15.370  0.00  0.00     0.027 A 
ATOM      8  C   UNL d   1       5.729   0.568 -13.262  0.00  0.00     0.022 A 
ATOM      9  C   UNL d   1       5.439   2.661 -11.919  0.00  0.00     0.061 C 
ATOM     10  C   UNL d   1       6.071  -0.084 -14.457  0.00  0.00     0.119 A 
ATOM     11  C   UNL d   1       6.635   0.670 -15.524  0.00  0.00     0.153 A 
ATOM     12  O   UNL d   1       7.041   0.130 -16.722  0.00  0.00    -0.188 OA
ATOM     13  C   UNL d   1       5.208   4.133 -12.109  0.00  0.00     0.255 C 
BRANCH  10  14
ATOM     14  O   UNL d   1       5.868  -1.441 -14.435  0.00  0.00    -0.326 OA
ATOM     15  C   UNL d   1       5.048  -1.938 -15.467  0.00  0.00     0.181 C 
ENDBRANCH  10  14
ENDBRANCH   2   3
ENDBRANCH   1   2
BRANCH   1  16
ATOM     16  C   UNL d   1       8.648   6.752 -11.674  0.00  0.00     0.029 C 
BRANCH  16  17
ATOM     17  C   UNL d   1       9.399   8.066 -11.357  0.00  0.00     0.129 C 
BRANCH  17  18
ATOM     18  N   UNL d   1       9.895   8.158  -9.988  0.00  0.00    -0.234 NA
ATOM     19  C   UNL d   1      10.281   7.181  -9.150  0.00  0.00     0.275 C 
ATOM     20  O   UNL d   1      10.281   5.987  -9.433  0.00  0.00    -0.266 OA
BRANCH  19  21
ATOM     21  C   UNL d   1      10.653   7.618  -7.767  0.00  0.00     0.058 A 
ATOM     22  C   UNL d   1      10.591   6.671  -6.727  0.00  0.00     0.005 A 
ATOM     23  C   UNL d   1      11.015   6.986  -5.429  0.00  0.00     0.005 A 
ATOM     24  C   UNL d   1      11.464   8.285  -5.142  0.00  0.00     0.059 A 
ATOM     25  C   UNL d   1      11.542   9.249  -6.184  0.00  0.00     0.005 A 
ATOM     26  C   UNL d   1      11.135   8.917  -7.487  0.00  0.00     0.005 A 
BRANCH  24  27
ATOM     27  C   UNL d   1      11.937   8.602  -3.762  0.00  0.00     0.297 C 
ATOM     28  N   UNL d   1      11.652   9.831  -3.355  0.00  0.00    -0.102 N 
ATOM     29  O   UNL d   1      12.488   7.767  -3.046  0.00  0.00    -0.264 OA
ENDBRANCH  24  27
ENDBRANCH  19  21
ENDBRANCH  17  18
ENDBRANCH  16  17
ENDBRANCH   1  16
TORSDOF 8
