REMARK  8 active torsions:
REMARK  status: ('A' for Active; 'I' for Inactive)
REMARK    1  A    between atoms: C_6  and  C_7 
REMARK    2  A    between atoms: C_7  and  O_8 
REMARK    3  A    between atoms: C_7  and  C_26 
REMARK    4  A    between atoms: O_8  and  C_9 
REMARK    5  A    between atoms: N_16  and  C_17 
REMARK    6  A    between atoms: C_17  and  C_18 
REMARK    7  A    between atoms: C_18  and  C_19 
REMARK    8  A    between atoms: C_19  and  C_20 
ROOT
ATOM      1  C   UNL d   1       9.037   3.642 -14.567  0.00  0.00     0.120 C 
ATOM      2  C   UNL d   1       9.462   3.317 -13.123  0.00  0.00     0.063 C 
ATOM      3  C   UNL d   1       8.725   4.151 -12.049  0.00  0.00     0.222 C 
ATOM      4  C   UNL d   1       7.181   4.091 -12.122  0.00  0.00     0.035 C 
ATOM      5  C   UNL d   1       6.824   5.206 -13.088  0.00  0.00     0.035 C 
ATOM      6  C   UNL d   1       8.184   5.829 -13.454  0.00  0.00     0.222 C 
ATOM      7  C   UNL d   1       8.848   5.179 -14.695  0.00  0.00     0.063 C 
ATOM      8  N   UNL d   1       9.074   5.536 -12.341  0.00  0.00     0.133 N 
ENDROOT
BRANCH   1   9
ATOM      9  O   UNL d   1       7.831   2.891 -14.735  0.00  0.00    -0.350 OA
BRANCH   9  10
ATOM     10  C   UNL d   1       7.643   2.151 -15.938  0.00  0.00     0.160 C 
BRANCH  10  11
ATOM     11  C   UNL d   1       6.731   0.951 -15.710  0.00  0.00     0.010 A 
ATOM     12  C   UNL d   1       6.689   0.331 -14.442  0.00  0.00    -0.002 A 
ATOM     13  C   UNL d   1       5.875  -0.797 -14.224  0.00  0.00     0.001 A 
ATOM     14  C   UNL d   1       5.093  -1.313 -15.279  0.00  0.00     0.011 A 
ATOM     15  C   UNL d   1       5.129  -0.700 -16.550  0.00  0.00     0.058 A 
ATOM     16 CL   UNL d   1       4.183  -1.333 -17.848  0.00  0.00    -0.082 Cl
ATOM     17  C   UNL d   1       5.952   0.424 -16.762  0.00  0.00     0.010 A 
ENDBRANCH  10  11
BRANCH  10  18
ATOM     18  C   UNL d   1       8.953   1.708 -16.541  0.00  0.00     0.009 A 
ATOM     19  C   UNL d   1       9.287   2.008 -17.862  0.00  0.00    -0.002 A 
ATOM     20  C   UNL d   1      10.543   1.633 -18.388  0.00  0.00    -0.000 A 
ATOM     21  C   UNL d   1      11.458   0.964 -17.574  0.00  0.00    -0.000 A 
ATOM     22  C   UNL d   1      11.114   0.664 -16.232  0.00  0.00    -0.000 A 
ATOM     23  C   UNL d   1       9.868   1.002 -15.714  0.00  0.00    -0.002 A 
ENDBRANCH  10  18
ENDBRANCH   9  10
ENDBRANCH   1   9
BRANCH   8  24
ATOM     24  C   UNL d   1       8.803   6.446 -11.233  0.00  0.00     0.251 C 
BRANCH  24  25
ATOM     25  C   UNL d   1       9.727   6.183 -10.034  0.00  0.00     0.040 C 
BRANCH  25  26
ATOM     26  C   UNL d   1      10.794   7.264  -9.821  0.00  0.00     0.028 C 
BRANCH  26  27
ATOM     27  C   UNL d   1      10.946   7.659  -8.367  0.00  0.00    -0.022 A 
ATOM     28  C   UNL d   1      10.817   6.707  -7.331  0.00  0.00    -0.004 A 
ATOM     29  C   UNL d   1      10.918   7.108  -5.985  0.00  0.00    -0.000 A 
ATOM     30  C   UNL d   1      11.169   8.458  -5.669  0.00  0.00    -0.000 A 
ATOM     31  C   UNL d   1      11.315   9.404  -6.702  0.00  0.00    -0.000 A 
ATOM     32  C   UNL d   1      11.200   9.005  -8.046  0.00  0.00    -0.004 A 
ENDBRANCH  26  27
ENDBRANCH  25  26
ENDBRANCH  24  25
ENDBRANCH   8  24
TORSDOF 8
