REMARK  7 active torsions:
REMARK  status: ('A' for Active; 'I' for Inactive)
REMARK       I    between atoms: C_2  and  N_3 
REMARK    1  A    between atoms: C_2  and  C_25 
REMARK    2  A    between atoms: N_3  and  C_4 
REMARK    3  A    between atoms: C_4  and  C_5 
REMARK    4  A    between atoms: C_5  and  C_6 
REMARK    5  A    between atoms: C_6  and  C_8 
REMARK    6  A    between atoms: C_8  and  N_9 
REMARK    7  A    between atoms: N_12  and  C_13 
ROOT
ATOM      1  C   UNL d   1      11.333   3.733 -15.715  0.00  0.00     0.188 C 
ATOM      2  O   UNL d   1      12.687   3.849 -16.084  0.00  0.00    -0.221 OA
ENDROOT
BRANCH   1   3
ATOM      3  C   UNL d   1      11.220   4.144 -14.225  0.00  0.00     0.061 C 
BRANCH   3   4
ATOM      4  C   UNL d   1       9.796   4.031 -13.617  0.00  0.00     0.132 C 
BRANCH   4   5
ATOM      5  N   UNL d   1       9.703   4.568 -12.280  0.00  0.00    -0.234 NA
ATOM      6  C   UNL d   1       9.271   5.791 -11.978  0.00  0.00     0.276 C 
ATOM      7  O   UNL d   1       8.857   6.600 -12.808  0.00  0.00    -0.266 OA
BRANCH   6   8
ATOM      8  C   UNL d   1       9.454   6.160 -10.550  0.00  0.00     0.077 A 
ATOM      9  C   UNL d   1      10.100   7.360 -10.214  0.00  0.00     0.008 A 
ATOM     10  C   UNL d   1      10.276   7.675  -8.854  0.00  0.00     0.018 A 
ATOM     11  C   UNL d   1       9.761   6.784  -7.876  0.00  0.00     0.081 A 
ATOM     12  C   UNL d   1      10.948   8.856  -8.484  0.00  0.00     0.002 A 
ATOM     13  N   UNL d   1       9.143   5.628  -8.207  0.00  0.00    -0.244 NA
ATOM     14  C   UNL d   1       9.934   7.122  -6.519  0.00  0.00     0.019 A 
ATOM     15  C   UNL d   1       8.980   5.332  -9.510  0.00  0.00     0.104 A 
ATOM     16  C   UNL d   1      10.600   8.303  -6.140  0.00  0.00     0.002 A 
ATOM     17  C   UNL d   1      11.109   9.170  -7.122  0.00  0.00     0.000 A 
ENDBRANCH   6   8
ENDBRANCH   4   5
ENDBRANCH   3   4
ENDBRANCH   1   3
BRANCH   1  18
ATOM     18  C   UNL d   1      10.919   2.287 -16.035  0.00  0.00     0.283 C 
BRANCH  18  19
ATOM     19  N   UNL d   1       9.553   1.966 -15.647  0.00  0.00     0.144 N 
ATOM     20  C   UNL d   1       8.565   2.488 -16.573  0.00  0.00     0.274 C 
ATOM     21  C   UNL d   1       7.109   2.220 -16.105  0.00  0.00     0.137 C 
ATOM     22  N   UNL d   1       6.932   0.814 -15.765  0.00  0.00    -0.344 N 
ATOM     23  C   UNL d   1       7.910   0.256 -14.846  0.00  0.00     0.137 C 
ATOM     24  C   UNL d   1       9.330   0.545 -15.387  0.00  0.00     0.274 C 
BRANCH  22  25
ATOM     25  C   UNL d   1       5.921   0.004 -16.339  0.00  0.00     0.056 A 
ATOM     26  C   UNL d   1       5.708  -0.084 -17.744  0.00  0.00     0.015 A 
ATOM     27  C   UNL d   1       4.660  -0.907 -18.252  0.00  0.00     0.001 A 
ATOM     28  C   UNL d   1       6.518   0.597 -18.688  0.00  0.00     0.001 A 
ATOM     29  C   UNL d   1       3.845  -1.631 -17.359  0.00  0.00     0.000 A 
ATOM     30  C   UNL d   1       4.433  -1.013 -19.648  0.00  0.00     0.000 A 
ATOM     31  C   UNL d   1       4.058  -1.546 -15.971  0.00  0.00     0.002 A 
ATOM     32  C   UNL d   1       5.097  -0.739 -15.460  0.00  0.00     0.017 A 
ATOM     33  C   UNL d   1       5.243  -0.300 -20.559  0.00  0.00     0.000 A 
ATOM     34  C   UNL d   1       6.281   0.505 -20.062  0.00  0.00     0.000 A 
ENDBRANCH  22  25
ENDBRANCH  18  19
ENDBRANCH   1  18
TORSDOF 7
