REMARK  7 active torsions:
REMARK  status: ('A' for Active; 'I' for Inactive)
REMARK    1  A    between atoms: N_9  and  C_10 
REMARK    2  A    between atoms: C_10  and  C_11 
REMARK    3  A    between atoms: C_11  and  C_12 
REMARK    4  A    between atoms: C_12  and  C_13 
REMARK    5  A    between atoms: C_13  and  C_14 
REMARK    6  A    between atoms: C_14  and  N_15 
REMARK    7  A    between atoms: N_18  and  C_19 
ROOT
ATOM      1  C   UNL d   1       9.492   5.022 -14.788  0.00  0.00     0.125 C 
ENDROOT
BRANCH   1   2
ATOM      2  N   UNL d   1       9.378   3.794 -15.533  0.00  0.00    -0.160 N 
ATOM      3  C   UNL d   1       8.376   2.961 -15.221  0.00  0.00     0.718 A 
ATOM      4  N   UNL d   1       7.419   2.944 -14.319  0.00  0.00    -0.043 NA
ATOM      5  N   UNL d   1       8.331   1.951 -16.125  0.00  0.00    -0.131 N 
ATOM      6  C   UNL d   1       6.763   1.769 -14.653  0.00  0.00     0.187 A 
ATOM      7  C   UNL d   1       7.279   1.156 -15.743  0.00  0.00     0.172 A 
ATOM      8  N   UNL d   1       5.702   1.121 -13.992  0.00  0.00    -0.263 N 
ATOM      9  C   UNL d   1       6.798  -0.093 -16.304  0.00  0.00     0.284 A 
ATOM     10  N   UNL d   1       5.804  -0.668 -15.553  0.00  0.00    -0.246 N 
ATOM     11  O   UNL d   1       7.285  -0.546 -17.348  0.00  0.00    -0.265 OA
ATOM     12  C   UNL d   1       5.313  -2.001 -15.945  0.00  0.00     0.139 C 
ATOM     13  C   UNL d   1       5.217  -0.089 -14.435  0.00  0.00     0.335 A 
ATOM     14  O   UNL d   1       4.277  -0.633 -13.845  0.00  0.00    -0.246 OA
ATOM     15  C   UNL d   1       5.131   1.795 -12.827  0.00  0.00     0.137 C 
ATOM     16  C   UNL d   1       9.325   2.150 -17.025  0.00  0.00     0.117 A 
ATOM     17  C   UNL d   1       9.989   3.315 -16.706  0.00  0.00     0.113 A 
ENDBRANCH   1   2
BRANCH   1  18
ATOM     18  C   UNL d   1       9.588   4.870 -13.247  0.00  0.00     0.025 C 
BRANCH  18  19
ATOM     19  C   UNL d   1       9.305   6.171 -12.475  0.00  0.00     0.004 C 
BRANCH  19  20
ATOM     20  C   UNL d   1       9.363   5.875 -10.963  0.00  0.00     0.035 C 
BRANCH  20  21
ATOM     21  C   UNL d   1       9.477   7.187 -10.161  0.00  0.00     0.250 C 
BRANCH  21  22
ATOM     22  N   UNL d   1       9.473   6.928  -8.724  0.00  0.00     0.141 N 
ATOM     23  C   UNL d   1      10.805   6.441  -8.285  0.00  0.00     0.274 C 
ATOM     24  C   UNL d   1      10.716   6.156  -6.810  0.00  0.00     0.137 C 
ATOM     25  N   UNL d   1      10.344   7.340  -6.059  0.00  0.00    -0.343 N 
ATOM     26  C   UNL d   1       9.047   7.867  -6.495  0.00  0.00     0.137 C 
ATOM     27  C   UNL d   1       9.175   8.156  -7.989  0.00  0.00     0.274 C 
BRANCH  25  28
ATOM     28  C   UNL d   1      11.096   7.778  -4.939  0.00  0.00     0.082 A 
ATOM     29  C   UNL d   1      11.253   9.158  -4.690  0.00  0.00     0.146 A 
ATOM     30  C   UNL d   1      11.865   9.619  -3.510  0.00  0.00     0.029 A 
ATOM     31  O   UNL d   1      10.779  10.074  -5.582  0.00  0.00    -0.189 OA
ATOM     32  C   UNL d   1      12.488   8.723  -2.638  0.00  0.00     0.002 A 
ATOM     33  C   UNL d   1      12.423   7.344  -2.896  0.00  0.00     0.002 A 
ATOM     34  C   UNL d   1      11.691   6.874  -4.017  0.00  0.00     0.019 A 
ENDBRANCH  25  28
ENDBRANCH  21  22
ENDBRANCH  20  21
ENDBRANCH  19  20
ENDBRANCH  18  19
ENDBRANCH   1  18
TORSDOF 7
