REMARK  2 active torsions:
REMARK  status: ('A' for Active; 'I' for Inactive)
REMARK    1  A    between atoms: O_2  and  C_3 
REMARK    2  A    between atoms: C_8  and  O_9 
ROOT
ATOM      1  C   UNL d   1       8.184  -0.608 -17.898  0.00  0.00     0.116 C 
ATOM      2  C   UNL d   1       9.599  -0.539 -17.851  0.00  0.00     0.026 C 
ATOM      3  C   UNL d   1      10.228   0.318 -16.931  0.00  0.00    -0.002 C 
ATOM      4  C   UNL d   1       9.453   1.031 -15.998  0.00  0.00    -0.018 C 
ATOM      5  C   UNL d   1       8.053   0.868 -15.929  0.00  0.00     0.021 C 
ATOM      6  C   UNL d   1       7.425   0.127 -16.962  0.00  0.00     0.116 C 
ATOM      7  C   UNL d   1       7.316   1.588 -14.861  0.00  0.00     0.005 C 
ATOM      8  C   UNL d   1       6.185   1.077 -14.155  0.00  0.00     0.034 C 
ATOM      9 BR   UNL d   1       5.612  -0.733 -14.334  0.00  0.00    -0.049 Br
ATOM     10  C   UNL d   1       5.490   1.850 -13.209  0.00  0.00     0.006 C 
ATOM     11  C   UNL d   1       5.910   3.138 -12.860  0.00  0.00    -0.004 C 
ATOM     12  C   UNL d   1       7.094   3.634 -13.422  0.00  0.00    -0.022 C 
ATOM     13  C   UNL d   1       7.787   2.840 -14.379  0.00  0.00     0.005 C 
ATOM     14  C   UNL d   1       9.150   3.307 -14.947  0.00  0.00     0.246 C 
ATOM     15  C   UNL d   1      10.103   2.090 -15.127  0.00  0.00     0.064 C 
ATOM     16  N   UNL d   1       9.813   4.375 -14.186  0.00  0.00     0.142 N 
ATOM     17  C   UNL d   1      10.933   4.948 -14.934  0.00  0.00     0.286 C 
ATOM     18  C   UNL d   1       8.827   5.419 -13.972  0.00  0.00     0.255 C 
ATOM     19  C   UNL d   1       7.772   4.922 -12.999  0.00  0.00     0.061 C 
ENDROOT
BRANCH   1  20
ATOM     20  O   UNL d   1       7.485  -1.355 -18.821  0.00  0.00    -0.326 OA
ATOM     21  C   UNL d   1       8.193  -2.363 -19.516  0.00  0.00     0.181 C 
ENDBRANCH   1  20
BRANCH   6  22
ATOM     22  O   UNL d   1       6.060   0.124 -17.067  0.00  0.00    -0.326 OA
ATOM     23  C   UNL d   1       5.563   0.914 -18.131  0.00  0.00     0.181 C 
ENDBRANCH   6  22
TORSDOF 2
