REMARK  7 active torsions:
REMARK  status: ('A' for Active; 'I' for Inactive)
REMARK    1  A    between atoms: C_10  and  O_11 
REMARK    2  A    between atoms: O_11  and  C_12 
REMARK    3  A    between atoms: C_12  and  C_13 
REMARK    4  A    between atoms: C_13  and  C_14 
REMARK    5  A    between atoms: C_14  and  C_15 
REMARK    6  A    between atoms: C_15  and  N_16 
REMARK    7  A    between atoms: C_19  and  C_20 
ROOT
ATOM      1  C   UNL d   1       8.500   5.925 -12.129  0.00  0.00     0.038 C 
ENDROOT
BRANCH   1   2
ATOM      2  C   UNL d   1       8.621   4.898 -13.260  0.00  0.00     0.035 C 
BRANCH   2   3
ATOM      3  C   UNL d   1       9.763   3.881 -13.024  0.00  0.00     0.149 C 
BRANCH   3   4
ATOM      4  O   UNL d   1      10.700   3.935 -14.090  0.00  0.00    -0.330 OA
BRANCH   4   5
ATOM      5  C   UNL d   1      10.749   2.919 -15.019  0.00  0.00     0.106 A 
ATOM      6  C   UNL d   1      11.695   3.072 -16.057  0.00  0.00     0.103 A 
ATOM      7  C   UNL d   1      11.828   2.080 -17.050  0.00  0.00     0.115 A 
ATOM      8 CL   UNL d   1      12.689   4.491 -16.111  0.00  0.00    -0.078 Cl
ATOM      9  O   UNL d   1      12.752   2.254 -18.058  0.00  0.00    -0.272 OA
ATOM     10  C   UNL d   1      11.012   0.929 -16.995  0.00  0.00     0.020 A 
ATOM     11  C   UNL d   1      12.953   1.342 -19.055  0.00  0.00     0.300 A 
ATOM     12  C   UNL d   1      12.099   0.129 -19.009  0.00  0.00     0.065 A 
ATOM     13  O   UNL d   1      13.796   1.521 -19.931  0.00  0.00    -0.259 OA
ATOM     14  C   UNL d   1      11.183  -0.076 -18.046  0.00  0.00    -0.015 A 
ATOM     15  C   UNL d   1      10.310  -1.318 -18.008  0.00  0.00     0.031 C 
ATOM     16  C   UNL d   1      10.071   0.775 -15.957  0.00  0.00     0.004 A 
ATOM     17  C   UNL d   1       9.935   1.766 -14.977  0.00  0.00     0.025 A 
ENDBRANCH   4   5
ENDBRANCH   3   4
ENDBRANCH   2   3
ENDBRANCH   1   2
BRANCH   1  18
ATOM     18  C   UNL d   1       8.474   5.292 -10.710  0.00  0.00     0.250 C 
BRANCH  18  19
ATOM     19  N   UNL d   1       8.947   6.217  -9.687  0.00  0.00     0.137 N 
ATOM     20  C   UNL d   1       8.596   5.681  -8.373  0.00  0.00     0.251 C 
ATOM     21  C   UNL d   1       8.951   6.686  -7.269  0.00  0.00     0.041 C 
ATOM     22  C   UNL d   1      10.448   7.038  -7.304  0.00  0.00     0.047 C 
ATOM     23  C   UNL d   1      10.842   7.469  -8.732  0.00  0.00     0.041 C 
ATOM     24  C   UNL d   1      10.386   6.447  -9.767  0.00  0.00     0.251 C 
BRANCH  22  25
ATOM     25  C   UNL d   1      10.801   8.098  -6.301  0.00  0.00     0.087 A 
ATOM     26  C   UNL d   1      11.399   8.015  -5.022  0.00  0.00     0.041 A 
ATOM     27  C   UNL d   1      11.478   9.293  -4.475  0.00  0.00     0.129 A 
ATOM     28  C   UNL d   1      11.858   6.912  -4.273  0.00  0.00     0.006 A 
ATOM     29  O   UNL d   1      10.930  10.140  -5.423  0.00  0.00    -0.211 OA
ATOM     30  C   UNL d   1      12.006   9.555  -3.213  0.00  0.00     0.057 A 
ATOM     31  N   UNL d   1      10.506   9.376  -6.536  0.00  0.00    -0.131 NA
ATOM     32  C   UNL d   1      12.482   8.459  -2.457  0.00  0.00     0.142 A 
ATOM     33  F   UNL d   1      13.032   8.664  -1.245  0.00  0.00    -0.204 F 
ATOM     34  C   UNL d   1      12.396   7.144  -2.986  0.00  0.00     0.030 A 
ENDBRANCH  22  25
ENDBRANCH  18  19
ENDBRANCH   1  18
TORSDOF 7
