REMARK  9 active torsions:
REMARK  status: ('A' for Active; 'I' for Inactive)
REMARK       I    between atoms: C_2  and  N_3 
REMARK    1  A    between atoms: C_2  and  C_27 
REMARK    2  A    between atoms: N_3  and  C_4 
REMARK    3  A    between atoms: C_4  and  C_5 
REMARK    4  A    between atoms: C_5  and  C_6 
REMARK    5  A    between atoms: C_6  and  C_7 
REMARK    6  A    between atoms: C_7  and  N_8 
REMARK    7  A    between atoms: N_11  and  C_12 
REMARK    8  A    between atoms: C_12  and  C_13 
REMARK    9  A    between atoms: C_12  and  C_19 
ROOT
ATOM      1  N   UNL d   1       9.611   5.278 -11.823  0.00  0.00     0.140 N 
ATOM      2  C   UNL d   1       8.451   5.791 -12.548  0.00  0.00     0.268 C 
ATOM      3  C   UNL d   1       8.292   5.067 -13.894  0.00  0.00     0.112 C 
ATOM      4  N   UNL d   1       8.146   3.611 -13.720  0.00  0.00    -0.248 NA
ATOM      5  C   UNL d   1       9.276   3.109 -12.993  0.00  0.00     0.112 C 
ATOM      6  C   UNL d   1       9.414   3.848 -11.674  0.00  0.00     0.268 C 
ENDROOT
BRANCH   1   7
ATOM      7  C   UNL d   1       9.761   5.913 -10.517  0.00  0.00     0.250 C 
BRANCH   7   8
ATOM      8  C   UNL d   1      10.126   7.404 -10.575  0.00  0.00     0.037 C 
BRANCH   8   9
ATOM      9  C   UNL d   1      10.535   7.992  -9.234  0.00  0.00     0.029 C 
BRANCH   9  10
ATOM     10  C   UNL d   1       9.428   7.899  -8.175  0.00  0.00     0.129 C 
BRANCH  10  11
ATOM     11  N   UNL d   1       9.873   8.319  -6.856  0.00  0.00    -0.238 NA
ATOM     12  C   UNL d   1      10.937   7.839  -6.200  0.00  0.00     0.251 C 
ATOM     13  O   UNL d   1      11.724   7.020  -6.672  0.00  0.00    -0.271 OA
BRANCH  12  14
ATOM     14  C   UNL d   1      11.141   8.337  -4.775  0.00  0.00     0.081 C 
ATOM     15  C   UNL d   1      11.336   7.140  -3.809  0.00  0.00     0.009 C 
ATOM     16  C   UNL d   1      11.555   7.616  -2.374  0.00  0.00     0.001 C 
ATOM     17  C   UNL d   1      12.722   8.589  -2.277  0.00  0.00     0.000 C 
ATOM     18  C   UNL d   1      12.545   9.745  -3.260  0.00  0.00     0.001 C 
ATOM     19  C   UNL d   1      12.335   9.290  -4.694  0.00  0.00     0.009 C 
ENDBRANCH  12  14
ENDBRANCH  10  11
ENDBRANCH   9  10
ENDBRANCH   8   9
ENDBRANCH   7   8
ENDBRANCH   1   7
BRANCH   4  20
ATOM     20  C   UNL d   1       7.998   2.866 -14.967  0.00  0.00     0.036 C 
BRANCH  20  21
ATOM     21  C   UNL d   1       7.246   1.546 -14.952  0.00  0.00     0.010 C 
ATOM     22  C   UNL d   1       7.248   0.724 -16.105  0.00  0.00     0.001 C 
ATOM     23  C   UNL d   1       6.575  -0.499 -16.098  0.00  0.00     0.000 C 
ATOM     24  C   UNL d   1       5.852  -0.894 -14.963  0.00  0.00     0.000 C 
ATOM     25  C   UNL d   1       5.726  -0.020 -13.870  0.00  0.00     0.000 C 
ATOM     26  C   UNL d   1       6.391   1.215 -13.884  0.00  0.00     0.001 C 
ENDBRANCH  20  21
BRANCH  20  27
ATOM     27  C   UNL d   1       9.214   2.938 -15.911  0.00  0.00     0.010 A 
ATOM     28  C   UNL d   1      10.004   1.782 -16.076  0.00  0.00     0.001 A 
ATOM     29  C   UNL d   1      11.136   1.790 -16.896  0.00  0.00     0.000 A 
ATOM     30  C   UNL d   1      11.531   2.982 -17.525  0.00  0.00     0.000 A 
ATOM     31  C   UNL d   1      10.769   4.154 -17.364  0.00  0.00     0.000 A 
ATOM     32  C   UNL d   1       9.601   4.126 -16.583  0.00  0.00     0.001 A 
ENDBRANCH  20  27
ENDBRANCH   4  20
TORSDOF 9
