REMARK  7 active torsions:
REMARK  status: ('A' for Active; 'I' for Inactive)
REMARK    1  A    between atoms: C_9  and  O_10 
REMARK    2  A    between atoms: O_10  and  C_11 
REMARK    3  A    between atoms: C_11  and  C_12 
REMARK    4  A    between atoms: C_12  and  C_13 
REMARK    5  A    between atoms: C_13  and  C_14 
REMARK    6  A    between atoms: C_14  and  N_15 
REMARK    7  A    between atoms: C_18  and  C_19 
ROOT
ATOM      1  C   UNL d   1       9.047   5.977 -12.049  0.00  0.00     0.038 C 
ENDROOT
BRANCH   1   2
ATOM      2  C   UNL d   1       8.487   5.147 -13.207  0.00  0.00     0.035 C 
BRANCH   2   3
ATOM      3  C   UNL d   1       9.210   3.788 -13.371  0.00  0.00     0.149 C 
BRANCH   3   4
ATOM      4  O   UNL d   1       8.853   3.109 -14.571  0.00  0.00    -0.331 OA
BRANCH   4   5
ATOM      5  C   UNL d   1       7.683   2.380 -14.595  0.00  0.00     0.094 A 
ATOM      6  C   UNL d   1       6.645   2.502 -13.643  0.00  0.00     0.024 A 
ATOM      7  C   UNL d   1       5.569   1.628 -13.629  0.00  0.00    -0.002 A 
ATOM      8  C   UNL d   1       5.422   0.669 -14.639  0.00  0.00    -0.015 A 
ATOM      9  C   UNL d   1       4.178  -0.190 -14.664  0.00  0.00     0.053 C 
ATOM     10  C   UNL d   1       6.400   0.581 -15.658  0.00  0.00     0.056 A 
ATOM     11  C   UNL d   1       4.439  -1.496 -15.408  0.00  0.00     0.134 C 
ATOM     12  N   UNL d   1       5.240  -1.304 -16.623  0.00  0.00    -0.234 NA
ATOM     13  C   UNL d   1       6.209  -0.385 -16.791  0.00  0.00     0.275 C 
ATOM     14  O   UNL d   1       6.898  -0.317 -17.806  0.00  0.00    -0.266 OA
ATOM     15  C   UNL d   1       7.526   1.442 -15.641  0.00  0.00     0.029 A 
ENDBRANCH   4   5
ENDBRANCH   3   4
ENDBRANCH   2   3
ENDBRANCH   1   2
BRANCH   1  16
ATOM     16  C   UNL d   1       8.825   5.325 -10.666  0.00  0.00     0.250 C 
BRANCH  16  17
ATOM     17  N   UNL d   1       9.195   6.239  -9.585  0.00  0.00     0.137 N 
ATOM     18  C   UNL d   1       8.610   5.767  -8.334  0.00  0.00     0.251 C 
ATOM     19  C   UNL d   1       8.916   6.760  -7.197  0.00  0.00     0.040 C 
ATOM     20  C   UNL d   1      10.438   6.944  -7.020  0.00  0.00     0.027 C 
ATOM     21  C   UNL d   1      11.064   7.304  -8.374  0.00  0.00     0.040 C 
ATOM     22  C   UNL d   1      10.646   6.311  -9.453  0.00  0.00     0.251 C 
BRANCH  20  23
ATOM     23  C   UNL d   1      10.788   8.003  -5.973  0.00  0.00    -0.011 A 
ATOM     24  C   UNL d   1      11.457   7.740  -4.754  0.00  0.00     0.064 A 
ATOM     25  C   UNL d   1      11.733   8.707  -3.790  0.00  0.00     0.068 A 
ATOM     26 CL   UNL d   1      11.863   6.195  -4.315  0.00  0.00    -0.082 Cl
ATOM     27  C   UNL d   1      11.298  10.001  -4.024  0.00  0.00     0.012 A 
ATOM     28 CL   UNL d   1      12.473   8.351  -2.273  0.00  0.00    -0.082 Cl
ATOM     29  C   UNL d   1      10.667  10.300  -5.253  0.00  0.00     0.001 A 
ATOM     30  C   UNL d   1      10.406   9.328  -6.220  0.00  0.00    -0.003 A 
ENDBRANCH  20  23
ENDBRANCH  16  17
ENDBRANCH   1  16
TORSDOF 7
