REMARK  7 active torsions:
REMARK  status: ('A' for Active; 'I' for Inactive)
REMARK    1  A    between atoms: C_6  and  C_7 
REMARK    2  A    between atoms: C_10  and  S_11 
REMARK    3  A    between atoms: S_11  and  C_12 
REMARK    4  A    between atoms: C_12  and  C_13 
REMARK    5  A    between atoms: C_13  and  C_14 
REMARK    6  A    between atoms: C_14  and  N_15 
REMARK    7  A    between atoms: N_28  and  C_29 
ROOT
ATOM      1  C   UNL d   1      11.456   2.459 -18.920  0.00  0.00     0.047 C 
ENDROOT
BRANCH   1   2
ATOM      2  C   UNL d   1      12.336   3.555 -19.545  0.00  0.00     0.067 C 
BRANCH   2   3
ATOM      3  S   UNL d   1      12.645   5.021 -18.486  0.00  0.00    -0.075 SA
BRANCH   3   4
ATOM      4  C   UNL d   1      11.947   4.488 -16.970  0.00  0.00     0.193 A 
ATOM      5  N   UNL d   1      12.683   3.997 -15.954  0.00  0.00    -0.122 NA
ATOM      6  N   UNL d   1      11.766   3.548 -15.034  0.00  0.00    -0.128 NA
ATOM      7  C   UNL d   1      10.559   3.890 -15.506  0.00  0.00     0.167 A 
ATOM      8  N   UNL d   1      10.626   4.508 -16.715  0.00  0.00    -0.289 N 
ATOM      9  C   UNL d   1       9.573   5.014 -17.565  0.00  0.00     0.134 C 
BRANCH   7  10
ATOM     10  C   UNL d   1       9.326   3.627 -14.751  0.00  0.00     0.037 A 
ATOM     11  C   UNL d   1       9.080   4.222 -13.488  0.00  0.00     0.021 A 
ATOM     12  C   UNL d   1      10.044   5.027 -12.845  0.00  0.00     0.003 A 
ATOM     13  C   UNL d   1       7.842   4.007 -12.812  0.00  0.00     0.081 A 
ATOM     14  C   UNL d   1       9.778   5.561 -11.569  0.00  0.00     0.015 A 
ATOM     15  C   UNL d   1       8.566   5.227 -10.960  0.00  0.00     0.059 A 
ATOM     16  C   UNL d   1       8.308   5.627  -9.522  0.00  0.00     0.052 C 
ATOM     17  N   UNL d   1       7.598   4.527 -11.575  0.00  0.00    -0.250 NA
ATOM     18  C   UNL d   1       6.864   3.218 -13.421  0.00  0.00     0.019 A 
ATOM     19  C   UNL d   1       7.117   2.581 -14.653  0.00  0.00     0.002 A 
ATOM     20  C   UNL d   1       8.352   2.779 -15.314  0.00  0.00     0.003 A 
ENDBRANCH   7  10
ENDBRANCH   3   4
ENDBRANCH   2   3
ENDBRANCH   1   2
BRANCH   1  21
ATOM     21  C   UNL d   1      11.119   1.297 -19.876  0.00  0.00     0.251 C 
BRANCH  21  22
ATOM     22  N   UNL d   1      10.118   0.498 -19.175  0.00  0.00     0.138 N 
ATOM     23  C   UNL d   1       8.757   0.912 -19.517  0.00  0.00     0.255 C 
ATOM     24  C   UNL d   1       7.699   0.442 -18.499  0.00  0.00     0.061 C 
ATOM     25  C   UNL d   1       7.276  -1.003 -18.675  0.00  0.00    -0.024 A 
ATOM     26  C   UNL d   1       8.207  -2.072 -18.630  0.00  0.00    -0.024 A 
ATOM     27  C   UNL d   1       5.901  -1.279 -18.826  0.00  0.00    -0.000 A 
ATOM     28  C   UNL d   1       9.661  -1.769 -18.369  0.00  0.00     0.061 C 
ATOM     29  C   UNL d   1       7.776  -3.426 -18.751  0.00  0.00    -0.007 A 
ATOM     30  C   UNL d   1      10.345  -0.907 -19.428  0.00  0.00     0.255 C 
ATOM     31  C   UNL d   1       6.399  -3.656 -18.894  0.00  0.00     0.004 A 
ATOM     32  C   UNL d   1       5.622  -4.943 -19.009  0.00  0.00     0.131 A 
ATOM     33  C   UNL d   1       5.510  -2.616 -18.926  0.00  0.00     0.053 A 
ATOM     34  N   UNL d   1       4.218  -4.480 -19.142  0.00  0.00    -0.314 N 
ATOM     35  C   UNL d   1       4.126  -3.129 -19.031  0.00  0.00     0.257 A 
ATOM     36  O   UNL d   1       3.132  -2.418 -18.979  0.00  0.00    -0.267 OA
BRANCH  34  37
ATOM     37  C   UNL d   1       3.108  -5.459 -19.216  0.00  0.00     0.085 C 
ATOM     38  C   UNL d   1       3.322  -6.475 -20.350  0.00  0.00     0.024 C 
ATOM     39  C   UNL d   1       1.730  -4.794 -19.364  0.00  0.00     0.024 C 
ENDBRANCH  34  37
ENDBRANCH  21  22
ENDBRANCH   1  21
TORSDOF 7
