REMARK  8 active torsions:
REMARK  status: ('A' for Active; 'I' for Inactive)
REMARK    1  A    between atoms: O_2  and  C_3 
REMARK    2  A    between atoms: C_8  and  N_9 
REMARK    3  A    between atoms: N_12  and  C_13 
REMARK    4  A    between atoms: C_13  and  C_14 
REMARK    5  A    between atoms: C_14  and  C_15 
REMARK    6  A    between atoms: C_15  and  C_16 
REMARK    7  A    between atoms: C_16  and  O_17 
REMARK    8  A    between atoms: O_17  and  C_18 
ROOT
ATOM      1  N   UNL d   1       8.377   2.011 -16.831  0.00  0.00    -0.343 N 
ATOM      2  C   UNL d   1       9.247   3.162 -17.006  0.00  0.00     0.137 C 
ATOM      3  C   UNL d   1       9.986   3.486 -15.682  0.00  0.00     0.274 C 
ATOM      4  N   UNL d   1       9.015   3.691 -14.603  0.00  0.00     0.141 N 
ATOM      5  C   UNL d   1       8.277   2.433 -14.419  0.00  0.00     0.274 C 
ATOM      6  C   UNL d   1       7.491   2.043 -15.687  0.00  0.00     0.137 C 
ENDROOT
BRANCH   4   7
ATOM      7  C   UNL d   1       9.722   4.065 -13.375  0.00  0.00     0.251 C 
BRANCH   7   8
ATOM      8  C   UNL d   1       8.767   4.635 -12.305  0.00  0.00     0.038 C 
BRANCH   8   9
ATOM      9  C   UNL d   1       9.455   4.839 -10.951  0.00  0.00     0.035 C 
BRANCH   9  10
ATOM     10  C   UNL d   1       8.465   5.082  -9.792  0.00  0.00     0.149 C 
BRANCH  10  11
ATOM     11  O   UNL d   1       9.153   5.191  -8.540  0.00  0.00    -0.331 OA
BRANCH  11  12
ATOM     12  C   UNL d   1       9.697   6.409  -8.193  0.00  0.00     0.097 A 
ATOM     13  C   UNL d   1      10.329   6.510  -6.952  0.00  0.00     0.043 A 
ATOM     14  C   UNL d   1      10.814   7.755  -6.490  0.00  0.00     0.086 A 
ATOM     15  N   UNL d   1      10.655   8.857  -7.338  0.00  0.00    -0.228 N 
ATOM     16  C   UNL d   1      11.454   8.223  -5.361  0.00  0.00     0.042 A 
ATOM     17  C   UNL d   1      10.077   8.771  -8.570  0.00  0.00     0.102 A 
ATOM     18  N   UNL d   1      11.164   9.994  -6.782  0.00  0.00    -0.164 NA
ATOM     19  C   UNL d   1       9.619   7.560  -9.010  0.00  0.00     0.045 A 
ATOM     20  C   UNL d   1      11.638   9.610  -5.633  0.00  0.00     0.122 A 
ENDBRANCH  11  12
ENDBRANCH  10  11
ENDBRANCH   9  10
ENDBRANCH   8   9
ENDBRANCH   7   8
ENDBRANCH   4   7
BRANCH   1  21
ATOM     21  C   UNL d   1       8.494   0.816 -17.617  0.00  0.00     0.079 A 
ATOM     22  C   UNL d   1       9.746   0.291 -17.971  0.00  0.00     0.110 A 
ATOM     23  C   UNL d   1       9.791  -0.880 -18.792  0.00  0.00     0.026 A 
ATOM     24  C   UNL d   1       8.601  -1.503 -19.206  0.00  0.00     0.002 A 
ATOM     25  C   UNL d   1       7.360  -0.982 -18.822  0.00  0.00     0.002 A 
ATOM     26  C   UNL d   1       7.308   0.186 -18.018  0.00  0.00     0.019 A 
BRANCH  22  27
ATOM     27  O   UNL d   1      10.898   0.881 -17.486  0.00  0.00    -0.327 OA
ATOM     28  C   UNL d   1      12.152   0.511 -18.029  0.00  0.00     0.181 C 
ENDBRANCH  22  27
ENDBRANCH   1  21
TORSDOF 8
