REMARK  4 active torsions:
REMARK  status: ('A' for Active; 'I' for Inactive)
REMARK    1  A    between atoms: N_2  and  C_3 
REMARK    2  A    between atoms: C_3  and  C_4 
REMARK    3  A    between atoms: N_13  and  S_14 
REMARK    4  A    between atoms: S_14  and  C_17 
ROOT
ATOM      1  C   UNL d   1      10.422   7.103  -6.700  0.00  0.00     0.050 A 
ATOM      2  C   UNL d   1      10.477   8.705  -6.896  0.00  0.00     0.032 A 
ATOM      3  C   UNL d   1      10.143   8.454  -8.332  0.00  0.00    -0.026 A 
ATOM      4  C   UNL d   1       9.899   9.096  -9.543  0.00  0.00    -0.003 A 
ATOM      5  C   UNL d   1       9.566   8.231 -10.619  0.00  0.00     0.018 A 
ATOM      6  C   UNL d   1       9.469   6.821 -10.416  0.00  0.00     0.075 A 
ATOM      7  C   UNL d   1       9.731   6.230  -9.199  0.00  0.00     0.014 A 
ATOM      8  C   UNL d   1       9.607   4.830  -9.253  0.00  0.00     0.021 C 
ATOM      9  C   UNL d   1       9.353   4.592 -10.566  0.00  0.00     0.092 C 
ATOM     10  N   UNL d   1       9.134   5.769 -11.239  0.00  0.00    -0.231 N 
ATOM     11  C   UNL d   1      10.077   7.041  -8.156  0.00  0.00    -0.023 A 
ENDROOT
BRANCH  10  12
ATOM     12  S   UNL d   1       8.666   5.884 -12.835  0.00  0.00     0.271 S 
ATOM     13  O   UNL d   1       7.790   7.051 -12.835  0.00  0.00    -0.200 OA
ATOM     14  O   UNL d   1       9.962   5.801 -13.539  0.00  0.00    -0.200 OA
BRANCH  12  15
ATOM     15  C   UNL d   1       7.680   4.426 -13.202  0.00  0.00     0.104 A 
ATOM     16  C   UNL d   1       8.150   3.237 -13.841  0.00  0.00     0.012 A 
ATOM     17  C   UNL d   1       7.209   2.177 -14.061  0.00  0.00     0.001 A 
ATOM     18  C   UNL d   1       9.490   3.015 -14.253  0.00  0.00     0.001 A 
ATOM     19  C   UNL d   1       5.866   2.307 -13.639  0.00  0.00     0.000 A 
ATOM     20  C   UNL d   1       7.599   0.957 -14.675  0.00  0.00     0.000 A 
ATOM     21  C   UNL d   1       5.429   3.491 -13.029  0.00  0.00     0.001 A 
ATOM     22  C   UNL d   1       6.330   4.548 -12.816  0.00  0.00     0.013 A 
ATOM     23  C   UNL d   1       8.932   0.768 -15.087  0.00  0.00     0.000 A 
ATOM     24  C   UNL d   1       9.863   1.807 -14.871  0.00  0.00     0.000 A 
ENDBRANCH  12  15
ENDBRANCH  10  12
BRANCH   1  25
ATOM     25  C   UNL d   1      11.707   6.385  -6.354  0.00  0.00     0.124 C 
BRANCH  25  26
ATOM     26  N   UNL d   1      11.853   6.394  -4.888  0.00  0.00    -0.293 NA
ATOM     27  C   UNL d   1      11.839   7.724  -4.274  0.00  0.00     0.146 C 
ENDBRANCH  25  26
ENDBRANCH   1  25
TORSDOF 4
