REMARK  3 active torsions:
REMARK  status: ('A' for Active; 'I' for Inactive)
REMARK    1  A    between atoms: N_5  and  C_6 
REMARK    2  A    between atoms: N_15  and  C_16 
REMARK    3  A    between atoms: C_16  and  C_17 
ROOT
ATOM      1  O   UNL d   1      10.804   1.167 -20.632  0.00  0.00    -0.269 OA
ATOM      2  C   UNL d   1       9.680   0.659 -20.623  0.00  0.00     0.271 A 
ATOM      3  N   UNL d   1       9.094   0.133 -21.664  0.00  0.00    -0.211 NA
ATOM      4  C   UNL d   1       7.776  -0.429 -21.342  0.00  0.00     0.234 A 
ATOM      5  N   UNL d   1       7.610  -0.243 -19.898  0.00  0.00    -0.323 N 
ATOM      6  C   UNL d   1       8.792   0.508 -19.391  0.00  0.00     0.142 A 
ATOM      7  C   UNL d   1       8.418   1.900 -18.804  0.00  0.00     0.065 C 
ATOM      8  C   UNL d   1       7.801   1.793 -17.383  0.00  0.00     0.253 C 
ATOM      9  N   UNL d   1       8.711   1.062 -16.479  0.00  0.00     0.141 N 
ATOM     10  C   UNL d   1       8.999  -0.307 -16.973  0.00  0.00     0.253 C 
ATOM     11  C   UNL d   1       9.653  -0.251 -18.370  0.00  0.00     0.065 C 
ENDROOT
BRANCH   5  12
ATOM     12  C   UNL d   1       6.824  -1.189 -19.100  0.00  0.00     0.058 C 
ATOM     13  C   UNL d   1       5.864  -0.769 -18.162  0.00  0.00     0.017 C 
ATOM     14  C   UNL d   1       5.288  -1.688 -17.284  0.00  0.00     0.002 C 
ATOM     15  C   UNL d   1       5.461  -3.089 -17.444  0.00  0.00     0.000 C 
ATOM     16  C   UNL d   1       6.350  -3.516 -18.470  0.00  0.00     0.002 C 
ATOM     17  C   UNL d   1       7.044  -2.588 -19.285  0.00  0.00     0.017 C 
ENDBRANCH   5  12
BRANCH   9  18
ATOM     18  C   UNL d   1       8.001   0.890 -15.209  0.00  0.00     0.277 C 
BRANCH  18  19
ATOM     19  C   UNL d   1       7.918   2.184 -14.430  0.00  0.00     0.013 A 
ATOM     20  C   UNL d   1       9.117   2.831 -14.037  0.00  0.00     0.024 A 
ATOM     21  C   UNL d   1       9.005   4.035 -13.326  0.00  0.00     0.119 A 
ATOM     22  C   UNL d   1       7.775   4.581 -13.018  0.00  0.00     0.119 A 
ATOM     23  O   UNL d   1       9.989   4.833 -12.840  0.00  0.00    -0.300 OA
ATOM     24  C   UNL d   1       6.573   3.964 -13.398  0.00  0.00     0.026 A 
ATOM     25  O   UNL d   1       7.948   5.739 -12.336  0.00  0.00    -0.300 OA
ATOM     26  C   UNL d   1       6.660   2.751 -14.115  0.00  0.00    -0.000 A 
ATOM     27  C   UNL d   1       9.335   5.905 -12.207  0.00  0.00     0.304 A 
ENDBRANCH  18  19
ENDBRANCH   9  18
TORSDOF 3
