REMARK  4 active torsions:
REMARK  status: ('A' for Active; 'I' for Inactive)
REMARK       I    between atoms: N_10  and  C_11 
REMARK    1  A    between atoms: C_11  and  C_13 
REMARK    2  A    between atoms: C_13  and  C_14 
REMARK    3  A    between atoms: N_17  and  C_18 
REMARK    4  A    between atoms: C_18  and  C_19 
ROOT
ATOM      1  C   UNL d   1      10.179   3.192 -15.318  0.00  0.00     0.013 C 
ATOM      2  C   UNL d   1       9.609   4.598 -15.540  0.00  0.00     0.036 C 
ATOM      3  C   UNL d   1       8.631   4.962 -14.416  0.00  0.00     0.251 C 
ATOM      4  N   UNL d   1       9.309   4.932 -13.123  0.00  0.00     0.141 N 
ATOM      5  C   UNL d   1       9.770   3.571 -12.842  0.00  0.00     0.251 C 
ATOM      6  C   UNL d   1      10.778   3.112 -13.902  0.00  0.00     0.036 C 
ENDROOT
BRANCH   1   7
ATOM      7  C   UNL d   1      11.245   2.844 -16.380  0.00  0.00     0.088 C 
BRANCH   7   8
ATOM      8  C   UNL d   1      11.334   1.363 -16.764  0.00  0.00     0.237 C 
ATOM      9  N   UNL d   1      11.941   1.000 -17.925  0.00  0.00    -0.301 N 
ATOM     10  C   UNL d   1      11.746  -0.343 -18.513  0.00  0.00     0.093 A 
ATOM     11  C   UNL d   1      12.917   1.720 -18.678  0.00  0.00     0.058 A 
ATOM     12  C   UNL d   1      10.264  -0.638 -18.836  0.00  0.00     0.025 C 
ATOM     13  C   UNL d   1      12.636  -0.385 -19.785  0.00  0.00     0.051 A 
ATOM     14  C   UNL d   1      13.345   0.939 -19.750  0.00  0.00    -0.004 A 
ATOM     15  C   UNL d   1      14.334   1.379 -20.652  0.00  0.00    -0.003 A 
ATOM     16  C   UNL d   1      14.909   2.653 -20.445  0.00  0.00    -0.000 A 
ATOM     17  C   UNL d   1      14.492   3.450 -19.356  0.00  0.00     0.002 A 
ATOM     18  C   UNL d   1      13.502   2.995 -18.466  0.00  0.00     0.017 A 
ATOM     19  O   UNL d   1      10.848   0.525 -16.000  0.00  0.00    -0.272 OA
ENDBRANCH   7   8
ENDBRANCH   1   7
BRANCH   4  20
ATOM     20  C   UNL d   1       8.376   5.370 -12.080  0.00  0.00     0.279 C 
BRANCH  20  21
ATOM     21  C   UNL d   1       9.068   5.952 -10.863  0.00  0.00     0.038 A 
ATOM     22  C   UNL d   1       9.572   7.270 -10.911  0.00  0.00     0.138 A 
ATOM     23  C   UNL d   1      10.207   7.829  -9.785  0.00  0.00     0.029 A 
ATOM     24  F   UNL d   1       9.451   8.007 -12.041  0.00  0.00    -0.204 F 
ATOM     25  C   UNL d   1      10.323   7.080  -8.598  0.00  0.00     0.002 A 
ATOM     26  C   UNL d   1       9.813   5.769  -8.545  0.00  0.00    -0.000 A 
ATOM     27  C   UNL d   1       9.186   5.204  -9.673  0.00  0.00    -0.000 A 
ENDBRANCH  20  21
ENDBRANCH   4  20
TORSDOF 4
