REMARK  7 active torsions:
REMARK  status: ('A' for Active; 'I' for Inactive)
REMARK       I    between atoms: N_2  and  C_4 
REMARK       I    between atoms: C_4  and  N_6 
REMARK    1  A    between atoms: N_6  and  C_7 
REMARK    2  A    between atoms: C_10  and  C_11 
REMARK    3  A    between atoms: C_11  and  C_12 
REMARK    4  A    between atoms: C_12  and  N_13 
REMARK    5  A    between atoms: N_13  and  C_14 
REMARK    6  A    between atoms: C_14  and  C_15 
REMARK    7  A    between atoms: C_17  and  C_18 
ROOT
ATOM      1  N   UNL d   1       8.781   5.059 -12.254  0.00  0.00     0.339 N 
ENDROOT
BRANCH   1   2
ATOM      2  C   UNL d   1       9.117   5.132 -10.842  0.00  0.00     0.290 C 
BRANCH   2   3
ATOM      3  C   UNL d   1       9.681   6.524 -10.552  0.00  0.00     0.038 C 
BRANCH   3   4
ATOM      4  C   UNL d   1      10.177   6.697  -9.104  0.00  0.00     0.002 C 
ATOM      5  C   UNL d   1      11.388   7.643  -9.062  0.00  0.00     0.002 C 
ATOM      6  C   UNL d   1      11.875   7.852  -7.626  0.00  0.00     0.025 C 
ATOM      7  C   UNL d   1      10.749   8.350  -6.697  0.00  0.00     0.108 C 
ATOM      8  C   UNL d   1       9.501   7.446  -6.754  0.00  0.00     0.025 C 
ATOM      9  C   UNL d   1       9.050   7.221  -8.193  0.00  0.00     0.002 C 
BRANCH   7  10
ATOM     10  N   UNL d   1      11.217   8.524  -5.325  0.00  0.00    -0.221 NA
ATOM     11  C   UNL d   1      11.653   7.571  -4.478  0.00  0.00     0.342 C 
ATOM     12  N   UNL d   1      11.966   8.029  -3.254  0.00  0.00    -0.297 N 
ATOM     13  O   UNL d   1      11.727   6.390  -4.771  0.00  0.00    -0.245 OA
ATOM     14  C   UNL d   1      12.261   7.068  -2.193  0.00  0.00     0.130 C 
ATOM     15  C   UNL d   1      12.063   9.445  -2.908  0.00  0.00     0.130 C 
ENDBRANCH   7  10
ENDBRANCH   3   4
ENDBRANCH   2   3
ENDBRANCH   1   2
BRANCH   1  16
ATOM     16  C   UNL d   1       9.516   3.998 -12.920  0.00  0.00     0.290 C 
BRANCH  16  17
ATOM     17  C   UNL d   1       9.117   3.926 -14.377  0.00  0.00     0.041 A 
ATOM     18  C   UNL d   1       9.916   3.063 -15.326  0.00  0.00     0.026 A 
ATOM     19  C   UNL d   1       8.515   2.655 -14.945  0.00  0.00     0.007 A 
BRANCH  18  20
ATOM     20  C   UNL d   1      10.241   3.578 -16.695  0.00  0.00     0.002 A 
ATOM     21  C   UNL d   1      11.127   4.663 -16.866  0.00  0.00     0.112 A 
ATOM     22  C   UNL d   1      11.403   5.154 -18.169  0.00  0.00     0.116 A 
ATOM     23  O   UNL d   1      11.718   5.236 -15.753  0.00  0.00    -0.326 OA
ATOM     24  C   UNL d   1      10.763   4.579 -19.277  0.00  0.00     0.026 A 
ATOM     25  O   UNL d   1      12.266   6.205 -18.375  0.00  0.00    -0.326 OA
ATOM     26  C   UNL d   1       9.884   3.491 -19.111  0.00  0.00     0.002 A 
ATOM     27  C   UNL d   1       9.634   2.988 -17.819  0.00  0.00    -0.002 A 
ATOM     28  C   UNL d   1      13.109   6.498 -17.273  0.00  0.00     0.181 C 
ATOM     29  C   UNL d   1      12.280   6.523 -15.981  0.00  0.00     0.181 C 
ENDBRANCH  18  20
ENDBRANCH  16  17
ENDBRANCH   1  16
TORSDOF 7
