REMARK  6 active torsions:
REMARK  status: ('A' for Active; 'I' for Inactive)
REMARK    1  A    between atoms: C_2  and  C_3 
REMARK    2  A    between atoms: C_3  and  C_4 
REMARK    3  A    between atoms: C_4  and  C_5 
REMARK    4  A    between atoms: C_5  and  C_6 
REMARK    5  A    between atoms: C_6  and  N_7 
REMARK    6  A    between atoms: N_10  and  C_11 
ROOT
ATOM      1  C   UNL d   1       9.212   4.208 -12.387  0.00  0.00     0.003 C 
ENDROOT
BRANCH   1   2
ATOM      2  C   UNL d   1       9.181   3.329 -13.662  0.00  0.00     0.008 C 
BRANCH   2   3
ATOM      3  C   UNL d   1      10.270   3.602 -14.744  0.00  0.00     0.060 A 
ATOM      4  C   UNL d   1      11.682   3.505 -14.128  0.00  0.00     0.008 C 
ATOM      5  C   UNL d   1      10.158   2.581 -15.903  0.00  0.00     0.172 A 
ATOM      6  C   UNL d   1       9.937   3.314 -17.159  0.00  0.00     0.031 A 
ATOM      7  O   UNL d   1      10.254   1.365 -15.760  0.00  0.00    -0.291 OA
ATOM      8  C   UNL d   1       9.901   4.681 -16.897  0.00  0.00    -0.018 A 
ATOM      9  C   UNL d   1       9.748   2.828 -18.471  0.00  0.00     0.003 A 
ATOM     10  C   UNL d   1      10.064   4.986 -15.452  0.00  0.00     0.034 A 
ATOM     11  C   UNL d   1       9.658   5.620 -17.912  0.00  0.00     0.007 A 
ATOM     12  C   UNL d   1       9.466   5.151 -19.228  0.00  0.00     0.057 A 
ATOM     13 CL   UNL d   1       9.168   6.289 -20.491  0.00  0.00    -0.082 Cl
ATOM     14  C   UNL d   1       9.519   3.766 -19.503  0.00  0.00     0.011 A 
ENDBRANCH   2   3
ENDBRANCH   1   2
BRANCH   1  15
ATOM     15  C   UNL d   1       8.920   5.701 -12.648  0.00  0.00     0.035 C 
BRANCH  15  16
ATOM     16  C   UNL d   1       8.571   6.511 -11.399  0.00  0.00     0.250 C 
BRANCH  16  17
ATOM     17  N   UNL d   1       9.701   6.496 -10.460  0.00  0.00     0.141 N 
ATOM     18  C   UNL d   1       9.181   6.075  -9.169  0.00  0.00     0.274 C 
ATOM     19  C   UNL d   1      10.307   6.015  -8.126  0.00  0.00     0.138 C 
ATOM     20  N   UNL d   1      10.996   7.297  -8.049  0.00  0.00    -0.330 N 
ATOM     21  C   UNL d   1      11.436   7.842  -9.332  0.00  0.00     0.138 C 
ATOM     22  C   UNL d   1      10.268   7.840 -10.341  0.00  0.00     0.274 C 
BRANCH  20  23
ATOM     23  C   UNL d   1      11.168   7.971  -6.828  0.00  0.00     0.140 A 
ATOM     24  N   UNL d   1      11.253   9.317  -6.862  0.00  0.00    -0.227 NA
ATOM     25  C   UNL d   1      11.425   9.989  -5.697  0.00  0.00     0.101 A 
ATOM     26  C   UNL d   1      11.536   9.348  -4.453  0.00  0.00     0.021 A 
ATOM     27  C   UNL d   1      11.467   7.946  -4.415  0.00  0.00     0.005 A 
ATOM     28  C   UNL d   1      11.270   7.241  -5.628  0.00  0.00     0.037 A 
ENDBRANCH  20  23
ENDBRANCH  16  17
ENDBRANCH  15  16
ENDBRANCH   1  15
TORSDOF 6
