REMARK  4 active torsions:
REMARK  status: ('A' for Active; 'I' for Inactive)
REMARK    1  A    between atoms: C_2  and  C_3 
REMARK       I    between atoms: C_2  and  N_17 
REMARK    2  A    between atoms: C_3  and  N_4 
REMARK    3  A    between atoms: N_7  and  C_8 
REMARK    4  A    between atoms: N_17  and  C_18 
ROOT
ATOM      1  N   UNL d   1       9.024   6.206 -11.379  0.00  0.00     0.151 N 
ATOM      2  C   UNL d   1       9.530   7.577 -11.196  0.00  0.00     0.275 C 
ATOM      3  C   UNL d   1      10.743   7.585 -10.258  0.00  0.00     0.138 C 
ATOM      4  N   UNL d   1      10.429   6.942  -8.987  0.00  0.00    -0.330 N 
ATOM      5  C   UNL d   1       9.882   5.584  -9.127  0.00  0.00     0.138 C 
ATOM      6  C   UNL d   1       8.681   5.615 -10.071  0.00  0.00     0.275 C 
ENDROOT
BRANCH   1   7
ATOM      7  C   UNL d   1       7.819   6.241 -12.242  0.00  0.00     0.339 C 
BRANCH   7   8
ATOM      8  C   UNL d   1       7.675   4.941 -13.027  0.00  0.00     0.290 C 
ATOM      9  O   UNL d   1       8.581   4.645 -13.818  0.00  0.00    -0.268 OA
ATOM     10  N   UNL d   1       6.569   4.199 -12.839  0.00  0.00    -0.207 NA
BRANCH  10  11
ATOM     11  C   UNL d   1       6.291   2.917 -13.422  0.00  0.00     0.123 A 
ATOM     12  C   UNL d   1       5.357   2.079 -12.794  0.00  0.00     0.121 A 
ATOM     13  N   UNL d   1       5.063   0.831 -13.241  0.00  0.00    -0.221 NA
ATOM     14  C   UNL d   1       5.729   0.416 -14.315  0.00  0.00     0.199 A 
ATOM     15  N   UNL d   1       6.640   1.107 -14.990  0.00  0.00    -0.221 NA
ATOM     16  C   UNL d   1       6.924   2.348 -14.564  0.00  0.00     0.121 A 
ENDBRANCH  10  11
ENDBRANCH   7   8
ENDBRANCH   1   7
BRANCH   4  17
ATOM     17  C   UNL d   1      10.715   7.554  -7.773  0.00  0.00     0.140 A 
ATOM     18  N   UNL d   1      10.852   8.905  -7.742  0.00  0.00    -0.226 NA
ATOM     19  C   UNL d   1      11.084   9.518  -6.569  0.00  0.00     0.112 A 
ATOM     20  C   UNL d   1      11.194   8.820  -5.352  0.00  0.00     0.077 A 
ATOM     21  C   UNL d   1      11.067   7.430  -5.362  0.00  0.00     0.016 A 
ATOM     22 CL   UNL d   1      11.492   9.620  -3.854  0.00  0.00    -0.081 Cl
ATOM     23  C   UNL d   1      10.845   6.787  -6.585  0.00  0.00     0.038 A 
ENDBRANCH   4  17
TORSDOF 4
