REMARK  7 active torsions:
REMARK  status: ('A' for Active; 'I' for Inactive)
REMARK    1  A    between atoms: C_2  and  C_3 
REMARK    2  A    between atoms: C_2  and  C_23 
REMARK    3  A    between atoms: C_3  and  C_4 
REMARK    4  A    between atoms: C_4  and  C_5 
REMARK    5  A    between atoms: C_5  and  C_6 
REMARK    6  A    between atoms: C_6  and  N_7 
REMARK    7  A    between atoms: C_10  and  C_11 
ROOT
ATOM      1  C   UNL d   1       8.674   1.409 -16.022  0.00  0.00     0.036 C 
ENDROOT
BRANCH   1   2
ATOM      2  C   UNL d   1       8.192   0.156 -16.760  0.00  0.00     0.010 C 
BRANCH   2   3
ATOM      3  C   UNL d   1       9.349  -0.608 -17.469  0.00  0.00     0.069 C 
BRANCH   3   4
ATOM      4  C   UNL d   1      10.072   0.198 -18.558  0.00  0.00     0.173 C 
ATOM      5  O   UNL d   1      11.300   0.295 -18.516  0.00  0.00    -0.291 OA
BRANCH   4   6
ATOM      6  C   UNL d   1       9.229   0.847 -19.603  0.00  0.00     0.034 A 
ATOM      7  C   UNL d   1       9.705   2.010 -20.269  0.00  0.00     0.000 A 
ATOM      8  C   UNL d   1       8.896   2.621 -21.245  0.00  0.00    -0.005 A 
ATOM      9  C   UNL d   1       7.665   2.049 -21.543  0.00  0.00     0.054 A 
ATOM     10  C   UNL d   1       9.052   3.841 -22.126  0.00  0.00     0.052 A 
ATOM     11  C   UNL d   1       7.142   0.913 -20.906  0.00  0.00    -0.006 A 
ATOM     12  N   UNL d   1       7.002   2.754 -22.563  0.00  0.00    -0.300 N 
ATOM     13  C   UNL d   1       7.958   0.295 -19.940  0.00  0.00    -0.000 A 
ATOM     14  C   UNL d   1       5.721   0.564 -21.315  0.00  0.00     0.038 C 
ATOM     15  C   UNL d   1       5.416   0.894 -22.790  0.00  0.00     0.093 C 
ATOM     16  C   UNL d   1       5.891   2.301 -23.179  0.00  0.00     0.238 C 
ATOM     17  O   UNL d   1       5.276   2.945 -24.022  0.00  0.00    -0.272 OA
ATOM     18  C   UNL d   1       7.734   3.957 -22.922  0.00  0.00     0.114 A 
ENDBRANCH   4   6
ENDBRANCH   3   4
ENDBRANCH   2   3
ENDBRANCH   1   2
BRANCH   1  19
ATOM     19  C   UNL d   1       7.597   1.985 -15.084  0.00  0.00     0.250 C 
BRANCH  19  20
ATOM     20  N   UNL d   1       8.030   3.214 -14.421  0.00  0.00     0.137 N 
ATOM     21  C   UNL d   1       6.945   3.678 -13.543  0.00  0.00     0.251 C 
ATOM     22  C   UNL d   1       7.331   5.002 -12.862  0.00  0.00     0.041 C 
ATOM     23  C   UNL d   1       8.649   4.889 -12.082  0.00  0.00     0.047 C 
ATOM     24  C   UNL d   1       9.729   4.298 -12.997  0.00  0.00     0.041 C 
ATOM     25  C   UNL d   1       9.256   3.002 -13.644  0.00  0.00     0.251 C 
BRANCH  23  26
ATOM     26  C   UNL d   1       9.074   6.229 -11.530  0.00  0.00     0.087 A 
ATOM     27  C   UNL d   1       9.552   6.603 -10.255  0.00  0.00     0.041 A 
ATOM     28  C   UNL d   1       9.861   7.964 -10.269  0.00  0.00     0.129 A 
ATOM     29  C   UNL d   1       9.741   5.864  -9.067  0.00  0.00     0.006 A 
ATOM     30  O   UNL d   1       9.573   8.387 -11.553  0.00  0.00    -0.211 OA
ATOM     31  C   UNL d   1      10.344   8.654  -9.151  0.00  0.00     0.057 A 
ATOM     32  N   UNL d   1       9.100   7.300 -12.328  0.00  0.00    -0.131 NA
ATOM     33  C   UNL d   1      10.521   7.920  -7.957  0.00  0.00     0.142 A 
ATOM     34  F   UNL d   1      10.976   8.547  -6.845  0.00  0.00    -0.204 F 
ATOM     35  C   UNL d   1      10.226   6.535  -7.921  0.00  0.00     0.030 A 
ENDBRANCH  23  26
ENDBRANCH  19  20
ENDBRANCH   1  19
TORSDOF 7
