REMARK  5 active torsions:
REMARK  status: ('A' for Active; 'I' for Inactive)
REMARK    1  A    between atoms: O_2  and  C_3 
REMARK    2  A    between atoms: C_6  and  C_7 
REMARK    3  A    between atoms: C_7  and  N_8 
REMARK    4  A    between atoms: C_11  and  C_12 
REMARK    5  A    between atoms: C_12  and  C_13 
REMARK       I    between atoms: C_13  and  N_15 
ROOT
ATOM      1  N   UNL d   1       9.300   8.109 -10.636  0.00  0.00     0.141 N 
ATOM      2  C   UNL d   1      10.460   7.315 -10.807  0.00  0.00     0.251 C 
ATOM      3  C   UNL d   1      10.067   6.080 -11.656  0.00  0.00     0.036 C 
ATOM      4  C   UNL d   1       9.328   6.419 -12.944  0.00  0.00     0.013 C 
ATOM      5  C   UNL d   1       8.101   7.277 -12.644  0.00  0.00     0.036 C 
ATOM      6  C   UNL d   1       8.616   8.538 -11.884  0.00  0.00     0.251 C 
ENDROOT
BRANCH   4   7
ATOM      7  C   UNL d   1       8.965   5.121 -13.692  0.00  0.00     0.088 C 
BRANCH   7   8
ATOM      8  C   UNL d   1      10.070   4.582 -14.619  0.00  0.00     0.237 C 
ATOM      9  O   UNL d   1      11.200   5.074 -14.561  0.00  0.00    -0.272 OA
ATOM     10  N   UNL d   1       9.777   3.580 -15.486  0.00  0.00    -0.301 N 
ATOM     11  C   UNL d   1      10.534   3.389 -16.747  0.00  0.00     0.093 A 
ATOM     12  C   UNL d   1       8.677   2.672 -15.432  0.00  0.00     0.058 A 
ATOM     13  C   UNL d   1       9.850   2.191 -17.466  0.00  0.00     0.051 A 
ATOM     14  C   UNL d   1      12.062   3.155 -16.584  0.00  0.00     0.025 C 
ATOM     15  C   UNL d   1       8.689   1.850 -16.571  0.00  0.00    -0.004 A 
ATOM     16  C   UNL d   1       7.740   0.843 -16.776  0.00  0.00    -0.003 A 
ATOM     17  C   UNL d   1       6.727   0.653 -15.806  0.00  0.00    -0.000 A 
ATOM     18  C   UNL d   1       6.708   1.470 -14.649  0.00  0.00     0.002 A 
ATOM     19  C   UNL d   1       7.670   2.474 -14.442  0.00  0.00     0.017 A 
ENDBRANCH   7   8
ENDBRANCH   4   7
BRANCH   1  20
ATOM     20  C   UNL d   1       9.454   9.224  -9.710  0.00  0.00     0.277 C 
BRANCH  20  21
ATOM     21  C   UNL d   1      10.000   8.873  -8.357  0.00  0.00     0.011 A 
ATOM     22  C   UNL d   1       9.192   8.322  -7.351  0.00  0.00    -0.000 A 
ATOM     23  C   UNL d   1       9.777   8.021  -6.108  0.00  0.00     0.024 A 
ATOM     24  C   UNL d   1      11.113   8.367  -5.840  0.00  0.00     0.094 A 
ATOM     25  C   UNL d   1      11.897   8.969  -6.859  0.00  0.00     0.024 A 
ATOM     26  C   UNL d   1      11.349   9.203  -8.126  0.00  0.00    -0.000 A 
BRANCH  24  27
ATOM     27  O   UNL d   1      11.594   8.049  -4.585  0.00  0.00    -0.328 OA
ATOM     28  C   UNL d   1      12.546   8.931  -4.018  0.00  0.00     0.181 C 
ENDBRANCH  24  27
ENDBRANCH  20  21
ENDBRANCH   1  20
TORSDOF 5
