REMARK  8 active torsions:
REMARK  status: ('A' for Active; 'I' for Inactive)
REMARK    1  A    between atoms: O_2  and  C_3 
REMARK    2  A    between atoms: C_6  and  N_7 
REMARK    3  A    between atoms: N_10  and  C_11 
REMARK    4  A    between atoms: C_11  and  C_12 
REMARK    5  A    between atoms: C_12  and  C_13 
REMARK    6  A    between atoms: C_13  and  C_14 
REMARK    7  A    between atoms: C_14  and  O_15 
REMARK    8  A    between atoms: O_15  and  C_16 
ROOT
ATOM      1  C   UNL d   1       8.663   6.581 -11.114  0.00  0.00     0.251 C 
ENDROOT
BRANCH   1   2
ATOM      2  N   UNL d   1       8.690   5.728 -12.288  0.00  0.00     0.141 N 
ATOM      3  C   UNL d   1       9.195   4.411 -11.913  0.00  0.00     0.274 C 
ATOM      4  C   UNL d   1       9.250   3.498 -13.152  0.00  0.00     0.137 C 
ATOM      5  N   UNL d   1       7.932   3.439 -13.770  0.00  0.00    -0.344 N 
ATOM      6  C   UNL d   1       7.304   4.710 -14.012  0.00  0.00     0.137 C 
ATOM      7  C   UNL d   1       7.307   5.592 -12.761  0.00  0.00     0.274 C 
BRANCH   5   8
ATOM      8  C   UNL d   1       7.271   2.234 -14.055  0.00  0.00     0.056 A 
ATOM      9  C   UNL d   1       7.896   1.216 -14.805  0.00  0.00     0.019 A 
ATOM     10  C   UNL d   1       7.219   0.019 -15.080  0.00  0.00     0.026 A 
ATOM     11  C   UNL d   1       5.912  -0.211 -14.582  0.00  0.00     0.094 A 
ATOM     12  C   UNL d   1       5.305   0.795 -13.803  0.00  0.00     0.026 A 
ATOM     13  C   UNL d   1       5.963   2.015 -13.570  0.00  0.00     0.019 A 
BRANCH  11  14
ATOM     14  O   UNL d   1       5.220  -1.361 -14.845  0.00  0.00    -0.328 OA
ATOM     15  C   UNL d   1       5.177  -1.779 -16.208  0.00  0.00     0.181 C 
ENDBRANCH  11  14
ENDBRANCH   5   8
ENDBRANCH   1   2
BRANCH   1  16
ATOM     16  C   UNL d   1       9.988   7.326 -10.886  0.00  0.00     0.038 C 
BRANCH  16  17
ATOM     17  C   UNL d   1       9.870   8.296  -9.698  0.00  0.00     0.035 C 
BRANCH  17  18
ATOM     18  C   UNL d   1      11.252   8.943  -9.406  0.00  0.00     0.149 C 
BRANCH  18  19
ATOM     19  O   UNL d   1      11.306   9.542  -8.124  0.00  0.00    -0.331 OA
BRANCH  19  20
ATOM     20  C   UNL d   1      11.404   8.734  -7.021  0.00  0.00     0.096 A 
ATOM     21  C   UNL d   1      11.895   9.349  -5.840  0.00  0.00     0.043 A 
ATOM     22  C   UNL d   1      11.998   8.599  -4.646  0.00  0.00     0.082 A 
ATOM     23  C   UNL d   1      11.567   7.248  -4.654  0.00  0.00    -0.004 A 
ATOM     24  N   UNL d   1      12.577   9.121  -3.478  0.00  0.00    -0.212 NA
ATOM     25  C   UNL d   1      11.075   6.674  -5.816  0.00  0.00    -0.001 A 
ATOM     26  C   UNL d   1      11.752   6.406  -3.422  0.00  0.00     0.038 C 
ATOM     27  C   UNL d   1      11.059   7.367  -7.004  0.00  0.00     0.024 A 
ATOM     28  C   UNL d   1      11.685   7.232  -2.162  0.00  0.00     0.095 C 
ATOM     29  C   UNL d   1      12.508   8.499  -2.279  0.00  0.00     0.256 C 
ATOM     30  O   UNL d   1      13.070   8.889  -1.285  0.00  0.00    -0.270 OA
ENDBRANCH  19  20
ENDBRANCH  18  19
ENDBRANCH  17  18
ENDBRANCH  16  17
ENDBRANCH   1  16
TORSDOF 8
