REMARK  8 active torsions:
REMARK  status: ('A' for Active; 'I' for Inactive)
REMARK    1  A    between atoms: C_2  and  C_3 
REMARK    2  A    between atoms: C_3  and  C_5 
REMARK    3  A    between atoms: C_5  and  C_6 
REMARK       I    between atoms: C_6  and  N_8 
REMARK    4  A    between atoms: N_8  and  C_9 
REMARK    5  A    between atoms: C_12  and  C_13 
REMARK    6  A    between atoms: C_13  and  C_14 
REMARK    7  A    between atoms: C_14  and  N_15 
REMARK    8  A    between atoms: C_18  and  C_19 
ROOT
ATOM      1  C   UNL d   1       8.741   5.055 -10.364  0.00  0.00     0.250 C 
ENDROOT
BRANCH   1   2
ATOM      2  C   UNL d   1       9.280   5.469 -11.747  0.00  0.00     0.035 C 
BRANCH   2   3
ATOM      3  C   UNL d   1       9.485   4.282 -12.702  0.00  0.00     0.002 C 
ATOM      4  C   UNL d   1       8.155   3.894 -13.355  0.00  0.00     0.002 C 
ATOM      5  C   UNL d   1       8.339   2.752 -14.359  0.00  0.00     0.024 C 
ATOM      6  C   UNL d   1       9.388   3.111 -15.423  0.00  0.00     0.106 C 
ATOM      7  C   UNL d   1      10.733   3.471 -14.771  0.00  0.00     0.024 C 
ATOM      8  C   UNL d   1      10.555   4.606 -13.756  0.00  0.00     0.002 C 
BRANCH   6   9
ATOM      9  N   UNL d   1       9.565   1.977 -16.313  0.00  0.00    -0.240 NA
ATOM     10  C   UNL d   1       8.804   1.676 -17.366  0.00  0.00     0.254 C 
ATOM     11  O   UNL d   1       7.861   2.373 -17.758  0.00  0.00    -0.271 OA
BRANCH  10  12
ATOM     12  C   UNL d   1       9.153   0.380 -18.093  0.00  0.00     0.122 C 
BRANCH  12  13
ATOM     13  C   UNL d   1      10.407   0.500 -18.988  0.00  0.00     0.162 C 
ATOM     14  O   UNL d   1      10.559  -0.736 -19.654  0.00  0.00    -0.223 OA
BRANCH  13  15
ATOM     15  C   UNL d   1      11.710   0.811 -18.207  0.00  0.00     0.034 C 
ATOM     16  C   UNL d   1      12.937   1.044 -19.087  0.00  0.00     0.003 C 
ENDBRANCH  13  15
ENDBRANCH  12  13
ENDBRANCH  10  12
ENDBRANCH   6   9
ENDBRANCH   2   3
ENDBRANCH   1   2
BRANCH   1  17
ATOM     17  N   UNL d   1       9.129   5.997  -9.323  0.00  0.00     0.137 N 
ATOM     18  C   UNL d   1       8.501   5.627  -8.061  0.00  0.00     0.251 C 
ATOM     19  C   UNL d   1       8.852   6.655  -6.972  0.00  0.00     0.040 C 
ATOM     20  C   UNL d   1      10.375   6.723  -6.762  0.00  0.00     0.026 C 
ATOM     21  C   UNL d   1      11.055   6.941  -8.099  0.00  0.00     0.040 C 
ATOM     22  C   UNL d   1      10.564   5.897  -9.100  0.00  0.00     0.251 C 
BRANCH  20  23
ATOM     23  C   UNL d   1      10.796   7.824  -5.800  0.00  0.00    -0.024 A 
ATOM     24  C   UNL d   1      11.460   7.567  -4.581  0.00  0.00    -0.001 A 
ATOM     25  C   UNL d   1      11.798   8.564  -3.687  0.00  0.00     0.090 A 
ATOM     26  C   UNL d   1      11.819   6.257  -3.989  0.00  0.00     0.061 A 
ATOM     27  C   UNL d   1      11.480   9.899  -3.970  0.00  0.00     0.024 A 
ATOM     28  O   UNL d   1      12.345   8.092  -2.526  0.00  0.00    -0.331 OA
ATOM     29  C   UNL d   1      10.875  10.184  -5.211  0.00  0.00     0.002 A 
ATOM     30  C   UNL d   1      10.524   9.164  -6.112  0.00  0.00    -0.004 A 
ATOM     31  C   UNL d   1      12.428   6.662  -2.629  0.00  0.00     0.154 A 
ENDBRANCH  20  23
ENDBRANCH   1  17
TORSDOF 8
