REMARK  6 active torsions:
REMARK  status: ('A' for Active; 'I' for Inactive)
REMARK    1  A    between atoms: S_2  and  C_4 
REMARK    2  A    between atoms: S_2  and  N_14 
REMARK    3  A    between atoms: C_20  and  C_21 
REMARK    4  A    between atoms: C_21  and  C_22 
REMARK    5  A    between atoms: C_22  and  N_23 
REMARK    6  A    between atoms: N_26  and  C_27 
ROOT
ATOM      1  N   UNL d   1       8.693   1.386 -15.422  0.00  0.00    -0.276 N 
ATOM      2  C   UNL d   1       9.733   0.452 -15.037  0.00  0.00     0.113 C 
ATOM      3  C   UNL d   1      11.048   0.697 -15.770  0.00  0.00     0.025 C 
ATOM      4  C   UNL d   1      11.654   2.109 -15.640  0.00  0.00     0.002 C 
ATOM      5  C   UNL d   1      10.894   3.140 -16.478  0.00  0.00     0.002 C 
ATOM      6  C   UNL d   1       9.634   3.705 -15.807  0.00  0.00     0.023 C 
ATOM      7  C   UNL d   1       8.851   2.743 -14.859  0.00  0.00     0.094 C 
ENDROOT
BRANCH   7   8
ATOM      8  C   UNL d   1       7.503   3.257 -14.331  0.00  0.00     0.058 C 
BRANCH   8   9
ATOM      9  C   UNL d   1       7.594   4.723 -13.830  0.00  0.00     0.252 C 
BRANCH   9  10
ATOM     10  N   UNL d   1       8.526   4.902 -12.717  0.00  0.00     0.141 N 
ATOM     11  C   UNL d   1       8.742   6.330 -12.504  0.00  0.00     0.274 C 
ATOM     12  C   UNL d   1       9.766   6.528 -11.414  0.00  0.00     0.137 C 
ATOM     13  N   UNL d   1       9.456   5.794 -10.220  0.00  0.00    -0.344 N 
ATOM     14  C   UNL d   1       9.037   4.411 -10.411  0.00  0.00     0.137 C 
ATOM     15  C   UNL d   1       7.937   4.398 -11.488  0.00  0.00     0.274 C 
BRANCH  13  16
ATOM     16  C   UNL d   1       9.614   6.389  -8.982  0.00  0.00     0.057 A 
ATOM     17  C   UNL d   1      10.617   7.333  -8.639  0.00  0.00     0.022 A 
ATOM     18  C   UNL d   1      10.529   7.940  -7.346  0.00  0.00     0.031 A 
ATOM     19  C   UNL d   1      11.784   7.838  -9.352  0.00  0.00     0.009 A 
ATOM     20  C   UNL d   1       9.515   7.613  -6.440  0.00  0.00     0.007 A 
ATOM     21  S   UNL d   1      11.795   9.085  -7.031  0.00  0.00    -0.086 SA
ATOM     22  C   UNL d   1       8.558   6.668  -6.837  0.00  0.00     0.002 A 
ATOM     23  C   UNL d   1       8.619   6.052  -8.064  0.00  0.00     0.017 A 
ATOM     24  C   UNL d   1      12.489   8.709  -8.571  0.00  0.00     0.035 A 
ENDBRANCH  13  16
ENDBRANCH   9  10
ENDBRANCH   8   9
ENDBRANCH   7   8
BRANCH   1  25
ATOM     25  S   UNL d   1       7.848   1.051 -16.915  0.00  0.00     0.266 S 
ATOM     26  O   UNL d   1       8.752   0.318 -17.790  0.00  0.00    -0.200 OA
ATOM     27  O   UNL d   1       7.242   2.312 -17.408  0.00  0.00    -0.200 OA
BRANCH  25  28
ATOM     28  C   UNL d   1       6.485  -0.009 -16.456  0.00  0.00     0.122 A 
ATOM     29  C   UNL d   1       5.734  -0.671 -17.452  0.00  0.00     0.015 A 
ATOM     30  C   UNL d   1       4.644  -1.478 -17.034  0.00  0.00     0.020 A 
ATOM     31  C   UNL d   1       5.992  -0.562 -18.843  0.00  0.00     0.001 A 
ATOM     32  C   UNL d   1       4.357  -1.570 -15.655  0.00  0.00     0.099 A 
ATOM     33  C   UNL d   1       3.864  -2.172 -17.981  0.00  0.00     0.002 A 
ATOM     34  N   UNL d   1       5.073  -0.929 -14.706  0.00  0.00    -0.242 NA
ATOM     35  C   UNL d   1       6.125  -0.180 -15.101  0.00  0.00     0.112 A 
ATOM     36  C   UNL d   1       4.135  -2.057 -19.357  0.00  0.00     0.000 A 
ATOM     37  C   UNL d   1       5.206  -1.252 -19.785  0.00  0.00     0.000 A 
ENDBRANCH  25  28
ENDBRANCH   1  25
TORSDOF 6
