REMARK  4 active torsions:
REMARK  status: ('A' for Active; 'I' for Inactive)
REMARK    1  A    between atoms: S_2  and  C_4 
REMARK    2  A    between atoms: C_7  and  C_8 
REMARK    3  A    between atoms: C_10  and  C_11 
REMARK    4  A    between atoms: C_18  and  C_19 
ROOT
ATOM      1  C   UNL d   1       9.116   5.097 -12.276  0.00  0.00     0.162 A 
ATOM      2  N   UNL d   1       8.234   4.108 -12.441  0.00  0.00    -0.225 NA
ATOM      3  C   UNL d   1       8.384   3.567 -13.710  0.00  0.00     0.101 A 
ATOM      4  C   UNL d   1       9.366   4.326 -14.340  0.00  0.00     0.101 A 
ATOM      5  N   UNL d   1       9.835   5.262 -13.387  0.00  0.00    -0.225 NA
ENDROOT
BRANCH   1   6
ATOM      6  C   UNL d   1       9.287   5.883 -11.054  0.00  0.00     0.036 A 
ATOM      7  C   UNL d   1       9.689   7.234 -11.131  0.00  0.00     0.004 A 
ATOM      8  C   UNL d   1       9.889   7.987  -9.961  0.00  0.00     0.009 A 
ATOM      9  C   UNL d   1       9.638   7.397  -8.707  0.00  0.00     0.056 A 
ATOM     10  C   UNL d   1       9.222   6.056  -8.614  0.00  0.00     0.009 A 
ATOM     11  C   UNL d   1       9.053   5.299  -9.789  0.00  0.00     0.004 A 
BRANCH   9  12
ATOM     12  S   UNL d   1       9.818   8.387  -7.191  0.00  0.00     0.066 S 
ATOM     13  C   UNL d   1      11.572   8.899  -7.502  0.00  0.00     0.111 C 
ATOM     14  O   UNL d   1       9.870   7.387  -6.033  0.00  0.00    -0.252 OA
ENDBRANCH   9  12
ENDBRANCH   1   6
BRANCH   3  15
ATOM     15  C   UNL d   1       7.566   2.402 -14.098  0.00  0.00     0.019 A 
ATOM     16  C   UNL d   1       6.237   2.255 -13.635  0.00  0.00     0.004 A 
ATOM     17  C   UNL d   1       5.456   1.149 -14.042  0.00  0.00     0.030 A 
ATOM     18  C   UNL d   1       5.939   0.232 -15.000  0.00  0.00     0.140 A 
ATOM     19  C   UNL d   1       7.258   0.378 -15.464  0.00  0.00     0.030 A 
ATOM     20  F   UNL d   1       5.145  -0.783 -15.433  0.00  0.00    -0.204 F 
ATOM     21  C   UNL d   1       8.082   1.404 -14.964  0.00  0.00     0.004 A 
ENDBRANCH   3  15
BRANCH   4  22
ATOM     22  C   UNL d   1       9.921   4.287 -15.724  0.00  0.00     0.022 C 
ATOM     23  C   UNL d   1       9.427   3.417 -16.730  0.00  0.00     0.022 C 
ATOM     24  C   UNL d   1      10.124   3.365 -17.954  0.00  0.00     0.099 C 
ATOM     25  N   UNL d   1      11.140   4.200 -18.323  0.00  0.00    -0.242 NA
ATOM     26  C   UNL d   1      11.501   5.125 -17.409  0.00  0.00     0.099 C 
ATOM     27  C   UNL d   1      10.978   5.182 -16.088  0.00  0.00     0.022 C 
ENDBRANCH   4  22
TORSDOF 4
