REMARK  3 active torsions:
REMARK  status: ('A' for Active; 'I' for Inactive)
REMARK       I    between atoms: C_2  and  N_4 
REMARK    1  A    between atoms: N_4  and  C_5 
REMARK    2  A    between atoms: C_5  and  C_6 
REMARK    3  A    between atoms: C_6  and  N_7 
ROOT
ATOM      1  N   UNL d   1      10.312   7.565  -7.722  0.00  0.00     0.139 N 
ATOM      2  C   UNL d   1      11.122   8.762  -7.948  0.00  0.00     0.250 C 
ATOM      3  C   UNL d   1      11.061   9.756  -6.782  0.00  0.00     0.035 C 
ATOM      4  C   UNL d   1      12.197   9.665  -5.770  0.00  0.00     0.002 C 
ATOM      5  C   UNL d   1      11.787   9.046  -4.416  0.00  0.00     0.000 C 
ATOM      6  C   UNL d   1      11.668   7.511  -4.418  0.00  0.00     0.002 C 
ATOM      7  C   UNL d   1      10.551   6.955  -5.311  0.00  0.00     0.035 C 
ATOM      8  C   UNL d   1      10.966   6.670  -6.765  0.00  0.00     0.250 C 
ENDROOT
BRANCH   1   9
ATOM      9  C   UNL d   1      10.127   6.891  -9.011  0.00  0.00     0.277 C 
BRANCH   9  10
ATOM     10  C   UNL d   1       8.971   5.863  -8.996  0.00  0.00     0.180 C 
BRANCH  10  11
ATOM     11  N   UNL d   1       9.042   4.979 -10.147  0.00  0.00    -0.081 NA
ATOM     12  C   UNL d   1       8.691   5.316 -11.441  0.00  0.00     0.782 C 
ATOM     13  N   UNL d   1       8.072   6.385 -11.782  0.00  0.00     0.063 N 
ATOM     14  N   UNL d   1       9.079   4.400 -12.391  0.00  0.00     0.063 N 
ENDBRANCH  10  11
ENDBRANCH   9  10
ENDBRANCH   1   9
TORSDOF 3
