REMARK  5 active torsions:
REMARK  status: ('A' for Active; 'I' for Inactive)
REMARK    1  A    between atoms: C_10  and  N_11 
REMARK    2  A    between atoms: N_14  and  C_15 
REMARK    3  A    between atoms: C_15  and  C_16 
REMARK    4  A    between atoms: C_16  and  C_17 
REMARK    5  A    between atoms: C_17  and  C_18 
ROOT
ATOM      1  N   UNL d   1      10.097   4.194 -14.682  0.00  0.00    -0.343 N 
ATOM      2  C   UNL d   1      10.288   3.147 -13.685  0.00  0.00     0.137 C 
ATOM      3  C   UNL d   1       9.904   3.720 -12.317  0.00  0.00     0.274 C 
ATOM      4  N   UNL d   1       8.558   4.295 -12.265  0.00  0.00     0.141 N 
ATOM      5  C   UNL d   1       8.431   5.338 -13.278  0.00  0.00     0.274 C 
ATOM      6  C   UNL d   1       8.753   4.758 -14.643  0.00  0.00     0.137 C 
ENDROOT
BRANCH   4   7
ATOM      7  C   UNL d   1       8.236   4.838 -10.950  0.00  0.00     0.251 C 
BRANCH   7   8
ATOM      8  C   UNL d   1       9.052   6.080 -10.560  0.00  0.00     0.040 C 
BRANCH   8   9
ATOM      9  C   UNL d   1       9.201   6.243  -9.054  0.00  0.00     0.030 C 
BRANCH   9  10
ATOM     10  C   UNL d   1      10.114   7.384  -8.722  0.00  0.00    -0.002 A 
ATOM     11  C   UNL d   1      10.607   7.742  -7.423  0.00  0.00     0.015 A 
ATOM     12  C   UNL d   1      11.422   8.900  -7.566  0.00  0.00     0.081 A 
ATOM     13  C   UNL d   1      10.457   7.206  -6.124  0.00  0.00     0.001 A 
ATOM     14  N   UNL d   1      11.440   9.185  -8.918  0.00  0.00    -0.244 NA
ATOM     15  C   UNL d   1      12.027   9.522  -6.461  0.00  0.00     0.019 A 
ATOM     16  C   UNL d   1      10.642   8.296  -9.605  0.00  0.00     0.095 A 
ATOM     17  C   UNL d   1      11.861   8.968  -5.181  0.00  0.00     0.002 A 
ATOM     18  C   UNL d   1      11.101   7.796  -5.020  0.00  0.00     0.000 A 
ENDBRANCH   9  10
ENDBRANCH   8   9
ENDBRANCH   7   8
ENDBRANCH   4   7
BRANCH   1  19
ATOM     19  C   UNL d   1      11.069   4.553 -15.651  0.00  0.00     0.080 A 
ATOM     20  C   UNL d   1      10.716   4.975 -16.973  0.00  0.00     0.128 A 
ATOM     21  O   UNL d   1       9.399   5.024 -17.362  0.00  0.00    -0.318 OA
ATOM     22  C   UNL d   1      11.709   5.371 -17.895  0.00  0.00     0.108 A 
ATOM     23  C   UNL d   1       9.087   4.955 -18.748  0.00  0.00     0.238 C 
ATOM     24  C   UNL d   1      10.065   5.750 -19.610  0.00  0.00     0.286 C 
ATOM     25  O   UNL d   1       9.706   6.246 -20.677  0.00  0.00    -0.267 OA
ATOM     26  N   UNL d   1      11.321   5.850 -19.167  0.00  0.00    -0.208 NA
ATOM     27  C   UNL d   1      13.067   5.326 -17.544  0.00  0.00     0.021 A 
ATOM     28  C   UNL d   1      13.435   4.878 -16.263  0.00  0.00     0.003 A 
ATOM     29  C   UNL d   1      12.449   4.503 -15.328  0.00  0.00     0.019 A 
ENDBRANCH   1  19
TORSDOF 5
