REMARK  7 active torsions:
REMARK  status: ('A' for Active; 'I' for Inactive)
REMARK    1  A    between atoms: S_2  and  N_4 
REMARK    2  A    between atoms: S_2  and  C_28 
REMARK    3  A    between atoms: N_4  and  C_5 
REMARK    4  A    between atoms: C_8  and  C_9 
REMARK    5  A    between atoms: C_9  and  C_10 
REMARK    6  A    between atoms: C_10  and  N_11 
REMARK    7  A    between atoms: N_14  and  C_15 
ROOT
ATOM      1  C   UNL d   1      14.850   8.825 -19.530  0.00  0.00     0.116 C 
ATOM      2  C   UNL d   1      14.618   9.222 -18.065  0.00  0.00     0.025 C 
ATOM      3  C   UNL d   1      14.173   8.012 -17.232  0.00  0.00     0.002 C 
ATOM      4  C   UNL d   1      12.921   7.342 -17.824  0.00  0.00     0.002 C 
ATOM      5  C   UNL d   1      13.176   6.953 -19.295  0.00  0.00     0.002 C 
ATOM      6  C   UNL d   1      13.609   8.157 -20.134  0.00  0.00     0.025 C 
ENDROOT
BRANCH   4   7
ATOM      7  C   UNL d   1      12.477   6.153 -16.950  0.00  0.00     0.035 C 
BRANCH   7   8
ATOM      8  C   UNL d   1      11.149   5.513 -17.403  0.00  0.00     0.250 C 
BRANCH   8   9
ATOM      9  N   UNL d   1      10.877   4.285 -16.663  0.00  0.00     0.141 N 
ATOM     10  C   UNL d   1       9.952   3.445 -17.437  0.00  0.00     0.274 C 
ATOM     11  C   UNL d   1       9.650   2.135 -16.686  0.00  0.00     0.137 C 
ATOM     12  N   UNL d   1       9.128   2.447 -15.364  0.00  0.00    -0.343 N 
ATOM     13  C   UNL d   1       9.954   3.343 -14.567  0.00  0.00     0.137 C 
ATOM     14  C   UNL d   1      10.255   4.616 -15.374  0.00  0.00     0.274 C 
BRANCH  12  15
ATOM     15  C   UNL d   1       7.931   1.879 -14.889  0.00  0.00     0.081 A 
ATOM     16  C   UNL d   1       7.038   2.579 -14.042  0.00  0.00     0.135 A 
ATOM     17  C   UNL d   1       5.864   2.001 -13.595  0.00  0.00     0.121 A 
ATOM     18  O   UNL d   1       7.121   3.846 -13.552  0.00  0.00    -0.298 OA
ATOM     19  C   UNL d   1       5.483   0.702 -13.964  0.00  0.00     0.026 A 
ATOM     20  O   UNL d   1       5.190   2.880 -12.812  0.00  0.00    -0.299 OA
ATOM     21  C   UNL d   1       6.353  -0.019 -14.809  0.00  0.00     0.004 A 
ATOM     22  C   UNL d   1       7.557   0.561 -15.263  0.00  0.00     0.019 A 
ATOM     23  C   UNL d   1       5.976   4.038 -12.761  0.00  0.00     0.304 A 
ENDBRANCH  12  15
ENDBRANCH   8   9
ENDBRANCH   7   8
ENDBRANCH   4   7
BRANCH   1  24
ATOM     24  N   UNL d   1      15.235  10.009 -20.304  0.00  0.00    -0.187 NA
BRANCH  24  25
ATOM     25  S   UNL d   1      16.300   9.837 -21.649  0.00  0.00     0.281 S 
ATOM     26  O   UNL d   1      15.705   8.848 -22.561  0.00  0.00    -0.199 OA
ATOM     27  O   UNL d   1      16.635  11.187 -22.124  0.00  0.00    -0.199 OA
BRANCH  25  28
ATOM     28  C   UNL d   1      17.758   9.111 -20.900  0.00  0.00     0.105 A 
ATOM     29  C   UNL d   1      18.407   8.027 -21.528  0.00  0.00     0.015 A 
ATOM     30  C   UNL d   1      19.526   7.434 -20.908  0.00  0.00     0.030 A 
ATOM     31  C   UNL d   1      19.981   7.915 -19.663  0.00  0.00     0.140 A 
ATOM     32  C   UNL d   1      19.317   8.986 -19.032  0.00  0.00     0.030 A 
ATOM     33  F   UNL d   1      21.058   7.348 -19.073  0.00  0.00    -0.204 F 
ATOM     34  C   UNL d   1      18.202   9.585 -19.649  0.00  0.00     0.015 A 
ENDBRANCH  25  28
ENDBRANCH  24  25
ENDBRANCH   1  24
TORSDOF 7
