REMARK  9 active torsions:
REMARK  status: ('A' for Active; 'I' for Inactive)
REMARK    1  A    between atoms: O_2  and  C_3 
REMARK    2  A    between atoms: C_10  and  C_11 
REMARK       I    between atoms: C_11  and  N_13 
REMARK    3  A    between atoms: N_13  and  C_14 
REMARK    4  A    between atoms: N_17  and  C_18 
REMARK    5  A    between atoms: C_18  and  C_19 
REMARK    6  A    between atoms: C_19  and  C_20 
REMARK    7  A    between atoms: C_20  and  O_21 
REMARK    8  A    between atoms: O_21  and  C_22 
REMARK    9  A    between atoms: C_30  and  O_31 
ROOT
ATOM      1  C   UNL d   1      10.071   2.933 -17.122  0.00  0.00     0.138 C 
ATOM      2  C   UNL d   1       9.515   4.329 -16.815  0.00  0.00     0.062 C 
ATOM      3  C   UNL d   1       9.119   4.441 -15.342  0.00  0.00     0.252 C 
ATOM      4  N   UNL d   1      10.245   4.178 -14.448  0.00  0.00     0.140 N 
ATOM      5  C   UNL d   1      10.764   2.822 -14.673  0.00  0.00     0.281 C 
ATOM      6  C   UNL d   1      11.214   2.604 -16.142  0.00  0.00     0.171 C 
ENDROOT
BRANCH   1   7
ATOM      7  N   UNL d   1       9.036   1.913 -16.988  0.00  0.00    -0.234 NA
ATOM      8  C   UNL d   1       7.999   1.755 -17.810  0.00  0.00     0.277 C 
ATOM      9  O   UNL d   1       7.900   2.352 -18.884  0.00  0.00    -0.266 OA
BRANCH   8  10
ATOM     10  C   UNL d   1       6.923   0.824 -17.315  0.00  0.00     0.081 A 
ATOM     11  C   UNL d   1       6.136   0.057 -18.212  0.00  0.00     0.100 A 
ATOM     12  C   UNL d   1       5.102  -0.763 -17.690  0.00  0.00     0.039 A 
ATOM     13  C   UNL d   1       4.837  -0.810 -16.305  0.00  0.00     0.083 A 
ATOM     14  N   UNL d   1       3.793  -1.600 -15.824  0.00  0.00    -0.100 NA
ATOM     15  C   UNL d   1       5.612  -0.023 -15.424  0.00  0.00     0.071 A 
ATOM     16 CL   UNL d   1       5.299  -0.009 -13.723  0.00  0.00    -0.081 Cl
ATOM     17  C   UNL d   1       6.637   0.789 -15.929  0.00  0.00     0.019 A 
BRANCH  11  18
ATOM     18  O   UNL d   1       6.411   0.141 -19.565  0.00  0.00    -0.328 OA
ATOM     19  C   UNL d   1       5.601  -0.584 -20.477  0.00  0.00     0.181 C 
ENDBRANCH  11  18
ENDBRANCH   8  10
ENDBRANCH   1   7
BRANCH   6  20
ATOM     20  O   UNL d   1      11.613   1.246 -16.323  0.00  0.00    -0.350 OA
ATOM     21  C   UNL d   1      12.287   0.980 -17.548  0.00  0.00     0.174 C 
ENDBRANCH   6  20
BRANCH   4  22
ATOM     22  C   UNL d   1       9.877   4.376 -13.055  0.00  0.00     0.253 C 
BRANCH  22  23
ATOM     23  C   UNL d   1       9.300   5.765 -12.736  0.00  0.00     0.068 C 
BRANCH  23  24
ATOM     24  C   UNL d   1       9.194   6.028 -11.238  0.00  0.00     0.151 C 
BRANCH  24  25
ATOM     25  O   UNL d   1      10.250   6.859 -10.794  0.00  0.00    -0.331 OA
BRANCH  25  26
ATOM     26  C   UNL d   1      10.317   7.133  -9.444  0.00  0.00     0.094 A 
ATOM     27  C   UNL d   1      11.362   7.965  -8.998  0.00  0.00     0.026 A 
ATOM     28  C   UNL d   1      11.493   8.273  -7.625  0.00  0.00     0.032 A 
ATOM     29  C   UNL d   1      10.577   7.745  -6.693  0.00  0.00     0.140 A 
ATOM     30  C   UNL d   1       9.532   6.920  -7.128  0.00  0.00     0.032 A 
ATOM     31  F   UNL d   1      10.708   8.044  -5.378  0.00  0.00    -0.204 F 
ATOM     32  C   UNL d   1       9.398   6.610  -8.497  0.00  0.00     0.026 A 
ENDBRANCH  25  26
ENDBRANCH  24  25
ENDBRANCH  23  24
ENDBRANCH  22  23
ENDBRANCH   4  22
TORSDOF 9
