REMARK  8 active torsions:
REMARK  status: ('A' for Active; 'I' for Inactive)
REMARK    1  A    between atoms: C_2  and  C_5 
REMARK    2  A    between atoms: C_9  and  N_10 
REMARK    3  A    between atoms: N_13  and  C_14 
REMARK    4  A    between atoms: C_14  and  C_15 
REMARK    5  A    between atoms: C_15  and  C_16 
REMARK    6  A    between atoms: C_16  and  C_17 
REMARK    7  A    between atoms: C_17  and  N_18 
REMARK    8  A    between atoms: N_18  and  C_19 
ROOT
ATOM      1  N   UNL d   1       6.950   0.579 -15.414  0.00  0.00    -0.344 N 
ATOM      2  C   UNL d   1       6.323   1.120 -14.219  0.00  0.00     0.137 C 
ATOM      3  C   UNL d   1       6.653   2.601 -14.074  0.00  0.00     0.274 C 
ATOM      4  N   UNL d   1       8.109   2.803 -14.057  0.00  0.00     0.141 N 
ATOM      5  C   UNL d   1       8.696   2.311 -15.300  0.00  0.00     0.274 C 
ATOM      6  C   UNL d   1       8.393   0.811 -15.501  0.00  0.00     0.137 C 
ENDROOT
BRANCH   4   7
ATOM      7  C   UNL d   1       8.460   4.211 -13.866  0.00  0.00     0.251 C 
BRANCH   7   8
ATOM      8  C   UNL d   1       7.892   4.827 -12.574  0.00  0.00     0.037 C 
BRANCH   8   9
ATOM      9  C   UNL d   1       8.948   4.736 -11.468  0.00  0.00     0.028 C 
BRANCH   9  10
ATOM     10  C   UNL d   1       8.289   5.027 -10.099  0.00  0.00     0.127 C 
BRANCH  10  11
ATOM     11  N   UNL d   1       9.210   5.428  -9.056  0.00  0.00    -0.253 NA
BRANCH  11  12
ATOM     12  C   UNL d   1       9.752   6.721  -9.050  0.00  0.00     0.158 A 
ATOM     13  C   UNL d   1      10.300   7.316  -7.904  0.00  0.00     0.035 A 
ATOM     14  C   UNL d   1      11.024   8.533  -8.027  0.00  0.00     0.004 A 
ATOM     15  C   UNL d   1      10.197   6.754  -6.631  0.00  0.00     0.003 A 
ATOM     16  C   UNL d   1      11.153   9.090  -9.303  0.00  0.00     0.021 A 
ATOM     17  C   UNL d   1      11.618   9.152  -6.901  0.00  0.00     0.000 A 
ATOM     18  C   UNL d   1      10.511   8.466 -10.370  0.00  0.00     0.101 A 
ATOM     19  N   UNL d   1       9.838   7.310 -10.255  0.00  0.00    -0.226 NA
ATOM     20  C   UNL d   1      11.473   8.564  -5.617  0.00  0.00     0.000 A 
ATOM     21  C   UNL d   1      10.779   7.329  -5.485  0.00  0.00     0.000 A 
ENDBRANCH  11  12
ENDBRANCH  10  11
ENDBRANCH   9  10
ENDBRANCH   8   9
ENDBRANCH   7   8
ENDBRANCH   4   7
BRANCH   1  22
ATOM     22  C   UNL d   1       6.196  -0.085 -16.382  0.00  0.00     0.056 A 
ATOM     23  C   UNL d   1       5.036  -0.821 -16.020  0.00  0.00     0.017 A 
ATOM     24  C   UNL d   1       4.282  -1.498 -16.995  0.00  0.00     0.001 A 
ATOM     25  C   UNL d   1       4.675  -1.457 -18.344  0.00  0.00     0.004 A 
ATOM     26  C   UNL d   1       5.830  -0.742 -18.726  0.00  0.00     0.073 A 
ATOM     27  C   UNL d   1       6.566  -0.044 -17.749  0.00  0.00     0.021 A 
BRANCH  26  28
ATOM     28  C   UNL d   1       6.286  -0.697 -20.175  0.00  0.00     0.419 C 
ATOM     29  F   UNL d   1       5.946   0.487 -20.677  0.00  0.00    -0.166 F 
ATOM     30  F   UNL d   1       5.733  -1.659 -20.912  0.00  0.00    -0.166 F 
ATOM     31  F   UNL d   1       7.612  -0.831 -20.244  0.00  0.00    -0.166 F 
ENDBRANCH  26  28
ENDBRANCH   1  22
TORSDOF 8
