REMARK  1 active torsions:
REMARK  status: ('A' for Active; 'I' for Inactive)
REMARK    1  A    between atoms: C_5  and  C_6 
ROOT
ATOM      1  C   UNL d   1       9.723   8.397 -10.848  0.00  0.00     0.041 C 
ATOM      2  C   UNL d   1      10.341   8.646  -9.471  0.00  0.00     0.286 C 
ATOM      3  C   UNL d   1       9.278   8.671  -8.365  0.00  0.00     0.179 C 
ATOM      4  O   UNL d   1       9.869   8.854  -7.095  0.00  0.00    -0.348 OA
ATOM      5  C   UNL d   1      10.743   7.781  -6.780  0.00  0.00     0.175 C 
ATOM      6  C   UNL d   1      11.861   7.746  -7.840  0.00  0.00     0.324 C 
ATOM      7  N   UNL d   1      11.318   7.607  -9.186  0.00  0.00     0.343 N 
ENDROOT
BRANCH   5   8
ATOM      8  C   UNL d   1      11.306   7.977  -5.395  0.00  0.00     0.026 A 
ATOM      9  C   UNL d   1      11.703   9.259  -4.970  0.00  0.00     0.099 A 
ATOM     10  N   UNL d   1      12.193   9.511  -3.744  0.00  0.00    -0.224 NA
ATOM     11  C   UNL d   1      12.311   8.477  -2.893  0.00  0.00     0.184 A 
ATOM     12  C   UNL d   1      11.970   7.152  -3.215  0.00  0.00     0.040 A 
ATOM     13  N   UNL d   1      12.806   8.783  -1.645  0.00  0.00    -0.127 N 
ATOM     14  C   UNL d   1      11.461   6.898  -4.501  0.00  0.00     0.003 A 
ENDBRANCH   5   8
TORSDOF 1
