REMARK  8 active torsions:
REMARK  status: ('A' for Active; 'I' for Inactive)
REMARK    1  A    between atoms: C_2  and  C_3 
REMARK    2  A    between atoms: C_7  and  N_8 
REMARK    3  A    between atoms: N_11  and  C_12 
REMARK    4  A    between atoms: C_12  and  C_13 
REMARK    5  A    between atoms: C_13  and  C_15 
REMARK    6  A    between atoms: C_15  and  C_16 
REMARK    7  A    between atoms: C_16  and  N_17 
REMARK       I    between atoms: N_17  and  C_18 
REMARK    8  A    between atoms: C_18  and  C_20 
ROOT
ATOM      1  C   UNL d   1       8.579   6.449 -12.610  0.00  0.00     0.283 C 
ENDROOT
BRANCH   1   2
ATOM      2  N   UNL d   1       9.444   5.295 -12.908  0.00  0.00     0.144 N 
ATOM      3  C   UNL d   1       8.660   4.059 -12.938  0.00  0.00     0.274 C 
ATOM      4  C   UNL d   1       9.559   2.848 -13.239  0.00  0.00     0.137 C 
ATOM      5  N   UNL d   1      10.296   3.029 -14.476  0.00  0.00    -0.344 N 
ATOM      6  C   UNL d   1      11.050   4.269 -14.560  0.00  0.00     0.137 C 
ATOM      7  C   UNL d   1      10.115   5.438 -14.203  0.00  0.00     0.274 C 
BRANCH   5   8
ATOM      8  C   UNL d   1      10.223   2.110 -15.537  0.00  0.00     0.067 A 
ATOM      9  C   UNL d   1      11.427   1.747 -16.175  0.00  0.00     0.018 A 
ATOM     10  C   UNL d   1      11.429   0.832 -17.245  0.00  0.00     0.001 A 
ATOM     11  C   UNL d   1      10.221   0.275 -17.691  0.00  0.00    -0.003 A 
ATOM     12  C   UNL d   1       9.007   0.624 -17.071  0.00  0.00    -0.010 A 
ATOM     13  C   UNL d   1       8.998   1.542 -15.992  0.00  0.00     0.069 A 
ATOM     14 CL   UNL d   1       7.452   1.983 -15.328  0.00  0.00    -0.081 Cl
BRANCH  12  15
ATOM     15  C   UNL d   1       7.705   0.037 -17.590  0.00  0.00     0.027 C 
ATOM     16  C   UNL d   1       6.949   1.017 -18.500  0.00  0.00     0.005 C 
ENDBRANCH  12  15
ENDBRANCH   5   8
ENDBRANCH   1   2
BRANCH   1  17
ATOM     17  C   UNL d   1       9.323   7.720 -12.146  0.00  0.00     0.188 C 
ATOM     18  O   UNL d   1       8.382   8.776 -12.038  0.00  0.00    -0.221 OA
BRANCH  17  19
ATOM     19  C   UNL d   1       9.885   7.523 -10.734  0.00  0.00     0.061 C 
BRANCH  19  20
ATOM     20  C   UNL d   1      10.896   8.573 -10.252  0.00  0.00     0.132 C 
BRANCH  20  21
ATOM     21  N   UNL d   1      11.064   8.620  -8.802  0.00  0.00    -0.233 NA
ATOM     22  C   UNL d   1      10.818   7.661  -7.897  0.00  0.00     0.293 C 
ATOM     23  O   UNL d   1      10.397   6.533  -8.156  0.00  0.00    -0.264 OA
BRANCH  22  24
ATOM     24  C   UNL d   1      11.176   7.997  -6.524  0.00  0.00     0.139 A 
ATOM     25  N   UNL d   1      11.455   6.932  -5.697  0.00  0.00    -0.241 NA
ATOM     26  C   UNL d   1      11.754   7.366  -4.435  0.00  0.00     0.082 A 
ATOM     27  C   UNL d   1      11.626   8.788  -4.481  0.00  0.00     0.019 A 
ATOM     28  C   UNL d   1      12.117   6.675  -3.280  0.00  0.00     0.019 A 
ATOM     29  C   UNL d   1      11.253   9.168  -5.812  0.00  0.00     0.025 A 
ATOM     30  C   UNL d   1      11.871   9.487  -3.282  0.00  0.00     0.002 A 
ATOM     31  C   UNL d   1      12.258   8.804  -2.122  0.00  0.00     0.000 A 
ATOM     32  C   UNL d   1      12.370   7.403  -2.117  0.00  0.00     0.002 A 
ENDBRANCH  22  24
ENDBRANCH  20  21
ENDBRANCH  19  20
ENDBRANCH  17  19
ENDBRANCH   1  17
TORSDOF 8
