REMARK  1 active torsions:
REMARK  status: ('A' for Active; 'I' for Inactive)
REMARK    1  A    between atoms: C_6  and  C_7 
ROOT
ATOM      1  O   UNL d   1      11.118  10.406  -5.493  0.00  0.00    -0.264 OA
ATOM      2  C   UNL d   1      11.332   9.278  -5.055  0.00  0.00     0.276 C 
ATOM      3  O   UNL d   1      12.140   8.968  -4.042  0.00  0.00    -0.301 OA
ATOM      4  C   UNL d   1      12.092   7.598  -3.690  0.00  0.00     0.153 C 
ATOM      5  C   UNL d   1      11.465   6.904  -4.903  0.00  0.00     0.047 C 
ATOM      6  C   UNL d   1      10.688   8.008  -5.605  0.00  0.00     0.111 C 
ENDROOT
BRANCH   6   7
ATOM      7  C   UNL d   1      10.696   7.890  -7.125  0.00  0.00    -0.013 A 
ATOM      8  C   UNL d   1       9.578   7.324  -7.774  0.00  0.00    -0.004 A 
ATOM      9  C   UNL d   1       9.566   7.195  -9.175  0.00  0.00    -0.000 A 
ATOM     10  C   UNL d   1      10.656   7.658  -9.937  0.00  0.00    -0.000 A 
ATOM     11  C   UNL d   1      11.774   8.222  -9.296  0.00  0.00    -0.000 A 
ATOM     12  C   UNL d   1      11.798   8.330  -7.893  0.00  0.00    -0.004 A 
ENDBRANCH   6   7
TORSDOF 1
