REMARK  5 active torsions:
REMARK  status: ('A' for Active; 'I' for Inactive)
REMARK    1  A    between atoms: C_6  and  O_7 
REMARK    2  A    between atoms: O_7  and  C_8 
REMARK    3  A    between atoms: C_8  and  C_9 
REMARK    4  A    between atoms: N_12  and  C_13 
REMARK    5  A    between atoms: C_13  and  C_14 
ROOT
ATOM      1  N   UNL d   1      12.235   8.066  -2.576  0.00  0.00    -0.191 NA
ATOM      2  C   UNL d   1      11.889   8.069  -3.679  0.00  0.00     0.101 C 
ATOM      3  C   UNL d   1      11.456   8.072  -5.066  0.00  0.00     0.068 A 
ATOM      4  C   UNL d   1      11.450   9.268  -5.806  0.00  0.00     0.012 A 
ATOM      5  C   UNL d   1      11.057   9.241  -7.155  0.00  0.00     0.025 A 
ATOM      6  C   UNL d   1      10.683   8.046  -7.787  0.00  0.00     0.094 A 
ATOM      7  C   UNL d   1      10.652   6.851  -7.029  0.00  0.00     0.025 A 
ATOM      8  C   UNL d   1      11.056   6.868  -5.679  0.00  0.00     0.012 A 
ENDROOT
BRANCH   6   9
ATOM      9  O   UNL d   1      10.375   8.139  -9.121  0.00  0.00    -0.331 OA
BRANCH   9  10
ATOM     10  C   UNL d   1      10.484   6.972  -9.917  0.00  0.00     0.149 C 
BRANCH  10  11
ATOM     11  C   UNL d   1       9.118   6.480 -10.411  0.00  0.00     0.034 C 
ATOM     12  C   UNL d   1       8.676   7.204 -11.711  0.00  0.00     0.038 C 
ATOM     13  C   UNL d   1       7.354   6.638 -12.291  0.00  0.00     0.251 C 
ATOM     14  N   UNL d   1       7.513   5.221 -12.554  0.00  0.00     0.141 N 
ATOM     15  C   UNL d   1       7.814   4.586 -11.290  0.00  0.00     0.251 C 
ATOM     16  C   UNL d   1       9.143   4.988 -10.690  0.00  0.00     0.038 C 
BRANCH  14  17
ATOM     17  C   UNL d   1       6.255   4.665 -13.088  0.00  0.00     0.277 C 
BRANCH  17  18
ATOM     18  C   UNL d   1       6.316   3.197 -13.449  0.00  0.00     0.011 A 
ATOM     19  C   UNL d   1       5.413   2.302 -12.838  0.00  0.00    -0.000 A 
ATOM     20  C   UNL d   1       5.456   0.929 -13.148  0.00  0.00     0.029 A 
ATOM     21  C   UNL d   1       6.420   0.440 -14.050  0.00  0.00     0.140 A 
ATOM     22  C   UNL d   1       7.337   1.321 -14.652  0.00  0.00     0.029 A 
ATOM     23  F   UNL d   1       6.457  -0.884 -14.316  0.00  0.00    -0.204 F 
ATOM     24  C   UNL d   1       7.284   2.699 -14.350  0.00  0.00    -0.000 A 
ENDBRANCH  17  18
ENDBRANCH  14  17
ENDBRANCH  10  11
ENDBRANCH   9  10
ENDBRANCH   6   9
TORSDOF 5
