REMARK  5 active torsions:
REMARK  status: ('A' for Active; 'I' for Inactive)
REMARK    1  A    between atoms: C_5  and  N_6 
REMARK    2  A    between atoms: N_9  and  C_10 
REMARK    3  A    between atoms: C_10  and  C_11 
REMARK    4  A    between atoms: C_11  and  C_12 
REMARK    5  A    between atoms: C_12  and  C_13 
ROOT
ATOM      1  N   UNL d   1       7.739   5.513 -11.847  0.00  0.00    -0.344 N 
ATOM      2  C   UNL d   1       7.891   5.381 -10.409  0.00  0.00     0.137 C 
ATOM      3  C   UNL d   1       9.300   5.836  -9.983  0.00  0.00     0.274 C 
ATOM      4  N   UNL d   1       9.575   7.210 -10.442  0.00  0.00     0.141 N 
ATOM      5  C   UNL d   1       9.457   7.272 -11.903  0.00  0.00     0.274 C 
ATOM      6  C   UNL d   1       8.053   6.831 -12.378  0.00  0.00     0.137 C 
ENDROOT
BRANCH   4   7
ATOM      7  C   UNL d   1      10.911   7.645 -10.027  0.00  0.00     0.251 C 
BRANCH   7   8
ATOM      8  C   UNL d   1      10.838   8.504  -8.762  0.00  0.00     0.040 C 
BRANCH   8   9
ATOM      9  C   UNL d   1      10.718   7.698  -7.454  0.00  0.00     0.030 C 
BRANCH   9  10
ATOM     10  C   UNL d   1      10.962   8.523  -6.230  0.00  0.00    -0.002 A 
ATOM     11  C   UNL d   1      11.443   8.068  -4.952  0.00  0.00     0.015 A 
ATOM     12  C   UNL d   1      11.507   9.195  -4.081  0.00  0.00     0.081 A 
ATOM     13  C   UNL d   1      11.824   6.815  -4.428  0.00  0.00     0.001 A 
ATOM     14  N   UNL d   1      11.064  10.264  -4.822  0.00  0.00    -0.244 NA
ATOM     15  C   UNL d   1      11.943   9.081  -2.751  0.00  0.00     0.019 A 
ATOM     16  C   UNL d   1      10.772   9.865  -6.102  0.00  0.00     0.095 A 
ATOM     17  C   UNL d   1      12.321   7.822  -2.256  0.00  0.00     0.002 A 
ATOM     18  C   UNL d   1      12.258   6.691  -3.093  0.00  0.00     0.000 A 
ENDBRANCH   9  10
ENDBRANCH   8   9
ENDBRANCH   7   8
ENDBRANCH   4   7
BRANCH   1  19
ATOM     19  C   UNL d   1       7.358   4.424 -12.647  0.00  0.00     0.054 A 
ATOM     20  C   UNL d   1       8.226   3.898 -13.641  0.00  0.00     0.016 A 
ATOM     21  C   UNL d   1       7.823   2.788 -14.428  0.00  0.00     0.091 A 
ATOM     22  C   UNL d   1       9.617   4.484 -13.832  0.00  0.00     0.032 C 
ATOM     23  C   UNL d   1       6.571   2.197 -14.188  0.00  0.00     0.024 A 
ATOM     24  O   UNL d   1       8.630   2.236 -15.402  0.00  0.00    -0.331 OA
ATOM     25  C   UNL d   1       5.716   2.707 -13.194  0.00  0.00     0.004 A 
ATOM     26  C   UNL d   1       6.104   3.817 -12.424  0.00  0.00     0.017 A 
ATOM     27  C   UNL d   1       9.726   3.035 -15.852  0.00  0.00     0.149 C 
ATOM     28  C   UNL d   1      10.519   3.597 -14.670  0.00  0.00     0.037 C 
ENDBRANCH   1  19
TORSDOF 5
