REMARK  6 active torsions:
REMARK  status: ('A' for Active; 'I' for Inactive)
REMARK    1  A    between atoms: C_2  and  C_3 
REMARK    2  A    between atoms: C_2  and  C_9 
REMARK    3  A    between atoms: C_14  and  O_15 
REMARK    4  A    between atoms: O_15  and  C_16 
REMARK    5  A    between atoms: C_16  and  C_17 
REMARK    6  A    between atoms: C_17  and  N_18 
ROOT
ATOM      1  C   UNL d   1       9.713   6.523  -9.682  0.00  0.00     0.034 A 
ATOM      2  C   UNL d   1       9.470   7.396 -10.767  0.00  0.00     0.001 A 
ATOM      3  C   UNL d   1       9.930   8.701 -10.743  0.00  0.00    -0.000 A 
ATOM      4  C   UNL d   1      10.654   9.188  -9.644  0.00  0.00     0.002 A 
ATOM      5  C   UNL d   1      10.885   8.352  -8.545  0.00  0.00     0.024 A 
ATOM      6  C   UNL d   1      10.440   6.996  -8.561  0.00  0.00     0.093 A 
ENDROOT
BRANCH   1   7
ATOM      7  C   UNL d   1       9.199   5.092  -9.743  0.00  0.00     0.199 C 
ATOM      8  O   UNL d   1       8.288   4.803  -8.705  0.00  0.00    -0.214 OA
BRANCH   7   9
ATOM      9  C   UNL d   1       8.648   4.728 -11.123  0.00  0.00     0.012 A 
ATOM     10  C   UNL d   1       9.446   3.998 -12.029  0.00  0.00    -0.002 A 
ATOM     11  C   UNL d   1       8.961   3.647 -13.298  0.00  0.00    -0.000 A 
ATOM     12  C   UNL d   1       7.653   4.010 -13.664  0.00  0.00    -0.000 A 
ATOM     13  C   UNL d   1       6.848   4.752 -12.781  0.00  0.00    -0.000 A 
ATOM     14  C   UNL d   1       7.345   5.109 -11.514  0.00  0.00    -0.002 A 
ENDBRANCH   7   9
ENDBRANCH   1   7
BRANCH   6  15
ATOM     15  O   UNL d   1      10.678   6.083  -7.547  0.00  0.00    -0.329 OA
BRANCH  15  16
ATOM     16  C   UNL d   1      11.671   6.395  -6.579  0.00  0.00     0.184 C 
BRANCH  16  17
ATOM     17  C   UNL d   1      11.058   6.564  -5.173  0.00  0.00     0.283 C 
BRANCH  17  18
ATOM     18  N   UNL d   1      11.875   7.468  -4.362  0.00  0.00     0.140 N 
ATOM     19  C   UNL d   1      11.471   8.862  -4.511  0.00  0.00     0.250 C 
ATOM     20  C   UNL d   1      12.125   9.557  -3.320  0.00  0.00     0.037 C 
ATOM     21  C   UNL d   1      12.355   8.454  -2.288  0.00  0.00     0.037 C 
ATOM     22  C   UNL d   1      11.808   7.177  -2.935  0.00  0.00     0.250 C 
ENDBRANCH  17  18
ENDBRANCH  16  17
ENDBRANCH  15  16
ENDBRANCH   6  15
TORSDOF 6
