REMARK  10 active torsions:
REMARK  status: ('A' for Active; 'I' for Inactive)
REMARK    1  A    between atoms: C_6  and  C_7 
REMARK    2  A    between atoms: C_7  and  N_8 
REMARK       I    between atoms: N_8  and  C_9 
REMARK    3  A    between atoms: C_9  and  C_11 
REMARK    4  A    between atoms: C_11  and  C_12 
REMARK    5  A    between atoms: C_12  and  O_13 
REMARK    6  A    between atoms: O_13  and  C_14 
REMARK    7  A    between atoms: C_14  and  C_15 
REMARK    8  A    between atoms: C_15  and  N_16 
REMARK    9  A    between atoms: N_19  and  C_20 
REMARK   10  A    between atoms: C_25  and  C_26 
ROOT
ATOM      1  N   UNL d   1      10.971  10.675  -4.837  0.00  0.00    -0.191 NA
ATOM      2  C   UNL d   1      10.769   9.729  -5.446  0.00  0.00     0.101 C 
ATOM      3  C   UNL d   1      10.508   8.540  -6.211  0.00  0.00     0.068 A 
ATOM      4  C   UNL d   1       9.370   8.460  -7.030  0.00  0.00     0.010 A 
ATOM      5  C   UNL d   1       9.115   7.299  -7.753  0.00  0.00    -0.002 A 
ATOM      6  C   UNL d   1      10.003   6.214  -7.704  0.00  0.00     0.002 A 
ATOM      7  C   UNL d   1      11.159   6.319  -6.894  0.00  0.00    -0.002 A 
ATOM      8  C   UNL d   1      11.396   7.461  -6.117  0.00  0.00     0.010 A 
ENDROOT
BRANCH   6   9
ATOM      9  C   UNL d   1       9.706   4.957  -8.516  0.00  0.00     0.155 C 
BRANCH   9  10
ATOM     10  N   UNL d   1       8.836   5.134  -9.668  0.00  0.00    -0.233 NA
ATOM     11  C   UNL d   1       9.122   5.927 -10.702  0.00  0.00     0.254 C 
ATOM     12  O   UNL d   1      10.095   6.677 -10.718  0.00  0.00    -0.270 OA
BRANCH  11  13
ATOM     13  C   UNL d   1       8.182   5.851 -11.894  0.00  0.00     0.122 C 
BRANCH  13  14
ATOM     14  C   UNL d   1       8.957   5.983 -13.208  0.00  0.00     0.152 C 
BRANCH  14  15
ATOM     15  O   UNL d   1       9.794   4.853 -13.399  0.00  0.00    -0.352 OA
BRANCH  15  16
ATOM     16  C   UNL d   1      10.538   4.911 -14.606  0.00  0.00     0.178 C 
BRANCH  16  17
ATOM     17  C   UNL d   1      10.958   3.488 -14.989  0.00  0.00     0.282 C 
BRANCH  17  18
ATOM     18  N   UNL d   1       9.851   2.565 -15.198  0.00  0.00     0.144 N 
ATOM     19  C   UNL d   1      10.359   1.200 -15.328  0.00  0.00     0.274 C 
ATOM     20  C   UNL d   1       9.216   0.212 -15.475  0.00  0.00     0.138 C 
ATOM     21  N   UNL d   1       8.319   0.587 -16.567  0.00  0.00    -0.330 N 
ATOM     22  C   UNL d   1       7.845   1.959 -16.578  0.00  0.00     0.138 C 
ATOM     23  C   UNL d   1       9.050   2.902 -16.383  0.00  0.00     0.274 C 
BRANCH  21  24
ATOM     24  C   UNL d   1       7.929  -0.314 -17.575  0.00  0.00     0.140 A 
ATOM     25  C   UNL d   1       6.674  -0.985 -17.549  0.00  0.00     0.034 A 
ATOM     26  C   UNL d   1       6.428  -1.882 -18.634  0.00  0.00     0.005 A 
ATOM     27  C   UNL d   1       7.375  -2.036 -19.649  0.00  0.00     0.021 A 
ATOM     28  C   UNL d   1       8.568  -1.315 -19.578  0.00  0.00     0.101 A 
ATOM     29  N   UNL d   1       8.849  -0.476 -18.553  0.00  0.00    -0.227 NA
BRANCH  25  30
ATOM     30  C   UNL d   1       5.673  -0.885 -16.442  0.00  0.00     0.003 C 
ATOM     31  C   UNL d   1       4.276  -1.089 -16.689  0.00  0.00     0.000 C 
ATOM     32  C   UNL d   1       3.335  -1.016 -15.626  0.00  0.00     0.000 C 
ATOM     33  C   UNL d   1       3.748  -0.675 -14.319  0.00  0.00     0.000 C 
ATOM     34  C   UNL d   1       5.131  -0.497 -14.072  0.00  0.00     0.000 C 
ATOM     35  C   UNL d   1       6.067  -0.673 -15.096  0.00  0.00     0.000 C 
ENDBRANCH  25  30
ENDBRANCH  21  24
ENDBRANCH  17  18
ENDBRANCH  16  17
ENDBRANCH  15  16
ENDBRANCH  14  15
ENDBRANCH  13  14
ENDBRANCH  11  13
ENDBRANCH   9  10
ENDBRANCH   6   9
TORSDOF 10
