REMARK  6 active torsions:
REMARK  status: ('A' for Active; 'I' for Inactive)
REMARK    1  A    between atoms: C_2  and  C_3 
REMARK    2  A    between atoms: C_5  and  O_6 
REMARK    3  A    between atoms: O_6  and  C_7 
REMARK    4  A    between atoms: C_13  and  O_14 
REMARK    5  A    between atoms: O_14  and  C_15 
REMARK    6  A    between atoms: C_17  and  C_18 
ROOT
ATOM      1  C   UNL d   1       7.804   0.750 -17.070  0.00  0.00     0.188 C 
ATOM      2  C   UNL d   1       9.124   0.280 -17.728  0.00  0.00     0.334 C 
ATOM      3  N   UNL d   1       8.862  -0.315 -19.049  0.00  0.00     0.619 N 
ATOM      4  C   UNL d   1      10.085   1.451 -17.881  0.00  0.00     0.083 C 
ATOM      5  C   UNL d   1      10.395   2.163 -16.558  0.00  0.00     0.334 C 
ATOM      6  N   UNL d   1      11.327   3.282 -16.805  0.00  0.00     0.619 N 
ATOM      7  C   UNL d   1       9.089   2.644 -15.904  0.00  0.00     0.188 C 
ATOM      8  C   UNL d   1       8.090   1.473 -15.730  0.00  0.00     0.210 C 
ATOM      9  O   UNL d   1       6.860   2.005 -15.335  0.00  0.00    -0.218 OA
ENDROOT
BRANCH   1  10
ATOM     10  O   UNL d   1       7.022  -0.433 -16.881  0.00  0.00    -0.327 OA
BRANCH  10  11
ATOM     11  C   UNL d   1       5.612  -0.322 -16.860  0.00  0.00     0.270 C 
ATOM     12  O   UNL d   1       5.081   0.277 -18.018  0.00  0.00    -0.327 OA
ATOM     13  C   UNL d   1       5.452  -0.372 -19.238  0.00  0.00     0.190 C 
ATOM     14  C   UNL d   1       4.863  -1.801 -19.256  0.00  0.00     0.214 C 
ATOM     15  C   UNL d   1       5.350  -2.558 -17.998  0.00  0.00     0.220 C 
ATOM     16  O   UNL d   1       5.356  -2.481 -20.404  0.00  0.00    -0.218 OA
ATOM     17  C   UNL d   1       5.007  -1.733 -16.741  0.00  0.00     0.241 C 
ATOM     18  O   UNL d   1       4.673  -3.804 -17.958  0.00  0.00    -0.218 OA
ATOM     19  O   UNL d   1       5.434  -2.353 -15.546  0.00  0.00    -0.215 OA
BRANCH  13  20
ATOM     20  C   UNL d   1       5.029   0.502 -20.438  0.00  0.00     0.370 C 
ATOM     21  N   UNL d   1       5.848   0.213 -21.626  0.00  0.00     0.621 N 
ENDBRANCH  13  20
ENDBRANCH  10  11
ENDBRANCH   1  10
BRANCH   7  22
ATOM     22  O   UNL d   1       9.413   3.144 -14.605  0.00  0.00    -0.327 OA
BRANCH  22  23
ATOM     23  C   UNL d   1       9.239   4.528 -14.450  0.00  0.00     0.269 C 
ATOM     24  C   UNL d   1       9.936   5.005 -13.169  0.00  0.00     0.248 C 
ATOM     25  C   UNL d   1       9.270   4.373 -11.936  0.00  0.00     0.369 C 
ATOM     26  O   UNL d   1      11.286   4.663 -13.299  0.00  0.00    -0.216 OA
ATOM     27  C   UNL d   1       7.790   4.739 -11.966  0.00  0.00     0.221 C 
ATOM     28  N   UNL d   1       9.776   4.912 -10.657  0.00  0.00     0.622 N 
ATOM     29  C   UNL d   1       7.181   4.322 -13.294  0.00  0.00     0.183 C 
ATOM     30  O   UNL d   1       7.052   3.991 -11.043  0.00  0.00    -0.218 OA
ATOM     31  O   UNL d   1       7.906   4.893 -14.362  0.00  0.00    -0.326 OA
BRANCH  29  32
ATOM     32  C   UNL d   1       5.682   4.715 -13.392  0.00  0.00     0.214 C 
ATOM     33  O   UNL d   1       5.472   5.967 -12.791  0.00  0.00    -0.218 OA
ENDBRANCH  29  32
ENDBRANCH  22  23
ENDBRANCH   7  22
TORSDOF 6
