REMARK  5 active torsions:
REMARK  status: ('A' for Active; 'I' for Inactive)
REMARK    1  A    between atoms: C_2  and  C_3 
REMARK    2  A    between atoms: C_3  and  N_4 
REMARK    3  A    between atoms: C_8  and  C_9 
REMARK    4  A    between atoms: C_13  and  O_14 
REMARK    5  A    between atoms: O_14  and  S_15 
ROOT
ATOM      1  C   UNL d   1       6.643   2.247 -13.891  0.00  0.00    -0.018 A 
ATOM      2  C   UNL d   1       5.740   1.184 -13.655  0.00  0.00    -0.004 A 
ATOM      3  C   UNL d   1       5.707   0.072 -14.522  0.00  0.00     0.002 A 
ATOM      4  C   UNL d   1       6.595  -0.004 -15.613  0.00  0.00     0.026 A 
ATOM      5  C   UNL d   1       7.516   1.042 -15.835  0.00  0.00     0.113 A 
ATOM      6  C   UNL d   1       7.527   2.164 -14.989  0.00  0.00     0.021 A 
ENDROOT
BRANCH   1   7
ATOM      7  C   UNL d   1       6.681   3.440 -12.935  0.00  0.00     0.056 C 
ATOM      8  C   UNL d   1       5.715   4.527 -13.398  0.00  0.00     0.008 C 
ATOM      9  C   UNL d   1       5.859   5.772 -12.511  0.00  0.00     0.036 C 
ATOM     10  C   UNL d   1       7.323   6.221 -12.403  0.00  0.00     0.250 C 
ATOM     11  N   UNL d   1       8.143   5.141 -11.856  0.00  0.00     0.137 N 
ATOM     12  C   UNL d   1       8.118   4.006 -12.777  0.00  0.00     0.255 C 
BRANCH  11  13
ATOM     13  C   UNL d   1       9.528   5.589 -11.709  0.00  0.00     0.250 C 
BRANCH  13  14
ATOM     14  C   UNL d   1       9.719   6.474 -10.468  0.00  0.00     0.035 C 
ATOM     15  C   UNL d   1       9.454   5.711  -9.166  0.00  0.00     0.002 C 
ENDBRANCH  13  14
ENDBRANCH  11  13
ENDBRANCH   1   7
BRANCH   5  16
ATOM     16  O   UNL d   1       8.403   0.995 -16.873  0.00  0.00    -0.230 OA
BRANCH  16  17
ATOM     17  S   UNL d   1       9.890   0.251 -16.574  0.00  0.00     0.285 S 
ATOM     18  C   UNL d   1      10.972   1.394 -17.513  0.00  0.00     0.172 C 
ATOM     19  O   UNL d   1      10.213   0.382 -15.145  0.00  0.00    -0.197 OA
ATOM     20  O   UNL d   1       9.875  -1.060 -17.238  0.00  0.00    -0.197 OA
ENDBRANCH  16  17
ENDBRANCH   5  16
TORSDOF 5
