REMARK  6 active torsions:
REMARK  status: ('A' for Active; 'I' for Inactive)
REMARK       I    between atoms: C_2  and  N_3 
REMARK    1  A    between atoms: C_2  and  C_30 
REMARK    2  A    between atoms: N_3  and  C_4 
REMARK    3  A    between atoms: C_10  and  C_11 
REMARK    4  A    between atoms: C_11  and  C_12 
REMARK    5  A    between atoms: C_12  and  N_13 
REMARK    6  A    between atoms: N_16  and  C_17 
ROOT
ATOM      1  C   UNL d   1       7.111   5.470 -12.626  0.00  0.00     0.129 C 
ATOM      2  C   UNL d   1       5.587   5.320 -12.471  0.00  0.00     0.034 C 
ATOM      3  C   UNL d   1       5.234   3.855 -12.809  0.00  0.00     0.028 C 
ATOM      4  C   UNL d   1       6.466   3.319 -13.479  0.00  0.00    -0.024 A 
ATOM      5  C   UNL d   1       6.633   2.058 -14.086  0.00  0.00    -0.005 A 
ATOM      6  C   UNL d   1       7.906   1.733 -14.614  0.00  0.00    -0.005 A 
ATOM      7  C   UNL d   1       8.968   2.675 -14.559  0.00  0.00    -0.020 A 
ATOM      8  C   UNL d   1       8.753   3.949 -13.986  0.00  0.00    -0.007 A 
ATOM      9  C   UNL d   1       7.519   4.227 -13.398  0.00  0.00    -0.004 A 
ENDROOT
BRANCH   7  10
ATOM     10  C   UNL d   1      10.343   2.346 -15.107  0.00  0.00     0.062 C 
BRANCH  10  11
ATOM     11  C   UNL d   1      10.418   2.637 -16.610  0.00  0.00     0.255 C 
BRANCH  11  12
ATOM     12  N   UNL d   1      10.456   4.084 -16.859  0.00  0.00     0.141 N 
ATOM     13  C   UNL d   1      11.853   4.484 -16.976  0.00  0.00     0.274 C 
ATOM     14  C   UNL d   1      11.979   5.985 -17.237  0.00  0.00     0.138 C 
ATOM     15  N   UNL d   1      11.224   6.389 -18.425  0.00  0.00    -0.329 N 
ATOM     16  C   UNL d   1       9.830   5.920 -18.393  0.00  0.00     0.138 C 
ATOM     17  C   UNL d   1       9.775   4.404 -18.116  0.00  0.00     0.274 C 
BRANCH  15  18
ATOM     18  C   UNL d   1      11.766   7.118 -19.484  0.00  0.00     0.148 A 
ATOM     19  C   UNL d   1      12.945   7.993 -19.374  0.00  0.00     0.042 A 
ATOM     20  C   UNL d   1      13.238   8.562 -20.649  0.00  0.00     0.050 A 
ATOM     21  C   UNL d   1      13.790   8.387 -18.303  0.00  0.00     0.004 A 
ATOM     22  S   UNL d   1      12.034   7.998 -21.789  0.00  0.00     0.015 SA
ATOM     23  C   UNL d   1      14.322   9.439 -20.862  0.00  0.00     0.008 A 
ATOM     24  N   UNL d   1      11.206   7.054 -20.683  0.00  0.00    -0.192 NA
ATOM     25  C   UNL d   1      15.160   9.773 -19.781  0.00  0.00     0.001 A 
ATOM     26  C   UNL d   1      14.890   9.244 -18.509  0.00  0.00     0.000 A 
ENDBRANCH  15  18
ENDBRANCH  11  12
ENDBRANCH  10  11
ENDBRANCH   7  10
BRANCH   1  27
ATOM     27  N   UNL d   1       7.726   5.584 -11.307  0.00  0.00    -0.232 NA
ATOM     28  C   UNL d   1       9.027   5.844 -11.124  0.00  0.00     0.275 C 
ATOM     29  O   UNL d   1       9.839   5.821 -12.057  0.00  0.00    -0.266 OA
BRANCH  28  30
ATOM     30  C   UNL d   1       9.448   6.288  -9.756  0.00  0.00     0.058 A 
ATOM     31  C   UNL d   1       8.731   5.900  -8.602  0.00  0.00     0.006 A 
ATOM     32  C   UNL d   1       9.098   6.393  -7.338  0.00  0.00     0.012 A 
ATOM     33  C   UNL d   1      10.216   7.246  -7.213  0.00  0.00     0.058 A 
ATOM     34  C   UNL d   1      10.957   7.622  -8.352  0.00  0.00     0.012 A 
ATOM     35 CL   UNL d   1      10.695   7.832  -5.661  0.00  0.00    -0.082 Cl
ATOM     36  C   UNL d   1      10.565   7.143  -9.615  0.00  0.00     0.006 A 
ENDBRANCH  28  30
ENDBRANCH   1  27
TORSDOF 6
