REMARK  7 active torsions:
REMARK  status: ('A' for Active; 'I' for Inactive)
REMARK    1  A    between atoms: C_2  and  C_3 
REMARK    2  A    between atoms: C_3  and  C_4 
REMARK    3  A    between atoms: C_12  and  C_13 
REMARK    4  A    between atoms: C_15  and  S_16 
REMARK    5  A    between atoms: S_16  and  N_19 
REMARK    6  A    between atoms: C_28  and  O_29 
REMARK    7  A    between atoms: O_29  and  C_30 
ROOT
ATOM      1  C   UNL d   1       7.301   2.414 -14.359  0.00  0.00     0.059 A 
ATOM      2  C   UNL d   1       7.665   3.709 -13.898  0.00  0.00     0.018 A 
ATOM      3  C   UNL d   1       6.895   4.321 -12.901  0.00  0.00     0.104 A 
ATOM      4  C   UNL d   1       5.735   3.710 -12.403  0.00  0.00     0.015 A 
ATOM      5  C   UNL d   1       5.380   2.442 -12.851  0.00  0.00     0.025 A 
ATOM      6  C   UNL d   1       6.152   1.768 -13.815  0.00  0.00     0.097 A 
ENDROOT
BRANCH   1   7
ATOM      7  C   UNL d   1       8.163   1.767 -15.389  0.00  0.00     0.168 A 
ATOM      8  N   UNL d   1       9.532   2.123 -15.451  0.00  0.00    -0.188 NA
ATOM      9  C   UNL d   1      10.424   1.606 -16.324  0.00  0.00     0.299 A 
ATOM     10  C   UNL d   1       9.854   0.577 -17.205  0.00  0.00     0.154 A 
ATOM     11  O   UNL d   1      11.595   1.966 -16.376  0.00  0.00    -0.263 OA
ATOM     12  N   UNL d   1      10.412  -0.200 -18.192  0.00  0.00    -0.243 N 
ATOM     13  C   UNL d   1       8.545   0.271 -17.108  0.00  0.00     0.120 A 
ATOM     14  N   UNL d   1       9.461  -1.024 -18.719  0.00  0.00    -0.172 NA
ATOM     15  C   UNL d   1      11.769  -0.235 -18.688  0.00  0.00     0.154 C 
ATOM     16  C   UNL d   1       8.329  -0.763 -18.055  0.00  0.00     0.098 A 
ATOM     17  N   UNL d   1       7.664   0.881 -16.210  0.00  0.00    -0.224 NA
BRANCH  16  18
ATOM     18  C   UNL d   1       7.060  -1.511 -18.358  0.00  0.00     0.049 C 
BRANCH  18  19
ATOM     19  C   UNL d   1       6.183  -0.779 -19.383  0.00  0.00     0.006 C 
ATOM     20  C   UNL d   1       4.842  -1.484 -19.624  0.00  0.00     0.000 C 
ENDBRANCH  18  19
ENDBRANCH  16  18
ENDBRANCH   1   7
BRANCH   6  21
ATOM     21  O   UNL d   1       5.839   0.484 -14.211  0.00  0.00    -0.331 OA
BRANCH  21  22
ATOM     22  C   UNL d   1       4.552  -0.043 -13.930  0.00  0.00     0.149 C 
ATOM     23  C   UNL d   1       4.330  -1.220 -14.887  0.00  0.00     0.035 C 
ENDBRANCH  21  22
ENDBRANCH   6  21
BRANCH   3  24
ATOM     24  S   UNL d   1       7.259   5.916 -12.258  0.00  0.00     0.264 S 
ATOM     25  O   UNL d   1       7.879   6.735 -13.303  0.00  0.00    -0.200 OA
ATOM     26  O   UNL d   1       6.007   6.362 -11.621  0.00  0.00    -0.200 OA
BRANCH  24  27
ATOM     27  N   UNL d   1       8.551   5.692 -11.166  0.00  0.00    -0.270 N 
ATOM     28  C   UNL d   1       9.720   6.603 -11.132  0.00  0.00     0.148 C 
ATOM     29  C   UNL d   1       9.868   7.254  -9.754  0.00  0.00     0.275 C 
ATOM     30  N   UNL d   1       9.878   6.253  -8.694  0.00  0.00     0.143 N 
ATOM     31  C   UNL d   1       8.594   5.567  -8.738  0.00  0.00     0.275 C 
ATOM     32  C   UNL d   1      10.010   6.908  -7.406  0.00  0.00     0.286 C 
ATOM     33  C   UNL d   1       8.451   4.787 -10.042  0.00  0.00     0.148 C 
ENDBRANCH  24  27
ENDBRANCH   3  24
TORSDOF 7
