REMARK  2 active torsions:
REMARK  status: ('A' for Active; 'I' for Inactive)
REMARK    1  A    between atoms: N_2  and  C_4 
REMARK    2  A    between atoms: C_7  and  C_8 
ROOT
ATOM      1  C   UNL d   1      10.413   8.445  -8.245  0.00  0.00    -0.002 A 
ATOM      2  C   UNL d   1      10.926   9.114  -9.319  0.00  0.00     0.095 A 
ATOM      3  N   UNL d   1      10.787   8.331 -10.443  0.00  0.00    -0.244 NA
ATOM      4  C   UNL d   1      10.148   7.156 -10.138  0.00  0.00     0.081 A 
ATOM      5  C   UNL d   1       9.794   6.053 -10.938  0.00  0.00     0.021 A 
ATOM      6  C   UNL d   1       9.159   4.954 -10.345  0.00  0.00     0.031 A 
ATOM      7  C   UNL d   1       8.880   4.964  -8.969  0.00  0.00     0.140 A 
ATOM      8  F   UNL d   1       8.269   3.893  -8.435  0.00  0.00    -0.204 F 
ATOM      9  C   UNL d   1       9.235   6.074  -8.177  0.00  0.00     0.031 A 
ATOM     10  C   UNL d   1       9.890   7.199  -8.736  0.00  0.00     0.017 A 
ENDROOT
BRANCH   1  11
ATOM     11  C   UNL d   1      10.408   8.932  -6.832  0.00  0.00     0.026 C 
ATOM     12  C   UNL d   1      11.403  10.075  -6.564  0.00  0.00     0.006 C 
ATOM     13  C   UNL d   1      11.878   9.956  -5.128  0.00  0.00     0.034 C 
ATOM     14  C   UNL d   1      11.344   8.638  -4.592  0.00  0.00     0.220 C 
ATOM     15  C   UNL d   1      10.806   7.871  -5.814  0.00  0.00     0.038 C 
BRANCH  14  16
ATOM     16  N   UNL d   1      12.339   7.867  -3.842  0.00  0.00     0.139 N 
ATOM     17  C   UNL d   1      12.684   8.575  -2.625  0.00  0.00     0.285 C 
ATOM     18  C   UNL d   1      11.865   6.536  -3.485  0.00  0.00     0.285 C 
ENDBRANCH  14  16
ENDBRANCH   1  11
TORSDOF 2
