REMARK  2 active torsions:
REMARK  status: ('A' for Active; 'I' for Inactive)
REMARK    1  A    between atoms: N_5  and  C_6 
REMARK    2  A    between atoms: C_18  and  C_19 
ROOT
ATOM      1  C   UNL d   1       8.968   1.843 -16.164  0.00  0.00     0.246 C 
ATOM      2  C   UNL d   1       8.963   2.131 -14.640  0.00  0.00     0.065 C 
ATOM      3  C   UNL d   1       7.684   2.681 -14.078  0.00  0.00    -0.014 A 
ATOM      4  C   UNL d   1       7.601   4.024 -13.656  0.00  0.00    -0.004 A 
ATOM      5  C   UNL d   1       6.421   4.490 -13.044  0.00  0.00    -0.000 A 
ATOM      6  C   UNL d   1       5.347   3.600 -12.845  0.00  0.00     0.001 A 
ATOM      7  C   UNL d   1       5.446   2.254 -13.239  0.00  0.00     0.006 A 
ATOM      8  C   UNL d   1       6.613   1.800 -13.877  0.00  0.00     0.025 A 
ATOM      9  S   UNL d   1       6.770   0.123 -14.366  0.00  0.00    -0.087 SA
ATOM     10  C   UNL d   1       6.741   0.391 -16.106  0.00  0.00     0.027 A 
ATOM     11  C   UNL d   1       5.670  -0.193 -16.804  0.00  0.00     0.006 A 
ATOM     12  C   UNL d   1       5.529   0.005 -18.185  0.00  0.00     0.002 A 
ATOM     13  C   UNL d   1       6.444   0.816 -18.894  0.00  0.00     0.017 A 
ATOM     14  C   UNL d   1       7.483   1.445 -18.161  0.00  0.00    -0.000 A 
ATOM     15  C   UNL d   1       7.691   1.208 -16.785  0.00  0.00     0.015 A 
ENDROOT
BRANCH   1  16
ATOM     16  N   UNL d   1      10.197   1.130 -16.604  0.00  0.00     0.144 N 
ATOM     17  C   UNL d   1      10.529   1.313 -18.042  0.00  0.00     0.286 C 
ATOM     18  C   UNL d   1      10.997   2.779 -18.306  0.00  0.00     0.286 C 
ATOM     19  N   UNL d   1      12.165   3.144 -17.488  0.00  0.00     0.143 N 
ATOM     20  C   UNL d   1      12.585   4.518 -17.724  0.00  0.00     0.285 C 
ATOM     21  C   UNL d   1      11.862   2.925 -16.076  0.00  0.00     0.286 C 
ATOM     22  C   UNL d   1      11.413   1.473 -15.824  0.00  0.00     0.286 C 
ENDBRANCH   1  16
BRANCH  13  23
ATOM     23  C   UNL d   1       6.342   0.984 -20.363  0.00  0.00     0.081 A 
ATOM     24  N   UNL d   1       7.088   1.978 -20.901  0.00  0.00    -0.244 NA
ATOM     25  C   UNL d   1       7.031   2.210 -22.230  0.00  0.00     0.099 A 
ATOM     26  C   UNL d   1       6.220   1.459 -23.105  0.00  0.00     0.021 A 
ATOM     27  C   UNL d   1       5.462   0.405 -22.566  0.00  0.00     0.003 A 
ATOM     28  C   UNL d   1       5.529   0.155 -21.180  0.00  0.00     0.019 A 
ENDBRANCH  13  23
TORSDOF 2
