REMARK  5 active torsions:
REMARK  status: ('A' for Active; 'I' for Inactive)
REMARK    1  A    between atoms: C_2  and  C_4 
REMARK       I    between atoms: N_12  and  C_13 
REMARK    2  A    between atoms: C_13  and  C_15 
REMARK    3  A    between atoms: C_15  and  N_16 
REMARK    4  A    between atoms: N_19  and  C_20 
REMARK    5  A    between atoms: C_20  and  C_21 
ROOT
ATOM      1  C   UNL d   1       8.896   4.484 -13.410  0.00  0.00     0.337 C 
ENDROOT
BRANCH   1   2
ATOM      2  C   UNL d   1      10.155   4.144 -14.271  0.00  0.00     0.271 C 
ATOM      3  N   UNL d   1      10.083   3.151 -15.197  0.00  0.00    -0.299 N 
ATOM      4  C   UNL d   1       8.943   2.221 -15.357  0.00  0.00     0.092 C 
ATOM      5  C   UNL d   1      11.021   2.920 -16.239  0.00  0.00     0.058 A 
ATOM      6  C   UNL d   1       9.138   1.540 -16.734  0.00  0.00     0.051 C 
ATOM      7  C   UNL d   1      10.501   2.004 -17.146  0.00  0.00    -0.004 A 
ATOM      8  C   UNL d   1      11.218   1.597 -18.280  0.00  0.00    -0.003 A 
ATOM      9  C   UNL d   1      12.501   2.140 -18.493  0.00  0.00    -0.000 A 
ATOM     10  C   UNL d   1      13.042   3.065 -17.576  0.00  0.00     0.002 A 
ATOM     11  C   UNL d   1      12.311   3.460 -16.437  0.00  0.00     0.017 A 
ATOM     12  O   UNL d   1      11.191   4.790 -14.101  0.00  0.00    -0.270 OA
BRANCH   4  13
ATOM     13  C   UNL d   1       8.900   1.206 -14.195  0.00  0.00     0.021 C 
ATOM     14  C   UNL d   1      10.149   0.319 -14.181  0.00  0.00     0.002 C 
ATOM     15  C   UNL d   1       7.609   0.375 -14.204  0.00  0.00     0.002 C 
ENDBRANCH   4  13
ENDBRANCH   1   2
BRANCH   1  16
ATOM     16  N   UNL d   1       9.091   4.471 -11.957  0.00  0.00     0.151 N 
ATOM     17  C   UNL d   1       7.854   4.395 -11.200  0.00  0.00     0.286 C 
ATOM     18  C   UNL d   1       8.215   4.367  -9.676  0.00  0.00     0.286 C 
ATOM     19  N   UNL d   1       8.755   5.628  -9.252  0.00  0.00     0.146 N 
ATOM     20  C   UNL d   1      10.030   5.669  -9.954  0.00  0.00     0.286 C 
ATOM     21  C   UNL d   1       9.759   5.673 -11.481  0.00  0.00     0.286 C 
BRANCH  19  22
ATOM     22  C   UNL d   1       8.930   5.584  -7.822  0.00  0.00     0.277 C 
BRANCH  22  23
ATOM     23  C   UNL d   1       9.596   6.790  -7.219  0.00  0.00     0.011 A 
ATOM     24  C   UNL d   1       9.156   8.026  -7.644  0.00  0.00    -0.002 A 
ATOM     25  C   UNL d   1       9.789   9.198  -7.209  0.00  0.00     0.011 A 
ATOM     26  C   UNL d   1      10.804   9.091  -6.234  0.00  0.00     0.058 A 
ATOM     27  C   UNL d   1      11.243   7.850  -5.759  0.00  0.00     0.011 A 
ATOM     28 CL   UNL d   1      11.522  10.527  -5.655  0.00  0.00    -0.082 Cl
ATOM     29  C   UNL d   1      10.661   6.681  -6.289  0.00  0.00    -0.002 A 
ENDBRANCH  22  23
ENDBRANCH  19  22
ENDBRANCH   1  16
TORSDOF 5
