REMARK  7 active torsions:
REMARK  status: ('A' for Active; 'I' for Inactive)
REMARK    1  A    between atoms: C_6  and  C_7 
REMARK    2  A    between atoms: C_10  and  S_11 
REMARK    3  A    between atoms: S_11  and  C_12 
REMARK    4  A    between atoms: C_12  and  C_13 
REMARK    5  A    between atoms: C_13  and  C_14 
REMARK    6  A    between atoms: C_14  and  N_15 
REMARK    7  A    between atoms: C_22  and  N_23 
ROOT
ATOM      1  C   UNL d   1      10.775   1.348 -20.514  0.00  0.00     0.251 C 
ENDROOT
BRANCH   1   2
ATOM      2  C   UNL d   1       9.871   0.605 -21.540  0.00  0.00     0.047 C 
BRANCH   2   3
ATOM      3  C   UNL d   1      10.608  -0.675 -22.044  0.00  0.00     0.067 C 
BRANCH   3   4
ATOM      4  S   UNL d   1       9.442  -1.915 -22.711  0.00  0.00    -0.075 SA
BRANCH   4   5
ATOM      5  C   UNL d   1       8.517  -2.294 -21.286  0.00  0.00     0.193 A 
ATOM      6  N   UNL d   1       8.496  -1.566 -20.186  0.00  0.00    -0.122 NA
ATOM      7  N   UNL d   1       7.554  -2.140 -19.407  0.00  0.00    -0.128 NA
ATOM      8  C   UNL d   1       7.175  -3.269 -20.040  0.00  0.00     0.167 A 
ATOM      9  N   UNL d   1       7.749  -3.417 -21.231  0.00  0.00    -0.289 N 
ATOM     10  C   UNL d   1       7.648  -4.521 -22.169  0.00  0.00     0.134 C 
BRANCH   8  11
ATOM     11  C   UNL d   1       6.282  -4.213 -19.396  0.00  0.00     0.037 A 
ATOM     12  C   UNL d   1       4.963  -4.420 -19.873  0.00  0.00     0.021 A 
ATOM     13  C   UNL d   1       4.476  -3.729 -21.011  0.00  0.00     0.003 A 
ATOM     14  C   UNL d   1       4.119  -5.338 -19.189  0.00  0.00     0.081 A 
ATOM     15  C   UNL d   1       3.185  -4.015 -21.467  0.00  0.00     0.015 A 
ATOM     16  C   UNL d   1       2.430  -4.952 -20.740  0.00  0.00     0.059 A 
ATOM     17  C   UNL d   1       1.023  -5.293 -21.161  0.00  0.00     0.052 C 
ATOM     18  N   UNL d   1       2.874  -5.592 -19.640  0.00  0.00    -0.250 NA
ATOM     19  C   UNL d   1       4.638  -5.992 -18.056  0.00  0.00     0.019 A 
ATOM     20  C   UNL d   1       5.933  -5.761 -17.556  0.00  0.00     0.002 A 
ATOM     21  C   UNL d   1       6.763  -4.854 -18.233  0.00  0.00     0.003 A 
ENDBRANCH   8  11
ENDBRANCH   4   5
ENDBRANCH   3   4
ENDBRANCH   2   3
ENDBRANCH   1   2
BRANCH   1  22
ATOM     22  N   UNL d   1      10.047   2.522 -20.008  0.00  0.00     0.138 N 
ATOM     23  C   UNL d   1       8.818   2.286 -19.227  0.00  0.00     0.255 C 
ATOM     24  C   UNL d   1       9.013   1.602 -17.861  0.00  0.00     0.061 C 
ATOM     25  C   UNL d   1       9.484   2.549 -16.792  0.00  0.00    -0.022 A 
ATOM     26  C   UNL d   1      10.712   3.263 -16.916  0.00  0.00    -0.022 A 
ATOM     27  C   UNL d   1       8.668   2.745 -15.654  0.00  0.00     0.022 A 
ATOM     28  C   UNL d   1      11.612   3.079 -18.119  0.00  0.00     0.061 C 
ATOM     29  C   UNL d   1      11.120   4.153 -15.907  0.00  0.00     0.017 A 
ATOM     30  C   UNL d   1      10.952   3.507 -19.434  0.00  0.00     0.255 C 
ATOM     31  C   UNL d   1      10.326   4.324 -14.754  0.00  0.00     0.107 A 
ATOM     32  C   UNL d   1       9.094   3.631 -14.678  0.00  0.00     0.120 A 
ATOM     33  N   UNL d   1      10.520   5.043 -13.617  0.00  0.00    -0.205 NA
ATOM     34  O   UNL d   1       8.467   4.002 -13.499  0.00  0.00    -0.275 OA
ATOM     35  C   UNL d   1       9.365   4.875 -12.950  0.00  0.00     0.252 A 
BRANCH  35  36
ATOM     36  N   UNL d   1       8.967   5.472 -11.754  0.00  0.00    -0.314 N 
ATOM     37  C   UNL d   1       8.011   4.885 -10.818  0.00  0.00     0.105 C 
ATOM     38  C   UNL d   1       8.620   4.714  -9.408  0.00  0.00     0.024 C 
ATOM     39  C   UNL d   1       9.128   6.049  -8.862  0.00  0.00     0.004 C 
ATOM     40  C   UNL d   1      10.086   6.681  -9.871  0.00  0.00     0.024 C 
ATOM     41  C   UNL d   1       9.428   6.773 -11.260  0.00  0.00     0.105 C 
ENDBRANCH  35  36
ENDBRANCH   1  22
TORSDOF 7
