REMARK  5 active torsions:
REMARK  status: ('A' for Active; 'I' for Inactive)
REMARK    1  A    between atoms: O_2  and  C_3 
REMARK    2  A    between atoms: C_6  and  C_7 
REMARK    3  A    between atoms: N_13  and  C_14 
REMARK    4  A    between atoms: C_14  and  C_15 
REMARK    5  A    between atoms: C_15  and  C_16 
ROOT
ATOM      1  C   UNL d   1       9.263   3.529 -14.322  0.00  0.00     0.059 C 
ATOM      2  C   UNL d   1      10.193   4.386 -13.811  0.00  0.00     0.119 C 
ATOM      3  O   UNL d   1       9.962   5.423 -12.928  0.00  0.00    -0.333 OA
ATOM      4  C   UNL d   1       8.694   5.415 -12.254  0.00  0.00     0.110 C 
ATOM      5  C   UNL d   1       8.447   6.780 -11.621  0.00  0.00     0.064 C 
ATOM      6  C   UNL d   1       9.348   7.041 -10.393  0.00  0.00     0.253 C 
ATOM      7  N   UNL d   1       9.176   6.005  -9.356  0.00  0.00     0.138 N 
ATOM      8  C   UNL d   1       9.547   4.728  -9.937  0.00  0.00     0.253 C 
ATOM      9  C   UNL d   1       8.689   4.373 -11.153  0.00  0.00     0.064 C 
ATOM     10  C   UNL d   1       7.586   5.117 -13.254  0.00  0.00     0.097 C 
ATOM     11  C   UNL d   1       7.839   3.829 -14.017  0.00  0.00     0.177 C 
ATOM     12  O   UNL d   1       6.879   3.144 -14.359  0.00  0.00    -0.291 OA
ENDROOT
BRANCH   1  13
ATOM     13  C   UNL d   1       9.637   2.445 -15.239  0.00  0.00     0.005 A 
ATOM     14  C   UNL d   1      10.615   2.659 -16.234  0.00  0.00     0.002 A 
ATOM     15  C   UNL d   1      10.953   1.626 -17.119  0.00  0.00     0.024 A 
ATOM     16  C   UNL d   1      10.329   0.354 -17.034  0.00  0.00     0.094 A 
ATOM     17  C   UNL d   1       9.360   0.143 -16.035  0.00  0.00     0.024 A 
ATOM     18  C   UNL d   1       9.029   1.180 -15.132  0.00  0.00     0.002 A 
BRANCH  16  19
ATOM     19  O   UNL d   1      10.621  -0.702 -17.873  0.00  0.00    -0.328 OA
ATOM     20  C   UNL d   1      11.662  -0.484 -18.811  0.00  0.00     0.181 C 
ENDBRANCH  16  19
ENDBRANCH   1  13
BRANCH   7  21
ATOM     21  C   UNL d   1      10.088   6.271  -8.245  0.00  0.00     0.255 C 
BRANCH  21  22
ATOM     22  C   UNL d   1       9.464   7.281  -7.279  0.00  0.00     0.062 C 
BRANCH  22  23
ATOM     23  C   UNL d   1      10.471   7.792  -6.268  0.00  0.00    -0.020 A 
ATOM     24  C   UNL d   1      11.041   9.070  -6.439  0.00  0.00    -0.004 A 
ATOM     25  C   UNL d   1      11.963   9.565  -5.500  0.00  0.00    -0.000 A 
ATOM     26  C   UNL d   1      12.316   8.789  -4.380  0.00  0.00    -0.000 A 
ATOM     27  C   UNL d   1      11.770   7.502  -4.216  0.00  0.00    -0.000 A 
ATOM     28  C   UNL d   1      10.851   7.003  -5.164  0.00  0.00    -0.004 A 
ENDBRANCH  22  23
ENDBRANCH  21  22
ENDBRANCH   7  21
TORSDOF 5
