REMARK  4 active torsions:
REMARK  status: ('A' for Active; 'I' for Inactive)
REMARK    1  A    between atoms: C_2  and  C_3 
REMARK    2  A    between atoms: C_3  and  N_4 
REMARK    3  A    between atoms: C_8  and  C_9 
REMARK    4  A    between atoms: C_13  and  C_14 
ROOT
ATOM      1  N   UNL d   1       9.337   5.971 -11.597  0.00  0.00     0.137 N 
ATOM      2  C   UNL d   1       8.562   7.109 -12.071  0.00  0.00     0.250 C 
ATOM      3  C   UNL d   1       9.339   8.403 -11.844  0.00  0.00     0.036 C 
ATOM      4  C   UNL d   1       9.764   8.622 -10.397  0.00  0.00     0.008 C 
ATOM      5  C   UNL d   1      10.433   7.367  -9.798  0.00  0.00     0.056 C 
ATOM      6  C   UNL d   1       9.570   6.117 -10.153  0.00  0.00     0.255 C 
ENDROOT
BRANCH   5   7
ATOM      7  C   UNL d   1      10.716   7.523  -8.289  0.00  0.00    -0.020 A 
ATOM      8  C   UNL d   1      10.862   8.800  -7.704  0.00  0.00     0.001 A 
ATOM      9  C   UNL d   1      11.079   8.927  -6.309  0.00  0.00     0.059 A 
ATOM     10  C   UNL d   1      11.168   7.800  -5.495  0.00  0.00     0.005 A 
ATOM     11  C   UNL d   1      11.070   6.545  -6.071  0.00  0.00    -0.000 A 
ATOM     12  C   UNL d   1      10.836   6.395  -7.441  0.00  0.00    -0.004 A 
BRANCH   9  13
ATOM     13  C   UNL d   1      11.153  10.263  -5.674  0.00  0.00     0.297 C 
ATOM     14  N   UNL d   1      11.861  11.152  -6.355  0.00  0.00    -0.102 N 
ATOM     15  O   UNL d   1      10.665  10.452  -4.568  0.00  0.00    -0.264 OA
ENDBRANCH   9  13
ENDBRANCH   5   7
BRANCH   1  16
ATOM     16  C   UNL d   1       8.585   4.739 -11.792  0.00  0.00     0.250 C 
BRANCH  16  17
ATOM     17  C   UNL d   1       8.555   4.298 -13.265  0.00  0.00     0.035 C 
ATOM     18  C   UNL d   1       9.896   3.720 -13.731  0.00  0.00     0.002 C 
ENDBRANCH  16  17
ENDBRANCH   1  16
TORSDOF 4
