REMARK  3 active torsions:
REMARK  status: ('A' for Active; 'I' for Inactive)
REMARK    1  A    between atoms: C_4  and  C_5 
REMARK    2  A    between atoms: N_16  and  C_17 
REMARK    3  A    between atoms: C_17  and  C_18 
ROOT
ATOM      1  O   UNL d   1      10.260  -0.524 -16.342  0.00  0.00    -0.289 OA
ATOM      2  C   UNL d   1       9.550   0.439 -16.061  0.00  0.00     0.202 A 
ATOM      3  C   UNL d   1       9.562   1.232 -14.854  0.00  0.00     0.064 A 
ATOM      4  C   UNL d   1       8.565   2.110 -14.935  0.00  0.00     0.097 A 
ATOM      5  O   UNL d   1       7.864   1.998 -16.121  0.00  0.00    -0.326 OA
ATOM      6  C   UNL d   1       8.468   1.003 -16.955  0.00  0.00     0.184 A 
ATOM      7  C   UNL d   1       7.456  -0.077 -17.375  0.00  0.00     0.039 C 
ATOM      8  C   UNL d   1       6.457   0.484 -18.388  0.00  0.00     0.038 C 
ATOM      9  C   UNL d   1       7.184   1.151 -19.571  0.00  0.00     0.251 C 
ATOM     10  N   UNL d   1       8.063   2.221 -19.089  0.00  0.00     0.144 N 
ATOM     11  C   UNL d   1       9.089   1.659 -18.206  0.00  0.00     0.285 C 
ENDROOT
BRANCH   4  12
ATOM     12  C   UNL d   1       8.270   3.190 -14.008  0.00  0.00     0.022 A 
ATOM     13  C   UNL d   1       9.298   3.788 -13.244  0.00  0.00     0.002 A 
ATOM     14  C   UNL d   1       8.987   4.787 -12.289  0.00  0.00     0.000 A 
ATOM     15  C   UNL d   1       7.650   5.175 -12.090  0.00  0.00     0.000 A 
ATOM     16  C   UNL d   1       6.622   4.576 -12.843  0.00  0.00     0.000 A 
ATOM     17  C   UNL d   1       6.930   3.585 -13.800  0.00  0.00     0.002 A 
ENDBRANCH   4  12
BRANCH  10  18
ATOM     18  C   UNL d   1       8.672   2.918 -20.227  0.00  0.00     0.277 C 
BRANCH  18  19
ATOM     19  C   UNL d   1       9.375   4.220 -19.856  0.00  0.00     0.011 A 
ATOM     20  C   UNL d   1       8.707   5.453 -20.022  0.00  0.00    -0.002 A 
ATOM     21  C   UNL d   1       9.344   6.659 -19.670  0.00  0.00    -0.000 A 
ATOM     22  C   UNL d   1      10.650   6.643 -19.144  0.00  0.00    -0.000 A 
ATOM     23  C   UNL d   1      11.322   5.418 -18.975  0.00  0.00    -0.000 A 
ATOM     24  C   UNL d   1      10.694   4.216 -19.348  0.00  0.00    -0.002 A 
ENDBRANCH  18  19
ENDBRANCH  10  18
TORSDOF 3
