REMARK  5 active torsions:
REMARK  status: ('A' for Active; 'I' for Inactive)
REMARK    1  A    between atoms: C_4  and  C_5 
REMARK    2  A    between atoms: C_5  and  N_6 
REMARK    3  A    between atoms: N_9  and  C_10 
REMARK    4  A    between atoms: C_10  and  C_11 
REMARK    5  A    between atoms: C_14  and  C_15 
ROOT
ATOM      1  N   UNL d   1      10.193   1.038 -17.406  0.00  0.00     0.146 N 
ATOM      2  C   UNL d   1      11.420   1.680 -16.921  0.00  0.00     0.286 C 
ATOM      3  C   UNL d   1      11.152   3.116 -16.425  0.00  0.00     0.286 C 
ATOM      4  N   UNL d   1      10.160   3.139 -15.345  0.00  0.00     0.147 N 
ATOM      5  C   UNL d   1       8.940   2.483 -15.827  0.00  0.00     0.286 C 
ATOM      6  C   UNL d   1       9.208   1.056 -16.328  0.00  0.00     0.286 C 
ENDROOT
BRANCH   4   7
ATOM      7  C   UNL d   1       9.909   4.504 -14.870  0.00  0.00     0.296 C 
BRANCH   7   8
ATOM      8  C   UNL d   1       9.180   4.739 -13.577  0.00  0.00     0.100 A 
ATOM      9  N   UNL d   1       9.831   5.413 -12.538  0.00  0.00    -0.241 NA
ATOM     10  C   UNL d   1       9.069   5.557 -11.444  0.00  0.00     0.110 A 
ATOM     11  S   UNL d   1       7.470   4.844 -11.641  0.00  0.00    -0.066 SA
ATOM     12  C   UNL d   1       7.900   4.365 -13.252  0.00  0.00     0.054 A 
BRANCH  10  13
ATOM     13  C   UNL d   1       9.462   6.225 -10.203  0.00  0.00     0.024 A 
ATOM     14  C   UNL d   1      10.257   7.390 -10.254  0.00  0.00     0.002 A 
ATOM     15  C   UNL d   1      10.650   8.046  -9.070  0.00  0.00     0.000 A 
ATOM     16  C   UNL d   1      10.241   7.544  -7.823  0.00  0.00     0.000 A 
ATOM     17  C   UNL d   1       9.442   6.387  -7.760  0.00  0.00     0.000 A 
ATOM     18  C   UNL d   1       9.058   5.726  -8.945  0.00  0.00     0.002 A 
ENDBRANCH  10  13
ENDBRANCH   7   8
ENDBRANCH   4   7
BRANCH   1  19
ATOM     19  C   UNL d   1      10.423  -0.329 -17.874  0.00  0.00     0.277 C 
BRANCH  19  20
ATOM     20  C   UNL d   1      11.299  -0.405 -19.107  0.00  0.00     0.011 A 
ATOM     21  C   UNL d   1      10.774  -0.059 -20.368  0.00  0.00    -0.002 A 
ATOM     22  C   UNL d   1      11.586  -0.128 -21.516  0.00  0.00    -0.000 A 
ATOM     23  C   UNL d   1      12.929  -0.539 -21.405  0.00  0.00    -0.000 A 
ATOM     24  C   UNL d   1      13.460  -0.879 -20.146  0.00  0.00    -0.000 A 
ATOM     25  C   UNL d   1      12.646  -0.804 -19.001  0.00  0.00    -0.002 A 
ENDBRANCH  19  20
ENDBRANCH   1  19
TORSDOF 5
