REMARK  4 active torsions:
REMARK  status: ('A' for Active; 'I' for Inactive)
REMARK    1  A    between atoms: C_2  and  N_3 
REMARK       I    between atoms: N_3  and  C_4 
REMARK       I    between atoms: C_4  and  N_16 
REMARK    2  A    between atoms: N_5  and  S_6 
REMARK    3  A    between atoms: S_6  and  C_9 
REMARK    4  A    between atoms: C_20  and  C_21 
ROOT
ATOM      1  N   UNL d   1       9.386   1.013 -14.425  0.00  0.00    -0.086 NA
ATOM      2  C   UNL d   1       8.735   1.654 -15.449  0.00  0.00     0.753 C 
ATOM      3  N   UNL d   1       8.908   2.896 -15.759  0.00  0.00     0.033 NA
ATOM      4  N   UNL d   1       7.757   0.888 -16.087  0.00  0.00    -0.077 N 
ATOM      5  N   UNL d   1       7.426   1.143 -17.352  0.00  0.00    -0.158 NA
ATOM      6  C   UNL d   1       6.205   0.836 -17.581  0.00  0.00     0.097 C 
ATOM      7  C   UNL d   1       5.513   0.263 -16.406  0.00  0.00     0.079 C 
ATOM      8  C   UNL d   1       6.583   0.425 -15.341  0.00  0.00     0.152 C 
ENDROOT
BRANCH   1   9
ATOM      9  C   UNL d   1      10.393   0.051 -14.765  0.00  0.00     0.145 C 
ATOM     10  C   UNL d   1      11.443   0.682 -15.672  0.00  0.00     0.029 C 
ENDBRANCH   1   9
BRANCH   3  11
ATOM     11  S   UNL d   1       9.913   3.948 -14.935  0.00  0.00     0.300 S 
ATOM     12  O   UNL d   1      11.116   3.275 -14.421  0.00  0.00    -0.198 OA
ATOM     13  O   UNL d   1      10.076   5.140 -15.763  0.00  0.00    -0.198 OA
BRANCH  11  14
ATOM     14  C   UNL d   1       9.082   4.439 -13.439  0.00  0.00     0.107 A 
ATOM     15  C   UNL d   1       8.033   5.347 -13.490  0.00  0.00     0.024 A 
ATOM     16  C   UNL d   1       7.357   5.777 -12.331  0.00  0.00     0.059 A 
ATOM     17  C   UNL d   1       7.777   5.273 -11.093  0.00  0.00     0.011 A 
ATOM     18 CL   UNL d   1       5.903   6.738 -12.432  0.00  0.00    -0.082 Cl
ATOM     19  C   UNL d   1       8.890   4.424 -11.021  0.00  0.00     0.002 A 
ATOM     20  C   UNL d   1       9.528   3.998 -12.194  0.00  0.00     0.013 A 
ENDBRANCH  11  14
ENDBRANCH   3  11
BRANCH   8  21
ATOM     21  C   UNL d   1       6.164   1.408 -14.271  0.00  0.00     0.001 C 
ATOM     22  C   UNL d   1       5.736   0.969 -13.030  0.00  0.00    -0.002 C 
ATOM     23  C   UNL d   1       5.466   1.926 -12.069  0.00  0.00    -0.000 C 
ATOM     24  C   UNL d   1       5.433   3.303 -12.300  0.00  0.00    -0.000 C 
ATOM     25  C   UNL d   1       5.713   3.706 -13.599  0.00  0.00    -0.000 C 
ATOM     26  C   UNL d   1       6.215   2.786 -14.498  0.00  0.00    -0.002 C 
ENDBRANCH   8  21
TORSDOF 4
