REMARK  0 active torsions:
REMARK  status: ('A' for Active; 'I' for Inactive)
ROOT
ATOM      1  O   UNL d   1       9.128   4.436 -11.139  0.00  0.00    -0.188 OA
ATOM      2  C   UNL d   1       9.415   5.315 -10.127  0.00  0.00     0.158 A 
ATOM      3  C   UNL d   1      10.217   6.402 -10.441  0.00  0.00     0.053 A 
ATOM      4  C   UNL d   1      10.553   7.345  -9.448  0.00  0.00     0.093 A 
ATOM      5  C   UNL d   1      10.120   7.167  -8.101  0.00  0.00     0.008 A 
ATOM      6  C   UNL d   1       9.303   6.067  -7.783  0.00  0.00     0.028 A 
ATOM      7  C   UNL d   1       8.993   5.121  -8.787  0.00  0.00     0.156 A 
ATOM      8  O   UNL d   1       8.314   4.002  -8.467  0.00  0.00    -0.188 OA
ATOM      9  C   UNL d   1      10.460   8.262  -7.072  0.00  0.00     0.071 C 
ATOM     10  C   UNL d   1      11.121   7.944  -5.721  0.00  0.00    -0.018 A 
ATOM     11  C   UNL d   1      11.222   6.656  -5.201  0.00  0.00    -0.004 A 
ATOM     12  C   UNL d   1      11.854   6.447  -3.959  0.00  0.00    -0.000 A 
ATOM     13  C   UNL d   1      12.380   7.507  -3.211  0.00  0.00    -0.000 A 
ATOM     14  C   UNL d   1      12.347   8.800  -3.721  0.00  0.00    -0.003 A 
ATOM     15  C   UNL d   1      11.741   8.993  -4.981  0.00  0.00    -0.002 A 
ATOM     16  C   UNL d   1      11.866  10.337  -5.577  0.00  0.00     0.146 C 
ATOM     17  N   UNL d   1      11.226  10.457  -6.829  0.00  0.00    -0.289 NA
ATOM     18  C   UNL d   1      11.369   9.310  -7.710  0.00  0.00     0.137 C 
ATOM     19  C   UNL d   1      10.963   9.565  -9.171  0.00  0.00     0.173 C 
ATOM     20  O   UNL d   1      11.246   8.426  -9.898  0.00  0.00    -0.329 OA
ENDROOT
TORSDOF 0
