REMARK  7 active torsions:
REMARK  status: ('A' for Active; 'I' for Inactive)
REMARK    1  A    between atoms: C_7  and  C_8 
REMARK    2  A    between atoms: C_11  and  O_12 
REMARK    3  A    between atoms: O_12  and  C_13 
REMARK    4  A    between atoms: C_13  and  C_14 
REMARK    5  A    between atoms: C_14  and  C_15 
REMARK    6  A    between atoms: C_15  and  N_16 
REMARK    7  A    between atoms: N_19  and  C_20 
ROOT
ATOM      1  O   UNL d   1       6.644   2.231 -14.896  0.00  0.00    -0.331 OA
ENDROOT
BRANCH   1   2
ATOM      2  C   UNL d   1       7.276   3.084 -14.018  0.00  0.00     0.094 A 
ATOM      3  C   UNL d   1       6.427   3.871 -13.202  0.00  0.00     0.024 A 
ATOM      4  C   UNL d   1       6.955   4.720 -12.203  0.00  0.00     0.004 A 
ATOM      5  C   UNL d   1       8.355   4.822 -12.053  0.00  0.00     0.019 A 
ATOM      6  C   UNL d   1       9.208   4.068 -12.879  0.00  0.00     0.004 A 
ATOM      7  C   UNL d   1       8.682   3.218 -13.863  0.00  0.00     0.024 A 
BRANCH   5   8
ATOM      8  C   UNL d   1       8.923   5.708 -11.049  0.00  0.00     0.101 A 
ATOM      9  C   UNL d   1       9.460   6.959 -11.224  0.00  0.00     0.101 A 
ATOM     10  N   UNL d   1       9.861   7.400  -9.982  0.00  0.00    -0.288 N 
ATOM     11  C   UNL d   1      10.444   8.574  -9.591  0.00  0.00     0.081 A 
ATOM     12  C   UNL d   1       9.554   6.372  -9.064  0.00  0.00     0.148 A 
ATOM     13  C   UNL d   1      10.734   8.773  -8.265  0.00  0.00     0.015 A 
ATOM     14  C   UNL d   1      10.444   7.778  -7.304  0.00  0.00    -0.017 A 
ATOM     15  C   UNL d   1      10.775   8.000  -5.846  0.00  0.00     0.031 C 
ATOM     16  C   UNL d   1       9.865   6.590  -7.699  0.00  0.00     0.033 A 
ATOM     17  N   UNL d   1       9.011   5.331  -9.711  0.00  0.00    -0.227 NA
ENDBRANCH   5   8
ENDBRANCH   1   2
BRANCH   1  18
ATOM     18  C   UNL d   1       7.327   1.131 -15.489  0.00  0.00     0.151 C 
BRANCH  18  19
ATOM     19  C   UNL d   1       7.343   1.334 -17.034  0.00  0.00     0.068 C 
BRANCH  19  20
ATOM     20  C   UNL d   1       8.279   0.337 -17.772  0.00  0.00     0.253 C 
BRANCH  20  21
ATOM     21  N   UNL d   1       9.696   0.722 -17.837  0.00  0.00     0.141 N 
ATOM     22  C   UNL d   1       9.894   1.833 -18.781  0.00  0.00     0.274 C 
ATOM     23  C   UNL d   1      11.371   2.263 -18.817  0.00  0.00     0.137 C 
ATOM     24  N   UNL d   1      11.842   2.562 -17.471  0.00  0.00    -0.344 N 
ATOM     25  C   UNL d   1      11.649   1.528 -16.486  0.00  0.00     0.137 C 
ATOM     26  C   UNL d   1      10.200   1.118 -16.523  0.00  0.00     0.274 C 
BRANCH  24  27
ATOM     27  C   UNL d   1      12.481   3.778 -17.150  0.00  0.00     0.068 A 
ATOM     28  C   UNL d   1      13.671   4.167 -17.810  0.00  0.00     0.084 A 
ATOM     29  C   UNL d   1      14.305   5.380 -17.455  0.00  0.00     0.070 A 
ATOM     30 CL   UNL d   1      14.396   3.152 -19.015  0.00  0.00    -0.080 Cl
ATOM     31  C   UNL d   1      13.751   6.202 -16.465  0.00  0.00     0.012 A 
ATOM     32 CL   UNL d   1      15.776   5.856 -18.222  0.00  0.00    -0.081 Cl
ATOM     33  C   UNL d   1      12.571   5.827 -15.807  0.00  0.00     0.002 A 
ATOM     34  C   UNL d   1      11.936   4.609 -16.142  0.00  0.00     0.018 A 
ENDBRANCH  24  27
ENDBRANCH  20  21
ENDBRANCH  19  20
ENDBRANCH  18  19
ENDBRANCH   1  18
TORSDOF 7
