REMARK  1 active torsions:
REMARK  status: ('A' for Active; 'I' for Inactive)
REMARK    1  A    between atoms: C_4  and  N_5 
ROOT
ATOM      1  N   UNL d   1       8.753   5.014  -9.471  0.00  0.00    -0.079 NA
ATOM      2  C   UNL d   1       9.444   6.146  -9.024  0.00  0.00     0.165 A 
ATOM      3  C   UNL d   1       9.599   6.455  -7.657  0.00  0.00     0.071 A 
ATOM      4  C   UNL d   1      10.410   7.523  -7.301  0.00  0.00     0.145 A 
ATOM      5  N   UNL d   1      11.035   8.283  -8.223  0.00  0.00    -0.197 NA
ATOM      6  C   UNL d   1      10.821   8.000  -9.522  0.00  0.00     0.247 A 
ATOM      7  N   UNL d   1      11.515   8.798 -10.426  0.00  0.00    -0.059 NA
ATOM      8  N   UNL d   1      10.022   6.973  -9.969  0.00  0.00    -0.141 N 
ATOM      9  O   UNL d   1       9.787   6.784 -11.204  0.00  0.00    -0.076 OA
ENDROOT
BRANCH   4  10
ATOM     10  N   UNL d   1      10.691   7.842  -5.971  0.00  0.00    -0.334 N 
ATOM     11  C   UNL d   1      10.758   6.749  -5.015  0.00  0.00     0.103 C 
ATOM     12  C   UNL d   1      11.910   6.948  -4.050  0.00  0.00     0.024 C 
ATOM     13  C   UNL d   1      12.092   8.371  -3.507  0.00  0.00     0.004 C 
ATOM     14  C   UNL d   1      12.018   9.405  -4.654  0.00  0.00     0.024 C 
ATOM     15  C   UNL d   1      10.780   9.227  -5.516  0.00  0.00     0.103 C 
ENDBRANCH   4  10
TORSDOF 1
