REMARK  6 active torsions:
REMARK  status: ('A' for Active; 'I' for Inactive)
REMARK    1  A    between atoms: C_6  and  C_7 
REMARK    2  A    between atoms: C_10  and  S_11 
REMARK    3  A    between atoms: S_11  and  C_12 
REMARK    4  A    between atoms: C_12  and  C_13 
REMARK    5  A    between atoms: C_13  and  N_14 
REMARK    6  A    between atoms: C_21  and  C_22 
ROOT
ATOM      1  C   UNL d   1       8.988   4.125 -12.973  0.00  0.00     0.262 C 
ENDROOT
BRANCH   1   2
ATOM      2  C   UNL d   1       9.265   4.634 -14.394  0.00  0.00     0.101 C 
BRANCH   2   3
ATOM      3  S   UNL d   1       9.641   3.287 -15.552  0.00  0.00    -0.073 SA
BRANCH   3   4
ATOM      4  C   UNL d   1      11.228   3.823 -16.122  0.00  0.00     0.193 A 
ATOM      5  N   UNL d   1      12.171   4.392 -15.362  0.00  0.00    -0.122 NA
ATOM      6  N   UNL d   1      13.211   4.674 -16.215  0.00  0.00    -0.128 NA
ATOM      7  C   UNL d   1      12.856   4.171 -17.405  0.00  0.00     0.167 A 
ATOM      8  N   UNL d   1      11.596   3.676 -17.405  0.00  0.00    -0.289 N 
ATOM      9  C   UNL d   1      10.822   3.083 -18.487  0.00  0.00     0.134 C 
BRANCH   7  10
ATOM     10  C   UNL d   1      13.768   4.178 -18.547  0.00  0.00     0.037 A 
ATOM     11  C   UNL d   1      14.134   2.992 -19.247  0.00  0.00     0.021 A 
ATOM     12  C   UNL d   1      13.679   1.710 -18.852  0.00  0.00     0.003 A 
ATOM     13  C   UNL d   1      14.990   3.063 -20.383  0.00  0.00     0.081 A 
ATOM     14  C   UNL d   1      14.018   0.584 -19.614  0.00  0.00     0.015 A 
ATOM     15  C   UNL d   1      14.873   0.758 -20.711  0.00  0.00     0.059 A 
ATOM     16  C   UNL d   1      15.313  -0.439 -21.518  0.00  0.00     0.052 C 
ATOM     17  N   UNL d   1      15.360   1.963 -21.078  0.00  0.00    -0.250 NA
ATOM     18  C   UNL d   1      15.480   4.323 -20.778  0.00  0.00     0.019 A 
ATOM     19  C   UNL d   1      15.140   5.495 -20.078  0.00  0.00     0.002 A 
ATOM     20  C   UNL d   1      14.288   5.421 -18.964  0.00  0.00     0.003 A 
ENDBRANCH   7  10
ENDBRANCH   3   4
ENDBRANCH   2   3
ENDBRANCH   1   2
BRANCH   1  21
ATOM     21  N   UNL d   1       8.687   5.202 -12.022  0.00  0.00     0.139 N 
ATOM     22  C   UNL d   1       9.709   6.250 -11.988  0.00  0.00     0.255 C 
ATOM     23  C   UNL d   1       9.330   7.467 -11.198  0.00  0.00     0.062 C 
ATOM     24  C   UNL d   1       9.647   7.313  -9.719  0.00  0.00    -0.016 A 
ATOM     25  C   UNL d   1       8.964   6.374  -8.944  0.00  0.00    -0.022 A 
ATOM     26  C   UNL d   1      10.536   8.192  -9.070  0.00  0.00     0.055 A 
ATOM     27  C   UNL d   1       7.958   5.459  -9.609  0.00  0.00     0.061 C 
ATOM     28  C   UNL d   1       9.091   6.329  -7.536  0.00  0.00     0.017 A 
ATOM     29  C   UNL d   1       8.500   4.570 -10.721  0.00  0.00     0.255 C 
ATOM     30  C   UNL d   1      10.030   7.174  -6.902  0.00  0.00     0.106 A 
ATOM     31  C   UNL d   1      10.720   8.100  -7.688  0.00  0.00     0.125 A 
ATOM     32  N   UNL d   1      10.437   7.287  -5.593  0.00  0.00    -0.217 NA
ATOM     33  O   UNL d   1      11.533   8.859  -6.859  0.00  0.00    -0.284 OA
ATOM     34  C   UNL d   1      11.327   8.284  -5.631  0.00  0.00     0.256 A 
ATOM     35 BR   UNL d   1      11.448   9.566 -10.006  0.00  0.00    -0.047 Br
BRANCH  34  36
ATOM     36  C   UNL d   1      12.076   8.833  -4.457  0.00  0.00     0.458 C 
ATOM     37  F   UNL d   1      13.103   9.582  -4.842  0.00  0.00    -0.163 F 
ATOM     38  F   UNL d   1      11.266   9.586  -3.717  0.00  0.00    -0.163 F 
ATOM     39  F   UNL d   1      12.549   7.838  -3.704  0.00  0.00    -0.163 F 
ENDBRANCH  34  36
ENDBRANCH   1  21
TORSDOF 6
