REMARK  7 active torsions:
REMARK  status: ('A' for Active; 'I' for Inactive)
REMARK    1  A    between atoms: S_2  and  C_4 
REMARK    2  A    between atoms: S_2  and  C_23 
REMARK    3  A    between atoms: C_4  and  C_5 
REMARK    4  A    between atoms: N_8  and  C_9 
REMARK    5  A    between atoms: C_9  and  C_10 
REMARK    6  A    between atoms: C_10  and  C_11 
REMARK    7  A    between atoms: C_11  and  C_12 
ROOT
ATOM      1  C   UNL d   1       7.173   2.817 -14.128  0.00  0.00     0.052 C 
ATOM      2  C   UNL d   1       5.986   2.691 -13.160  0.00  0.00     0.038 C 
ATOM      3  C   UNL d   1       6.229   3.741 -12.103  0.00  0.00     0.250 C 
ATOM      4  N   UNL d   1       7.010   4.750 -12.809  0.00  0.00     0.137 N 
ATOM      5  C   UNL d   1       7.998   3.953 -13.526  0.00  0.00     0.251 C 
ENDROOT
BRANCH   4   6
ATOM      6  C   UNL d   1       7.633   5.584 -11.806  0.00  0.00     0.251 C 
BRANCH   6   7
ATOM      7  C   UNL d   1       8.743   6.501 -12.380  0.00  0.00     0.042 C 
BRANCH   7   8
ATOM      8  C   UNL d   1       9.372   7.492 -11.385  0.00  0.00     0.050 C 
BRANCH   8   9
ATOM      9  C   UNL d   1       9.730   6.882 -10.041  0.00  0.00     0.088 C 
ATOM     10  C   UNL d   1      10.141   7.511  -8.848  0.00  0.00     0.041 A 
ATOM     11  C   UNL d   1      10.251   6.546  -7.841  0.00  0.00     0.129 A 
ATOM     12  C   UNL d   1      10.468   8.856  -8.546  0.00  0.00     0.006 A 
ATOM     13  O   UNL d   1       9.926   5.351  -8.459  0.00  0.00    -0.211 OA
ATOM     14  C   UNL d   1      10.675   6.825  -6.530  0.00  0.00     0.057 A 
ATOM     15  N   UNL d   1       9.715   5.571  -9.819  0.00  0.00    -0.131 NA
ATOM     16  C   UNL d   1      11.033   8.164  -6.234  0.00  0.00     0.142 A 
ATOM     17  F   UNL d   1      11.479   8.477  -4.987  0.00  0.00    -0.204 F 
ATOM     18  C   UNL d   1      10.929   9.166  -7.240  0.00  0.00     0.030 A 
ENDBRANCH   8   9
ENDBRANCH   7   8
ENDBRANCH   6   7
ENDBRANCH   4   6
BRANCH   1  19
ATOM     19  C   UNL d   1       8.023   1.547 -14.377  0.00  0.00     0.129 C 
BRANCH  19  20
ATOM     20  S   UNL d   1       7.820   0.870 -16.087  0.00  0.00     0.190 S 
ATOM     21  O   UNL d   1       7.658   1.983 -17.033  0.00  0.00    -0.222 OA
ATOM     22  O   UNL d   1       8.929  -0.078 -16.284  0.00  0.00    -0.222 OA
BRANCH  20  23
ATOM     23  C   UNL d   1       6.272  -0.058 -16.073  0.00  0.00     0.086 A 
ATOM     24  C   UNL d   1       5.488  -0.122 -14.897  0.00  0.00     0.041 A 
ATOM     25  C   UNL d   1       4.266  -0.815 -14.905  0.00  0.00     0.141 A 
ATOM     26  C   UNL d   1       3.839  -1.483 -16.063  0.00  0.00     0.030 A 
ATOM     27  F   UNL d   1       3.517  -0.825 -13.780  0.00  0.00    -0.204 F 
ATOM     28  C   UNL d   1       4.629  -1.444 -17.235  0.00  0.00     0.003 A 
ATOM     29  C   UNL d   1       5.852  -0.721 -17.249  0.00  0.00     0.011 A 
ENDBRANCH  20  23
ENDBRANCH  19  20
ENDBRANCH   1  19
TORSDOF 7
