REMARK  6 active torsions:
REMARK  status: ('A' for Active; 'I' for Inactive)
REMARK    1  A    between atoms: C_4  and  C_5 
REMARK    2  A    between atoms: C_5  and  N_6 
REMARK    3  A    between atoms: N_6  and  C_7 
REMARK    4  A    between atoms: C_7  and  C_8 
REMARK    5  A    between atoms: C_8  and  O_9 
REMARK    6  A    between atoms: O_9  and  C_10 
ROOT
ATOM      1  C   UNL d   1      10.711   9.519  -9.217  0.00  0.00     0.187 C 
ENDROOT
BRANCH   1   2
ATOM      2  C   UNL d   1      11.726   9.106  -8.152  0.00  0.00     0.323 C 
BRANCH   2   3
ATOM      3  N   UNL d   1      11.484   9.893  -6.953  0.00  0.00     0.347 N 
BRANCH   3   4
ATOM      4  C   UNL d   1      12.564   9.684  -6.005  0.00  0.00     0.317 C 
BRANCH   4   5
ATOM      5  C   UNL d   1      12.181   8.792  -4.841  0.00  0.00     0.014 A 
ATOM      6  C   UNL d   1      12.599   9.099  -3.530  0.00  0.00    -0.002 A 
ATOM      7  C   UNL d   1      12.332   8.226  -2.458  0.00  0.00    -0.000 A 
ATOM      8  C   UNL d   1      11.650   7.018  -2.708  0.00  0.00    -0.000 A 
ATOM      9  C   UNL d   1      11.241   6.708  -4.019  0.00  0.00    -0.000 A 
ATOM     10  C   UNL d   1      11.491   7.589  -5.075  0.00  0.00    -0.002 A 
ENDBRANCH   4   5
ENDBRANCH   3   4
ENDBRANCH   2   3
ENDBRANCH   1   2
BRANCH   1  11
ATOM     11  O   UNL d   1      10.503   8.506 -10.172  0.00  0.00    -0.329 OA
BRANCH  11  12
ATOM     12  C   UNL d   1       9.856   7.370  -9.761  0.00  0.00     0.097 A 
ATOM     13  C   UNL d   1       9.433   6.474 -10.776  0.00  0.00     0.063 A 
ATOM     14  C   UNL d   1       8.834   5.252 -10.392  0.00  0.00     0.106 A 
ATOM     15  C   UNL d   1       9.440   6.463 -12.214  0.00  0.00     0.126 A 
ATOM     16  C   UNL d   1       8.650   4.898  -9.045  0.00  0.00     0.021 A 
ATOM     17  N   UNL d   1       8.520   4.652 -11.611  0.00  0.00    -0.148 NA
ATOM     18  C   UNL d   1       9.018   5.830  -8.057  0.00  0.00     0.004 A 
ATOM     19  C   UNL d   1       9.592   7.060  -8.405  0.00  0.00     0.024 A 
ATOM     20  N   UNL d   1       8.909   5.377 -12.700  0.00  0.00    -0.146 NA
ENDBRANCH  11  12
ENDBRANCH   1  11
TORSDOF 6
