REMARK  6 active torsions:
REMARK  status: ('A' for Active; 'I' for Inactive)
REMARK    1  A    between atoms: C_2  and  C_3 
REMARK       I    between atoms: C_2  and  N_5 
REMARK    2  A    between atoms: N_5  and  C_6 
REMARK    3  A    between atoms: C_9  and  C_10 
REMARK    4  A    between atoms: C_10  and  C_11 
REMARK    5  A    between atoms: C_11  and  N_12 
REMARK    6  A    between atoms: N_15  and  C_16 
ROOT
ATOM      1  N   UNL d   1       8.785   5.176 -12.335  0.00  0.00     0.141 N 
ATOM      2  C   UNL d   1       7.502   4.628 -11.873  0.00  0.00     0.274 C 
ATOM      3  C   UNL d   1       6.617   4.263 -13.077  0.00  0.00     0.138 C 
ATOM      4  N   UNL d   1       7.326   3.349 -13.974  0.00  0.00    -0.330 N 
ATOM      5  C   UNL d   1       8.677   3.765 -14.345  0.00  0.00     0.138 C 
ATOM      6  C   UNL d   1       9.485   4.143 -13.103  0.00  0.00     0.274 C 
ENDROOT
BRANCH   1   7
ATOM      7  C   UNL d   1       9.646   5.534 -11.219  0.00  0.00     0.250 C 
BRANCH   7   8
ATOM      8  C   UNL d   1       9.061   6.661 -10.367  0.00  0.00     0.035 C 
BRANCH   8   9
ATOM      9  C   UNL d   1      10.037   7.198  -9.312  0.00  0.00     0.002 C 
ATOM     10  C   UNL d   1       9.505   8.518  -8.731  0.00  0.00     0.002 C 
ATOM     11  C   UNL d   1      10.417   9.068  -7.633  0.00  0.00     0.024 C 
ATOM     12  C   UNL d   1      10.609   8.031  -6.513  0.00  0.00     0.106 C 
ATOM     13  C   UNL d   1      11.155   6.717  -7.099  0.00  0.00     0.024 C 
ATOM     14  C   UNL d   1      10.234   6.167  -8.187  0.00  0.00     0.002 C 
BRANCH  12  15
ATOM     15  N   UNL d   1      11.499   8.580  -5.500  0.00  0.00    -0.238 NA
ATOM     16  C   UNL d   1      11.831   7.994  -4.339  0.00  0.00     0.285 C 
ATOM     17  O   UNL d   1      11.459   6.877  -4.000  0.00  0.00    -0.268 OA
BRANCH  16  18
ATOM     18  C   UNL d   1      12.703   8.808  -3.402  0.00  0.00     0.271 C 
ATOM     19  O   UNL d   1      11.878   9.598  -2.586  0.00  0.00    -0.210 OA
ENDBRANCH  16  18
ENDBRANCH  12  15
ENDBRANCH   8   9
ENDBRANCH   7   8
ENDBRANCH   1   7
BRANCH   4  20
ATOM     20  C   UNL d   1       6.755   2.142 -14.425  0.00  0.00     0.141 A 
ATOM     21  C   UNL d   1       7.062   1.551 -15.693  0.00  0.00     0.040 A 
ATOM     22  C   UNL d   1       6.402   0.314 -16.003  0.00  0.00     0.034 A 
ATOM     23  C   UNL d   1       7.926   1.978 -16.790  0.00  0.00     0.011 A 
ATOM     24  C   UNL d   1       5.503  -0.272 -15.104  0.00  0.00     0.027 A 
ATOM     25  S   UNL d   1       6.869  -0.282 -17.590  0.00  0.00    -0.086 SA
ATOM     26  C   UNL d   1       5.268   0.389 -13.896  0.00  0.00     0.101 A 
ATOM     27  N   UNL d   1       5.868   1.550 -13.580  0.00  0.00    -0.227 NA
ATOM     28  C   UNL d   1       7.936   1.071 -17.817  0.00  0.00     0.035 A 
ENDBRANCH   4  20
TORSDOF 6
