REMARK  3 active torsions:
REMARK  status: ('A' for Active; 'I' for Inactive)
REMARK    1  A    between atoms: C_2  and  C_3 
REMARK    2  A    between atoms: C_18  and  O_19 
REMARK    3  A    between atoms: C_21  and  O_22 
ROOT
ATOM      1  C   UNL d   1       8.448   4.412 -12.988  0.00  0.00    -0.026 A 
ATOM      2  C   UNL d   1       7.105   4.005 -13.069  0.00  0.00    -0.005 A 
ATOM      3  C   UNL d   1       6.706   3.029 -14.002  0.00  0.00    -0.001 A 
ATOM      4  C   UNL d   1       7.615   2.383 -14.875  0.00  0.00    -0.001 A 
ATOM      5  C   UNL d   1       8.950   2.861 -14.800  0.00  0.00     0.005 A 
ATOM      6  C   UNL d   1       9.392   3.842 -13.869  0.00  0.00    -0.026 A 
ATOM      7  C   UNL d   1      10.865   4.211 -13.950  0.00  0.00     0.061 C 
ATOM      8  C   UNL d   1      11.759   3.200 -14.661  0.00  0.00     0.255 C 
ATOM      9  N   UNL d   1      11.198   2.977 -15.981  0.00  0.00     0.142 N 
ATOM     10  C   UNL d   1      12.188   2.239 -16.763  0.00  0.00     0.286 C 
ATOM     11  C   UNL d   1       9.944   2.233 -15.803  0.00  0.00     0.246 C 
ATOM     12  C   UNL d   1       9.259   2.005 -17.172  0.00  0.00     0.064 C 
ATOM     13  C   UNL d   1       7.979   1.206 -17.028  0.00  0.00    -0.018 A 
ATOM     14  C   UNL d   1       7.602   0.310 -18.048  0.00  0.00    -0.002 A 
ATOM     15  C   UNL d   1       6.444  -0.472 -17.911  0.00  0.00     0.026 A 
ATOM     16  C   UNL d   1       5.676  -0.393 -16.730  0.00  0.00     0.116 A 
ATOM     17  C   UNL d   1       6.080   0.479 -15.693  0.00  0.00     0.116 A 
ATOM     18  C   UNL d   1       7.205   1.341 -15.856  0.00  0.00     0.020 A 
ENDROOT
BRANCH   1  19
ATOM     19  C   UNL d   1       8.841   5.465 -11.958  0.00  0.00     0.026 C 
ATOM     20  C   UNL d   1       9.063   4.865 -10.563  0.00  0.00     0.005 C 
ENDBRANCH   1  19
BRANCH  17  21
ATOM     21  O   UNL d   1       5.326   0.476 -14.547  0.00  0.00    -0.326 OA
ATOM     22  C   UNL d   1       5.957  -0.139 -13.441  0.00  0.00     0.181 C 
ENDBRANCH  17  21
BRANCH  16  23
ATOM     23  O   UNL d   1       4.538  -1.143 -16.503  0.00  0.00    -0.326 OA
ATOM     24  C   UNL d   1       3.952  -1.839 -17.592  0.00  0.00     0.181 C 
ENDBRANCH  16  23
TORSDOF 3
