REMARK  0 active torsions:
REMARK  status: ('A' for Active; 'I' for Inactive)
ROOT
ATOM      1  C   UNL d   1       8.598   4.143 -13.643  0.00  0.00     0.030 C 
ATOM      2  C   UNL d   1       9.107   3.374 -14.853  0.00  0.00     0.093 C 
ATOM      3  C   UNL d   1       8.160   2.211 -15.281  0.00  0.00     0.027 C 
ATOM      4  C   UNL d   1       8.724   1.436 -16.488  0.00  0.00     0.005 C 
ATOM      5  C   UNL d   1      10.129   1.975 -16.808  0.00  0.00     0.025 C 
ATOM      6  C   UNL d   1       9.998   3.454 -17.245  0.00  0.00     0.005 C 
ATOM      7  C   UNL d   1       9.510   4.287 -16.045  0.00  0.00     0.027 C 
ATOM      8  C   UNL d   1      10.922   1.984 -15.499  0.00  0.00     0.093 C 
ATOM      9  C   UNL d   1      10.971   0.584 -14.902  0.00  0.00     0.030 C 
ATOM     10  C   UNL d   1      12.263   2.652 -15.756  0.00  0.00     0.030 C 
ATOM     11  O   UNL d   1      10.322   2.754 -14.478  0.00  0.00    -0.364 OA
ENDROOT
TORSDOF 0
