REMARK  2 active torsions:
REMARK  status: ('A' for Active; 'I' for Inactive)
REMARK    1  A    between atoms: C_2  and  C_3 
REMARK    2  A    between atoms: C_3  and  N_4 
ROOT
ATOM      1  N   UNL d   1      11.708   8.002  -6.062  0.00  0.00     0.141 N 
ATOM      2  C   UNL d   1      10.662   7.705  -5.120  0.00  0.00     0.282 C 
ATOM      3  C   UNL d   1       9.895   6.467  -5.418  0.00  0.00     0.178 C 
ATOM      4  O   UNL d   1       9.351   6.544  -6.717  0.00  0.00    -0.348 OA
ATOM      5  C   UNL d   1      10.383   6.700  -7.671  0.00  0.00     0.170 C 
ATOM      6  C   UNL d   1       9.784   6.524  -9.043  0.00  0.00     0.017 A 
ATOM      7  C   UNL d   1       8.892   5.462  -9.247  0.00  0.00     0.026 A 
ATOM      8  C   UNL d   1       8.344   5.249 -10.524  0.00  0.00     0.131 A 
ATOM      9  O   UNL d   1       7.474   4.264 -10.768  0.00  0.00    -0.190 OA
ATOM     10  C   UNL d   1       8.662   6.073 -11.603  0.00  0.00     0.028 A 
ATOM     11  C   UNL d   1       9.517   7.143 -11.395  0.00  0.00     0.011 A 
ATOM     12  C   UNL d   1      10.111   7.361 -10.137  0.00  0.00     0.055 A 
ATOM     13  S   UNL d   1      11.286   8.734 -10.036  0.00  0.00     0.067 S 
ATOM     14  O   UNL d   1      10.435   9.929  -9.615  0.00  0.00    -0.252 OA
ATOM     15  C   UNL d   1      12.186   8.271  -8.508  0.00  0.00     0.133 C 
ATOM     16  C   UNL d   1      11.149   8.028  -7.405  0.00  0.00     0.264 C 
ENDROOT
BRANCH   1  17
ATOM     17  C   UNL d   1      12.451   9.207  -5.652  0.00  0.00     0.250 C 
BRANCH  17  18
ATOM     18  C   UNL d   1      12.956   9.217  -4.176  0.00  0.00     0.035 C 
ATOM     19  C   UNL d   1      11.855   9.597  -3.124  0.00  0.00     0.002 C 
ENDBRANCH  17  18
ENDBRANCH   1  17
TORSDOF 2
