REMARK  5 active torsions:
REMARK  status: ('A' for Active; 'I' for Inactive)
REMARK    1  A    between atoms: O_2  and  C_3 
REMARK    2  A    between atoms: C_6  and  N_7 
REMARK       I    between atoms: N_7  and  C_8 
REMARK       I    between atoms: C_8  and  N_10 
REMARK    3  A    between atoms: N_13  and  C_14 
REMARK    4  A    between atoms: C_17  and  C_18 
REMARK    5  A    between atoms: C_29  and  N_30 
ROOT
ATOM      1  N   UNL d   1       8.393   3.159 -14.995  0.00  0.00    -0.193 NA
ATOM      2  C   UNL d   1       7.472   3.355 -14.026  0.00  0.00     0.346 C 
ATOM      3  O   UNL d   1       6.279   3.071 -14.141  0.00  0.00    -0.245 OA
ATOM      4  N   UNL d   1       7.965   3.941 -12.903  0.00  0.00    -0.297 N 
ATOM      5  C   UNL d   1       7.089   4.256 -11.754  0.00  0.00     0.130 C 
ATOM      6  C   UNL d   1       7.316   5.717 -11.334  0.00  0.00     0.126 C 
ATOM      7  N   UNL d   1       8.744   5.949 -11.139  0.00  0.00    -0.344 N 
ATOM      8  C   UNL d   1       9.628   5.557 -12.235  0.00  0.00     0.126 C 
ATOM      9  C   UNL d   1       9.394   4.083 -12.578  0.00  0.00     0.130 C 
ENDROOT
BRANCH   1  10
ATOM     10  C   UNL d   1       8.342   2.197 -16.063  0.00  0.00     0.087 A 
ATOM     11  C   UNL d   1       7.161   1.512 -16.419  0.00  0.00     0.021 A 
ATOM     12  C   UNL d   1       7.152   0.587 -17.465  0.00  0.00     0.027 A 
ATOM     13  C   UNL d   1       8.313   0.298 -18.207  0.00  0.00     0.104 A 
ATOM     14  C   UNL d   1       9.521   0.967 -17.862  0.00  0.00     0.061 A 
ATOM     15  C   UNL d   1       9.518   1.912 -16.797  0.00  0.00     0.033 A 
BRANCH  13  16
ATOM     16  O   UNL d   1       8.313  -0.585 -19.267  0.00  0.00    -0.327 OA
ATOM     17  C   UNL d   1       7.097  -1.249 -19.566  0.00  0.00     0.181 C 
ENDBRANCH  13  16
BRANCH  14  18
ATOM     18  N   UNL d   1      10.724   0.745 -18.579  0.00  0.00    -0.247 NA
ATOM     19  C   UNL d   1      11.241  -0.626 -18.542  0.00  0.00     0.112 C 
ATOM     20  C   UNL d   1      12.609  -0.727 -19.247  0.00  0.00     0.268 C 
ATOM     21  N   UNL d   1      12.479  -0.291 -20.643  0.00  0.00     0.142 N 
ATOM     22  C   UNL d   1      12.035   1.108 -20.641  0.00  0.00     0.268 C 
ATOM     23  C   UNL d   1      13.772  -0.395 -21.307  0.00  0.00     0.285 C 
ATOM     24  C   UNL d   1      10.671   1.232 -19.959  0.00  0.00     0.112 C 
ENDBRANCH  14  18
ENDBRANCH   1  10
BRANCH   7  25
ATOM     25  C   UNL d   1       9.258   6.402  -9.921  0.00  0.00     0.056 A 
ATOM     26  C   UNL d   1       8.722   5.980  -8.683  0.00  0.00     0.017 A 
ATOM     27  C   UNL d   1       9.219   6.514  -7.479  0.00  0.00     0.002 A 
ATOM     28  C   UNL d   1      10.251   7.474  -7.472  0.00  0.00     0.000 A 
ATOM     29  C   UNL d   1      10.766   7.899  -8.711  0.00  0.00     0.002 A 
ATOM     30  C   UNL d   1      10.285   7.370  -9.916  0.00  0.00     0.017 A 
BRANCH  28  31
ATOM     31  C   UNL d   1      10.766   8.027  -6.214  0.00  0.00     0.000 A 
ATOM     32  C   UNL d   1      10.706   9.409  -5.954  0.00  0.00     0.000 A 
ATOM     33  C   UNL d   1      11.180   9.943  -4.743  0.00  0.00     0.000 A 
ATOM     34  C   UNL d   1      11.783   9.100  -3.784  0.00  0.00     0.000 A 
ATOM     35  C   UNL d   1      11.863   7.713  -4.037  0.00  0.00     0.000 A 
ATOM     36  C   UNL d   1      11.339   7.186  -5.238  0.00  0.00     0.000 A 
ENDBRANCH  28  31
ENDBRANCH   7  25
TORSDOF 5
