REMARK  8 active torsions:
REMARK  status: ('A' for Active; 'I' for Inactive)
REMARK    1  A    between atoms: C_7  and  N_8 
REMARK    2  A    between atoms: N_11  and  C_12 
REMARK    3  A    between atoms: C_12  and  C_13 
REMARK    4  A    between atoms: C_13  and  C_14 
REMARK    5  A    between atoms: C_14  and  C_15 
REMARK    6  A    between atoms: C_15  and  C_16 
REMARK    7  A    between atoms: C_18  and  C_19 
REMARK    8  A    between atoms: C_20  and  C_21 
ROOT
ATOM      1  C   UNL d   1       8.607   6.093 -10.810  0.00  0.00     0.036 C 
ENDROOT
BRANCH   1   2
ATOM      2  C   UNL d   1       9.957   6.340 -10.118  0.00  0.00     0.250 C 
BRANCH   2   3
ATOM      3  N   UNL d   1       9.816   7.217  -8.964  0.00  0.00     0.141 N 
ATOM      4  C   UNL d   1      11.079   7.911  -8.687  0.00  0.00     0.274 C 
ATOM      5  C   UNL d   1      10.916   8.848  -7.476  0.00  0.00     0.137 C 
ATOM      6  N   UNL d   1      10.442   8.093  -6.335  0.00  0.00    -0.343 N 
ATOM      7  C   UNL d   1       9.245   7.299  -6.556  0.00  0.00     0.137 C 
ATOM      8  C   UNL d   1       9.424   6.412  -7.797  0.00  0.00     0.274 C 
BRANCH   6   9
ATOM      9  C   UNL d   1      11.099   8.143  -5.100  0.00  0.00     0.084 A 
ATOM     10  C   UNL d   1      11.394   9.387  -4.496  0.00  0.00     0.155 A 
ATOM     11  F   UNL d   1      11.023  10.546  -5.094  0.00  0.00    -0.203 F 
ATOM     12  C   UNL d   1      12.037   9.429  -3.246  0.00  0.00     0.031 A 
ATOM     13  C   UNL d   1      12.410   8.241  -2.595  0.00  0.00     0.002 A 
ATOM     14  C   UNL d   1      12.120   7.000  -3.188  0.00  0.00     0.002 A 
ATOM     15  C   UNL d   1      11.457   6.949  -4.436  0.00  0.00     0.019 A 
ENDBRANCH   6   9
ENDBRANCH   2   3
ENDBRANCH   1   2
BRANCH   1  16
ATOM     16  C   UNL d   1       8.612   4.892 -11.761  0.00  0.00     0.009 C 
BRANCH  16  17
ATOM     17  C   UNL d   1       9.567   5.036 -12.959  0.00  0.00     0.054 C 
BRANCH  17  18
ATOM     18  C   UNL d   1       9.354   4.012 -14.020  0.00  0.00     0.104 A 
ATOM     19  O   UNL d   1      10.323   3.880 -14.963  0.00  0.00    -0.215 OA
ATOM     20  N   UNL d   1       9.933   2.883 -15.864  0.00  0.00    -0.127 NA
ATOM     21  C   UNL d   1       8.753   2.459 -15.440  0.00  0.00     0.110 A 
ATOM     22  C   UNL d   1       8.325   3.155 -14.277  0.00  0.00     0.044 A 
BRANCH  21  23
ATOM     23  C   UNL d   1       7.940   1.418 -16.074  0.00  0.00     0.021 C 
ATOM     24  C   UNL d   1       6.732   1.000 -15.641  0.00  0.00     0.002 C 
BRANCH  24  25
ATOM     25  C   UNL d   1       5.893  -0.016 -16.287  0.00  0.00     0.000 A 
ATOM     26  C   UNL d   1       4.811  -0.571 -15.568  0.00  0.00     0.000 A 
ATOM     27  C   UNL d   1       4.000  -1.562 -16.158  0.00  0.00     0.000 A 
ATOM     28  C   UNL d   1       4.272  -2.010 -17.465  0.00  0.00     0.000 A 
ATOM     29  C   UNL d   1       5.351  -1.465 -18.183  0.00  0.00     0.000 A 
ATOM     30  C   UNL d   1       6.159  -0.477 -17.596  0.00  0.00     0.000 A 
ENDBRANCH  24  25
ENDBRANCH  21  23
ENDBRANCH  17  18
ENDBRANCH  16  17
ENDBRANCH   1  16
TORSDOF 8
