REMARK  8 active torsions:
REMARK  status: ('A' for Active; 'I' for Inactive)
REMARK       I    between atoms: C_2  and  N_3 
REMARK    1  A    between atoms: C_2  and  C_22 
REMARK    2  A    between atoms: N_3  and  C_4 
REMARK    3  A    between atoms: C_4  and  C_5 
REMARK    4  A    between atoms: C_5  and  C_6 
REMARK    5  A    between atoms: C_6  and  C_7 
REMARK    6  A    between atoms: C_7  and  N_8 
REMARK    7  A    between atoms: N_11  and  C_12 
REMARK    8  A    between atoms: C_25  and  C_26 
ROOT
ATOM      1  C   UNL d   1       7.029   3.600 -12.584  0.00  0.00     0.029 C 
ENDROOT
BRANCH   1   2
ATOM      2  C   UNL d   1       6.998   5.136 -12.594  0.00  0.00     0.129 C 
BRANCH   2   3
ATOM      3  N   UNL d   1       7.693   5.686 -11.431  0.00  0.00    -0.234 NA
ATOM      4  C   UNL d   1       9.021   5.836 -11.311  0.00  0.00     0.275 C 
ATOM      5  O   UNL d   1       9.814   5.583 -12.219  0.00  0.00    -0.266 OA
BRANCH   4   6
ATOM      6  C   UNL d   1       9.489   6.371  -9.986  0.00  0.00     0.058 A 
ATOM      7  C   UNL d   1      10.535   7.319  -9.927  0.00  0.00     0.005 A 
ATOM      8  C   UNL d   1      10.991   7.812  -8.690  0.00  0.00     0.000 A 
ATOM      9  C   UNL d   1      10.414   7.351  -7.488  0.00  0.00     0.001 A 
ATOM     10  C   UNL d   1       9.380   6.399  -7.542  0.00  0.00     0.000 A 
ATOM     11  C   UNL d   1       8.926   5.902  -8.781  0.00  0.00     0.005 A 
BRANCH   9  12
ATOM     12  C   UNL d   1      10.889   7.852  -6.198  0.00  0.00     0.007 A 
ATOM     13  C   UNL d   1      11.382   7.109  -5.155  0.00  0.00     0.035 A 
ATOM     14  S   UNL d   1      11.862   8.101  -3.805  0.00  0.00    -0.086 SA
ATOM     15  C   UNL d   1      11.368   9.539  -4.651  0.00  0.00     0.035 A 
ATOM     16  C   UNL d   1      10.885   9.250  -5.902  0.00  0.00     0.007 A 
ENDBRANCH   9  12
ENDBRANCH   4   6
ENDBRANCH   2   3
ENDBRANCH   1   2
BRANCH   1  17
ATOM     17  C   UNL d   1       6.234   2.939 -13.716  0.00  0.00     0.037 C 
BRANCH  17  18
ATOM     18  C   UNL d   1       6.267   1.399 -13.628  0.00  0.00     0.251 C 
BRANCH  18  19
ATOM     19  N   UNL d   1       5.492   0.781 -14.698  0.00  0.00     0.141 N 
ATOM     20  C   UNL d   1       6.300   0.684 -15.923  0.00  0.00     0.274 C 
ATOM     21  C   UNL d   1       5.476   0.090 -17.077  0.00  0.00     0.137 C 
ATOM     22  N   UNL d   1       4.898  -1.179 -16.676  0.00  0.00    -0.344 N 
ATOM     23  C   UNL d   1       4.152  -1.165 -15.429  0.00  0.00     0.137 C 
ATOM     24  C   UNL d   1       5.020  -0.552 -14.312  0.00  0.00     0.274 C 
BRANCH  22  25
ATOM     25  C   UNL d   1       5.050  -2.356 -17.438  0.00  0.00     0.068 A 
ATOM     26  C   UNL d   1       4.779  -2.393 -18.835  0.00  0.00     0.084 A 
ATOM     27  C   UNL d   1       4.931  -3.601 -19.552  0.00  0.00     0.070 A 
ATOM     28 CL   UNL d   1       4.226  -0.990 -19.685  0.00  0.00    -0.080 Cl
ATOM     29  C   UNL d   1       5.350  -4.769 -18.898  0.00  0.00     0.012 A 
ATOM     30 CL   UNL d   1       4.602  -3.659 -21.245  0.00  0.00    -0.081 Cl
ATOM     31  C   UNL d   1       5.617  -4.747 -17.519  0.00  0.00     0.002 A 
ATOM     32  C   UNL d   1       5.457  -3.550 -16.798  0.00  0.00     0.018 A 
ENDBRANCH  22  25
ENDBRANCH  18  19
ENDBRANCH  17  18
ENDBRANCH   1  17
TORSDOF 8
