REMARK  5 active torsions:
REMARK  status: ('A' for Active; 'I' for Inactive)
REMARK       I    between atoms: N_10  and  C_11 
REMARK    1  A    between atoms: C_11  and  C_13 
REMARK    2  A    between atoms: C_13  and  N_14 
REMARK    3  A    between atoms: N_17  and  C_18 
REMARK    4  A    between atoms: C_18  and  C_19 
REMARK    5  A    between atoms: C_18  and  C_25 
ROOT
ATOM      1  N   UNL d   1      11.727   4.850 -15.705  0.00  0.00     0.151 N 
ATOM      2  C   UNL d   1      12.349   3.574 -16.072  0.00  0.00     0.286 C 
ATOM      3  C   UNL d   1      13.204   3.734 -17.327  0.00  0.00     0.286 C 
ATOM      4  N   UNL d   1      12.408   4.212 -18.468  0.00  0.00     0.147 N 
ATOM      5  C   UNL d   1      11.763   5.475 -18.070  0.00  0.00     0.286 C 
ATOM      6  C   UNL d   1      10.907   5.309 -16.816  0.00  0.00     0.286 C 
ENDROOT
BRANCH   4   7
ATOM      7  C   UNL d   1      13.228   4.363 -19.678  0.00  0.00     0.264 C 
BRANCH   7   8
ATOM      8  C   UNL d   1      12.453   4.951 -20.852  0.00  0.00     0.013 A 
ATOM      9  C   UNL d   1      11.198   4.419 -21.226  0.00  0.00    -0.002 A 
ATOM     10  C   UNL d   1      10.485   4.973 -22.306  0.00  0.00    -0.000 A 
ATOM     11  C   UNL d   1      11.025   6.059 -23.022  0.00  0.00    -0.000 A 
ATOM     12  C   UNL d   1      12.275   6.592 -22.656  0.00  0.00    -0.000 A 
ATOM     13  C   UNL d   1      12.987   6.041 -21.574  0.00  0.00    -0.002 A 
ENDBRANCH   7   8
BRANCH   7  14
ATOM     14  C   UNL d   1      13.882   3.060 -20.131  0.00  0.00     0.013 A 
ATOM     15  C   UNL d   1      15.152   3.099 -20.747  0.00  0.00    -0.001 A 
ATOM     16  C   UNL d   1      15.764   1.911 -21.191  0.00  0.00     0.011 A 
ATOM     17  C   UNL d   1      15.112   0.676 -21.020  0.00  0.00     0.058 A 
ATOM     18  C   UNL d   1      13.843   0.628 -20.412  0.00  0.00     0.011 A 
ATOM     19 CL   UNL d   1      15.858  -0.783 -21.558  0.00  0.00    -0.082 Cl
ATOM     20  C   UNL d   1      13.226   1.816 -19.977  0.00  0.00    -0.001 A 
ENDBRANCH   7  14
ENDBRANCH   4   7
BRANCH   1  21
ATOM     21  C   UNL d   1      11.015   4.866 -14.417  0.00  0.00     0.337 C 
BRANCH  21  22
ATOM     22  C   UNL d   1       9.993   3.754 -14.156  0.00  0.00     0.271 C 
ATOM     23  N   UNL d   1       8.710   4.059 -13.834  0.00  0.00    -0.299 N 
ATOM     24  C   UNL d   1       8.310   5.241 -13.014  0.00  0.00     0.093 A 
ATOM     25  C   UNL d   1       7.638   3.155 -13.910  0.00  0.00     0.058 A 
ATOM     26  C   UNL d   1       9.239   5.416 -11.767  0.00  0.00     0.025 C 
ATOM     27  C   UNL d   1       6.863   4.943 -12.547  0.00  0.00     0.051 A 
ATOM     28  C   UNL d   1       6.580   3.585 -13.134  0.00  0.00    -0.004 A 
ATOM     29  C   UNL d   1       5.476   2.754 -12.861  0.00  0.00    -0.003 A 
ATOM     30  C   UNL d   1       5.449   1.460 -13.431  0.00  0.00    -0.000 A 
ATOM     31  C   UNL d   1       6.473   1.050 -14.305  0.00  0.00     0.002 A 
ATOM     32  C   UNL d   1       7.577   1.903 -14.565  0.00  0.00     0.017 A 
ATOM     33  O   UNL d   1      10.399   2.582 -14.199  0.00  0.00    -0.270 OA
ENDBRANCH  21  22
ENDBRANCH   1  21
TORSDOF 5
