REMARK  4 active torsions:
REMARK  status: ('A' for Active; 'I' for Inactive)
REMARK    1  A    between atoms: S_2  and  C_3 
REMARK    2  A    between atoms: C_6  and  C_7 
REMARK    3  A    between atoms: N_11  and  C_12 
REMARK    4  A    between atoms: C_12  and  C_13 
ROOT
ATOM      1  C   UNL d   1       9.672   7.906  -9.908  0.00  0.00     0.149 C 
ATOM      2  O   UNL d   1       9.115   9.141 -10.331  0.00  0.00    -0.221 OA
ATOM      3  C   UNL d   1       9.345   7.700  -8.411  0.00  0.00     0.070 C 
ATOM      4  C   UNL d   1       9.998   8.730  -7.529  0.00  0.00     0.254 C 
ATOM      5  N   UNL d   1      11.442   8.617  -7.694  0.00  0.00     0.142 N 
ATOM      6  C   UNL d   1      11.803   9.000  -9.049  0.00  0.00     0.254 C 
ATOM      7  C   UNL d   1      11.187   8.047 -10.051  0.00  0.00     0.070 C 
ENDROOT
BRANCH   5   8
ATOM      8  C   UNL d   1      12.038   9.549  -6.782  0.00  0.00     0.278 C 
BRANCH   8   9
ATOM      9  C   UNL d   1      11.667   9.390  -5.356  0.00  0.00     0.033 C 
ATOM     10  C   UNL d   1      11.829   8.271  -4.475  0.00  0.00     0.035 C 
ATOM     11  C   UNL d   1      11.660   8.747  -3.161  0.00  0.00     0.162 C 
ATOM     12  C   UNL d   1      12.148   6.926  -4.558  0.00  0.00     0.004 C 
ATOM     13  N   UNL d   1      11.110   9.992  -3.303  0.00  0.00    -0.226 NA
ATOM     14  N   UNL d   1      11.771   8.059  -2.000  0.00  0.00    -0.225 NA
ATOM     15  C   UNL d   1      11.096  10.386  -4.622  0.00  0.00     0.098 C 
ATOM     16  C   UNL d   1      11.972   6.746  -2.159  0.00  0.00     0.101 C 
ATOM     17  C   UNL d   1      12.271   6.185  -3.388  0.00  0.00     0.021 C 
ENDBRANCH   8   9
ENDBRANCH   5   8
BRANCH   1  18
ATOM     18  C   UNL d   1       9.141   6.765 -10.801  0.00  0.00     0.005 A 
ATOM     19  C   UNL d   1       9.282   6.860 -12.208  0.00  0.00    -0.001 A 
ATOM     20  C   UNL d   1       8.760   5.856 -13.053  0.00  0.00     0.006 A 
ATOM     21  C   UNL d   1       8.030   4.784 -12.524  0.00  0.00     0.025 A 
ATOM     22  C   UNL d   1       7.859   4.687 -11.131  0.00  0.00     0.006 A 
ATOM     23  C   UNL d   1       8.418   5.666 -10.284  0.00  0.00    -0.001 A 
BRANCH  21  24
ATOM     24  S   UNL d   1       7.271   3.622 -13.629  0.00  0.00    -0.113 SA
ATOM     25  C   UNL d   1       8.639   3.006 -14.642  0.00  0.00     0.074 C 
ENDBRANCH  21  24
ENDBRANCH   1  18
TORSDOF 4
