REMARK  7 active torsions:
REMARK  status: ('A' for Active; 'I' for Inactive)
REMARK    1  A    between atoms: C_2  and  C_3 
REMARK       I    between atoms: C_2  and  N_8 
REMARK    2  A    between atoms: C_3  and  C_4 
REMARK    3  A    between atoms: N_8  and  C_9 
REMARK    4  A    between atoms: C_12  and  C_13 
REMARK    5  A    between atoms: C_13  and  C_14 
REMARK    6  A    between atoms: C_14  and  N_15 
REMARK    7  A    between atoms: C_18  and  C_19 
ROOT
ATOM      1  C   UNL d   1       8.501   5.010 -10.449  0.00  0.00     0.250 C 
ENDROOT
BRANCH   1   2
ATOM      2  C   UNL d   1       8.984   5.388 -11.865  0.00  0.00     0.035 C 
BRANCH   2   3
ATOM      3  C   UNL d   1       9.213   4.157 -12.763  0.00  0.00     0.002 C 
ATOM      4  C   UNL d   1       7.883   3.657 -13.359  0.00  0.00     0.002 C 
ATOM      5  C   UNL d   1       8.106   2.480 -14.317  0.00  0.00     0.024 C 
ATOM      6  C   UNL d   1       9.114   2.845 -15.427  0.00  0.00     0.106 C 
ATOM      7  C   UNL d   1      10.445   3.318 -14.832  0.00  0.00     0.024 C 
ATOM      8  C   UNL d   1      10.223   4.489 -13.871  0.00  0.00     0.002 C 
BRANCH   6   9
ATOM      9  N   UNL d   1       9.345   1.701 -16.298  0.00  0.00    -0.240 NA
ATOM     10  C   UNL d   1       8.550   1.356 -17.317  0.00  0.00     0.260 C 
ATOM     11  O   UNL d   1       7.581   2.030 -17.670  0.00  0.00    -0.270 OA
BRANCH  10  12
ATOM     12  C   UNL d   1       8.895   0.048 -18.035  0.00  0.00     0.193 C 
BRANCH  12  13
ATOM     13  C   UNL d   1       7.767  -0.502 -18.929  0.00  0.00     0.407 C 
ATOM     14  F   UNL d   1       8.172  -1.648 -19.474  0.00  0.00    -0.170 F 
ATOM     15  F   UNL d   1       6.672  -0.736 -18.205  0.00  0.00    -0.170 F 
ATOM     16  F   UNL d   1       7.465   0.350 -19.910  0.00  0.00    -0.170 F 
ENDBRANCH  12  13
ENDBRANCH  10  12
ENDBRANCH   6   9
ENDBRANCH   2   3
ENDBRANCH   1   2
BRANCH   1  17
ATOM     17  N   UNL d   1       8.907   5.987  -9.446  0.00  0.00     0.137 N 
ATOM     18  C   UNL d   1       8.342   5.632  -8.138  0.00  0.00     0.251 C 
ATOM     19  C   UNL d   1       8.694   6.693  -7.084  0.00  0.00     0.040 C 
ATOM     20  C   UNL d   1      10.208   6.851  -6.962  0.00  0.00     0.028 C 
ATOM     21  C   UNL d   1      10.793   7.077  -8.348  0.00  0.00     0.040 C 
ATOM     22  C   UNL d   1      10.359   5.975  -9.305  0.00  0.00     0.251 C 
BRANCH  20  23
ATOM     23  C   UNL d   1      10.600   7.977  -6.070  0.00  0.00     0.004 A 
ATOM     24  C   UNL d   1      11.255   7.911  -4.795  0.00  0.00     0.021 A 
ATOM     25  C   UNL d   1      11.363   9.246  -4.344  0.00  0.00     0.100 A 
ATOM     26  C   UNL d   1      11.728   6.896  -3.933  0.00  0.00     0.002 A 
ATOM     27  O   UNL d   1      10.832  10.102  -5.286  0.00  0.00    -0.305 OA
ATOM     28  C   UNL d   1      11.888   9.593  -3.098  0.00  0.00     0.025 A 
ATOM     29  C   UNL d   1      10.404   9.314  -6.312  0.00  0.00     0.118 A 
ATOM     30  C   UNL d   1      12.359   8.565  -2.256  0.00  0.00     0.002 A 
ATOM     31  C   UNL d   1      12.268   7.216  -2.668  0.00  0.00     0.000 A 
ENDBRANCH  20  23
ENDBRANCH   1  17
TORSDOF 7
