REMARK  2 active torsions:
REMARK  status: ('A' for Active; 'I' for Inactive)
REMARK    1  A    between atoms: C_4  and  C_5 
REMARK    2  A    between atoms: C_5  and  N_6 
ROOT
ATOM      1  N   UNL d   1       8.612   1.679 -14.830  0.00  0.00     0.142 N 
ATOM      2  C   UNL d   1       8.452   0.340 -15.414  0.00  0.00     0.254 C 
ATOM      3  C   UNL d   1       9.861  -0.009 -15.964  0.00  0.00     0.070 C 
ATOM      4  C   UNL d   1       9.826  -0.543 -17.410  0.00  0.00     0.151 C 
ATOM      5  O   UNL d   1      11.119  -0.557 -18.011  0.00  0.00    -0.331 OA
ATOM      6  C   UNL d   1      11.752   0.667 -18.050  0.00  0.00     0.090 A 
ATOM      7  C   UNL d   1      12.666   0.942 -19.084  0.00  0.00     0.024 A 
ATOM      8  C   UNL d   1      13.316   2.190 -19.154  0.00  0.00     0.002 A 
ATOM      9  C   UNL d   1      13.059   3.178 -18.186  0.00  0.00    -0.000 A 
ATOM     10  C   UNL d   1      12.168   2.903 -17.132  0.00  0.00    -0.002 A 
ATOM     11  C   UNL d   1      11.523   1.643 -17.055  0.00  0.00     0.002 A 
ATOM     12  C   UNL d   1      10.599   1.314 -15.906  0.00  0.00     0.062 C 
ATOM     13  C   UNL d   1       9.500   2.313 -15.793  0.00  0.00     0.255 C 
ENDROOT
BRANCH   1  14
ATOM     14  C   UNL d   1       7.319   2.355 -14.636  0.00  0.00     0.277 C 
BRANCH  14  15
ATOM     15  C   UNL d   1       7.364   3.626 -13.764  0.00  0.00     0.011 A 
ATOM     16  C   UNL d   1       8.498   4.487 -13.704  0.00  0.00    -0.002 A 
ATOM     17  C   UNL d   1       8.505   5.628 -12.936  0.00  0.00    -0.000 A 
ATOM     18  C   UNL d   1       7.401   5.995 -12.171  0.00  0.00    -0.000 A 
ATOM     19  C   UNL d   1       6.236   5.157 -12.195  0.00  0.00    -0.000 A 
ATOM     20  C   UNL d   1       6.217   3.973 -12.999  0.00  0.00    -0.002 A 
ENDBRANCH  14  15
ENDBRANCH   1  14
TORSDOF 2
