REMARK  6 active torsions:
REMARK  status: ('A' for Active; 'I' for Inactive)
REMARK    1  A    between atoms: C_5  and  C_6 
REMARK       I    between atoms: C_6  and  N_8 
REMARK    2  A    between atoms: N_8  and  C_9 
REMARK    3  A    between atoms: C_12  and  C_13 
REMARK    4  A    between atoms: C_13  and  C_14 
REMARK    5  A    between atoms: C_14  and  N_15 
REMARK    6  A    between atoms: C_18  and  C_19 
ROOT
ATOM      1  C   UNL d   1       8.585   4.717 -13.671  0.00  0.00     0.035 C 
ENDROOT
BRANCH   1   2
ATOM      2  C   UNL d   1       9.231   5.380 -12.440  0.00  0.00     0.002 C 
ATOM      3  C   UNL d   1       8.800   6.851 -12.283  0.00  0.00     0.002 C 
ATOM      4  C   UNL d   1       9.450   7.512 -11.057  0.00  0.00     0.024 C 
ATOM      5  C   UNL d   1       9.183   6.729  -9.753  0.00  0.00     0.106 C 
ATOM      6  C   UNL d   1       9.551   5.260  -9.900  0.00  0.00     0.024 C 
ATOM      7  C   UNL d   1       8.929   4.624 -11.149  0.00  0.00     0.002 C 
BRANCH   5   8
ATOM      8  N   UNL d   1       9.907   7.358  -8.656  0.00  0.00    -0.240 NA
ATOM      9  C   UNL d   1       9.688   7.109  -7.371  0.00  0.00     0.251 C 
ATOM     10  O   UNL d   1       8.754   6.423  -6.962  0.00  0.00    -0.271 OA
BRANCH   9  11
ATOM     11  C   UNL d   1      10.744   7.645  -6.404  0.00  0.00     0.085 C 
ATOM     12  C   UNL d   1      10.816   6.819  -5.107  0.00  0.00     0.045 C 
ATOM     13  C   UNL d   1      11.790   7.431  -4.087  0.00  0.00     0.251 C 
ATOM     14  N   UNL d   1      11.465   8.836  -3.830  0.00  0.00     0.139 N 
ATOM     15  C   UNL d   1      12.423   9.362  -2.880  0.00  0.00     0.285 C 
ATOM     16  C   UNL d   1      11.508   9.636  -5.062  0.00  0.00     0.251 C 
ATOM     17  C   UNL d   1      10.469   9.116  -6.073  0.00  0.00     0.045 C 
ENDBRANCH   9  11
ENDBRANCH   5   8
ENDBRANCH   1   2
BRANCH   1  18
ATOM     18  C   UNL d   1       9.240   3.367 -14.038  0.00  0.00     0.250 C 
BRANCH  18  19
ATOM     19  N   UNL d   1       8.637   2.781 -15.231  0.00  0.00     0.137 N 
ATOM     20  C   UNL d   1       9.542   1.781 -15.806  0.00  0.00     0.251 C 
ATOM     21  C   UNL d   1       8.949   1.241 -17.114  0.00  0.00     0.040 C 
ATOM     22  C   UNL d   1       7.562   0.597 -16.905  0.00  0.00     0.028 C 
ATOM     23  C   UNL d   1       6.671   1.585 -16.152  0.00  0.00     0.040 C 
ATOM     24  C   UNL d   1       7.360   2.142 -14.894  0.00  0.00     0.251 C 
BRANCH  22  25
ATOM     25  C   UNL d   1       6.884   0.136 -18.197  0.00  0.00     0.002 A 
ATOM     26  C   UNL d   1       6.031  -0.988 -18.212  0.00  0.00     0.115 A 
ATOM     27  C   UNL d   1       5.414  -1.432 -19.369  0.00  0.00     0.119 A 
ATOM     28  O   UNL d   1       5.671  -1.796 -17.178  0.00  0.00    -0.300 OA
ATOM     29  C   UNL d   1       5.594  -0.778 -20.600  0.00  0.00     0.026 A 
ATOM     30  O   UNL d   1       4.670  -2.536 -19.096  0.00  0.00    -0.300 OA
ATOM     31  C   UNL d   1       6.426   0.362 -20.613  0.00  0.00     0.002 A 
ATOM     32  C   UNL d   1       7.056   0.821 -19.432  0.00  0.00    -0.002 A 
ATOM     33  C   UNL d   1       4.826  -2.780 -17.720  0.00  0.00     0.304 A 
ENDBRANCH  22  25
ENDBRANCH  18  19
ENDBRANCH   1  18
TORSDOF 6
