REMARK  11 active torsions:
REMARK  status: ('A' for Active; 'I' for Inactive)
REMARK    1  A    between atoms: O_2  and  C_3 
REMARK    2  A    between atoms: C_7  and  C_8 
REMARK    3  A    between atoms: C_8  and  C_9 
REMARK    4  A    between atoms: C_9  and  C_10 
REMARK    5  A    between atoms: C_15  and  O_16 
REMARK    6  A    between atoms: O_16  and  C_17 
REMARK    7  A    between atoms: C_17  and  C_18 
REMARK    8  A    between atoms: C_18  and  C_19 
REMARK    9  A    between atoms: C_19  and  N_20 
REMARK   10  A    between atoms: N_23  and  C_24 
REMARK   11  A    between atoms: C_29  and  O_30 
ROOT
ATOM      1  O   UNL d   1      12.295   4.786 -19.578  0.00  0.00    -0.331 OA
ENDROOT
BRANCH   1   2
ATOM      2  C   UNL d   1      11.287   5.682 -19.881  0.00  0.00     0.090 A 
ATOM      3  C   UNL d   1      11.680   6.988 -20.271  0.00  0.00     0.001 A 
ATOM      4  C   UNL d   1      10.708   7.971 -20.568  0.00  0.00    -0.002 A 
ATOM      5  C   UNL d   1       9.343   7.663 -20.448  0.00  0.00    -0.000 A 
ATOM      6  C   UNL d   1       8.945   6.368 -20.046  0.00  0.00     0.002 A 
ATOM      7  C   UNL d   1       9.903   5.369 -19.798  0.00  0.00     0.024 A 
BRANCH   3   8
ATOM      8  C   UNL d   1      13.161   7.347 -20.395  0.00  0.00     0.033 C 
BRANCH   8   9
ATOM      9  C   UNL d   1      13.785   7.751 -19.049  0.00  0.00     0.031 C 
BRANCH   9  10
ATOM     10  C   UNL d   1      15.261   8.108 -19.168  0.00  0.00    -0.020 A 
ATOM     11  C   UNL d   1      15.616   9.380 -19.657  0.00  0.00    -0.004 A 
ATOM     12  C   UNL d   1      16.972   9.726 -19.784  0.00  0.00     0.002 A 
ATOM     13  C   UNL d   1      17.977   8.815 -19.417  0.00  0.00     0.024 A 
ATOM     14  C   UNL d   1      17.641   7.527 -18.925  0.00  0.00     0.094 A 
ATOM     15  C   UNL d   1      16.269   7.185 -18.805  0.00  0.00     0.020 A 
BRANCH  14  16
ATOM     16  O   UNL d   1      18.588   6.590 -18.561  0.00  0.00    -0.328 OA
ATOM     17  C   UNL d   1      19.960   6.938 -18.744  0.00  0.00     0.181 C 
ENDBRANCH  14  16
ENDBRANCH   9  10
ENDBRANCH   8   9
ENDBRANCH   3   8
ENDBRANCH   1   2
BRANCH   1  18
ATOM     18  C   UNL d   1      11.974   3.416 -19.390  0.00  0.00     0.151 C 
BRANCH  18  19
ATOM     19  C   UNL d   1      11.341   3.167 -18.005  0.00  0.00     0.068 C 
BRANCH  19  20
ATOM     20  C   UNL d   1      10.746   1.745 -17.913  0.00  0.00     0.253 C 
BRANCH  20  21
ATOM     21  N   UNL d   1       9.880   1.616 -16.736  0.00  0.00     0.141 N 
ATOM     22  C   UNL d   1       9.562   0.205 -16.521  0.00  0.00     0.274 C 
ATOM     23  C   UNL d   1       8.754   0.093 -15.204  0.00  0.00     0.137 C 
ATOM     24  N   UNL d   1       7.532   0.859 -15.304  0.00  0.00    -0.343 N 
ATOM     25  C   UNL d   1       7.728   2.248 -15.622  0.00  0.00     0.137 C 
ATOM     26  C   UNL d   1       8.609   2.360 -16.890  0.00  0.00     0.274 C 
BRANCH  24  27
ATOM     27  C   UNL d   1       6.247   0.283 -15.174  0.00  0.00     0.079 A 
ATOM     28  C   UNL d   1       5.803  -0.768 -16.027  0.00  0.00     0.110 A 
ATOM     29  C   UNL d   1       4.530  -1.340 -15.807  0.00  0.00     0.026 A 
ATOM     30  C   UNL d   1       3.686  -0.851 -14.783  0.00  0.00     0.002 A 
ATOM     31  C   UNL d   1       4.130   0.203 -13.965  0.00  0.00     0.002 A 
ATOM     32  C   UNL d   1       5.407   0.765 -14.157  0.00  0.00     0.019 A 
BRANCH  28  33
ATOM     33  O   UNL d   1       6.639  -1.175 -17.062  0.00  0.00    -0.327 OA
ATOM     34  C   UNL d   1       6.227  -2.281 -17.841  0.00  0.00     0.181 C 
ENDBRANCH  28  33
ENDBRANCH  24  27
ENDBRANCH  20  21
ENDBRANCH  19  20
ENDBRANCH  18  19
ENDBRANCH   1  18
TORSDOF 11
