REMARK  7 active torsions:
REMARK  status: ('A' for Active; 'I' for Inactive)
REMARK    1  A    between atoms: C_3  and  S_4 
REMARK    2  A    between atoms: S_4  and  C_5 
REMARK    3  A    between atoms: C_5  and  C_6 
REMARK    4  A    between atoms: C_6  and  C_7 
REMARK    5  A    between atoms: C_7  and  N_8 
REMARK    6  A    between atoms: N_13  and  C_14 
REMARK    7  A    between atoms: C_25  and  C_26 
ROOT
ATOM      1  C   UNL d   1       9.951   3.096 -15.004  0.00  0.00     0.251 C 
ENDROOT
BRANCH   1   2
ATOM      2  C   UNL d   1       9.439   4.381 -14.312  0.00  0.00     0.047 C 
BRANCH   2   3
ATOM      3  C   UNL d   1       8.491   4.085 -13.151  0.00  0.00     0.067 C 
BRANCH   3   4
ATOM      4  S   UNL d   1       7.796   5.630 -12.498  0.00  0.00    -0.075 SA
BRANCH   4   5
ATOM      5  C   UNL d   1       8.799   5.792 -11.062  0.00  0.00     0.193 A 
ATOM      6  N   UNL d   1       9.479   6.893 -10.752  0.00  0.00    -0.292 N 
ATOM      7  C   UNL d   1       9.553   8.155 -11.489  0.00  0.00     0.134 C 
ATOM      8  C   UNL d   1      10.062   6.561  -9.578  0.00  0.00     0.143 A 
ATOM      9  N   UNL d   1       9.790   5.292  -9.223  0.00  0.00    -0.133 NA
ATOM     10  N   UNL d   1       8.947   4.796 -10.179  0.00  0.00    -0.122 NA
BRANCH   8  11
ATOM     11  C   UNL d   1      10.957   7.472  -8.750  0.00  0.00     0.059 C 
ATOM     12  C   UNL d   1      10.382   8.903  -8.567  0.00  0.00     0.007 C 
ATOM     13  C   UNL d   1       9.089   8.807  -7.744  0.00  0.00     0.000 C 
ATOM     14  C   UNL d   1       9.330   8.202  -6.362  0.00  0.00     0.000 C 
ATOM     15  C   UNL d   1       9.978   6.816  -6.458  0.00  0.00     0.000 C 
ATOM     16  C   UNL d   1      11.245   6.871  -7.339  0.00  0.00     0.007 C 
ENDBRANCH   8  11
ENDBRANCH   4   5
ENDBRANCH   3   4
ENDBRANCH   2   3
ENDBRANCH   1   2
BRANCH   1  17
ATOM     17  N   UNL d   1      10.575   3.354 -16.301  0.00  0.00     0.139 N 
ATOM     18  C   UNL d   1      11.685   4.298 -16.234  0.00  0.00     0.272 C 
ATOM     19  C   UNL d   1      11.958   4.595 -17.708  0.00  0.00     0.117 C 
ATOM     20  C   UNL d   1      10.583   4.510 -18.367  0.00  0.00     0.058 C 
ATOM     21  N   UNL d   1      12.462   5.950 -17.929  0.00  0.00    -0.348 N 
ATOM     22  C   UNL d   1       9.662   3.885 -17.311  0.00  0.00     0.252 C 
ATOM     23  C   UNL d   1      10.237   5.961 -18.737  0.00  0.00     0.028 C 
ATOM     24  C   UNL d   1      11.604   6.624 -18.892  0.00  0.00     0.102 C 
BRANCH  21  25
ATOM     25  C   UNL d   1      13.846   6.221 -17.893  0.00  0.00     0.056 A 
ATOM     26  C   UNL d   1      14.366   7.413 -18.464  0.00  0.00     0.019 A 
ATOM     27  C   UNL d   1      15.748   7.678 -18.445  0.00  0.00     0.031 A 
ATOM     28  C   UNL d   1      16.635   6.765 -17.852  0.00  0.00     0.140 A 
ATOM     29  C   UNL d   1      16.136   5.589 -17.267  0.00  0.00     0.031 A 
ATOM     30  F   UNL d   1      17.964   7.020 -17.822  0.00  0.00    -0.204 F 
ATOM     31  C   UNL d   1      14.756   5.319 -17.291  0.00  0.00     0.019 A 
ENDBRANCH  21  25
ENDBRANCH   1  17
TORSDOF 7
