REMARK  6 active torsions:
REMARK  status: ('A' for Active; 'I' for Inactive)
REMARK    1  A    between atoms: C_2  and  C_3 
REMARK    2  A    between atoms: N_16  and  C_17 
REMARK    3  A    between atoms: C_17  and  C_18 
REMARK    4  A    between atoms: C_18  and  C_20 
REMARK    5  A    between atoms: C_20  and  N_21 
REMARK    6  A    between atoms: N_24  and  C_25 
ROOT
ATOM      1  C   UNL d   1      11.197   7.812  -5.421  0.00  0.00     0.066 A 
ATOM      2  C   UNL d   1      11.217   6.704  -4.565  0.00  0.00     0.018 A 
ATOM      3  C   UNL d   1      11.855   6.759  -3.306  0.00  0.00     0.002 A 
ATOM      4  C   UNL d   1      12.480   7.933  -2.872  0.00  0.00     0.001 A 
ATOM      5  C   UNL d   1      12.464   9.054  -3.703  0.00  0.00     0.012 A 
ATOM      6  C   UNL d   1      11.832   8.985  -4.964  0.00  0.00     0.084 A 
ATOM      7  C   UNL d   1      11.839  10.170  -5.780  0.00  0.00     0.102 C 
ATOM      8  N   UNL d   1      11.830  11.098  -6.438  0.00  0.00    -0.191 NA
ENDROOT
BRANCH   1   9
ATOM      9  N   UNL d   1      10.592   7.730  -6.662  0.00  0.00    -0.344 N 
ATOM     10  C   UNL d   1       9.153   7.621  -6.829  0.00  0.00     0.137 C 
ATOM     11  C   UNL d   1       8.832   6.416  -7.731  0.00  0.00     0.274 C 
ATOM     12  N   UNL d   1       9.471   6.528  -9.028  0.00  0.00     0.144 N 
ATOM     13  C   UNL d   1      10.905   6.569  -8.773  0.00  0.00     0.274 C 
ATOM     14  C   UNL d   1      11.343   7.763  -7.905  0.00  0.00     0.137 C 
BRANCH  12  15
ATOM     15  C   UNL d   1       9.121   5.377  -9.893  0.00  0.00     0.285 C 
BRANCH  15  16
ATOM     16  C   UNL d   1       9.549   5.555 -11.369  0.00  0.00     0.208 C 
ATOM     17  O   UNL d   1       8.573   6.419 -11.936  0.00  0.00    -0.219 OA
BRANCH  16  18
ATOM     18  C   UNL d   1       9.710   4.191 -12.080  0.00  0.00     0.148 C 
BRANCH  18  19
ATOM     19  N   UNL d   1       9.913   4.241 -13.533  0.00  0.00    -0.247 N 
ATOM     20  C   UNL d   1       8.881   4.415 -14.357  0.00  0.00     0.348 A 
ATOM     21  N   UNL d   1       9.352   4.473 -15.607  0.00  0.00    -0.209 NA
ATOM     22  O   UNL d   1       7.701   4.498 -14.025  0.00  0.00    -0.245 OA
ATOM     23  C   UNL d   1      10.776   4.244 -15.723  0.00  0.00     0.179 A 
ATOM     24  C   UNL d   1      11.077   2.935 -16.477  0.00  0.00     0.039 C 
ATOM     25  C   UNL d   1      11.041   4.040 -14.231  0.00  0.00     0.265 A 
ATOM     26  O   UNL d   1      12.141   3.721 -13.786  0.00  0.00    -0.269 OA
BRANCH  23  27
ATOM     27  C   UNL d   1      11.524   5.455 -16.337  0.00  0.00     0.006 A 
ATOM     28  C   UNL d   1      11.166   6.023 -17.597  0.00  0.00    -0.002 A 
ATOM     29  C   UNL d   1      11.892   7.144 -18.093  0.00  0.00    -0.000 A 
ATOM     30  C   UNL d   1      10.100   5.523 -18.384  0.00  0.00    -0.000 A 
ATOM     31  C   UNL d   1      12.944   7.714 -17.358  0.00  0.00    -0.000 A 
ATOM     32  C   UNL d   1      11.547   7.739 -19.319  0.00  0.00    -0.000 A 
ATOM     33  C   UNL d   1      13.304   7.157 -16.132  0.00  0.00    -0.000 A 
ATOM     34  C   UNL d   1      12.617   6.038 -15.644  0.00  0.00    -0.002 A 
ATOM     35  C   UNL d   1      10.488   7.225 -20.081  0.00  0.00    -0.000 A 
ATOM     36  C   UNL d   1       9.769   6.113 -19.615  0.00  0.00    -0.000 A 
ENDBRANCH  23  27
ENDBRANCH  18  19
ENDBRANCH  16  18
ENDBRANCH  15  16
ENDBRANCH  12  15
ENDBRANCH   1   9
TORSDOF 6
