REMARK  7 active torsions:
REMARK  status: ('A' for Active; 'I' for Inactive)
REMARK    1  A    between atoms: C_4  and  C_5 
REMARK    2  A    between atoms: N_17  and  C_18 
REMARK    3  A    between atoms: C_18  and  C_19 
REMARK    4  A    between atoms: C_19  and  C_20 
REMARK    5  A    between atoms: C_20  and  C_21 
REMARK    6  A    between atoms: C_21  and  N_22 
REMARK    7  A    between atoms: C_25  and  C_26 
ROOT
ATOM      1  C   UNL d   1       9.817   4.705 -15.895  0.00  0.00     0.112 C 
ENDROOT
BRANCH   1   2
ATOM      2  N   UNL d   1      10.361   3.508 -16.523  0.00  0.00    -0.270 N 
ATOM      3  C   UNL d   1       9.668   2.683 -17.319  0.00  0.00     0.240 A 
ATOM      4  O   UNL d   1       8.480   2.787 -17.634  0.00  0.00    -0.272 OA
ATOM      5  C   UNL d   1      10.553   1.567 -17.848  0.00  0.00     0.102 A 
ATOM      6  C   UNL d   1      11.925   1.889 -17.234  0.00  0.00     0.113 A 
ATOM      7  C   UNL d   1      11.628   3.122 -16.374  0.00  0.00     0.243 A 
ATOM      8  O   UNL d   1      12.465   3.682 -15.660  0.00  0.00    -0.272 OA
BRANCH   6   9
ATOM      9  C   UNL d   1      12.981   2.144 -18.298  0.00  0.00     0.008 A 
ATOM     10  C   UNL d   1      13.514   1.179 -19.232  0.00  0.00     0.018 A 
ATOM     11  C   UNL d   1      14.494   1.830 -20.036  0.00  0.00     0.081 A 
ATOM     12  C   UNL d   1      13.284  -0.197 -19.484  0.00  0.00     0.031 A 
ATOM     13  N   UNL d   1      14.533   3.136 -19.593  0.00  0.00    -0.244 NA
ATOM     14  C   UNL d   1      15.206   1.163 -21.046  0.00  0.00     0.021 A 
ATOM     15  C   UNL d   1      13.638   3.326 -18.564  0.00  0.00     0.095 A 
ATOM     16  C   UNL d   1      14.953  -0.201 -21.274  0.00  0.00     0.031 A 
ATOM     17  C   UNL d   1      14.000  -0.876 -20.492  0.00  0.00     0.140 A 
ATOM     18  F   UNL d   1      13.778  -2.191 -20.726  0.00  0.00    -0.204 F 
ENDBRANCH   6   9
ENDBRANCH   1   2
BRANCH   1  19
ATOM     19  C   UNL d   1       9.199   4.348 -14.532  0.00  0.00     0.027 C 
BRANCH  19  20
ATOM     20  C   UNL d   1       8.837   5.629 -13.775  0.00  0.00     0.037 C 
BRANCH  20  21
ATOM     21  C   UNL d   1       8.009   5.422 -12.483  0.00  0.00     0.250 C 
BRANCH  21  22
ATOM     22  N   UNL d   1       8.827   5.627 -11.288  0.00  0.00     0.137 N 
ATOM     23  C   UNL d   1       9.338   7.008 -11.226  0.00  0.00     0.251 C 
ATOM     24  C   UNL d   1      10.227   7.148  -9.982  0.00  0.00     0.040 C 
ATOM     25  C   UNL d   1       9.424   6.882  -8.717  0.00  0.00     0.028 C 
ATOM     26  C   UNL d   1       8.759   5.485  -8.827  0.00  0.00     0.040 C 
ATOM     27  C   UNL d   1       7.966   5.355 -10.135  0.00  0.00     0.251 C 
BRANCH  25  28
ATOM     28  C   UNL d   1      10.320   6.971  -7.516  0.00  0.00    -0.002 A 
ATOM     29  C   UNL d   1      10.490   7.956  -6.508  0.00  0.00     0.015 A 
ATOM     30  C   UNL d   1      11.431   7.530  -5.537  0.00  0.00     0.081 A 
ATOM     31  C   UNL d   1       9.950   9.194  -6.333  0.00  0.00     0.001 A 
ATOM     32  N   UNL d   1      11.810   6.302  -5.990  0.00  0.00    -0.244 NA
ATOM     33  C   UNL d   1      11.851   8.294  -4.443  0.00  0.00     0.019 A 
ATOM     34  C   UNL d   1      11.215   6.037  -7.191  0.00  0.00     0.095 A 
ATOM     35  C   UNL d   1      11.329   9.586  -4.310  0.00  0.00     0.002 A 
ATOM     36  C   UNL d   1      10.383   9.988  -5.253  0.00  0.00     0.000 A 
ENDBRANCH  25  28
ENDBRANCH  21  22
ENDBRANCH  20  21
ENDBRANCH  19  20
ENDBRANCH   1  19
TORSDOF 7
