REMARK  4 active torsions:
REMARK  status: ('A' for Active; 'I' for Inactive)
REMARK       I    between atoms: C_2  and  N_3 
REMARK    1  A    between atoms: C_2  and  C_17 
REMARK    2  A    between atoms: N_3  and  C_4 
REMARK    3  A    between atoms: C_7  and  O_8 
REMARK    4  A    between atoms: O_8  and  C_9 
ROOT
ATOM      1  C   UNL d   1       9.712   6.985  -9.888  0.00  0.00     0.104 A 
ATOM      2  C   UNL d   1       9.453   5.597  -9.938  0.00  0.00     0.025 A 
ATOM      3  C   UNL d   1       9.022   5.039 -11.153  0.00  0.00     0.046 A 
ATOM      4  C   UNL d   1       8.845   5.873 -12.273  0.00  0.00     0.183 A 
ATOM      5  N   UNL d   1       9.058   7.199 -12.231  0.00  0.00    -0.219 NA
ATOM      6  C   UNL d   1       9.469   7.733 -11.060  0.00  0.00     0.120 A 
ENDROOT
BRANCH   1   7
ATOM      7  N   UNL d   1      10.133   7.681  -8.721  0.00  0.00    -0.206 NA
ATOM      8  C   UNL d   1      10.705   7.190  -7.608  0.00  0.00     0.281 C 
ATOM      9  O   UNL d   1      10.923   6.001  -7.403  0.00  0.00    -0.265 OA
BRANCH   8  10
ATOM     10  C   UNL d   1      11.057   8.232  -6.606  0.00  0.00     0.078 A 
ATOM     11  C   UNL d   1      11.398   7.955  -5.234  0.00  0.00     0.024 A 
ATOM     12  C   UNL d   1      11.713   9.205  -4.623  0.00  0.00     0.082 A 
ATOM     13  C   UNL d   1      11.486   6.804  -4.414  0.00  0.00     0.002 A 
ATOM     14  N   UNL d   1      11.565  10.160  -5.612  0.00  0.00    -0.244 NA
ATOM     15  C   UNL d   1      12.085   9.302  -3.271  0.00  0.00     0.019 A 
ATOM     16  C   UNL d   1      11.196   9.577  -6.807  0.00  0.00     0.104 A 
ATOM     17  C   UNL d   1      12.172   8.138  -2.486  0.00  0.00     0.002 A 
ATOM     18  C   UNL d   1      11.866   6.889  -3.059  0.00  0.00     0.000 A 
ENDBRANCH   8  10
ENDBRANCH   1   7
BRANCH   4  19
ATOM     19  O   UNL d   1       8.420   5.393 -13.488  0.00  0.00    -0.288 OA
BRANCH  19  20
ATOM     20  C   UNL d   1       8.913   4.183 -13.905  0.00  0.00     0.121 A 
ATOM     21  C   UNL d   1      10.297   3.993 -14.110  0.00  0.00     0.124 A 
ATOM     22  N   UNL d   1      10.839   2.826 -14.518  0.00  0.00    -0.240 NA
ATOM     23  C   UNL d   1      10.001   1.796 -14.749  0.00  0.00     0.099 A 
ATOM     24  C   UNL d   1       8.605   1.878 -14.581  0.00  0.00     0.023 A 
ATOM     25  C   UNL d   1       8.048   3.097 -14.146  0.00  0.00     0.028 A 
ENDBRANCH  19  20
ENDBRANCH   4  19
TORSDOF 4
