REMARK  10 active torsions:
REMARK  status: ('A' for Active; 'I' for Inactive)
REMARK    1  A    between atoms: C_2  and  O_3 
REMARK    2  A    between atoms: O_3  and  C_4 
REMARK    3  A    between atoms: C_9  and  N_10 
REMARK    4  A    between atoms: N_13  and  C_14 
REMARK    5  A    between atoms: C_14  and  C_15 
REMARK    6  A    between atoms: C_15  and  C_16 
REMARK    7  A    between atoms: C_16  and  C_17 
REMARK    8  A    between atoms: C_17  and  C_18 
REMARK    9  A    between atoms: C_18  and  C_19 
REMARK   10  A    between atoms: C_19  and  N_20 
ROOT
ATOM      1  C   UNL d   1      11.755   3.114 -16.394  0.00  0.00     0.035 C 
ENDROOT
BRANCH   1   2
ATOM      2  C   UNL d   1      11.243   1.674 -16.188  0.00  0.00     0.250 C 
BRANCH   2   3
ATOM      3  N   UNL d   1       9.844   1.646 -15.755  0.00  0.00     0.141 N 
ATOM      4  C   UNL d   1       9.511   0.289 -15.309  0.00  0.00     0.274 C 
ATOM      5  C   UNL d   1       8.057   0.231 -14.782  0.00  0.00     0.137 C 
ATOM      6  N   UNL d   1       7.135   0.729 -15.789  0.00  0.00    -0.343 N 
ATOM      7  C   UNL d   1       7.478   2.016 -16.358  0.00  0.00     0.137 C 
ATOM      8  C   UNL d   1       8.935   2.004 -16.857  0.00  0.00     0.274 C 
BRANCH   6   9
ATOM      9  C   UNL d   1       6.054  -0.067 -16.257  0.00  0.00     0.079 A 
ATOM     10  C   UNL d   1       5.798  -0.221 -17.643  0.00  0.00     0.109 A 
ATOM     11  C   UNL d   1       4.721  -1.052 -18.054  0.00  0.00     0.026 A 
ATOM     12  C   UNL d   1       3.881  -1.637 -17.102  0.00  0.00     0.002 A 
ATOM     13  C   UNL d   1       4.131  -1.479 -15.727  0.00  0.00     0.002 A 
ATOM     14  C   UNL d   1       5.234  -0.709 -15.305  0.00  0.00     0.019 A 
BRANCH  10  15
ATOM     15  O   UNL d   1       6.610   0.420 -18.558  0.00  0.00    -0.329 OA
BRANCH  15  16
ATOM     16  C   UNL d   1       6.368   0.273 -19.946  0.00  0.00     0.149 C 
ATOM     17  C   UNL d   1       5.063   0.936 -20.409  0.00  0.00     0.035 C 
ENDBRANCH  15  16
ENDBRANCH  10  15
ENDBRANCH   6   9
ENDBRANCH   2   3
ENDBRANCH   1   2
BRANCH   1  18
ATOM     18  C   UNL d   1      12.938   3.191 -17.385  0.00  0.00     0.002 C 
BRANCH  18  19
ATOM     19  C   UNL d   1      13.197   4.598 -17.951  0.00  0.00     0.002 C 
BRANCH  19  20
ATOM     20  C   UNL d   1      12.061   5.112 -18.855  0.00  0.00     0.025 C 
BRANCH  20  21
ATOM     21  C   UNL d   1      12.030   6.644 -18.990  0.00  0.00     0.109 C 
BRANCH  21  22
ATOM     22  N   UNL d   1      10.834   7.094 -19.706  0.00  0.00    -0.296 N 
ATOM     23  C   UNL d   1      10.873   7.865 -20.902  0.00  0.00     0.063 A 
ATOM     24  C   UNL d   1      11.933   8.387 -21.672  0.00  0.00     0.017 A 
ATOM     25  C   UNL d   1       9.586   8.107 -21.350  0.00  0.00     0.021 A 
ATOM     26  C   UNL d   1      11.626   9.123 -22.846  0.00  0.00     0.002 A 
ATOM     27  C   UNL d   1      10.281   9.333 -23.253  0.00  0.00     0.000 A 
ATOM     28  C   UNL d   1       9.211   8.818 -22.489  0.00  0.00     0.002 A 
ATOM     29  C   UNL d   1       7.816   8.919 -22.703  0.00  0.00     0.000 A 
ATOM     30  C   UNL d   1       6.899   8.312 -21.803  0.00  0.00     0.000 A 
ATOM     31  C   UNL d   1       7.355   7.596 -20.668  0.00  0.00     0.005 A 
ATOM     32  C   UNL d   1       8.741   7.504 -20.451  0.00  0.00     0.058 A 
ATOM     33  C   UNL d   1       9.533   6.853 -19.379  0.00  0.00     0.261 A 
ATOM     34  O   UNL d   1       9.062   6.238 -18.423  0.00  0.00    -0.267 OA
ENDBRANCH  21  22
ENDBRANCH  20  21
ENDBRANCH  19  20
ENDBRANCH  18  19
ENDBRANCH   1  18
TORSDOF 10
