REMARK  7 active torsions:
REMARK  status: ('A' for Active; 'I' for Inactive)
REMARK    1  A    between atoms: O_2  and  C_3 
REMARK    2  A    between atoms: C_12  and  C_13 
REMARK    3  A    between atoms: C_13  and  C_15 
REMARK    4  A    between atoms: C_15  and  C_16 
REMARK    5  A    between atoms: C_16  and  C_17 
REMARK    6  A    between atoms: N_20  and  C_21 
REMARK    7  A    between atoms: C_21  and  C_22 
ROOT
ATOM      1  C   UNL d   1       9.258   3.539 -15.085  0.00  0.00     0.069 C 
ENDROOT
BRANCH   1   2
ATOM      2  C   UNL d   1       9.489   3.324 -16.592  0.00  0.00     0.175 C 
ATOM      3  O   UNL d   1      10.162   4.150 -17.202  0.00  0.00    -0.291 OA
BRANCH   2   4
ATOM      4  C   UNL d   1       8.967   2.082 -17.262  0.00  0.00     0.057 A 
ATOM      5  C   UNL d   1       7.881   1.305 -16.760  0.00  0.00     0.097 A 
ATOM      6  C   UNL d   1       7.474   0.144 -17.456  0.00  0.00     0.024 A 
ATOM      7  C   UNL d   1       8.086  -0.222 -18.649  0.00  0.00     0.002 A 
ATOM      8  C   UNL d   1       9.140   0.551 -19.186  0.00  0.00     0.000 A 
ATOM      9  C   UNL d   1       7.637  -1.371 -19.335  0.00  0.00     0.000 A 
ATOM     10  C   UNL d   1       9.746   0.173 -20.404  0.00  0.00     0.000 A 
ATOM     11  C   UNL d   1       9.573   1.704 -18.486  0.00  0.00     0.005 A 
ATOM     12  C   UNL d   1       9.296  -0.980 -21.082  0.00  0.00     0.000 A 
ATOM     13  C   UNL d   1       8.240  -1.751 -20.551  0.00  0.00     0.000 A 
BRANCH   5  14
ATOM     14  O   UNL d   1       7.223   1.729 -15.627  0.00  0.00    -0.328 OA
ATOM     15  C   UNL d   1       6.307   0.851 -14.967  0.00  0.00     0.181 C 
ENDBRANCH   5  14
ENDBRANCH   2   4
ENDBRANCH   1   2
BRANCH   1  16
ATOM     16  C   UNL d   1       9.242   4.987 -14.620  0.00  0.00     0.008 C 
BRANCH  16  17
ATOM     17  C   UNL d   1       8.746   5.079 -13.163  0.00  0.00     0.004 C 
ATOM     18  C   UNL d   1       9.559   4.166 -12.229  0.00  0.00     0.035 C 
ATOM     19  C   UNL d   1       9.206   4.401 -10.755  0.00  0.00     0.251 C 
ATOM     20  N   UNL d   1       9.454   5.776 -10.395  0.00  0.00     0.141 N 
ATOM     21  C   UNL d   1       8.567   6.640 -11.179  0.00  0.00     0.251 C 
ATOM     22  C   UNL d   1       8.858   6.524 -12.674  0.00  0.00     0.035 C 
BRANCH  20  23
ATOM     23  C   UNL d   1       9.181   5.977  -8.965  0.00  0.00     0.277 C 
BRANCH  23  24
ATOM     24  C   UNL d   1       9.934   7.148  -8.360  0.00  0.00     0.011 A 
ATOM     25  C   UNL d   1       9.464   7.748  -7.174  0.00  0.00    -0.002 A 
ATOM     26  C   UNL d   1      10.194   8.796  -6.578  0.00  0.00    -0.000 A 
ATOM     27  C   UNL d   1      11.389   9.252  -7.165  0.00  0.00    -0.000 A 
ATOM     28  C   UNL d   1      11.861   8.655  -8.346  0.00  0.00    -0.000 A 
ATOM     29  C   UNL d   1      11.140   7.605  -8.938  0.00  0.00    -0.002 A 
ENDBRANCH  23  24
ENDBRANCH  20  23
ENDBRANCH  16  17
ENDBRANCH   1  16
TORSDOF 7
