REMARK  4 active torsions:
REMARK  status: ('A' for Active; 'I' for Inactive)
REMARK    1  A    between atoms: C_5  and  C_6 
REMARK    2  A    between atoms: C_6  and  N_7 
REMARK    3  A    between atoms: N_10  and  C_11 
REMARK    4  A    between atoms: C_11  and  C_12 
REMARK       I    between atoms: C_12  and  N_14 
ROOT
ATOM      1  N   UNL d   1      10.731   8.472  -8.558  0.00  0.00     0.146 N 
ATOM      2  C   UNL d   1      10.816   7.054  -8.888  0.00  0.00     0.286 C 
ATOM      3  C   UNL d   1       9.720   6.596  -9.801  0.00  0.00     0.286 C 
ATOM      4  N   UNL d   1       9.787   7.331 -11.060  0.00  0.00     0.151 N 
ATOM      5  C   UNL d   1       9.649   8.746 -10.763  0.00  0.00     0.286 C 
ATOM      6  C   UNL d   1      10.770   9.219  -9.821  0.00  0.00     0.286 C 
ENDROOT
BRANCH   4   7
ATOM      7  C   UNL d   1       8.712   6.883 -11.916  0.00  0.00     0.337 C 
BRANCH   7   8
ATOM      8  C   UNL d   1       9.000   5.615 -12.722  0.00  0.00     0.271 C 
ATOM      9  O   UNL d   1      10.104   5.497 -13.250  0.00  0.00    -0.270 OA
ATOM     10  N   UNL d   1       8.001   4.679 -12.863  0.00  0.00    -0.299 N 
ATOM     11  C   UNL d   1       6.753   4.615 -12.061  0.00  0.00     0.093 A 
ATOM     12  C   UNL d   1       8.034   3.589 -13.780  0.00  0.00     0.058 A 
ATOM     13  C   UNL d   1       5.969   3.370 -12.603  0.00  0.00     0.051 A 
ATOM     14  C   UNL d   1       5.851   5.865 -12.160  0.00  0.00     0.025 C 
ATOM     15  C   UNL d   1       6.876   2.819 -13.668  0.00  0.00    -0.004 A 
ATOM     16  C   UNL d   1       6.684   1.663 -14.441  0.00  0.00    -0.003 A 
ATOM     17  C   UNL d   1       7.699   1.293 -15.369  0.00  0.00    -0.000 A 
ATOM     18  C   UNL d   1       8.869   2.092 -15.493  0.00  0.00     0.002 A 
ATOM     19  C   UNL d   1       9.030   3.241 -14.701  0.00  0.00     0.017 A 
ENDBRANCH   7   8
ENDBRANCH   4   7
BRANCH   1  20
ATOM     20  C   UNL d   1      11.814   8.888  -7.654  0.00  0.00     0.277 C 
BRANCH  20  21
ATOM     21  C   UNL d   1      11.680   8.425  -6.197  0.00  0.00     0.011 A 
ATOM     22  C   UNL d   1      11.457   7.077  -5.863  0.00  0.00    -0.003 A 
ATOM     23  C   UNL d   1      11.396   6.656  -4.539  0.00  0.00    -0.004 A 
ATOM     24  C   UNL d   1      11.608   7.563  -3.497  0.00  0.00    -0.022 A 
ATOM     25  C   UNL d   1      11.504   7.056  -2.074  0.00  0.00     0.031 C 
ATOM     26  C   UNL d   1      11.870   8.916  -3.798  0.00  0.00    -0.004 A 
ATOM     27  C   UNL d   1      11.903   9.349  -5.142  0.00  0.00    -0.003 A 
ENDBRANCH  20  21
ENDBRANCH   1  20
TORSDOF 4
