REMARK  8 active torsions:
REMARK  status: ('A' for Active; 'I' for Inactive)
REMARK    1  A    between atoms: N_12  and  C_13 
REMARK    2  A    between atoms: C_13  and  C_14 
REMARK    3  A    between atoms: C_14  and  C_15 
REMARK    4  A    between atoms: C_15  and  C_16 
REMARK    5  A    between atoms: C_16  and  C_17 
REMARK    6  A    between atoms: C_17  and  C_18 
REMARK    7  A    between atoms: C_18  and  N_19 
REMARK    8  A    between atoms: N_22  and  C_23 
ROOT
ATOM      1  C   UNL d   1       8.844   3.792 -13.013  0.00  0.00     0.002 C 
ENDROOT
BRANCH   1   2
ATOM      2  C   UNL d   1       8.880   4.102 -14.515  0.00  0.00     0.002 C 
BRANCH   2   3
ATOM      3  C   UNL d   1      10.188   3.679 -15.204  0.00  0.00     0.025 C 
BRANCH   3   4
ATOM      4  C   UNL d   1      10.129   3.844 -16.735  0.00  0.00     0.122 C 
BRANCH   4   5
ATOM      5  N   UNL d   1      11.181   3.044 -17.392  0.00  0.00    -0.221 N 
ATOM      6  C   UNL d   1      12.393   3.571 -17.859  0.00  0.00     0.271 A 
ATOM      7  O   UNL d   1      12.772   4.733 -17.713  0.00  0.00    -0.266 OA
ATOM      8  C   UNL d   1      13.131   2.502 -18.603  0.00  0.00     0.069 A 
ATOM      9  C   UNL d   1      12.487   1.261 -18.617  0.00  0.00     0.108 A 
ATOM     10  C   UNL d   1      14.364   2.658 -19.264  0.00  0.00     0.005 A 
ATOM     11  C   UNL d   1      13.024   0.135 -19.265  0.00  0.00     0.013 A 
ATOM     12  S   UNL d   1      10.963   1.365 -17.728  0.00  0.00     0.270 S 
ATOM     13  C   UNL d   1      14.265   0.288 -19.924  0.00  0.00     0.001 A 
ATOM     14  C   UNL d   1      14.927   1.541 -19.927  0.00  0.00     0.000 A 
ATOM     15  O   UNL d   1       9.826   1.216 -18.653  0.00  0.00    -0.200 OA
ATOM     16  O   UNL d   1      11.058   0.600 -16.480  0.00  0.00    -0.200 OA
ENDBRANCH   4   5
ENDBRANCH   3   4
ENDBRANCH   2   3
ENDBRANCH   1   2
BRANCH   1  17
ATOM     17  C   UNL d   1       9.164   5.008 -12.141  0.00  0.00     0.035 C 
BRANCH  17  18
ATOM     18  C   UNL d   1       8.995   4.733 -10.628  0.00  0.00     0.250 C 
BRANCH  18  19
ATOM     19  N   UNL d   1       9.020   5.951  -9.847  0.00  0.00     0.141 N 
ATOM     20  C   UNL d   1       8.636   5.632  -8.455  0.00  0.00     0.274 C 
ATOM     21  C   UNL d   1       8.672   6.884  -7.558  0.00  0.00     0.137 C 
ATOM     22  N   UNL d   1       9.958   7.519  -7.668  0.00  0.00    -0.344 N 
ATOM     23  C   UNL d   1      10.427   7.816  -9.001  0.00  0.00     0.137 C 
ATOM     24  C   UNL d   1      10.381   6.505  -9.806  0.00  0.00     0.274 C 
BRANCH  22  25
ATOM     25  C   UNL d   1      10.659   7.907  -6.529  0.00  0.00     0.057 A 
ATOM     26  C   UNL d   1      10.722   7.036  -5.418  0.00  0.00     0.029 A 
ATOM     27  C   UNL d   1      11.459   7.421  -4.284  0.00  0.00     0.070 A 
ATOM     28  C   UNL d   1      12.049   8.682  -4.248  0.00  0.00     0.068 A 
ATOM     29 CL   UNL d   1      11.626   6.432  -2.875  0.00  0.00    -0.081 Cl
ATOM     30  C   UNL d   1      12.049   9.523  -5.377  0.00  0.00     0.014 A 
ATOM     31 CL   UNL d   1      12.626   9.199  -2.729  0.00  0.00    -0.082 Cl
ATOM     32  C   UNL d   1      11.318   9.157  -6.518  0.00  0.00     0.018 A 
ENDBRANCH  22  25
ENDBRANCH  18  19
ENDBRANCH  17  18
ENDBRANCH   1  17
TORSDOF 8
