REMARK  7 active torsions:
REMARK  status: ('A' for Active; 'I' for Inactive)
REMARK       I    between atoms: C_2  and  N_4 
REMARK    1  A    between atoms: N_4  and  C_5 
REMARK    2  A    between atoms: C_8  and  O_9 
REMARK    3  A    between atoms: O_9  and  C_10 
REMARK    4  A    between atoms: C_10  and  C_11 
REMARK    5  A    between atoms: C_11  and  C_12 
REMARK    6  A    between atoms: C_12  and  N_13 
REMARK    7  A    between atoms: C_16  and  C_17 
ROOT
ATOM      1  N   UNL d   1       8.844   5.493 -11.991  0.00  0.00     0.137 N 
ATOM      2  C   UNL d   1       8.878   6.045 -13.335  0.00  0.00     0.251 C 
ATOM      3  C   UNL d   1       9.054   4.976 -14.407  0.00  0.00     0.041 C 
ATOM      4  C   UNL d   1       7.930   3.923 -14.327  0.00  0.00     0.047 C 
ATOM      5  C   UNL d   1       7.829   3.516 -12.890  0.00  0.00     0.041 C 
ATOM      6  C   UNL d   1       7.652   4.656 -11.898  0.00  0.00     0.251 C 
ENDROOT
BRANCH   1   7
ATOM      7  C   UNL d   1       8.702   6.584 -11.047  0.00  0.00     0.253 C 
BRANCH   7   8
ATOM      8  C   UNL d   1      10.009   7.373 -10.850  0.00  0.00     0.068 C 
BRANCH   8   9
ATOM      9  C   UNL d   1      10.019   8.284  -9.621  0.00  0.00     0.151 C 
BRANCH   9  10
ATOM     10  O   UNL d   1       9.822   7.432  -8.510  0.00  0.00    -0.331 OA
BRANCH  10  11
ATOM     11  C   UNL d   1      10.360   7.814  -7.315  0.00  0.00     0.096 A 
ATOM     12  C   UNL d   1      10.823   6.786  -6.492  0.00  0.00     0.026 A 
ATOM     13  C   UNL d   1      11.383   7.060  -5.242  0.00  0.00     0.024 A 
ATOM     14  C   UNL d   1      11.481   8.402  -4.790  0.00  0.00     0.112 A 
ATOM     15  C   UNL d   1      10.989   9.444  -5.604  0.00  0.00     0.160 A 
ATOM     16  C   UNL d   1      10.436   9.156  -6.871  0.00  0.00     0.055 A 
ATOM     17  F   UNL d   1      11.021  10.724  -5.166  0.00  0.00    -0.203 F 
BRANCH  14  18
ATOM     18  N   UNL d   1      12.008   8.771  -3.523  0.00  0.00    -0.209 NA
ATOM     19  C   UNL d   1      12.488   7.989  -2.557  0.00  0.00     0.256 C 
ATOM     20  C   UNL d   1      12.904   8.689  -1.290  0.00  0.00     0.100 C 
ATOM     21  O   UNL d   1      12.648   6.771  -2.618  0.00  0.00    -0.270 OA
ENDBRANCH  14  18
ENDBRANCH  10  11
ENDBRANCH   9  10
ENDBRANCH   8   9
ENDBRANCH   7   8
ENDBRANCH   1   7
BRANCH   4  22
ATOM     22  C   UNL d   1       8.195   2.725 -15.230  0.00  0.00     0.087 A 
ATOM     23  C   UNL d   1       7.410   1.571 -15.526  0.00  0.00     0.041 A 
ATOM     24  C   UNL d   1       8.051   0.788 -16.489  0.00  0.00     0.129 A 
ATOM     25  C   UNL d   1       6.162   1.140 -15.029  0.00  0.00     0.006 A 
ATOM     26  O   UNL d   1       9.248   1.454 -16.751  0.00  0.00    -0.211 OA
ATOM     27  C   UNL d   1       7.520  -0.376 -17.026  0.00  0.00     0.057 A 
ATOM     28  N   UNL d   1       9.321   2.622 -15.963  0.00  0.00    -0.131 NA
ATOM     29  C   UNL d   1       6.246  -0.793 -16.554  0.00  0.00     0.142 A 
ATOM     30  F   UNL d   1       5.671  -1.917 -17.040  0.00  0.00    -0.204 F 
ATOM     31  C   UNL d   1       5.582  -0.021 -15.557  0.00  0.00     0.030 A 
ENDBRANCH   4  22
TORSDOF 7
