REMARK  6 active torsions:
REMARK  status: ('A' for Active; 'I' for Inactive)
REMARK    1  A    between atoms: C_2  and  N_4 
REMARK    2  A    between atoms: N_4  and  C_5 
REMARK    3  A    between atoms: C_5  and  C_6 
REMARK    4  A    between atoms: C_6  and  C_8 
REMARK    5  A    between atoms: C_11  and  N_12 
REMARK    6  A    between atoms: N_12  and  S_13 
ROOT
ATOM      1  C   UNL d   1      11.390   8.245  -7.800  0.00  0.00     0.010 A 
ATOM      2  C   UNL d   1      11.414   9.532  -7.250  0.00  0.00    -0.000 A 
ATOM      3  C   UNL d   1      11.421   9.763  -5.870  0.00  0.00     0.020 A 
ATOM      4  C   UNL d   1      11.416   8.657  -5.005  0.00  0.00     0.093 A 
ATOM      5  C   UNL d   1      11.409   7.341  -5.538  0.00  0.00     0.020 A 
ATOM      6  C   UNL d   1      11.404   7.130  -6.924  0.00  0.00    -0.000 A 
ENDROOT
BRANCH   1   7
ATOM      7  C   UNL d   1      11.364   8.101  -9.315  0.00  0.00     0.198 C 
ATOM      8  O   UNL d   1      12.687   8.056  -9.825  0.00  0.00    -0.216 OA
BRANCH   7   9
ATOM      9  C   UNL d   1      10.572   6.875  -9.809  0.00  0.00     0.157 C 
BRANCH   9  10
ATOM     10  N   UNL d   1       9.210   6.828  -9.280  0.00  0.00    -0.294 NA
BRANCH  10  11
ATOM     11  C   UNL d   1       8.467   5.590  -9.464  0.00  0.00     0.098 C 
ATOM     12  C   UNL d   1       9.099   4.404  -8.716  0.00  0.00     0.026 C 
ATOM     13  C   UNL d   1       8.237   5.289 -10.955  0.00  0.00     0.026 C 
ENDBRANCH  10  11
ENDBRANCH   9  10
ENDBRANCH   7   9
ENDBRANCH   1   7
BRANCH   4  14
ATOM     14  N   UNL d   1      11.454   8.884  -3.640  0.00  0.00    -0.162 NA
BRANCH  14  15
ATOM     15  S   UNL d   1      12.212   7.871  -2.485  0.00  0.00     0.266 S 
ATOM     16  C   UNL d   1      10.969   6.620  -2.038  0.00  0.00     0.165 C 
ATOM     17  O   UNL d   1      13.267   7.193  -3.238  0.00  0.00    -0.203 OA
ATOM     18  O   UNL d   1      12.566   8.743  -1.365  0.00  0.00    -0.203 OA
ENDBRANCH  14  15
ENDBRANCH   4  14
TORSDOF 6
