REMARK  7 active torsions:
REMARK  status: ('A' for Active; 'I' for Inactive)
REMARK    1  A    between atoms: C_6  and  C_7 
REMARK    2  A    between atoms: C_10  and  S_11 
REMARK    3  A    between atoms: S_11  and  C_12 
REMARK    4  A    between atoms: C_12  and  C_13 
REMARK    5  A    between atoms: C_13  and  C_14 
REMARK    6  A    between atoms: C_14  and  N_15 
REMARK    7  A    between atoms: C_19  and  C_20 
ROOT
ATOM      1  C   UNL d   1      13.290   3.734 -16.718  0.00  0.00     0.047 C 
ENDROOT
BRANCH   1   2
ATOM      2  C   UNL d   1      14.279   4.372 -17.693  0.00  0.00     0.067 C 
BRANCH   2   3
ATOM      3  S   UNL d   1      14.345   6.179 -17.489  0.00  0.00    -0.075 SA
BRANCH   3   4
ATOM      4  C   UNL d   1      16.094   6.401 -17.495  0.00  0.00     0.193 A 
ATOM      5  N   UNL d   1      16.892   5.970 -16.516  0.00  0.00    -0.122 NA
ATOM      6  N   UNL d   1      18.153   6.391 -16.858  0.00  0.00    -0.126 NA
ATOM      7  C   UNL d   1      18.018   7.061 -18.011  0.00  0.00     0.191 A 
ATOM      8  N   UNL d   1      16.744   7.090 -18.455  0.00  0.00    -0.287 N 
ATOM      9  C   UNL d   1      16.209   7.704 -19.669  0.00  0.00     0.134 C 
BRANCH   7  10
ATOM     10  C   UNL d   1      19.168   7.641 -18.677  0.00  0.00     0.151 A 
ATOM     11  C   UNL d   1      19.509   8.926 -19.039  0.00  0.00     0.087 A 
ATOM     12  C   UNL d   1      18.793  10.227 -18.836  0.00  0.00     0.054 C 
ATOM     13  N   UNL d   1      20.752   8.877 -19.655  0.00  0.00    -0.221 NA
ATOM     14  C   UNL d   1      21.094   7.591 -19.640  0.00  0.00     0.225 A 
ATOM     15  O   UNL d   1      20.178   6.791 -19.039  0.00  0.00    -0.282 OA
ENDBRANCH   7  10
ENDBRANCH   3   4
ENDBRANCH   2   3
ENDBRANCH   1   2
BRANCH   1  16
ATOM     16  C   UNL d   1      11.807   4.053 -16.988  0.00  0.00     0.251 C 
BRANCH  16  17
ATOM     17  N   UNL d   1      10.991   3.728 -15.817  0.00  0.00     0.137 N 
ATOM     18  C   UNL d   1       9.587   4.112 -16.001  0.00  0.00     0.254 C 
ATOM     19  C   UNL d   1       8.848   3.262 -14.985  0.00  0.00     0.052 A 
ATOM     20  C   UNL d   1       9.744   2.109 -14.691  0.00  0.00     0.039 A 
ATOM     21  C   UNL d   1       8.385   1.856 -15.301  0.00  0.00     0.008 A 
ATOM     22  C   UNL d   1      10.979   2.294 -15.529  0.00  0.00     0.251 C 
BRANCH  19  23
ATOM     23  C   UNL d   1       8.239   4.027 -13.845  0.00  0.00    -0.020 A 
ATOM     24  C   UNL d   1       9.051   4.755 -12.950  0.00  0.00     0.007 A 
ATOM     25  C   UNL d   1       8.471   5.450 -11.871  0.00  0.00     0.057 A 
ATOM     26  C   UNL d   1       7.076   5.420 -11.677  0.00  0.00     0.011 A 
ATOM     27 CL   UNL d   1       9.461   6.314 -10.758  0.00  0.00    -0.082 Cl
ATOM     28  C   UNL d   1       6.263   4.678 -12.556  0.00  0.00     0.001 A 
ATOM     29  C   UNL d   1       6.844   3.989 -13.637  0.00  0.00    -0.004 A 
ENDBRANCH  19  23
ENDBRANCH  16  17
ENDBRANCH   1  16
TORSDOF 7
