REMARK  3 active torsions:
REMARK  status: ('A' for Active; 'I' for Inactive)
REMARK    1  A    between atoms: C_5  and  N_6 
REMARK    2  A    between atoms: N_9  and  C_10 
REMARK    3  A    between atoms: C_10  and  C_11 
ROOT
ATOM      1  N   UNL d   1      10.021   3.152 -15.148  0.00  0.00     0.148 N 
ATOM      2  C   UNL d   1      10.691   3.481 -13.890  0.00  0.00     0.286 C 
ATOM      3  C   UNL d   1      10.078   4.702 -13.225  0.00  0.00     0.286 C 
ATOM      4  N   UNL d   1       8.676   4.496 -12.895  0.00  0.00     0.146 N 
ATOM      5  C   UNL d   1       7.976   4.194 -14.133  0.00  0.00     0.286 C 
ATOM      6  C   UNL d   1       8.581   2.970 -14.843  0.00  0.00     0.286 C 
ENDROOT
BRANCH   1   7
ATOM      7  C   UNL d   1      10.633   2.016 -15.883  0.00  0.00     0.297 C 
ATOM      8  C   UNL d   1       9.812   1.589 -17.125  0.00  0.00     0.269 C 
ATOM      9  N   UNL d   1       9.546   2.494 -18.102  0.00  0.00    -0.296 N 
ATOM     10  O   UNL d   1       9.432   0.406 -17.174  0.00  0.00    -0.270 OA
ATOM     11  C   UNL d   1       8.532   2.130 -19.121  0.00  0.00     0.133 C 
ATOM     12  C   UNL d   1      10.117   3.826 -18.143  0.00  0.00     0.058 A 
ATOM     13  C   UNL d   1      11.499   4.057 -17.866  0.00  0.00    -0.006 A 
ATOM     14  C   UNL d   1       9.302   4.935 -18.461  0.00  0.00     0.017 A 
ATOM     15  C   UNL d   1      12.452   2.911 -17.560  0.00  0.00     0.030 C 
ATOM     16  C   UNL d   1      12.006   5.373 -17.912  0.00  0.00    -0.003 A 
ATOM     17  C   UNL d   1      12.124   2.169 -16.264  0.00  0.00     0.048 C 
ATOM     18  C   UNL d   1      11.184   6.460 -18.257  0.00  0.00    -0.000 A 
ATOM     19  C   UNL d   1       9.826   6.236 -18.536  0.00  0.00     0.002 A 
ENDBRANCH   1   7
BRANCH   4  20
ATOM     20  C   UNL d   1       8.093   5.655 -12.227  0.00  0.00     0.277 C 
BRANCH  20  21
ATOM     21  C   UNL d   1       8.796   5.994 -10.926  0.00  0.00     0.011 A 
ATOM     22  C   UNL d   1       9.675   7.096 -10.865  0.00  0.00    -0.002 A 
ATOM     23  C   UNL d   1      10.325   7.427  -9.660  0.00  0.00     0.011 A 
ATOM     24  C   UNL d   1      10.084   6.662  -8.504  0.00  0.00     0.058 A 
ATOM     25  C   UNL d   1       9.207   5.563  -8.562  0.00  0.00     0.011 A 
ATOM     26 CL   UNL d   1      10.873   7.065  -7.022  0.00  0.00    -0.082 Cl
ATOM     27  C   UNL d   1       8.576   5.218  -9.772  0.00  0.00    -0.002 A 
ENDBRANCH  20  21
ENDBRANCH   4  20
TORSDOF 3
