REMARK  6 active torsions:
REMARK  status: ('A' for Active; 'I' for Inactive)
REMARK    1  A    between atoms: C_4  and  C_5 
REMARK    2  A    between atoms: C_5  and  C_6 
REMARK    3  A    between atoms: C_6  and  C_7 
REMARK    4  A    between atoms: C_7  and  N_8 
REMARK    5  A    between atoms: N_11  and  C_12 
REMARK    6  A    between atoms: C_12  and  C_13 
ROOT
ATOM      1  N   UNL d   1       9.811   7.651  -8.497  0.00  0.00     0.141 N 
ATOM      2  C   UNL d   1      10.457   8.314  -9.634  0.00  0.00     0.285 C 
ATOM      3  C   UNL d   1       9.652   8.099 -10.923  0.00  0.00     0.286 C 
ATOM      4  N   UNL d   1       9.497   6.674 -11.239  0.00  0.00     0.148 N 
ATOM      5  C   UNL d   1       8.880   5.993 -10.099  0.00  0.00     0.286 C 
ATOM      6  C   UNL d   1       9.680   6.226  -8.816  0.00  0.00     0.285 C 
ENDROOT
BRANCH   4   7
ATOM      7  C   UNL d   1       8.737   6.484 -12.467  0.00  0.00     0.301 C 
BRANCH   7   8
ATOM      8  C   UNL d   1       8.989   5.159 -13.104  0.00  0.00     0.111 A 
ATOM      9  O   UNL d   1      10.211   4.989 -13.704  0.00  0.00    -0.309 OA
ATOM     10  C   UNL d   1      10.212   3.722 -14.252  0.00  0.00     0.100 A 
ATOM     11  C   UNL d   1       8.973   3.092 -13.977  0.00  0.00     0.025 A 
ATOM     12  C   UNL d   1      11.244   3.101 -14.977  0.00  0.00     0.025 A 
ATOM     13  C   UNL d   1       8.197   4.045 -13.232  0.00  0.00     0.024 A 
ATOM     14  C   UNL d   1       8.803   1.771 -14.456  0.00  0.00     0.002 A 
ATOM     15  C   UNL d   1       9.830   1.123 -15.176  0.00  0.00     0.000 A 
ATOM     16  C   UNL d   1      11.046   1.786 -15.441  0.00  0.00     0.002 A 
ENDBRANCH   7   8
ENDBRANCH   4   7
BRANCH   1  17
ATOM     17  C   UNL d   1      10.561   7.831  -7.264  0.00  0.00     0.251 C 
BRANCH  17  18
ATOM     18  C   UNL d   1      10.388   9.189  -6.569  0.00  0.00     0.040 C 
BRANCH  18  19
ATOM     19  C   UNL d   1      11.617   9.619  -5.746  0.00  0.00     0.028 C 
BRANCH  19  20
ATOM     20  C   UNL d   1      11.823   8.810  -4.470  0.00  0.00    -0.022 A 
ATOM     21  C   UNL d   1      11.865   7.398  -4.499  0.00  0.00    -0.004 A 
ATOM     22  C   UNL d   1      12.056   6.671  -3.322  0.00  0.00    -0.000 A 
ATOM     23  C   UNL d   1      12.262   7.329  -2.106  0.00  0.00    -0.000 A 
ATOM     24  C   UNL d   1      12.255   8.736  -2.058  0.00  0.00    -0.000 A 
ATOM     25  C   UNL d   1      12.003   9.473  -3.231  0.00  0.00    -0.004 A 
ENDBRANCH  19  20
ENDBRANCH  18  19
ENDBRANCH  17  18
ENDBRANCH   1  17
TORSDOF 6
