REMARK  5 active torsions:
REMARK  status: ('A' for Active; 'I' for Inactive)
REMARK    1  A    between atoms: S_2  and  C_4 
REMARK    2  A    between atoms: S_2  and  C_11 
REMARK    3  A    between atoms: N_15  and  C_16 
REMARK    4  A    between atoms: C_16  and  C_17 
REMARK    5  A    between atoms: C_17  and  C_18 
ROOT
ATOM      1  C   UNL d   1       9.509   2.112 -15.718  0.00  0.00     0.234 C 
ATOM      2  F   UNL d   1      10.231   1.129 -15.165  0.00  0.00    -0.223 F 
ATOM      3  C   UNL d   1      10.376   3.377 -15.855  0.00  0.00     0.084 C 
ATOM      4  C   UNL d   1      10.747   3.944 -14.480  0.00  0.00     0.254 C 
ATOM      5  N   UNL d   1       9.534   4.274 -13.729  0.00  0.00     0.138 N 
ATOM      6  C   UNL d   1       8.776   3.052 -13.489  0.00  0.00     0.254 C 
ATOM      7  C   UNL d   1       8.313   2.413 -14.801  0.00  0.00     0.084 C 
ENDROOT
BRANCH   1   8
ATOM      8  S   UNL d   1       8.913   1.531 -17.378  0.00  0.00     0.217 S 
ATOM      9  O   UNL d   1       8.259   2.655 -18.071  0.00  0.00    -0.219 OA
ATOM     10  O   UNL d   1       8.177   0.267 -17.203  0.00  0.00    -0.219 OA
BRANCH   8  11
ATOM     11  C   UNL d   1      10.424   1.168 -18.264  0.00  0.00     0.089 A 
ATOM     12  C   UNL d   1      11.064   2.187 -18.998  0.00  0.00     0.041 A 
ATOM     13  C   UNL d   1      12.272   1.908 -19.662  0.00  0.00     0.141 A 
ATOM     14  C   UNL d   1      12.834   0.618 -19.589  0.00  0.00     0.030 A 
ATOM     15  F   UNL d   1      12.899   2.879 -20.364  0.00  0.00    -0.204 F 
ATOM     16  C   UNL d   1      12.196  -0.393 -18.843  0.00  0.00     0.003 A 
ATOM     17  C   UNL d   1      10.991  -0.118 -18.170  0.00  0.00     0.011 A 
ENDBRANCH   8  11
ENDBRANCH   1   8
BRANCH   5  18
ATOM     18  C   UNL d   1       9.906   4.829 -12.431  0.00  0.00     0.255 C 
BRANCH  18  19
ATOM     19  C   UNL d   1       8.791   5.662 -11.790  0.00  0.00     0.064 C 
BRANCH  19  20
ATOM     20  C   UNL d   1       9.257   6.371 -10.524  0.00  0.00     0.007 A 
ATOM     21  C   UNL d   1       9.073   5.769  -9.259  0.00  0.00     0.138 A 
ATOM     22  C   UNL d   1       9.464   6.446  -8.091  0.00  0.00     0.059 A 
ATOM     23  F   UNL d   1       8.524   4.535  -9.163  0.00  0.00    -0.204 F 
ATOM     24  C   UNL d   1      10.055   7.721  -8.172  0.00  0.00     0.142 A 
ATOM     25  C   UNL d   1      10.260   8.320  -9.429  0.00  0.00     0.029 A 
ATOM     26  F   UNL d   1      10.433   8.367  -7.045  0.00  0.00    -0.204 F 
ATOM     27  C   UNL d   1       9.862   7.648 -10.603  0.00  0.00     0.000 A 
ENDBRANCH  19  20
ENDBRANCH  18  19
ENDBRANCH   5  18
TORSDOF 5
