REMARK  3 active torsions:
REMARK  status: ('A' for Active; 'I' for Inactive)
REMARK    1  A    between atoms: C_7  and  N_8 
REMARK    2  A    between atoms: N_11  and  C_12 
REMARK    3  A    between atoms: C_12  and  C_13 
ROOT
ATOM      1  N   UNL d   1      10.928   7.561  -6.469  0.00  0.00    -0.344 N 
ATOM      2  C   UNL d   1      11.446   6.439  -7.234  0.00  0.00     0.137 C 
ATOM      3  C   UNL d   1      10.300   5.694  -7.960  0.00  0.00     0.275 C 
ATOM      4  N   UNL d   1       9.460   6.567  -8.747  0.00  0.00     0.149 N 
ATOM      5  C   UNL d   1       8.930   7.560  -7.817  0.00  0.00     0.275 C 
ATOM      6  C   UNL d   1      10.023   8.408  -7.223  0.00  0.00     0.137 C 
ENDROOT
BRANCH   4   7
ATOM      7  C   UNL d   1       8.405   5.723  -9.313  0.00  0.00     0.315 C 
BRANCH   7   8
ATOM      8  C   UNL d   1       8.677   5.265 -10.705  0.00  0.00     0.175 A 
ATOM      9  N   UNL d   1       9.745   5.723 -11.383  0.00  0.00    -0.208 NA
ATOM     10  C   UNL d   1       9.738   5.096 -12.623  0.00  0.00     0.182 A 
ATOM     11  C   UNL d   1       8.563   4.301 -12.589  0.00  0.00     0.118 A 
ATOM     12  N   UNL d   1      10.653   5.173 -13.636  0.00  0.00    -0.224 NA
ATOM     13  N   UNL d   1       7.887   4.437 -11.387  0.00  0.00    -0.226 NA
ATOM     14  C   UNL d   1       8.302   3.513 -13.724  0.00  0.00     0.024 A 
ATOM     15  C   UNL d   1       9.219   3.558 -14.797  0.00  0.00     0.022 A 
ATOM     16  C   UNL d   1      10.356   4.391 -14.701  0.00  0.00     0.101 A 
ENDBRANCH   7   8
ENDBRANCH   4   7
BRANCH   1  17
ATOM     17  C   UNL d   1      11.331   7.829  -5.155  0.00  0.00     0.067 A 
ATOM     18  C   UNL d   1      11.583   9.138  -4.659  0.00  0.00     0.073 A 
ATOM     19 CL   UNL d   1      11.476  10.514  -5.690  0.00  0.00    -0.081 Cl
ATOM     20  C   UNL d   1      11.950   9.335  -3.317  0.00  0.00     0.013 A 
ATOM     21  C   UNL d   1      12.096   8.243  -2.444  0.00  0.00     0.001 A 
ATOM     22  C   UNL d   1      11.862   6.942  -2.920  0.00  0.00     0.002 A 
ATOM     23  C   UNL d   1      11.483   6.750  -4.255  0.00  0.00     0.018 A 
ENDBRANCH   1  17
TORSDOF 3
