REMARK  3 active torsions:
REMARK  status: ('A' for Active; 'I' for Inactive)
REMARK    1  A    between atoms: C_7  and  C_8 
REMARK    2  A    between atoms: C_8  and  N_9 
REMARK    3  A    between atoms: N_12  and  C_13 
ROOT
ATOM      1  N   UNL d   1       8.743   4.184 -14.018  0.00  0.00    -0.298 N 
ATOM      2  C   UNL d   1       7.320   4.034 -13.685  0.00  0.00     0.131 A 
ATOM      3  C   UNL d   1       7.267   4.602 -12.262  0.00  0.00     0.135 A 
ATOM      4  N   UNL d   1       8.627   5.068 -12.034  0.00  0.00    -0.280 N 
ATOM      5  C   UNL d   1       9.443   4.816 -13.077  0.00  0.00     0.328 A 
ATOM      6  O   UNL d   1      10.639   5.125 -13.192  0.00  0.00    -0.247 OA
ENDROOT
BRANCH   1   7
ATOM      7  C   UNL d   1       9.326   3.835 -15.313  0.00  0.00     0.139 C 
BRANCH   7   8
ATOM      8  C   UNL d   1       9.875   2.400 -15.334  0.00  0.00     0.241 C 
ATOM      9  N   UNL d   1      10.441   2.066 -16.650  0.00  0.00     0.139 N 
ATOM     10  C   UNL d   1      11.516   2.973 -17.027  0.00  0.00     0.285 C 
ATOM     11  C   UNL d   1      10.987   0.701 -16.633  0.00  0.00     0.250 C 
ATOM     12  C   UNL d   1       9.882  -0.340 -16.360  0.00  0.00     0.035 C 
ATOM     13  C   UNL d   1       9.216  -0.044 -15.033  0.00  0.00     0.004 C 
ATOM     14  C   UNL d   1       8.750   1.393 -14.990  0.00  0.00     0.035 C 
ENDBRANCH   7   8
ENDBRANCH   1   7
BRANCH   4  15
ATOM     15  C   UNL d   1       9.031   5.697 -10.813  0.00  0.00     0.065 A 
ATOM     16  C   UNL d   1       9.771   6.893 -10.836  0.00  0.00     0.029 A 
ATOM     17  C   UNL d   1      10.189   7.511  -9.645  0.00  0.00     0.059 A 
ATOM     18  C   UNL d   1       9.841   6.943  -8.407  0.00  0.00     0.011 A 
ATOM     19 CL   UNL d   1      11.130   8.953  -9.695  0.00  0.00    -0.082 Cl
ATOM     20  C   UNL d   1       9.072   5.766  -8.375  0.00  0.00     0.002 A 
ATOM     21  C   UNL d   1       8.664   5.141  -9.572  0.00  0.00     0.017 A 
ENDBRANCH   4  15
TORSDOF 3
