REMARK  8 active torsions:
REMARK  status: ('A' for Active; 'I' for Inactive)
REMARK    1  A    between atoms: C_2  and  C_4 
REMARK    2  A    between atoms: C_9  and  O_10 
REMARK    3  A    between atoms: O_10  and  C_11 
REMARK    4  A    between atoms: C_11  and  C_12 
REMARK    5  A    between atoms: C_12  and  N_13 
REMARK    6  A    between atoms: C_16  and  N_17 
REMARK    7  A    between atoms: N_17  and  S_18 
REMARK    8  A    between atoms: S_18  and  C_21 
ROOT
ATOM      1  N   UNL d   1       9.205   6.361  -9.839  0.00  0.00     0.140 N 
ATOM      2  C   UNL d   1      10.367   7.255  -9.876  0.00  0.00     0.252 C 
ATOM      3  C   UNL d   1      10.199   8.373  -8.850  0.00  0.00     0.060 C 
ATOM      4  C   UNL d   1      10.080   7.743  -7.464  0.00  0.00     0.120 C 
ATOM      5  C   UNL d   1       8.919   6.741  -7.423  0.00  0.00     0.060 C 
ATOM      6  C   UNL d   1       9.089   5.697  -8.537  0.00  0.00     0.252 C 
ENDROOT
BRANCH   1   7
ATOM      7  C   UNL d   1       9.289   5.354 -10.885  0.00  0.00     0.283 C 
BRANCH   7   8
ATOM      8  C   UNL d   1       9.100   5.972 -12.291  0.00  0.00     0.184 C 
BRANCH   8   9
ATOM      9  O   UNL d   1       9.272   4.970 -13.275  0.00  0.00    -0.329 OA
BRANCH   9  10
ATOM     10  C   UNL d   1       8.265   4.058 -13.500  0.00  0.00     0.090 A 
ATOM     11  C   UNL d   1       8.512   3.024 -14.439  0.00  0.00    -0.000 A 
ATOM     12  C   UNL d   1       7.500   2.074 -14.707  0.00  0.00    -0.002 A 
ATOM     13  C   UNL d   1       6.257   2.147 -14.053  0.00  0.00    -0.000 A 
ATOM     14  C   UNL d   1       6.009   3.176 -13.128  0.00  0.00     0.002 A 
ATOM     15  C   UNL d   1       7.008   4.121 -12.850  0.00  0.00     0.024 A 
BRANCH  11  16
ATOM     16  C   UNL d   1       9.844   2.918 -15.187  0.00  0.00     0.024 C 
ATOM     17  C   UNL d   1      11.026   2.641 -14.244  0.00  0.00     0.005 C 
ATOM     18  C   UNL d   1      10.102   4.142 -16.087  0.00  0.00     0.005 C 
ENDBRANCH  11  16
ENDBRANCH   9  10
ENDBRANCH   8   9
ENDBRANCH   7   8
ENDBRANCH   1   7
BRANCH   4  19
ATOM     19  N   UNL d   1       9.862   8.767  -6.455  0.00  0.00    -0.187 NA
BRANCH  19  20
ATOM     20  S   UNL d   1      11.200   9.614  -5.800  0.00  0.00     0.281 S 
ATOM     21  O   UNL d   1      12.257   9.672  -6.822  0.00  0.00    -0.199 OA
ATOM     22  O   UNL d   1      10.654  10.812  -5.150  0.00  0.00    -0.199 OA
BRANCH  20  23
ATOM     23  C   UNL d   1      11.758   8.607  -4.485  0.00  0.00     0.107 A 
ATOM     24  C   UNL d   1      12.207   9.196  -3.297  0.00  0.00     0.043 A 
ATOM     25  C   UNL d   1      12.664   8.370  -2.252  0.00  0.00     0.141 A 
ATOM     26  C   UNL d   1      12.647   6.970  -2.391  0.00  0.00     0.030 A 
ATOM     27  F   UNL d   1      13.222   8.897  -1.168  0.00  0.00    -0.204 F 
ATOM     28  C   UNL d   1      12.214   6.453  -3.587  0.00  0.00     0.003 A 
ATOM     29  C   UNL d   1      11.732   7.207  -4.646  0.00  0.00     0.013 A 
ENDBRANCH  20  23
ENDBRANCH  19  20
ENDBRANCH   4  19
TORSDOF 8
