REMARK  10 active torsions:
REMARK  status: ('A' for Active; 'I' for Inactive)
REMARK    1  A    between atoms: O_2  and  C_3 
REMARK    2  A    between atoms: C_8  and  N_9 
REMARK    3  A    between atoms: N_12  and  C_13 
REMARK    4  A    between atoms: C_13  and  C_14 
REMARK    5  A    between atoms: C_14  and  C_15 
REMARK    6  A    between atoms: C_15  and  C_16 
REMARK    7  A    between atoms: C_16  and  N_17 
REMARK       I    between atoms: N_17  and  C_18 
REMARK    8  A    between atoms: C_18  and  C_20 
REMARK    9  A    between atoms: C_23  and  C_24 
REMARK   10  A    between atoms: C_27  and  C_28 
ROOT
ATOM      1  C   UNL d   1       5.386  -3.041 -18.699  0.00  0.00     0.129 C 
ENDROOT
BRANCH   1   2
ATOM      2  C   UNL d   1       4.618  -1.998 -17.855  0.00  0.00     0.029 C 
BRANCH   2   3
ATOM      3  C   UNL d   1       5.230  -1.838 -16.460  0.00  0.00     0.037 C 
BRANCH   3   4
ATOM      4  C   UNL d   1       4.833  -0.523 -15.782  0.00  0.00     0.251 C 
BRANCH   4   5
ATOM      5  N   UNL d   1       5.842  -0.099 -14.822  0.00  0.00     0.141 N 
ATOM      6  C   UNL d   1       7.061   0.326 -15.549  0.00  0.00     0.274 C 
ATOM      7  C   UNL d   1       8.038   0.937 -14.557  0.00  0.00     0.137 C 
ATOM      8  N   UNL d   1       7.383   2.137 -14.052  0.00  0.00    -0.343 N 
ATOM      9  C   UNL d   1       6.227   1.792 -13.263  0.00  0.00     0.137 C 
ATOM     10  C   UNL d   1       5.268   1.078 -14.160  0.00  0.00     0.274 C 
BRANCH   8  11
ATOM     11  C   UNL d   1       8.165   3.295 -13.803  0.00  0.00     0.079 A 
ATOM     12  C   UNL d   1       9.016   3.768 -14.829  0.00  0.00     0.110 A 
ATOM     13  C   UNL d   1       9.770   4.942 -14.588  0.00  0.00     0.026 A 
ATOM     14  C   UNL d   1       9.675   5.618 -13.355  0.00  0.00     0.002 A 
ATOM     15  C   UNL d   1       8.848   5.134 -12.331  0.00  0.00     0.002 A 
ATOM     16  C   UNL d   1       8.108   3.998 -12.561  0.00  0.00     0.019 A 
BRANCH  12  17
ATOM     17  O   UNL d   1       8.974   3.114 -16.040  0.00  0.00    -0.327 OA
ATOM     18  C   UNL d   1       9.802   3.537 -17.093  0.00  0.00     0.181 C 
ENDBRANCH  12  17
ENDBRANCH   8  11
ENDBRANCH   4   5
ENDBRANCH   3   4
ENDBRANCH   2   3
ENDBRANCH   1   2
BRANCH   1  19
ATOM     19  N   UNL d   1       6.710  -2.566 -19.123  0.00  0.00    -0.234 NA
ATOM     20  C   UNL d   1       6.937  -1.713 -20.138  0.00  0.00     0.275 C 
ATOM     21  O   UNL d   1       6.055  -1.314 -20.894  0.00  0.00    -0.266 OA
BRANCH  20  22
ATOM     22  C   UNL d   1       8.367  -1.279 -20.325  0.00  0.00     0.058 A 
ATOM     23  C   UNL d   1       8.829  -0.889 -21.602  0.00  0.00     0.005 A 
ATOM     24  C   UNL d   1      10.156  -0.444 -21.779  0.00  0.00     0.000 A 
ATOM     25  C   UNL d   1      11.050  -0.371 -20.687  0.00  0.00     0.000 A 
ATOM     26  C   UNL d   1      10.575  -0.746 -19.409  0.00  0.00     0.000 A 
ATOM     27  C   UNL d   1       9.251  -1.189 -19.227  0.00  0.00     0.005 A 
BRANCH  25  28
ATOM     28  C   UNL d   1      12.444   0.076 -20.874  0.00  0.00     0.000 A 
ATOM     29  C   UNL d   1      13.497  -0.545 -20.167  0.00  0.00     0.000 A 
ATOM     30  C   UNL d   1      14.829  -0.127 -20.338  0.00  0.00     0.003 A 
ATOM     31  C   UNL d   1      15.144   0.923 -21.225  0.00  0.00     0.035 A 
ATOM     32  C   UNL d   1      14.098   1.551 -21.940  0.00  0.00     0.003 A 
ATOM     33  C   UNL d   1      12.766   1.129 -21.761  0.00  0.00     0.000 A 
BRANCH  31  34
ATOM     34  C   UNL d   1      16.545   1.376 -21.450  0.00  0.00     0.173 C 
ATOM     35  C   UNL d   1      17.579   0.862 -20.453  0.00  0.00     0.077 C 
ATOM     36  O   UNL d   1      16.885   2.152 -22.337  0.00  0.00    -0.291 OA
ENDBRANCH  31  34
ENDBRANCH  25  28
ENDBRANCH  20  22
ENDBRANCH   1  19
TORSDOF 10
