REMARK  8 active torsions:
REMARK  status: ('A' for Active; 'I' for Inactive)
REMARK    1  A    between atoms: C_6  and  C_7 
REMARK    2  A    between atoms: C_10  and  S_11 
REMARK    3  A    between atoms: S_11  and  C_12 
REMARK    4  A    between atoms: C_12  and  C_13 
REMARK    5  A    between atoms: C_13  and  C_14 
REMARK    6  A    between atoms: C_14  and  N_15 
REMARK    7  A    between atoms: C_19  and  C_20 
REMARK    8  A    between atoms: C_23  and  C_24 
ROOT
ATOM      1  N   UNL d   1      10.781   4.184 -16.069  0.00  0.00     0.137 N 
ATOM      2  C   UNL d   1      11.845   4.951 -15.428  0.00  0.00     0.251 C 
ATOM      3  C   UNL d   1      13.017   4.772 -16.345  0.00  0.00     0.039 A 
ATOM      4  C   UNL d   1      13.270   5.698 -17.505  0.00  0.00     0.008 A 
ATOM      5  C   UNL d   1      12.468   4.423 -17.684  0.00  0.00     0.052 A 
ATOM      6  C   UNL d   1      10.955   4.399 -17.513  0.00  0.00     0.254 C 
ENDROOT
BRANCH   1   7
ATOM      7  C   UNL d   1       9.450   4.578 -15.622  0.00  0.00     0.251 C 
BRANCH   7   8
ATOM      8  C   UNL d   1       9.299   4.506 -14.090  0.00  0.00     0.047 C 
BRANCH   8   9
ATOM      9  C   UNL d   1       7.931   5.006 -13.622  0.00  0.00     0.067 C 
BRANCH   9  10
ATOM     10  S   UNL d   1       7.684   4.750 -11.851  0.00  0.00    -0.075 SA
BRANCH  10  11
ATOM     11  C   UNL d   1       8.730   6.013 -11.210  0.00  0.00     0.193 A 
ATOM     12  N   UNL d   1       9.111   7.089 -11.886  0.00  0.00    -0.122 NA
ATOM     13  N   UNL d   1       9.803   7.847 -11.007  0.00  0.00    -0.126 NA
ATOM     14  C   UNL d   1       9.839   7.168  -9.858  0.00  0.00     0.190 A 
ATOM     15  N   UNL d   1       9.166   5.998  -9.935  0.00  0.00    -0.287 N 
ATOM     16  C   UNL d   1       8.868   5.006  -8.892  0.00  0.00     0.134 C 
BRANCH  14  17
ATOM     17  C   UNL d   1      10.547   7.720  -8.701  0.00  0.00     0.132 A 
ATOM     18  C   UNL d   1      10.241   7.858  -7.365  0.00  0.00     0.006 A 
ATOM     19  C   UNL d   1       9.011   7.423  -6.624  0.00  0.00     0.033 C 
ATOM     20  C   UNL d   1      11.363   8.506  -6.783  0.00  0.00     0.025 A 
ATOM     21  C   UNL d   1      12.262   8.733  -7.790  0.00  0.00     0.122 A 
ATOM     22  O   UNL d   1      11.777   8.248  -8.963  0.00  0.00    -0.302 OA
ENDBRANCH  14  17
ENDBRANCH  10  11
ENDBRANCH   9  10
ENDBRANCH   8   9
ENDBRANCH   7   8
ENDBRANCH   1   7
BRANCH   5  23
ATOM     23  C   UNL d   1      13.041   3.241 -18.436  0.00  0.00    -0.021 A 
ATOM     24  C   UNL d   1      12.606   1.924 -18.152  0.00  0.00    -0.004 A 
ATOM     25  C   UNL d   1      13.177   0.827 -18.854  0.00  0.00     0.004 A 
ATOM     26  C   UNL d   1      14.182   1.038 -19.808  0.00  0.00     0.071 A 
ATOM     27  C   UNL d   1      14.630   2.346 -20.080  0.00  0.00     0.004 A 
ATOM     28  C   UNL d   1      14.035   3.440 -19.395  0.00  0.00    -0.004 A 
BRANCH  26  29
ATOM     29  C   UNL d   1      14.808  -0.129 -20.570  0.00  0.00     0.419 C 
ATOM     30  F   UNL d   1      16.019  -0.381 -20.076  0.00  0.00    -0.166 F 
ATOM     31  F   UNL d   1      14.061  -1.228 -20.478  0.00  0.00    -0.166 F 
ATOM     32  F   UNL d   1      14.924   0.189 -21.858  0.00  0.00    -0.166 F 
ENDBRANCH  26  29
ENDBRANCH   5  23
TORSDOF 8
