REMARK  3 active torsions:
REMARK  status: ('A' for Active; 'I' for Inactive)
REMARK    1  A    between atoms: C_2  and  C_3 
REMARK    2  A    between atoms: C_3  and  C_4 
REMARK    3  A    between atoms: C_4  and  N_5 
ROOT
ATOM      1  N   UNL d   1      10.521   9.179  -6.469  0.00  0.00     0.142 N 
ATOM      2  C   UNL d   1      11.723   9.079  -7.284  0.00  0.00     0.255 C 
ATOM      3  C   UNL d   1      11.364   8.765  -8.743  0.00  0.00     0.061 C 
ATOM      4  C   UNL d   1      10.381   7.613  -8.854  0.00  0.00    -0.022 A 
ATOM      5  C   UNL d   1      10.204   6.952 -10.077  0.00  0.00     0.006 A 
ATOM      6  C   UNL d   1       9.301   5.867 -10.190  0.00  0.00     0.068 A 
ATOM      7  C   UNL d   1       9.089   5.214 -11.460  0.00  0.00     0.101 C 
ATOM      8  N   UNL d   1       8.924   4.688 -12.487  0.00  0.00    -0.191 NA
ATOM      9  C   UNL d   1       8.587   5.449  -9.044  0.00  0.00     0.010 A 
ATOM     10  C   UNL d   1       8.738   6.134  -7.830  0.00  0.00    -0.002 A 
ATOM     11  C   UNL d   1       9.633   7.214  -7.730  0.00  0.00     0.007 A 
ATOM     12  C   UNL d   1       9.860   7.871  -6.392  0.00  0.00     0.276 C 
ENDROOT
BRANCH   1  13
ATOM     13  C   UNL d   1      10.819   9.726  -5.139  0.00  0.00     0.251 C 
BRANCH  13  14
ATOM     14  C   UNL d   1      11.646   8.759  -4.258  0.00  0.00     0.035 C 
BRANCH  14  15
ATOM     15  C   UNL d   1      11.942   9.319  -2.875  0.00  0.00     0.002 C 
ATOM     16  C   UNL d   1      12.220   8.178  -1.885  0.00  0.00     0.000 C 
ENDBRANCH  14  15
ENDBRANCH  13  14
ENDBRANCH   1  13
TORSDOF 3
