REMARK  7 active torsions:
REMARK  status: ('A' for Active; 'I' for Inactive)
REMARK    1  A    between atoms: N_12  and  C_13 
REMARK    2  A    between atoms: C_13  and  C_14 
REMARK    3  A    between atoms: C_14  and  C_15 
REMARK    4  A    between atoms: C_15  and  C_16 
REMARK    5  A    between atoms: C_16  and  C_17 
REMARK    6  A    between atoms: C_17  and  N_18 
REMARK    7  A    between atoms: C_21  and  C_22 
ROOT
ATOM      1  C   UNL d   1       9.398   6.854 -11.022  0.00  0.00     0.035 C 
ENDROOT
BRANCH   1   2
ATOM      2  C   UNL d   1       9.850   8.123 -10.313  0.00  0.00     0.004 C 
BRANCH   2   3
ATOM      3  C   UNL d   1      10.180   7.765  -8.887  0.00  0.00     0.025 C 
BRANCH   3   4
ATOM      4  C   UNL d   1      10.458   8.964  -7.968  0.00  0.00     0.112 C 
BRANCH   4   5
ATOM      5  N   UNL d   1      10.864   8.611  -6.599  0.00  0.00    -0.263 N 
ATOM      6  C   UNL d   1      11.098   7.356  -6.140  0.00  0.00     0.263 A 
ATOM      7  O   UNL d   1      11.069   6.285  -6.729  0.00  0.00    -0.267 OA
ATOM      8  C   UNL d   1      11.488   7.496  -4.732  0.00  0.00     0.063 A 
ATOM      9  C   UNL d   1      11.508   8.817  -4.426  0.00  0.00     0.088 A 
ATOM     10  C   UNL d   1      11.877   6.520  -3.829  0.00  0.00     0.005 A 
ATOM     11  C   UNL d   1      11.881   9.241  -3.145  0.00  0.00     0.145 A 
ATOM     12  C   UNL d   1      11.113   9.557  -5.648  0.00  0.00     0.265 A 
ATOM     13  C   UNL d   1      12.262   8.273  -2.189  0.00  0.00     0.030 A 
ATOM     14  F   UNL d   1      11.847  10.533  -2.834  0.00  0.00    -0.204 F 
ATOM     15  C   UNL d   1      12.258   6.896  -2.524  0.00  0.00     0.003 A 
ATOM     16  O   UNL d   1      11.071  10.773  -5.755  0.00  0.00    -0.267 OA
ENDBRANCH   4   5
ENDBRANCH   3   4
ENDBRANCH   2   3
ENDBRANCH   1   2
BRANCH   1  17
ATOM     17  C   UNL d   1       8.945   7.155 -12.459  0.00  0.00     0.251 C 
BRANCH  17  18
ATOM     18  N   UNL d   1       8.555   5.966 -13.210  0.00  0.00     0.142 N 
ATOM     19  C   UNL d   1       7.572   5.173 -12.482  0.00  0.00     0.255 C 
ATOM     20  C   UNL d   1       7.042   4.043 -13.343  0.00  0.00     0.061 C 
ATOM     21  C   UNL d   1       8.140   3.263 -14.049  0.00  0.00    -0.021 C 
ATOM     22  C   UNL d   1       9.367   3.820 -14.159  0.00  0.00     0.005 C 
ATOM     23  C   UNL d   1       9.725   5.175 -13.602  0.00  0.00     0.276 C 
BRANCH  21  24
ATOM     24  C   UNL d   1       7.861   1.943 -14.635  0.00  0.00     0.016 A 
ATOM     25  C   UNL d   1       6.670   1.142 -14.429  0.00  0.00     0.019 A 
ATOM     26  C   UNL d   1       6.836  -0.019 -15.248  0.00  0.00     0.081 A 
ATOM     27  C   UNL d   1       5.461   1.224 -13.689  0.00  0.00     0.002 A 
ATOM     28  N   UNL d   1       8.078   0.088 -15.842  0.00  0.00    -0.244 NA
ATOM     29  C   UNL d   1       5.843  -1.018 -15.332  0.00  0.00     0.019 A 
ATOM     30  C   UNL d   1       8.708   1.261 -15.471  0.00  0.00     0.099 A 
ATOM     31  C   UNL d   1       4.653  -0.893 -14.606  0.00  0.00     0.002 A 
ATOM     32  C   UNL d   1       4.470   0.227 -13.780  0.00  0.00     0.000 A 
ENDBRANCH  21  24
ENDBRANCH  17  18
ENDBRANCH   1  17
TORSDOF 7
