REMARK  9 active torsions:
REMARK  status: ('A' for Active; 'I' for Inactive)
REMARK    1  A    between atoms: O_2  and  C_3 
REMARK    2  A    between atoms: C_4  and  O_5 
REMARK    3  A    between atoms: O_5  and  C_6 
REMARK    4  A    between atoms: C_6  and  C_7 
REMARK    5  A    between atoms: C_12  and  C_13 
REMARK    6  A    between atoms: C_13  and  C_15 
REMARK    7  A    between atoms: N_18  and  C_19 
REMARK    8  A    between atoms: C_19  and  C_20 
REMARK    9  A    between atoms: C_20  and  C_21 
ROOT
ATOM      1  C   UNL d   1       9.201   6.117 -11.115  0.00  0.00     0.039 C 
ATOM      2  C   UNL d   1       8.673   5.604  -9.771  0.00  0.00     0.038 C 
ATOM      3  C   UNL d   1       9.623   5.944  -8.623  0.00  0.00     0.250 C 
ATOM      4  N   UNL d   1       9.886   7.385  -8.555  0.00  0.00     0.137 N 
ATOM      5  C   UNL d   1      10.527   7.833  -9.795  0.00  0.00     0.250 C 
ATOM      6  C   UNL d   1       9.612   7.595 -10.976  0.00  0.00     0.038 C 
ENDROOT
BRANCH   1   7
ATOM      7  C   UNL d   1       8.145   5.883 -12.221  0.00  0.00     0.176 C 
ATOM      8  O   UNL d   1       7.723   7.067 -12.837  0.00  0.00    -0.218 OA
BRANCH   7   9
ATOM      9  C   UNL d   1       8.642   4.855 -13.246  0.00  0.00     0.032 C 
ATOM     10  C   UNL d   1       7.881   3.692 -13.521  0.00  0.00     0.115 C 
ATOM     11  C   UNL d   1       8.345   2.779 -14.512  0.00  0.00     0.116 C 
ATOM     12  C   UNL d   1       9.483   3.142 -15.290  0.00  0.00     0.026 C 
ATOM     13  C   UNL d   1      10.280   4.234 -14.956  0.00  0.00     0.002 C 
ATOM     14  C   UNL d   1       9.850   5.096 -13.945  0.00  0.00     0.000 C 
BRANCH  10  15
ATOM     15  O   UNL d   1       6.708   3.552 -12.804  0.00  0.00    -0.326 OA
ATOM     16  C   UNL d   1       5.652   2.762 -13.329  0.00  0.00     0.181 C 
ENDBRANCH  10  15
BRANCH  11  17
ATOM     17  O   UNL d   1       7.714   1.563 -14.660  0.00  0.00    -0.326 OA
BRANCH  17  18
ATOM     18  C   UNL d   1       8.153   0.623 -15.632  0.00  0.00     0.187 C 
BRANCH  18  19
ATOM     19  C   UNL d   1       9.570   0.042 -15.367  0.00  0.00     0.226 C 
ATOM     20  F   UNL d   1       9.899  -0.770 -16.345  0.00  0.00    -0.232 F 
ENDBRANCH  18  19
ENDBRANCH  17  18
ENDBRANCH  11  17
ENDBRANCH   7   9
ENDBRANCH   1   7
BRANCH   4  21
ATOM     21  C   UNL d   1      10.771   7.661  -7.427  0.00  0.00     0.255 C 
BRANCH  21  22
ATOM     22  C   UNL d   1       9.977   8.104  -6.192  0.00  0.00     0.062 C 
BRANCH  22  23
ATOM     23  C   UNL d   1      10.910   8.288  -5.010  0.00  0.00    -0.020 A 
ATOM     24  C   UNL d   1      11.090   9.570  -4.451  0.00  0.00    -0.002 A 
ATOM     25  C   UNL d   1      11.868   9.722  -3.289  0.00  0.00     0.029 A 
ATOM     26  C   UNL d   1      12.501   8.608  -2.709  0.00  0.00     0.140 A 
ATOM     27  C   UNL d   1      12.320   7.339  -3.251  0.00  0.00     0.029 A 
ATOM     28  F   UNL d   1      13.298   8.742  -1.628  0.00  0.00    -0.204 F 
ATOM     29  C   UNL d   1      11.518   7.168  -4.398  0.00  0.00    -0.002 A 
ENDBRANCH  22  23
ENDBRANCH  21  22
ENDBRANCH   4  21
TORSDOF 9
