REMARK  4 active torsions:
REMARK  status: ('A' for Active; 'I' for Inactive)
REMARK    1  A    between atoms: C_2  and  N_4 
REMARK    2  A    between atoms: N_4  and  C_5 
REMARK    3  A    between atoms: C_5  and  C_6 
REMARK    4  A    between atoms: C_6  and  C_8 
ROOT
ATOM      1  C   UNL d   1      11.032   8.042  -5.416  0.00  0.00     0.020 A 
ATOM      2  C   UNL d   1      11.321   6.799  -4.813  0.00  0.00    -0.001 A 
ATOM      3  C   UNL d   1      11.985   6.692  -3.587  0.00  0.00    -0.000 A 
ATOM      4  C   UNL d   1      12.396   7.840  -2.897  0.00  0.00     0.001 A 
ATOM      5  C   UNL d   1      12.113   9.096  -3.457  0.00  0.00     0.011 A 
ATOM      6  C   UNL d   1      11.435   9.204  -4.696  0.00  0.00     0.056 A 
ATOM      7 CL   UNL d   1      11.055  10.781  -5.242  0.00  0.00    -0.083 Cl
ENDROOT
BRANCH   1   8
ATOM      8  C   UNL d   1      10.210   8.082  -6.721  0.00  0.00     0.199 C 
ATOM      9  O   UNL d   1      10.490   9.172  -7.576  0.00  0.00    -0.216 OA
BRANCH   8  10
ATOM     10  C   UNL d   1      10.444   6.895  -7.663  0.00  0.00     0.157 C 
BRANCH  10  11
ATOM     11  N   UNL d   1       9.460   6.850  -8.737  0.00  0.00    -0.294 NA
BRANCH  11  12
ATOM     12  C   UNL d   1       9.645   5.798  -9.733  0.00  0.00     0.098 C 
ATOM     13  C   UNL d   1       8.480   5.823 -10.727  0.00  0.00     0.026 C 
ATOM     14  C   UNL d   1       9.764   4.420  -9.083  0.00  0.00     0.026 C 
ENDBRANCH  11  12
ENDBRANCH  10  11
ENDBRANCH   8  10
ENDBRANCH   1   8
TORSDOF 4
