REMARK  7 active torsions:
REMARK  status: ('A' for Active; 'I' for Inactive)
REMARK    1  A    between atoms: O_2  and  C_3 
REMARK    2  A    between atoms: C_6  and  C_7 
REMARK       I    between atoms: C_7  and  N_9 
REMARK    3  A    between atoms: N_12  and  C_13 
REMARK    4  A    between atoms: C_13  and  C_14 
REMARK    5  A    between atoms: C_14  and  O_15 
REMARK    6  A    between atoms: O_15  and  C_16 
REMARK    7  A    between atoms: C_20  and  O_21 
ROOT
ATOM      1  C   UNL d   1       8.352   4.647 -13.630  0.00  0.00     0.257 C 
ATOM      2  O   UNL d   1       9.086   4.934 -14.566  0.00  0.00    -0.267 OA
ATOM      3  N   UNL d   1       8.299   5.365 -12.476  0.00  0.00    -0.312 N 
ATOM      4  C   UNL d   1       7.613   4.964 -11.236  0.00  0.00     0.140 C 
ATOM      5  C   UNL d   1       8.550   5.048 -10.036  0.00  0.00     0.274 C 
ATOM      6  N   UNL d   1       9.116   6.387  -9.896  0.00  0.00     0.144 N 
ATOM      7  C   UNL d   1       9.847   6.739 -11.101  0.00  0.00     0.274 C 
ATOM      8  C   UNL d   1       8.944   6.684 -12.351  0.00  0.00     0.140 C 
ENDROOT
BRANCH   6   9
ATOM      9  C   UNL d   1       9.957   6.437  -8.716  0.00  0.00     0.283 C 
BRANCH   9  10
ATOM     10  C   UNL d   1       9.121   6.758  -7.458  0.00  0.00     0.184 C 
BRANCH  10  11
ATOM     11  O   UNL d   1       9.908   6.431  -6.313  0.00  0.00    -0.329 OA
BRANCH  11  12
ATOM     12  C   UNL d   1      10.649   7.395  -5.668  0.00  0.00     0.096 A 
ATOM     13  C   UNL d   1      11.301   7.002  -4.481  0.00  0.00     0.048 A 
ATOM     14  C   UNL d   1      12.027   7.932  -3.699  0.00  0.00     0.096 A 
ATOM     15  C   UNL d   1      12.102   9.267  -4.131  0.00  0.00     0.024 A 
ATOM     16  C   UNL d   1      11.469   9.668  -5.324  0.00  0.00     0.004 A 
ATOM     17  C   UNL d   1      10.751   8.738  -6.098  0.00  0.00     0.024 A 
BRANCH  14  18
ATOM     18  O   UNL d   1      12.655   7.623  -2.515  0.00  0.00    -0.328 OA
ATOM     19  C   UNL d   1      12.585   6.285  -2.062  0.00  0.00     0.181 C 
ENDBRANCH  14  18
ENDBRANCH  11  12
ENDBRANCH  10  11
ENDBRANCH   9  10
ENDBRANCH   6   9
BRANCH   1  20
ATOM     20  C   UNL d   1       7.501   3.398 -13.737  0.00  0.00     0.056 C 
ATOM     21  C   UNL d   1       8.013   2.280 -14.427  0.00  0.00     0.007 C 
ATOM     22  C   UNL d   1       7.276   1.087 -14.517  0.00  0.00     0.024 C 
ATOM     23  C   UNL d   1       5.987   1.000 -13.924  0.00  0.00     0.094 C 
ATOM     24  C   UNL d   1       5.464   2.126 -13.258  0.00  0.00     0.024 C 
ATOM     25  C   UNL d   1       6.181   3.336 -13.223  0.00  0.00     0.007 C 
BRANCH  23  26
ATOM     26  O   UNL d   1       5.209  -0.139 -13.993  0.00  0.00    -0.328 OA
ATOM     27  C   UNL d   1       5.795  -1.288 -14.604  0.00  0.00     0.181 C 
ENDBRANCH  23  26
ENDBRANCH   1  20
TORSDOF 7
