REMARK  6 active torsions:
REMARK  status: ('A' for Active; 'I' for Inactive)
REMARK    1  A    between atoms: O_2  and  C_3 
REMARK    2  A    between atoms: C_6  and  O_7 
REMARK    3  A    between atoms: O_7  and  C_8 
REMARK    4  A    between atoms: C_8  and  C_9 
REMARK    5  A    between atoms: C_9  and  N_10 
REMARK       I    between atoms: N_13  and  C_14 
REMARK    6  A    between atoms: C_14  and  C_16 
ROOT
ATOM      1  N   UNL d   1       8.966   3.167 -14.239  0.00  0.00     0.144 N 
ATOM      2  C   UNL d   1       9.587   3.301 -12.933  0.00  0.00     0.274 C 
ATOM      3  C   UNL d   1       8.790   4.182 -11.977  0.00  0.00     0.140 C 
ATOM      4  N   UNL d   1       8.710   5.502 -12.571  0.00  0.00    -0.311 N 
ATOM      5  C   UNL d   1       9.157   6.641 -11.978  0.00  0.00     0.275 C 
ATOM      6  O   UNL d   1       9.378   7.692 -12.577  0.00  0.00    -0.266 OA
ATOM      7  C   UNL d   1       8.243   5.399 -13.968  0.00  0.00     0.140 C 
ATOM      8  C   UNL d   1       9.089   4.459 -14.861  0.00  0.00     0.274 C 
ENDROOT
BRANCH   5   9
ATOM      9  C   UNL d   1       9.442   6.599 -10.543  0.00  0.00     0.137 A 
ATOM     10  N   UNL d   1      10.518   7.321 -10.075  0.00  0.00    -0.241 NA
ATOM     11  C   UNL d   1      10.549   7.289  -8.705  0.00  0.00     0.078 A 
ATOM     12  C   UNL d   1       9.404   6.543  -8.316  0.00  0.00     0.019 A 
ATOM     13  C   UNL d   1      11.428   7.842  -7.764  0.00  0.00    -0.004 A 
ATOM     14  C   UNL d   1       8.742   6.080  -9.492  0.00  0.00     0.025 A 
ATOM     15  C   UNL d   1       9.136   6.445  -6.944  0.00  0.00     0.002 A 
ATOM     16  C   UNL d   1      10.037   6.955  -5.991  0.00  0.00    -0.000 A 
ATOM     17  C   UNL d   1      11.179   7.664  -6.393  0.00  0.00    -0.003 A 
ATOM     18  C   UNL d   1      12.608   8.636  -8.247  0.00  0.00     0.033 C 
ENDBRANCH   5   9
BRANCH   1  19
ATOM     19  C   UNL d   1       9.664   2.150 -15.008  0.00  0.00     0.283 C 
BRANCH  19  20
ATOM     20  C   UNL d   1       9.212   0.679 -14.747  0.00  0.00     0.184 C 
BRANCH  20  21
ATOM     21  O   UNL d   1       7.839   0.414 -15.002  0.00  0.00    -0.329 OA
BRANCH  21  22
ATOM     22  C   UNL d   1       7.354   0.429 -16.294  0.00  0.00     0.094 A 
ATOM     23  C   UNL d   1       5.998   0.087 -16.468  0.00  0.00     0.026 A 
ATOM     24  C   UNL d   1       5.405   0.132 -17.750  0.00  0.00     0.026 A 
ATOM     25  C   UNL d   1       6.142   0.580 -18.866  0.00  0.00     0.094 A 
ATOM     26  C   UNL d   1       7.499   0.930 -18.685  0.00  0.00     0.026 A 
ATOM     27  C   UNL d   1       8.120   0.792 -17.430  0.00  0.00     0.026 A 
BRANCH  25  28
ATOM     28  O   UNL d   1       5.507   0.619 -20.088  0.00  0.00    -0.328 OA
ATOM     29  C   UNL d   1       6.264   1.078 -21.199  0.00  0.00     0.181 C 
ENDBRANCH  25  28
ENDBRANCH  21  22
ENDBRANCH  20  21
ENDBRANCH  19  20
ENDBRANCH   1  19
TORSDOF 6
