REMARK  1 active torsions:
REMARK  status: ('A' for Active; 'I' for Inactive)
REMARK    1  A    between atoms: C_10  and  C_11 
ROOT
ATOM      1  C   UNL d   1       6.920   2.795 -14.430  0.00  0.00     0.285 C 
ATOM      2  N   UNL d   1       7.540   3.972 -13.843  0.00  0.00     0.139 N 
ATOM      3  C   UNL d   1       6.778   4.379 -12.658  0.00  0.00     0.253 C 
ATOM      4  C   UNL d   1       7.373   5.659 -12.058  0.00  0.00     0.071 C 
ATOM      5  C   UNL d   1       8.852   5.473 -11.701  0.00  0.00     0.157 A 
ATOM      6  C   UNL d   1       9.622   4.930 -12.917  0.00  0.00     0.071 C 
ATOM      7  C   UNL d   1       8.936   3.676 -13.500  0.00  0.00     0.253 C 
ATOM      8  O   UNL d   1       8.966   4.554 -10.619  0.00  0.00    -0.326 OA
ATOM      9  C   UNL d   1       9.451   5.217  -9.527  0.00  0.00     0.119 A 
ATOM     10  C   UNL d   1       9.743   6.511  -9.716  0.00  0.00     0.061 A 
ATOM     11  C   UNL d   1       9.413   6.770 -11.112  0.00  0.00     0.200 A 
ATOM     12  O   UNL d   1       9.494   7.845 -11.737  0.00  0.00    -0.289 OA
ENDROOT
BRANCH  10  13
ATOM     13  C   UNL d   1      10.239   7.443  -8.694  0.00  0.00     0.005 A 
ATOM     14  C   UNL d   1       9.478   7.775  -7.552  0.00  0.00     0.003 A 
ATOM     15  C   UNL d   1      10.028   8.627  -6.571  0.00  0.00     0.030 A 
ATOM     16  C   UNL d   1      11.328   9.136  -6.724  0.00  0.00     0.140 A 
ATOM     17  C   UNL d   1      12.088   8.787  -7.859  0.00  0.00     0.030 A 
ATOM     18  F   UNL d   1      11.846   9.964  -5.785  0.00  0.00    -0.204 F 
ATOM     19  C   UNL d   1      11.535   7.971  -8.856  0.00  0.00     0.003 A 
ENDBRANCH  10  13
TORSDOF 1
