REMARK  6 active torsions:
REMARK  status: ('A' for Active; 'I' for Inactive)
REMARK    1  A    between atoms: N_11  and  C_12 
REMARK    2  A    between atoms: C_12  and  C_13 
REMARK    3  A    between atoms: C_13  and  C_14 
REMARK    4  A    between atoms: C_14  and  C_15 
REMARK    5  A    between atoms: C_15  and  N_16 
REMARK    6  A    between atoms: N_19  and  C_20 
ROOT
ATOM      1  C   UNL d   1       6.976   4.836 -12.908  0.00  0.00     0.251 C 
ENDROOT
BRANCH   1   2
ATOM      2  C   UNL d   1       7.412   3.646 -13.752  0.00  0.00     0.037 C 
BRANCH   2   3
ATOM      3  C   UNL d   1       6.228   2.864 -14.305  0.00  0.00     0.026 C 
BRANCH   3   4
ATOM      4  C   UNL d   1       6.560   1.402 -14.692  0.00  0.00     0.104 C 
BRANCH   4   5
ATOM      5  N   UNL d   1       7.806   1.288 -15.479  0.00  0.00    -0.316 N 
ATOM      6  C   UNL d   1       7.798   1.501 -16.812  0.00  0.00     0.257 C 
ATOM      7  O   UNL d   1       6.776   1.687 -17.470  0.00  0.00    -0.267 OA
ATOM      8  C   UNL d   1       9.143   1.510 -17.507  0.00  0.00     0.052 A 
ATOM      9  C   UNL d   1      10.333   1.619 -16.756  0.00  0.00    -0.016 A 
ATOM     10  C   UNL d   1       9.212   1.434 -18.917  0.00  0.00     0.004 A 
ATOM     11  C   UNL d   1      11.579   1.653 -17.409  0.00  0.00    -0.004 A 
ATOM     12  C   UNL d   1      10.256   1.690 -15.241  0.00  0.00     0.051 C 
ATOM     13  C   UNL d   1      11.647   1.575 -18.815  0.00  0.00    -0.000 A 
ATOM     14  C   UNL d   1      10.460   1.466 -19.558  0.00  0.00     0.000 A 
ATOM     15  C   UNL d   1       9.027   0.937 -14.721  0.00  0.00     0.109 C 
ENDBRANCH   4   5
ENDBRANCH   3   4
ENDBRANCH   2   3
ENDBRANCH   1   2
BRANCH   1  16
ATOM     16  N   UNL d   1       8.174   5.411 -12.320  0.00  0.00     0.141 N 
ATOM     17  C   UNL d   1       7.830   6.766 -11.911  0.00  0.00     0.274 C 
ATOM     18  C   UNL d   1       9.024   7.465 -11.189  0.00  0.00     0.137 C 
ATOM     19  N   UNL d   1       9.409   6.661 -10.039  0.00  0.00    -0.344 N 
ATOM     20  C   UNL d   1       9.714   5.312 -10.405  0.00  0.00     0.137 C 
ATOM     21  C   UNL d   1       8.544   4.635 -11.121  0.00  0.00     0.274 C 
BRANCH  19  22
ATOM     22  C   UNL d   1       9.676   7.146  -8.743  0.00  0.00     0.068 A 
ATOM     23  C   UNL d   1      10.431   8.310  -8.473  0.00  0.00     0.084 A 
ATOM     24  C   UNL d   1      10.610   8.722  -7.134  0.00  0.00     0.070 A 
ATOM     25 CL   UNL d   1      11.221   9.171  -9.740  0.00  0.00    -0.080 Cl
ATOM     26  C   UNL d   1      10.096   7.959  -6.085  0.00  0.00     0.012 A 
ATOM     27 CL   UNL d   1      11.467  10.132  -6.670  0.00  0.00    -0.081 Cl
ATOM     28  C   UNL d   1       9.403   6.785  -6.361  0.00  0.00     0.002 A 
ATOM     29  C   UNL d   1       9.181   6.370  -7.679  0.00  0.00     0.018 A 
ENDBRANCH  19  22
ENDBRANCH   1  16
TORSDOF 6
