REMARK  6 active torsions:
REMARK  status: ('A' for Active; 'I' for Inactive)
REMARK    1  A    between atoms: C_7  and  C_8 
REMARK    2  A    between atoms: C_8  and  N_9 
REMARK    3  A    between atoms: N_9  and  C_10 
REMARK    4  A    between atoms: C_10  and  C_11 
REMARK    5  A    between atoms: C_11  and  C_12 
REMARK    6  A    between atoms: C_12  and  C_13 
ROOT
ATOM      1  C   UNL d   1      11.730   8.936  -4.811  0.00  0.00     0.031 C 
ATOM      2  C   UNL d   1      11.058   8.244  -5.981  0.00  0.00    -0.022 A 
ATOM      3  C   UNL d   1      10.256   7.103  -5.777  0.00  0.00    -0.003 A 
ATOM      4  C   UNL d   1       9.611   6.486  -6.868  0.00  0.00     0.019 A 
ATOM      5  C   UNL d   1       9.807   6.958  -8.162  0.00  0.00     0.084 A 
ATOM      6  N   UNL d   1       9.219   6.292  -9.239  0.00  0.00    -0.248 NA
ATOM      7  C   UNL d   1       9.336   6.769 -10.528  0.00  0.00     0.098 A 
ATOM      8  C   UNL d   1      10.047   7.875 -10.810  0.00  0.00     0.059 A 
ATOM      9  C   UNL d   1      10.773   8.609  -9.760  0.00  0.00     0.198 A 
ATOM     10  O   UNL d   1      11.458   9.583 -10.015  0.00  0.00    -0.286 OA
ATOM     11  C   UNL d   1      10.609   8.100  -8.379  0.00  0.00     0.056 A 
ATOM     12  C   UNL d   1      11.233   8.742  -7.287  0.00  0.00     0.000 A 
ENDROOT
BRANCH   7  13
ATOM     13  C   UNL d   1       8.574   6.033 -11.608  0.00  0.00     0.336 C 
BRANCH  13  14
ATOM     14  N   UNL d   1       7.866   4.843 -11.141  0.00  0.00     0.345 N 
BRANCH  14  15
ATOM     15  C   UNL d   1       7.205   4.165 -12.245  0.00  0.00     0.291 C 
BRANCH  15  16
ATOM     16  C   UNL d   1       8.229   3.602 -13.252  0.00  0.00     0.043 C 
BRANCH  16  17
ATOM     17  C   UNL d   1       7.611   2.614 -14.234  0.00  0.00     0.029 C 
BRANCH  17  18
ATOM     18  C   UNL d   1       8.669   1.961 -15.101  0.00  0.00    -0.019 A 
ATOM     19  C   UNL d   1       8.928   0.584 -14.986  0.00  0.00     0.016 A 
ATOM     20  C   UNL d   1       9.924   0.012 -15.799  0.00  0.00     0.099 A 
ATOM     21  N   UNL d   1      10.656   0.719 -16.685  0.00  0.00    -0.243 NA
ATOM     22  C   UNL d   1      10.409   2.043 -16.786  0.00  0.00     0.099 A 
ATOM     23  C   UNL d   1       9.430   2.710 -16.023  0.00  0.00     0.016 A 
ENDBRANCH  17  18
ENDBRANCH  16  17
ENDBRANCH  15  16
ENDBRANCH  14  15
ENDBRANCH  13  14
ENDBRANCH   7  13
TORSDOF 6
