REMARK  4 active torsions:
REMARK  status: ('A' for Active; 'I' for Inactive)
REMARK    1  A    between atoms: O_2  and  C_3 
REMARK    2  A    between atoms: C_8  and  O_9 
REMARK    3  A    between atoms: C_18  and  O_19 
REMARK    4  A    between atoms: C_21  and  O_22 
ROOT
ATOM      1  C   UNL d   1       8.971   5.366 -13.179  0.00  0.00     0.116 A 
ATOM      2  C   UNL d   1       7.717   4.864 -12.772  0.00  0.00     0.022 A 
ATOM      3  C   UNL d   1       7.269   3.601 -13.227  0.00  0.00    -0.020 A 
ATOM      4  C   UNL d   1       8.100   2.828 -14.050  0.00  0.00     0.007 A 
ATOM      5  C   UNL d   1       9.354   3.327 -14.466  0.00  0.00     0.024 A 
ATOM      6  C   UNL d   1       9.797   4.603 -14.034  0.00  0.00     0.116 A 
ATOM      7  C   UNL d   1       7.630   1.455 -14.530  0.00  0.00     0.246 C 
ATOM      8  C   UNL d   1       7.148   1.576 -15.997  0.00  0.00     0.066 C 
ATOM      9  C   UNL d   1       6.319   0.406 -16.492  0.00  0.00     0.002 A 
ATOM     10  C   UNL d   1       5.827  -0.540 -15.569  0.00  0.00     0.011 A 
ATOM     11  C   UNL d   1       5.048  -1.619 -16.017  0.00  0.00     0.027 A 
ATOM     12  C   UNL d   1       4.750  -1.750 -17.387  0.00  0.00     0.155 A 
ATOM     13  O   UNL d   1       3.971  -2.808 -17.808  0.00  0.00    -0.188 OA
ATOM     14  C   UNL d   1       5.221  -0.798 -18.323  0.00  0.00     0.141 A 
ATOM     15  C   UNL d   1       6.041   0.275 -17.871  0.00  0.00     0.114 A 
ATOM     16  C   UNL d   1       6.218  -0.461 -14.107  0.00  0.00     0.277 C 
ATOM     17  N   UNL d   1       6.616   0.860 -13.641  0.00  0.00     0.144 N 
ATOM     18  C   UNL d   1       5.502   1.772 -13.431  0.00  0.00     0.256 C 
ATOM     19  C   UNL d   1       5.959   3.046 -12.692  0.00  0.00     0.061 C 
ENDROOT
BRANCH   1  20
ATOM     20  O   UNL d   1       9.460   6.591 -12.777  0.00  0.00    -0.326 OA
ATOM     21  C   UNL d   1       8.718   7.354 -11.840  0.00  0.00     0.181 C 
ENDBRANCH   1  20
BRANCH   6  22
ATOM     22  O   UNL d   1      11.010   5.153 -14.397  0.00  0.00    -0.326 OA
ATOM     23  C   UNL d   1      11.892   4.380 -15.198  0.00  0.00     0.181 C 
ENDBRANCH   6  22
BRANCH  15  24
ATOM     24  O   UNL d   1       6.579   1.236 -18.701  0.00  0.00    -0.326 OA
ATOM     25  C   UNL d   1       7.443   0.783 -19.727  0.00  0.00     0.181 C 
ENDBRANCH  15  24
BRANCH  14  26
ATOM     26  O   UNL d   1       4.906  -1.001 -19.648  0.00  0.00    -0.324 OA
ATOM     27  C   UNL d   1       4.342   0.079 -20.375  0.00  0.00     0.182 C 
ENDBRANCH  14  26
TORSDOF 4
