REMARK  8 active torsions:
REMARK  status: ('A' for Active; 'I' for Inactive)
REMARK    1  A    between atoms: C_3  and  S_4 
REMARK    2  A    between atoms: S_4  and  C_5 
REMARK    3  A    between atoms: C_5  and  C_6 
REMARK    4  A    between atoms: C_6  and  C_7 
REMARK    5  A    between atoms: C_7  and  N_8 
REMARK    6  A    between atoms: C_13  and  C_14 
REMARK    7  A    between atoms: C_17  and  C_18 
REMARK    8  A    between atoms: C_27  and  C_28 
ROOT
ATOM      1  N   UNL d   1       9.812   4.132 -14.365  0.00  0.00     0.137 N 
ATOM      2  C   UNL d   1       8.885   3.049 -14.111  0.00  0.00     0.250 C 
ATOM      3  C   UNL d   1       7.674   3.763 -13.543  0.00  0.00     0.038 C 
ATOM      4  C   UNL d   1       8.188   4.998 -12.891  0.00  0.00     0.037 A 
ATOM      5  C   UNL d   1       7.344   6.256 -12.826  0.00  0.00     0.007 A 
ATOM      6  C   UNL d   1       7.685   5.507 -11.561  0.00  0.00     0.024 A 
ATOM      7  C   UNL d   1       9.678   4.947 -13.175  0.00  0.00     0.251 C 
ENDROOT
BRANCH   1   8
ATOM      8  C   UNL d   1      11.207   3.753 -14.539  0.00  0.00     0.251 C 
BRANCH   8   9
ATOM      9  C   UNL d   1      11.416   2.684 -15.627  0.00  0.00     0.047 C 
BRANCH   9  10
ATOM     10  C   UNL d   1      11.422   3.283 -17.037  0.00  0.00     0.067 C 
BRANCH  10  11
ATOM     11  S   UNL d   1      11.220   1.984 -18.286  0.00  0.00    -0.075 SA
BRANCH  11  12
ATOM     12  C   UNL d   1       9.507   1.659 -18.015  0.00  0.00     0.193 A 
ATOM     13  N   UNL d   1       9.035   0.489 -17.529  0.00  0.00    -0.292 N 
ATOM     14  C   UNL d   1       9.769  -0.701 -17.141  0.00  0.00     0.134 C 
ATOM     15  C   UNL d   1       7.705   0.725 -17.480  0.00  0.00     0.144 A 
ATOM     16  N   UNL d   1       7.375   1.957 -17.872  0.00  0.00    -0.133 NA
ATOM     17  N   UNL d   1       8.553   2.559 -18.251  0.00  0.00    -0.122 NA
BRANCH  15  18
ATOM     18  C   UNL d   1       6.690  -0.284 -17.029  0.00  0.00     0.070 C 
ATOM     19  C   UNL d   1       6.011   0.076 -15.698  0.00  0.00     0.097 C 
ATOM     20  C   UNL d   1       4.829  -0.829 -15.321  0.00  0.00     0.252 C 
ATOM     21  N   UNL d   1       4.264  -1.601 -16.279  0.00  0.00    -0.238 NA
ATOM     22  O   UNL d   1       4.400  -0.802 -14.163  0.00  0.00    -0.271 OA
ATOM     23  C   UNL d   1       4.738  -1.733 -17.655  0.00  0.00     0.129 C 
ATOM     24  C   UNL d   1       5.641  -0.575 -18.105  0.00  0.00     0.035 C 
ENDBRANCH  15  18
ENDBRANCH  11  12
ENDBRANCH  10  11
ENDBRANCH   9  10
ENDBRANCH   8   9
ENDBRANCH   1   8
BRANCH   6  25
ATOM     25  C   UNL d   1       8.664   6.000 -10.529  0.00  0.00    -0.022 A 
ATOM     26  C   UNL d   1       9.566   7.041 -10.848  0.00  0.00    -0.004 A 
ATOM     27  C   UNL d   1      10.479   7.525  -9.909  0.00  0.00     0.004 A 
ATOM     28  C   UNL d   1      10.488   7.002  -8.614  0.00  0.00     0.071 A 
ATOM     29  C   UNL d   1       9.571   5.983  -8.260  0.00  0.00     0.004 A 
ATOM     30  C   UNL d   1       8.672   5.476  -9.216  0.00  0.00    -0.004 A 
BRANCH  28  31
ATOM     31  C   UNL d   1      11.493   7.530  -7.620  0.00  0.00     0.419 C 
ATOM     32  F   UNL d   1      10.934   8.516  -6.921  0.00  0.00    -0.166 F 
ATOM     33  F   UNL d   1      11.856   6.546  -6.799  0.00  0.00    -0.166 F 
ATOM     34  F   UNL d   1      12.583   7.997  -8.239  0.00  0.00    -0.166 F 
ENDBRANCH  28  31
ENDBRANCH   6  25
TORSDOF 8
