REMARK  5 active torsions:
REMARK  status: ('A' for Active; 'I' for Inactive)
REMARK    1  A    between atoms: N_2  and  N_3 
REMARK    2  A    between atoms: N_3  and  C_4 
REMARK       I    between atoms: N_3  and  C_7 
REMARK    3  A    between atoms: C_4  and  C_5 
REMARK       I    between atoms: C_7  and  N_9 
REMARK    4  A    between atoms: N_9  and  C_10 
REMARK    5  A    between atoms: C_10  and  C_11 
ROOT
ATOM      1  N   UNL d   1      10.260   7.944  -7.616  0.00  0.00    -0.176 N 
ATOM      2  C   UNL d   1       9.974   7.285  -8.774  0.00  0.00     0.363 C 
ATOM      3  O   UNL d   1      10.619   7.424  -9.823  0.00  0.00    -0.243 OA
ATOM      4  N   UNL d   1       8.894   6.489  -8.712  0.00  0.00    -0.216 NA
ENDROOT
BRANCH   1   5
ATOM      5  N   UNL d   1      11.065   9.048  -7.524  0.00  0.00    -0.007 NA
ATOM      6  O   UNL d   1      11.461   9.547  -8.563  0.00  0.00    -0.041 OA
ENDBRANCH   1   5
BRANCH   1   7
ATOM      7  C   UNL d   1       9.781   7.503  -6.284  0.00  0.00     0.152 C 
BRANCH   7   8
ATOM      8  C   UNL d   1      10.926   7.165  -5.309  0.00  0.00     0.122 C 
ATOM      9 CL   UNL d   1      11.695   8.608  -4.580  0.00  0.00    -0.112 Cl
ENDBRANCH   7   8
ENDBRANCH   1   7
BRANCH   4  10
ATOM     10  C   UNL d   1       8.323   5.729  -9.818  0.00  0.00     0.148 C 
BRANCH  10  11
ATOM     11  C   UNL d   1       9.345   4.748 -10.379  0.00  0.00     0.121 C 
ATOM     12 CL   UNL d   1       9.860   3.814  -8.973  0.00  0.00    -0.112 Cl
ENDBRANCH  10  11
ENDBRANCH   4  10
TORSDOF 5
