REMARK  4 active torsions:
REMARK  status: ('A' for Active; 'I' for Inactive)
REMARK    1  A    between atoms: N_10  and  C_11 
REMARK    2  A    between atoms: C_11  and  C_12 
REMARK    3  A    between atoms: C_12  and  N_13 
REMARK    4  A    between atoms: N_16  and  C_17 
ROOT
ATOM      1  C   UNL d   1       8.477   3.551 -14.786  0.00  0.00     0.141 C 
ENDROOT
BRANCH   1   2
ATOM      2  C   UNL d   1       9.586   2.492 -14.729  0.00  0.00     0.274 C 
BRANCH   2   3
ATOM      3  N   UNL d   1      10.017   2.097 -16.062  0.00  0.00     0.137 N 
ATOM      4  C   UNL d   1      10.799   0.867 -15.954  0.00  0.00     0.250 C 
ATOM      5  C   UNL d   1      11.616   0.774 -17.253  0.00  0.00     0.037 C 
ATOM      6  C   UNL d   1      11.664   2.207 -17.763  0.00  0.00     0.032 C 
ATOM      7  C   UNL d   1      10.911   2.526 -19.082  0.00  0.00     0.002 C 
ATOM      8  C   UNL d   1      13.042   2.874 -17.969  0.00  0.00     0.002 C 
ATOM      9  C   UNL d   1      10.970   3.033 -16.668  0.00  0.00     0.219 C 
ATOM     10  C   UNL d   1       9.425   2.071 -19.166  0.00  0.00     0.000 C 
ATOM     11  C   UNL d   1      11.579   1.978 -20.373  0.00  0.00     0.000 C 
ATOM     12  C   UNL d   1      11.102   4.035 -18.850  0.00  0.00     0.002 C 
ATOM     13  C   UNL d   1      10.451   4.254 -17.461  0.00  0.00     0.033 C 
ATOM     14  C   UNL d   1      12.639   4.184 -18.684  0.00  0.00     0.000 C 
ENDBRANCH   2   3
ENDBRANCH   1   2
BRANCH   1  15
ATOM     15  N   UNL d   1       8.156   4.046 -13.466  0.00  0.00    -0.298 N 
ATOM     16  C   UNL d   1       9.004   4.738 -12.697  0.00  0.00     0.328 A 
ATOM     17  N   UNL d   1       8.381   5.032 -11.541  0.00  0.00    -0.280 N 
ATOM     18  O   UNL d   1      10.166   5.039 -13.009  0.00  0.00    -0.247 OA
ATOM     19  C   UNL d   1       7.021   4.500 -11.518  0.00  0.00     0.135 A 
ATOM     20  C   UNL d   1       6.841   3.861 -12.888  0.00  0.00     0.131 A 
BRANCH  17  21
ATOM     21  C   UNL d   1       8.980   5.701 -10.437  0.00  0.00     0.065 A 
ATOM     22  C   UNL d   1       9.815   6.820 -10.644  0.00  0.00     0.029 A 
ATOM     23  C   UNL d   1      10.431   7.474  -9.565  0.00  0.00     0.059 A 
ATOM     24  C   UNL d   1      10.201   7.046  -8.249  0.00  0.00     0.011 A 
ATOM     25 CL   UNL d   1      11.460   8.819  -9.866  0.00  0.00    -0.082 Cl
ATOM     26  C   UNL d   1       9.349   5.952  -8.028  0.00  0.00     0.002 A 
ATOM     27  C   UNL d   1       8.740   5.276  -9.108  0.00  0.00     0.017 A 
ENDBRANCH  17  21
ENDBRANCH   1  15
TORSDOF 4
