REMARK  11 active torsions:
REMARK  status: ('A' for Active; 'I' for Inactive)
REMARK    1  A    between atoms: C_9  and  C_10 
REMARK    2  A    between atoms: C_10  and  C_12 
REMARK    3  A    between atoms: C_12  and  N_13 
REMARK    4  A    between atoms: N_13  and  C_14 
REMARK    5  A    between atoms: C_14  and  C_15 
REMARK    6  A    between atoms: C_15  and  C_16 
REMARK    7  A    between atoms: C_20  and  C_21 
REMARK    8  A    between atoms: C_21  and  N_22 
REMARK    9  A    between atoms: N_22  and  C_23 
REMARK   10  A    between atoms: C_23  and  C_24 
REMARK   11  A    between atoms: C_24  and  C_25 
ROOT
ATOM      1  C   UNL d   1       8.567   5.668 -11.810  0.00  0.00    -0.020 A 
ATOM      2  C   UNL d   1       8.568   6.829 -12.607  0.00  0.00    -0.004 A 
ATOM      3  C   UNL d   1       9.057   8.050 -12.109  0.00  0.00    -0.001 A 
ATOM      4  C   UNL d   1       9.573   8.107 -10.803  0.00  0.00    -0.002 A 
ATOM      5  C   UNL d   1       9.546   6.955 -10.007  0.00  0.00     0.013 A 
ATOM      6  C   UNL d   1       9.049   5.734 -10.491  0.00  0.00    -0.006 A 
ENDROOT
BRANCH   1   7
ATOM      7  C   UNL d   1       8.044   4.376 -12.387  0.00  0.00     0.065 C 
BRANCH   7   8
ATOM      8  C   UNL d   1       8.805   3.980 -13.658  0.00  0.00     0.295 C 
BRANCH   8   9
ATOM      9  N   UNL d   1       8.359   2.680 -14.144  0.00  0.00     0.343 N 
BRANCH   9  10
ATOM     10  C   UNL d   1       9.234   2.093 -15.156  0.00  0.00     0.327 C 
BRANCH  10  11
ATOM     11  C   UNL d   1       8.982   0.582 -15.309  0.00  0.00     0.211 C 
ATOM     12  O   UNL d   1      10.174  -0.013 -15.781  0.00  0.00    -0.216 OA
BRANCH  11  13
ATOM     13  C   UNL d   1       7.786   0.280 -16.208  0.00  0.00     0.018 A 
ATOM     14  C   UNL d   1       7.948   0.262 -17.619  0.00  0.00     0.001 A 
ATOM     15  C   UNL d   1       6.864  -0.065 -18.469  0.00  0.00     0.029 A 
ATOM     16  C   UNL d   1       5.601  -0.392 -17.934  0.00  0.00     0.149 A 
ATOM     17  C   UNL d   1       5.453  -0.396 -16.534  0.00  0.00     0.116 A 
ATOM     18  O   UNL d   1       4.568  -0.694 -18.776  0.00  0.00    -0.189 OA
ATOM     19  N   UNL d   1       4.289  -0.747 -15.827  0.00  0.00    -0.200 NA
ATOM     20  C   UNL d   1       6.511  -0.040 -15.695  0.00  0.00     0.052 A 
ATOM     21  C   UNL d   1       4.364  -0.622 -14.455  0.00  0.00     0.311 A 
ATOM     22  O   UNL d   1       3.461  -0.810 -13.639  0.00  0.00    -0.258 OA
ATOM     23  S   UNL d   1       6.033  -0.090 -14.012  0.00  0.00    -0.024 SA
ENDBRANCH  11  13
ENDBRANCH  10  11
ENDBRANCH   9  10
ENDBRANCH   8   9
ENDBRANCH   7   8
ENDBRANCH   1   7
BRANCH   5  24
ATOM     24  C   UNL d   1       9.967   7.073  -8.571  0.00  0.00     0.317 C 
BRANCH  24  25
ATOM     25  N   UNL d   1      11.317   7.584  -8.461  0.00  0.00     0.344 N 
BRANCH  25  26
ATOM     26  C   UNL d   1      11.525   8.229  -7.169  0.00  0.00     0.295 C 
BRANCH  26  27
ATOM     27  C   UNL d   1      11.018   7.368  -5.989  0.00  0.00     0.067 C 
BRANCH  27  28
ATOM     28  C   UNL d   1      11.481   7.844  -4.632  0.00  0.00     0.007 A 
ATOM     29  C   UNL d   1      11.451   9.210  -4.280  0.00  0.00     0.136 A 
ATOM     30  C   UNL d   1      11.878   9.591  -2.998  0.00  0.00     0.029 A 
ATOM     31  F   UNL d   1      10.965  10.159  -5.114  0.00  0.00    -0.204 F 
ATOM     32  C   UNL d   1      12.359   8.634  -2.091  0.00  0.00     0.002 A 
ATOM     33  C   UNL d   1      12.355   7.267  -2.437  0.00  0.00    -0.000 A 
ATOM     34  C   UNL d   1      11.920   6.881  -3.715  0.00  0.00    -0.002 A 
ENDBRANCH  27  28
ENDBRANCH  26  27
ENDBRANCH  25  26
ENDBRANCH  24  25
ENDBRANCH   5  24
TORSDOF 11
