REMARK  4 active torsions:
REMARK  status: ('A' for Active; 'I' for Inactive)
REMARK    1  A    between atoms: O_2  and  C_3 
REMARK    2  A    between atoms: C_8  and  N_9 
REMARK    3  A    between atoms: N_12  and  C_13 
REMARK    4  A    between atoms: C_13  and  C_14 
ROOT
ATOM      1  N   UNL d   1      11.369   7.198  -6.994  0.00  0.00    -0.343 N 
ATOM      2  C   UNL d   1      10.570   6.051  -7.395  0.00  0.00     0.137 C 
ATOM      3  C   UNL d   1       9.625   6.443  -8.546  0.00  0.00     0.275 C 
ATOM      4  N   UNL d   1      10.395   7.004  -9.665  0.00  0.00     0.147 N 
ATOM      5  C   UNL d   1      11.062   8.222  -9.194  0.00  0.00     0.275 C 
ATOM      6  C   UNL d   1      12.071   7.881  -8.077  0.00  0.00     0.137 C 
ENDROOT
BRANCH   4   7
ATOM      7  C   UNL d   1       9.517   7.338 -10.791  0.00  0.00     0.297 C 
BRANCH   7   8
ATOM      8  C   UNL d   1       8.791   6.242 -11.531  0.00  0.00     0.113 A 
ATOM      9  N   UNL d   1       7.548   5.763 -11.123  0.00  0.00    -0.228 NA
ATOM     10  C   UNL d   1       7.161   4.858 -12.002  0.00  0.00     0.164 A 
ATOM     11  N   UNL d   1       8.173   4.673 -12.957  0.00  0.00    -0.209 N 
ATOM     12  C   UNL d   1       5.994   4.067 -12.147  0.00  0.00     0.041 A 
ATOM     13  C   UNL d   1       9.192   5.558 -12.644  0.00  0.00     0.119 A 
ATOM     14  N   UNL d   1       8.179   3.806 -13.989  0.00  0.00    -0.152 NA
ATOM     15  C   UNL d   1       7.078   3.058 -14.049  0.00  0.00     0.159 A 
ATOM     16 CL   UNL d   1       7.102   1.818 -15.256  0.00  0.00    -0.060 Cl
ATOM     17  C   UNL d   1       5.952   3.166 -13.182  0.00  0.00     0.036 A 
ENDBRANCH   7   8
ENDBRANCH   4   7
BRANCH   1  18
ATOM     18  C   UNL d   1      11.388   7.631  -5.663  0.00  0.00     0.079 A 
ATOM     19  C   UNL d   1      11.319   8.999  -5.313  0.00  0.00     0.110 A 
ATOM     20  C   UNL d   1      11.511   9.402  -3.969  0.00  0.00     0.026 A 
ATOM     21  C   UNL d   1      11.809   8.467  -2.965  0.00  0.00     0.002 A 
ATOM     22  C   UNL d   1      11.837   7.100  -3.302  0.00  0.00     0.002 A 
ATOM     23  C   UNL d   1      11.646   6.703  -4.640  0.00  0.00     0.019 A 
BRANCH  19  24
ATOM     24  O   UNL d   1      10.989   9.868  -6.318  0.00  0.00    -0.327 OA
ATOM     25  C   UNL d   1      11.738  11.047  -6.269  0.00  0.00     0.181 C 
ENDBRANCH  19  24
ENDBRANCH   1  18
TORSDOF 4
