REMARK  7 active torsions:
REMARK  status: ('A' for Active; 'I' for Inactive)
REMARK    1  A    between atoms: S_2  and  N_4 
REMARK    2  A    between atoms: S_2  and  C_22 
REMARK    3  A    between atoms: N_4  and  C_5 
REMARK    4  A    between atoms: N_8  and  C_9 
REMARK    5  A    between atoms: C_9  and  C_10 
REMARK    6  A    between atoms: C_10  and  C_11 
REMARK    7  A    between atoms: C_11  and  C_12 
ROOT
ATOM      1  C   UNL d   1       8.484   4.720 -12.146  0.00  0.00     0.151 C 
ATOM      2  C   UNL d   1       9.462   5.892 -12.252  0.00  0.00     0.063 C 
ATOM      3  C   UNL d   1       9.489   6.486 -10.844  0.00  0.00     0.252 C 
ATOM      4  N   UNL d   1       9.134   5.352  -9.993  0.00  0.00     0.139 N 
ATOM      5  C   UNL d   1       7.973   4.851 -10.700  0.00  0.00     0.275 C 
ENDROOT
BRANCH   1   6
ATOM      6  N   UNL d   1       7.383   4.883 -13.077  0.00  0.00    -0.185 NA
BRANCH   6   7
ATOM      7  S   UNL d   1       6.124   3.760 -13.226  0.00  0.00     0.282 S 
ATOM      8  O   UNL d   1       5.806   3.210 -11.896  0.00  0.00    -0.199 OA
ATOM      9  O   UNL d   1       5.075   4.430 -14.011  0.00  0.00    -0.199 OA
BRANCH   7  10
ATOM     10  C   UNL d   1       6.772   2.482 -14.229  0.00  0.00     0.112 A 
ATOM     11  C   UNL d   1       6.065   1.232 -14.359  0.00  0.00     0.019 A 
ATOM     12  C   UNL d   1       6.674   0.416 -15.355  0.00  0.00     0.030 A 
ATOM     13  C   UNL d   1       4.895   0.726 -13.749  0.00  0.00     0.001 A 
ATOM     14  S   UNL d   1       8.123   1.154 -16.019  0.00  0.00    -0.086 SA
ATOM     15  C   UNL d   1       6.094  -0.800 -15.772  0.00  0.00     0.006 A 
ATOM     16  C   UNL d   1       7.908   2.543 -14.997  0.00  0.00     0.048 A 
ATOM     17  C   UNL d   1       4.937  -1.276 -15.133  0.00  0.00     0.001 A 
ATOM     18  C   UNL d   1       4.304  -0.483 -14.157  0.00  0.00     0.000 A 
ENDBRANCH   7  10
ENDBRANCH   6   7
ENDBRANCH   1   6
BRANCH   4  19
ATOM     19  C   UNL d   1       8.712   5.725  -8.652  0.00  0.00     0.251 C 
BRANCH  19  20
ATOM     20  C   UNL d   1       9.782   6.482  -7.889  0.00  0.00     0.042 C 
BRANCH  20  21
ATOM     21  C   UNL d   1       9.262   7.096  -6.589  0.00  0.00     0.050 C 
BRANCH  21  22
ATOM     22  C   UNL d   1      10.293   8.041  -6.045  0.00  0.00     0.088 A 
ATOM     23  C   UNL d   1      11.170   7.896  -4.947  0.00  0.00     0.041 A 
ATOM     24  C   UNL d   1      11.839   9.097  -4.779  0.00  0.00     0.126 A 
ATOM     25  C   UNL d   1      11.401   6.823  -4.059  0.00  0.00     0.003 A 
ATOM     26  O   UNL d   1      11.420   9.932  -5.796  0.00  0.00    -0.211 OA
ATOM     27  C   UNL d   1      12.704   9.295  -3.699  0.00  0.00     0.027 A 
ATOM     28  N   UNL d   1      10.447   9.252  -6.585  0.00  0.00    -0.131 NA
ATOM     29  C   UNL d   1      12.865   8.279  -2.760  0.00  0.00     0.002 A 
ATOM     30  C   UNL d   1      12.235   7.029  -2.927  0.00  0.00     0.000 A 
ENDBRANCH  21  22
ENDBRANCH  20  21
ENDBRANCH  19  20
ENDBRANCH   4  19
TORSDOF 7
