REMARK  3 active torsions:
REMARK  status: ('A' for Active; 'I' for Inactive)
REMARK    1  A    between atoms: N_5  and  C_6 
REMARK    2  A    between atoms: N_15  and  N_16 
REMARK       I    between atoms: N_16  and  C_17 
REMARK    3  A    between atoms: C_17  and  C_19 
ROOT
ATOM      1  C   UNL d   1       7.967   2.282 -14.468  0.00  0.00     0.142 C 
ATOM      2  N   UNL d   1       9.082   2.300 -15.129  0.00  0.00    -0.227 NA
ATOM      3  C   UNL d   1       9.898   3.425 -15.354  0.00  0.00     0.101 A 
ATOM      4  C   UNL d   1      10.641   3.424 -16.560  0.00  0.00     0.032 A 
ATOM      5  C   UNL d   1      11.548   4.461 -16.856  0.00  0.00     0.059 A 
ATOM      6 CL   UNL d   1      12.465   4.444 -18.315  0.00  0.00    -0.082 Cl
ATOM      7  C   UNL d   1      11.710   5.524 -15.953  0.00  0.00     0.013 A 
ATOM      8  C   UNL d   1      10.970   5.532 -14.768  0.00  0.00     0.022 A 
ATOM      9  C   UNL d   1      10.070   4.510 -14.442  0.00  0.00     0.101 A 
ATOM     10  N   UNL d   1       9.293   4.714 -13.283  0.00  0.00    -0.225 N 
ATOM     11  C   UNL d   1       7.907   4.621 -13.275  0.00  0.00     0.086 A 
ATOM     12  C   UNL d   1       7.078   5.645 -12.712  0.00  0.00     0.019 A 
ATOM     13  C   UNL d   1       5.692   5.609 -12.822  0.00  0.00     0.002 A 
ATOM     14  C   UNL d   1       5.095   4.524 -13.493  0.00  0.00     0.000 A 
ATOM     15  C   UNL d   1       5.881   3.506 -14.045  0.00  0.00     0.004 A 
ATOM     16  C   UNL d   1       7.283   3.499 -13.897  0.00  0.00     0.051 A 
ENDROOT
BRANCH  10  17
ATOM     17  N   UNL d   1       9.866   4.994 -12.054  0.00  0.00    -0.123 NA
ATOM     18  C   UNL d   1       9.764   6.217 -11.499  0.00  0.00     0.298 C 
ATOM     19  O   UNL d   1       9.483   7.257 -12.107  0.00  0.00    -0.264 OA
BRANCH  18  20
ATOM     20  C   UNL d   1       9.805   6.242 -10.022  0.00  0.00     0.091 A 
ATOM     21  C   UNL d   1      10.822   6.929  -9.328  0.00  0.00     0.174 A 
ATOM     22  C   UNL d   1      10.779   6.999  -7.923  0.00  0.00     0.197 A 
ATOM     23  F   UNL d   1      11.865   7.466 -10.005  0.00  0.00    -0.202 F 
ATOM     24  C   UNL d   1       9.688   6.434  -7.237  0.00  0.00     0.197 A 
ATOM     25  F   UNL d   1      11.803   7.561  -7.244  0.00  0.00    -0.199 F 
ATOM     26  C   UNL d   1       8.660   5.783  -7.944  0.00  0.00     0.170 A 
ATOM     27  F   UNL d   1       9.655   6.471  -5.881  0.00  0.00    -0.199 F 
ATOM     28  C   UNL d   1       8.725   5.660  -9.334  0.00  0.00     0.039 A 
ATOM     29  F   UNL d   1       7.589   5.271  -7.297  0.00  0.00    -0.202 F 
ENDBRANCH  18  20
ENDBRANCH  10  17
BRANCH   1  30
ATOM     30  N   UNL d   1       7.233   1.099 -14.281  0.00  0.00    -0.330 N 
ATOM     31  C   UNL d   1       6.272   0.835 -13.184  0.00  0.00     0.138 C 
ATOM     32  C   UNL d   1       4.967   0.237 -13.727  0.00  0.00     0.274 C 
ATOM     33  N   UNL d   1       5.265  -0.996 -14.412  0.00  0.00     0.143 N 
ATOM     34  C   UNL d   1       4.000  -1.535 -14.916  0.00  0.00     0.286 C 
ATOM     35  C   UNL d   1       6.141  -0.706 -15.553  0.00  0.00     0.274 C 
ATOM     36  C   UNL d   1       7.481  -0.114 -15.061  0.00  0.00     0.138 C 
ENDBRANCH   1  30
TORSDOF 3
