REMARK  4 active torsions:
REMARK  status: ('A' for Active; 'I' for Inactive)
REMARK    1  A    between atoms: C_2  and  C_3 
REMARK    2  A    between atoms: C_3  and  C_4 
REMARK    3  A    between atoms: C_4  and  N_6 
REMARK       I    between atoms: N_6  and  C_7 
REMARK    4  A    between atoms: C_7  and  C_9 
ROOT
ATOM      1  C   UNL d   1      11.070   8.545  -6.774  0.00  0.00     0.139 A 
ATOM      2  C   UNL d   1      11.254   9.594  -5.920  0.00  0.00     0.025 A 
ATOM      3  C   UNL d   1      11.565   9.048  -4.632  0.00  0.00     0.019 A 
ATOM      4  C   UNL d   1      11.863   9.586  -3.358  0.00  0.00     0.002 A 
ATOM      5  C   UNL d   1      12.173   8.747  -2.276  0.00  0.00     0.000 A 
ATOM      6  C   UNL d   1      12.169   7.343  -2.436  0.00  0.00     0.002 A 
ATOM      7  C   UNL d   1      11.866   6.784  -3.683  0.00  0.00     0.019 A 
ATOM      8  C   UNL d   1      11.562   7.628  -4.756  0.00  0.00     0.082 A 
ATOM      9  N   UNL d   1      11.244   7.362  -6.069  0.00  0.00    -0.241 NA
ENDROOT
BRANCH   1  10
ATOM     10  C   UNL d   1      10.802   8.505  -8.233  0.00  0.00     0.292 C 
ATOM     11  N   UNL d   1      10.279   7.362  -8.717  0.00  0.00    -0.235 NA
ATOM     12  O   UNL d   1      11.057   9.495  -8.900  0.00  0.00    -0.264 OA
BRANCH  11  13
ATOM     13  C   UNL d   1      10.110   6.980 -10.122  0.00  0.00     0.107 C 
ATOM     14  C   UNL d   1       9.937   8.187 -11.078  0.00  0.00     0.026 C 
BRANCH  13  15
ATOM     15  C   UNL d   1       8.954   5.952 -10.237  0.00  0.00     0.024 C 
BRANCH  15  16
ATOM     16  C   UNL d   1       8.665   5.472 -11.676  0.00  0.00     0.002 C 
ATOM     17  C   UNL d   1       7.329   4.749 -11.822  0.00  0.00     0.000 C 
ENDBRANCH  15  16
ENDBRANCH  13  15
ENDBRANCH  11  13
ENDBRANCH   1  10
TORSDOF 4
