REMARK  6 active torsions:
REMARK  status: ('A' for Active; 'I' for Inactive)
REMARK    1  A    between atoms: S_2  and  N_5 
REMARK    2  A    between atoms: N_5  and  C_6 
REMARK    3  A    between atoms: C_9  and  C_10 
REMARK    4  A    between atoms: C_10  and  C_11 
REMARK    5  A    between atoms: C_11  and  N_12 
REMARK    6  A    between atoms: N_15  and  C_16 
ROOT
ATOM      1  N   UNL d   1       7.939   3.607 -13.255  0.00  0.00     0.141 N 
ATOM      2  C   UNL d   1       6.569   3.275 -13.662  0.00  0.00     0.274 C 
ATOM      3  C   UNL d   1       6.496   1.828 -14.187  0.00  0.00     0.137 C 
ATOM      4  N   UNL d   1       7.464   1.643 -15.263  0.00  0.00    -0.343 N 
ATOM      5  C   UNL d   1       8.830   2.054 -14.946  0.00  0.00     0.137 C 
ATOM      6  C   UNL d   1       8.844   3.498 -14.404  0.00  0.00     0.274 C 
ENDROOT
BRANCH   1   7
ATOM      7  C   UNL d   1       7.954   4.945 -12.676  0.00  0.00     0.250 C 
BRANCH   7   8
ATOM      8  C   UNL d   1       9.272   5.209 -11.932  0.00  0.00     0.035 C 
BRANCH   8   9
ATOM      9  C   UNL d   1       9.084   6.130 -10.709  0.00  0.00     0.002 C 
ATOM     10  C   UNL d   1       9.087   5.310  -9.397  0.00  0.00     0.002 C 
ATOM     11  C   UNL d   1       8.952   6.200  -8.152  0.00  0.00     0.025 C 
ATOM     12  C   UNL d   1      10.022   7.302  -8.134  0.00  0.00     0.116 C 
ATOM     13  C   UNL d   1       9.989   8.144  -9.416  0.00  0.00     0.025 C 
ATOM     14  C   UNL d   1      10.136   7.249 -10.652  0.00  0.00     0.002 C 
BRANCH  12  15
ATOM     15  N   UNL d   1       9.831   8.164  -6.971  0.00  0.00    -0.190 NA
BRANCH  15  16
ATOM     16  S   UNL d   1      11.161   8.792  -6.083  0.00  0.00     0.262 S 
ATOM     17  C   UNL d   1      11.626   7.360  -5.032  0.00  0.00     0.165 C 
ATOM     18  O   UNL d   1      10.662   9.871  -5.218  0.00  0.00    -0.203 OA
ATOM     19  O   UNL d   1      12.245   9.055  -7.040  0.00  0.00    -0.203 OA
ENDBRANCH  15  16
ENDBRANCH  12  15
ENDBRANCH   8   9
ENDBRANCH   7   8
ENDBRANCH   1   7
BRANCH   4  20
ATOM     20  C   UNL d   1       7.095   1.159 -16.535  0.00  0.00     0.081 A 
ATOM     21  C   UNL d   1       6.048   0.218 -16.717  0.00  0.00     0.135 A 
ATOM     22  C   UNL d   1       5.710  -0.257 -17.969  0.00  0.00     0.121 A 
ATOM     23  O   UNL d   1       5.245  -0.374 -15.786  0.00  0.00    -0.298 OA
ATOM     24  C   UNL d   1       6.382   0.157 -19.130  0.00  0.00     0.026 A 
ATOM     25  O   UNL d   1       4.689  -1.147 -17.863  0.00  0.00    -0.299 OA
ATOM     26  C   UNL d   1       7.425   1.094 -18.983  0.00  0.00     0.004 A 
ATOM     27  C   UNL d   1       7.771   1.593 -17.704  0.00  0.00     0.019 A 
ATOM     28  C   UNL d   1       4.387  -1.233 -16.497  0.00  0.00     0.304 A 
ENDBRANCH   4  20
TORSDOF 6
