REMARK  8 active torsions:
REMARK  status: ('A' for Active; 'I' for Inactive)
REMARK    1  A    between atoms: O_2  and  C_3 
REMARK    2  A    between atoms: C_8  and  N_9 
REMARK    3  A    between atoms: N_13  and  C_14 
REMARK    4  A    between atoms: C_14  and  C_15 
REMARK    5  A    between atoms: C_15  and  C_16 
REMARK    6  A    between atoms: C_16  and  C_17 
REMARK    7  A    between atoms: C_17  and  O_18 
REMARK    8  A    between atoms: O_18  and  C_19 
ROOT
ATOM      1  C   UNL d   1       8.829   7.351 -11.231  0.00  0.00     0.250 C 
ENDROOT
BRANCH   1   2
ATOM      2  N   UNL d   1       9.134   6.391 -12.274  0.00  0.00     0.139 N 
ATOM      3  C   UNL d   1       9.875   5.255 -11.789  0.00  0.00     0.252 C 
ATOM      4  C   UNL d   1      10.557   4.491 -12.976  0.00  0.00     0.059 C 
ATOM      5  C   UNL d   1       9.685   3.334 -13.474  0.00  0.00     0.104 C 
ATOM      6  N   UNL d   1       8.323   3.740 -13.773  0.00  0.00    -0.345 N 
ATOM      7  C   UNL d   1       7.956   5.103 -14.040  0.00  0.00     0.137 C 
ATOM      8  C   UNL d   1       7.820   5.941 -12.755  0.00  0.00     0.274 C 
BRANCH   6   9
ATOM      9  C   UNL d   1       7.290   2.752 -13.771  0.00  0.00     0.079 A 
ATOM     10  C   UNL d   1       7.502   1.507 -14.397  0.00  0.00     0.110 A 
ATOM     11  C   UNL d   1       6.481   0.492 -14.236  0.00  0.00     0.026 A 
ATOM     12  C   UNL d   1       5.330   0.776 -13.476  0.00  0.00     0.002 A 
ATOM     13  C   UNL d   1       5.118   2.025 -12.855  0.00  0.00     0.002 A 
ATOM     14  C   UNL d   1       6.108   3.025 -13.048  0.00  0.00     0.019 A 
BRANCH  10  15
ATOM     15  O   UNL d   1       8.672   1.294 -15.069  0.00  0.00    -0.327 OA
ATOM     16  C   UNL d   1       8.868   0.039 -15.679  0.00  0.00     0.181 C 
ENDBRANCH  10  15
ENDBRANCH   6   9
ENDBRANCH   1   2
BRANCH   1  17
ATOM     17  C   UNL d   1      10.029   8.176 -10.753  0.00  0.00     0.038 C 
BRANCH  17  18
ATOM     18  C   UNL d   1       9.768   9.040  -9.511  0.00  0.00     0.035 C 
BRANCH  18  19
ATOM     19  C   UNL d   1      11.118   9.637  -9.035  0.00  0.00     0.149 C 
BRANCH  19  20
ATOM     20  O   UNL d   1      12.048   8.625  -8.723  0.00  0.00    -0.331 OA
BRANCH  20  21
ATOM     21  C   UNL d   1      11.868   8.264  -7.416  0.00  0.00     0.096 A 
ATOM     22  C   UNL d   1      12.044   9.135  -6.290  0.00  0.00     0.043 A 
ATOM     23  C   UNL d   1      11.877   8.624  -4.964  0.00  0.00     0.087 A 
ATOM     24  C   UNL d   1      11.460   7.291  -4.798  0.00  0.00     0.018 A 
ATOM     25  N   UNL d   1      12.237   9.322  -3.779  0.00  0.00    -0.208 NA
ATOM     26  C   UNL d   1      11.223   6.501  -5.900  0.00  0.00     0.004 A 
ATOM     27  C   UNL d   1      11.437   6.692  -3.463  0.00  0.00     0.006 C 
ATOM     28  C   UNL d   1      11.385   6.964  -7.208  0.00  0.00     0.024 A 
ATOM     29  C   UNL d   1      11.750   7.415  -2.382  0.00  0.00     0.063 C 
ATOM     30  C   UNL d   1      12.084   8.841  -2.509  0.00  0.00     0.279 C 
ATOM     31  O   UNL d   1      12.194   9.577  -1.558  0.00  0.00    -0.265 OA
ENDBRANCH  20  21
ENDBRANCH  19  20
ENDBRANCH  18  19
ENDBRANCH  17  18
ENDBRANCH   1  17
TORSDOF 8
