REMARK  8 active torsions:
REMARK  status: ('A' for Active; 'I' for Inactive)
REMARK    1  A    between atoms: C_5  and  C_6 
REMARK    2  A    between atoms: C_9  and  S_10 
REMARK    3  A    between atoms: S_10  and  C_11 
REMARK    4  A    between atoms: C_11  and  C_12 
REMARK    5  A    between atoms: C_12  and  C_13 
REMARK    6  A    between atoms: C_13  and  N_14 
REMARK    7  A    between atoms: C_18  and  C_19 
REMARK    8  A    between atoms: C_22  and  C_23 
ROOT
ATOM      1  C   UNL d   1       8.290   3.634 -13.821  0.00  0.00     0.251 C 
ENDROOT
BRANCH   1   2
ATOM      2  C   UNL d   1       8.851   5.054 -14.007  0.00  0.00     0.047 C 
BRANCH   2   3
ATOM      3  C   UNL d   1       8.399   6.050 -12.930  0.00  0.00     0.067 C 
BRANCH   3   4
ATOM      4  S   UNL d   1       8.441   5.293 -11.273  0.00  0.00    -0.075 SA
BRANCH   4   5
ATOM      5  C   UNL d   1       9.277   6.510 -10.312  0.00  0.00     0.193 A 
ATOM      6  N   UNL d   1       9.860   7.611 -10.793  0.00  0.00    -0.122 NA
ATOM      7  N   UNL d   1      10.442   8.227  -9.716  0.00  0.00    -0.128 NA
ATOM      8  C   UNL d   1      10.151   7.466  -8.655  0.00  0.00     0.168 A 
ATOM      9  N   UNL d   1       9.410   6.379  -8.977  0.00  0.00    -0.289 N 
ATOM     10  C   UNL d   1       8.854   5.342  -8.122  0.00  0.00     0.134 C 
BRANCH   8  11
ATOM     11  C   UNL d   1      10.622   7.826  -7.319  0.00  0.00     0.055 A 
ATOM     12  C   UNL d   1      11.048   6.850  -6.398  0.00  0.00     0.006 A 
ATOM     13  C   UNL d   1      11.455   7.258  -5.117  0.00  0.00     0.015 A 
ATOM     14  C   UNL d   1      11.463   8.639  -4.821  0.00  0.00     0.059 A 
ATOM     15  C   UNL d   1      11.919   9.136  -3.474  0.00  0.00     0.052 C 
ATOM     16  N   UNL d   1      11.074   9.588  -5.700  0.00  0.00    -0.248 NA
ATOM     17  C   UNL d   1      10.661   9.179  -6.918  0.00  0.00     0.102 A 
ENDBRANCH   8  11
ENDBRANCH   4   5
ENDBRANCH   3   4
ENDBRANCH   2   3
ENDBRANCH   1   2
BRANCH   1  18
ATOM     18  N   UNL d   1       8.533   2.786 -14.984  0.00  0.00     0.137 N 
ATOM     19  C   UNL d   1       9.954   2.487 -15.162  0.00  0.00     0.254 C 
ATOM     20  C   UNL d   1       9.930   1.235 -16.005  0.00  0.00     0.052 A 
ATOM     21  C   UNL d   1       8.599   0.596 -15.761  0.00  0.00     0.039 A 
ATOM     22  C   UNL d   1       9.868  -0.142 -15.390  0.00  0.00     0.008 A 
ATOM     23  C   UNL d   1       7.875   1.492 -14.799  0.00  0.00     0.251 C 
BRANCH  20  24
ATOM     24  C   UNL d   1      10.421   1.433 -17.408  0.00  0.00    -0.021 A 
ATOM     25  C   UNL d   1      11.667   0.902 -17.787  0.00  0.00    -0.004 A 
ATOM     26  C   UNL d   1      12.140   1.048 -19.103  0.00  0.00     0.004 A 
ATOM     27  C   UNL d   1      11.367   1.740 -20.061  0.00  0.00     0.071 A 
ATOM     28  C   UNL d   1      10.111   2.268 -19.686  0.00  0.00     0.004 A 
ATOM     29  C   UNL d   1       9.643   2.117 -18.366  0.00  0.00    -0.004 A 
BRANCH  27  30
ATOM     30  C   UNL d   1      11.860   1.905 -21.493  0.00  0.00     0.419 C 
ATOM     31  F   UNL d   1      11.136   1.146 -22.318  0.00  0.00    -0.166 F 
ATOM     32  F   UNL d   1      11.735   3.179 -21.868  0.00  0.00    -0.166 F 
ATOM     33  F   UNL d   1      13.146   1.557 -21.612  0.00  0.00    -0.166 F 
ENDBRANCH  27  30
ENDBRANCH  20  24
ENDBRANCH   1  18
TORSDOF 8
