REMARK  1 active torsions:
REMARK  status: ('A' for Active; 'I' for Inactive)
REMARK    1  A    between atoms: C_18  and  C_19 
ROOT
ATOM      1  C   UNL d   1       8.882   5.698 -10.454  0.00  0.00     0.000 C 
ATOM      2  C   UNL d   1       8.454   5.216  -9.206  0.00  0.00     0.000 C 
ATOM      3  C   UNL d   1       9.036   5.665  -8.031  0.00  0.00     0.001 C 
ATOM      4  C   UNL d   1      10.188   6.467  -8.081  0.00  0.00     0.010 C 
ATOM      5  C   UNL d   1      10.626   6.961  -9.327  0.00  0.00     0.068 C 
ATOM      6  C   UNL d   1      11.783   7.861  -9.335  0.00  0.00     0.101 C 
ATOM      7  N   UNL d   1      12.678   8.531  -9.315  0.00  0.00    -0.191 NA
ATOM      8  C   UNL d   1       9.963   6.609 -10.518  0.00  0.00     0.010 C 
ENDROOT
BRANCH   1   9
ATOM      9  C   UNL d   1       8.120   5.276 -11.625  0.00  0.00    -0.004 A 
ATOM     10  C   UNL d   1       6.829   5.786 -11.774  0.00  0.00    -0.000 A 
ATOM     11  C   UNL d   1       6.024   5.344 -12.811  0.00  0.00    -0.000 A 
ATOM     12  C   UNL d   1       6.508   4.394 -13.715  0.00  0.00    -0.004 A 
ATOM     13  C   UNL d   1       7.834   3.892 -13.613  0.00  0.00    -0.021 A 
ATOM     14  C   UNL d   1       8.354   2.991 -14.731  0.00  0.00     0.075 C 
ATOM     15  C   UNL d   1       8.624   4.324 -12.543  0.00  0.00    -0.026 A 
ATOM     16  C   UNL d   1       7.495   1.757 -14.870  0.00  0.00    -0.018 A 
ATOM     17  C   UNL d   1       9.883   2.601 -14.632  0.00  0.00     0.228 C 
ATOM     18  C   UNL d   1       7.642   0.930 -16.004  0.00  0.00    -0.023 A 
ATOM     19  C   UNL d   1       6.563   1.424 -13.877  0.00  0.00     0.024 A 
ATOM     20  C   UNL d   1       8.639   1.192 -17.096  0.00  0.00     0.061 C 
ATOM     21  C   UNL d   1       6.815  -0.202 -16.099  0.00  0.00     0.009 A 
ATOM     22  C   UNL d   1      10.099   1.132 -16.604  0.00  0.00     0.255 C 
ATOM     23  N   UNL d   1      10.557   2.334 -15.912  0.00  0.00     0.138 N 
ATOM     24  C   UNL d   1      10.720   3.470 -16.822  0.00  0.00     0.285 C 
ATOM     25  C   UNL d   1       5.908  -0.530 -15.114  0.00  0.00     0.083 A 
ATOM     26 CL   UNL d   1       4.969  -1.950 -15.321  0.00  0.00    -0.080 Cl
ATOM     27  C   UNL d   1       5.800   0.280 -13.988  0.00  0.00     0.141 A 
ATOM     28  O   UNL d   1       4.914   0.035 -12.970  0.00  0.00    -0.189 OA
ATOM     29  C   UNL d   1      10.698   3.588 -13.795  0.00  0.00     0.039 C 
ATOM     30  C   UNL d   1      10.031   3.787 -12.448  0.00  0.00     0.028 C 
ENDBRANCH   1   9
TORSDOF 1
