REMARK  6 active torsions:
REMARK  status: ('A' for Active; 'I' for Inactive)
REMARK    1  A    between atoms: S_2  and  C_4 
REMARK    2  A    between atoms: S_2  and  N_14 
REMARK    3  A    between atoms: C_18  and  C_19 
REMARK    4  A    between atoms: C_19  and  C_20 
REMARK    5  A    between atoms: C_20  and  N_21 
REMARK    6  A    between atoms: N_24  and  C_25 
ROOT
ATOM      1  N   UNL d   1       6.508   1.521 -15.040  0.00  0.00    -0.276 N 
ATOM      2  C   UNL d   1       5.757   0.340 -14.565  0.00  0.00     0.113 C 
ATOM      3  C   UNL d   1       5.543   0.584 -13.084  0.00  0.00     0.027 C 
ATOM      4  C   UNL d   1       5.351   2.085 -12.988  0.00  0.00     0.025 C 
ATOM      5  C   UNL d   1       6.139   2.691 -14.174  0.00  0.00     0.094 C 
ENDROOT
BRANCH   5   6
ATOM      6  C   UNL d   1       7.340   3.537 -13.737  0.00  0.00     0.058 C 
BRANCH   6   7
ATOM      7  C   UNL d   1       6.913   4.766 -12.900  0.00  0.00     0.252 C 
BRANCH   7   8
ATOM      8  N   UNL d   1       8.101   5.434 -12.395  0.00  0.00     0.141 N 
ATOM      9  C   UNL d   1       8.567   4.691 -11.220  0.00  0.00     0.274 C 
ATOM     10  C   UNL d   1       9.791   5.377 -10.637  0.00  0.00     0.137 C 
ATOM     11  N   UNL d   1       9.503   6.730 -10.280  0.00  0.00    -0.344 N 
ATOM     12  C   UNL d   1       8.971   7.528 -11.369  0.00  0.00     0.137 C 
ATOM     13  C   UNL d   1       7.751   6.791 -11.986  0.00  0.00     0.274 C 
BRANCH  11  14
ATOM     14  C   UNL d   1       9.809   7.215  -9.007  0.00  0.00     0.058 A 
ATOM     15  C   UNL d   1      11.044   7.822  -8.715  0.00  0.00     0.035 A 
ATOM     16  C   UNL d   1      11.254   8.327  -7.391  0.00  0.00     0.083 A 
ATOM     17  C   UNL d   1      12.226   8.076  -9.471  0.00  0.00     0.024 A 
ATOM     18  C   UNL d   1      10.285   8.247  -6.396  0.00  0.00     0.019 A 
ATOM     19  N   UNL d   1      12.513   8.844  -7.386  0.00  0.00    -0.244 NA
ATOM     20  C   UNL d   1       9.069   7.630  -6.728  0.00  0.00     0.003 A 
ATOM     21  C   UNL d   1       8.864   7.085  -7.998  0.00  0.00     0.017 A 
ATOM     22  C   UNL d   1      13.098   8.647  -8.610  0.00  0.00     0.099 A 
ENDBRANCH  11  14
ENDBRANCH   7   8
ENDBRANCH   6   7
ENDBRANCH   5   6
BRANCH   1  23
ATOM     23  S   UNL d   1       8.138   1.276 -15.626  0.00  0.00     0.264 S 
ATOM     24  O   UNL d   1       8.848   0.406 -14.661  0.00  0.00    -0.200 OA
ATOM     25  O   UNL d   1       8.697   2.578 -15.986  0.00  0.00    -0.200 OA
BRANCH  23  26
ATOM     26  C   UNL d   1       8.034   0.390 -17.183  0.00  0.00     0.105 A 
ATOM     27  C   UNL d   1       9.224   0.153 -17.930  0.00  0.00     0.030 A 
ATOM     28  C   UNL d   1       9.150  -0.471 -19.207  0.00  0.00     0.082 A 
ATOM     29  C   UNL d   1      10.504   0.548 -17.461  0.00  0.00     0.004 A 
ATOM     30  C   UNL d   1       7.882  -0.847 -19.697  0.00  0.00     0.019 A 
ATOM     31  N   UNL d   1      10.248  -0.705 -19.960  0.00  0.00    -0.244 NA
ATOM     32  C   UNL d   1       6.704  -0.611 -18.964  0.00  0.00     0.002 A 
ATOM     33  C   UNL d   1       6.779   0.015 -17.708  0.00  0.00     0.013 A 
ATOM     34  C   UNL d   1      11.457  -0.338 -19.488  0.00  0.00     0.099 A 
ATOM     35  C   UNL d   1      11.638   0.295 -18.249  0.00  0.00     0.021 A 
ENDBRANCH  23  26
ENDBRANCH   1  23
TORSDOF 6
