REMARK  4 active torsions:
REMARK  status: ('A' for Active; 'I' for Inactive)
REMARK    1  A    between atoms: C_8  and  C_9 
REMARK    2  A    between atoms: C_9  and  C_10 
REMARK    3  A    between atoms: C_10  and  N_11 
REMARK    4  A    between atoms: N_14  and  C_15 
ROOT
ATOM      1  N   UNL d   1      11.652   2.900 -16.691  0.00  0.00     0.141 N 
ATOM      2  C   UNL d   1      10.557   2.211 -17.384  0.00  0.00     0.274 C 
ATOM      3  C   UNL d   1       9.967   1.085 -16.510  0.00  0.00     0.138 C 
ATOM      4  N   UNL d   1       9.555   1.625 -15.213  0.00  0.00    -0.330 N 
ATOM      5  C   UNL d   1      10.591   2.384 -14.514  0.00  0.00     0.138 C 
ATOM      6  C   UNL d   1      11.129   3.493 -15.450  0.00  0.00     0.274 C 
ENDROOT
BRANCH   1   7
ATOM      7  C   UNL d   1      12.213   3.931 -17.561  0.00  0.00     0.255 C 
BRANCH   7   8
ATOM      8  C   UNL d   1      13.693   4.180 -17.223  0.00  0.00     0.068 C 
BRANCH   8   9
ATOM      9  C   UNL d   1      14.329   5.206 -18.159  0.00  0.00     0.050 A 
ATOM     10  C   UNL d   1      14.962   4.854 -19.314  0.00  0.00     0.061 A 
ATOM     11  C   UNL d   1      15.064   3.417 -19.797  0.00  0.00     0.052 C 
ATOM     12  N   UNL d   1      15.557   5.811 -20.139  0.00  0.00    -0.237 NA
ATOM     13  C   UNL d   1      15.503   7.058 -19.803  0.00  0.00     0.122 A 
ATOM     14  C   UNL d   1      16.089   8.162 -20.680  0.00  0.00     0.064 C 
ATOM     15  N   UNL d   1      14.879   7.505 -18.617  0.00  0.00    -0.285 N 
ATOM     16  C   UNL d   1      15.142   9.367 -20.825  0.00  0.00     0.010 C 
ATOM     17  C   UNL d   1      14.560   9.838 -19.483  0.00  0.00     0.025 C 
ATOM     18  C   UNL d   1      14.980   8.946 -18.301  0.00  0.00     0.110 C 
ATOM     19  C   UNL d   1      14.265   6.628 -17.769  0.00  0.00     0.259 A 
ATOM     20  O   UNL d   1      13.706   7.005 -16.735  0.00  0.00    -0.267 OA
ENDBRANCH   8   9
ENDBRANCH   7   8
ENDBRANCH   1   7
BRANCH   4  21
ATOM     21  C   UNL d   1       8.243   1.490 -14.758  0.00  0.00     0.141 A 
ATOM     22  C   UNL d   1       7.513   2.528 -14.078  0.00  0.00     0.040 A 
ATOM     23  C   UNL d   1       6.190   2.200 -13.647  0.00  0.00     0.034 A 
ATOM     24  C   UNL d   1       7.854   3.904 -13.737  0.00  0.00     0.011 A 
ATOM     25  C   UNL d   1       5.642   0.924 -13.865  0.00  0.00     0.027 A 
ATOM     26  S   UNL d   1       5.447   3.549 -12.812  0.00  0.00    -0.086 SA
ATOM     27  C   UNL d   1       6.427  -0.008 -14.550  0.00  0.00     0.101 A 
ATOM     28  N   UNL d   1       7.666   0.272 -14.969  0.00  0.00    -0.227 NA
ATOM     29  C   UNL d   1       6.859   4.518 -13.024  0.00  0.00     0.035 A 
ENDBRANCH   4  21
TORSDOF 4
