REMARK  4 active torsions:
REMARK  status: ('A' for Active; 'I' for Inactive)
REMARK    1  A    between atoms: N_11  and  C_12 
REMARK    2  A    between atoms: N_15  and  C_16 
REMARK    3  A    between atoms: N_19  and  S_20 
REMARK    4  A    between atoms: S_20  and  C_23 
ROOT
ATOM      1  C   UNL d   1       9.504   7.212  -9.414  0.00  0.00     0.094 C 
ATOM      2  C   UNL d   1       9.959   5.778  -9.525  0.00  0.00     0.058 C 
ATOM      3  C   UNL d   1       9.129   5.003 -10.557  0.00  0.00     0.252 C 
ATOM      4  N   UNL d   1       9.185   5.592 -11.904  0.00  0.00     0.135 N 
ATOM      5  C   UNL d   1       8.647   6.945 -11.872  0.00  0.00     0.252 C 
ATOM      6  C   UNL d   1       9.477   7.773 -10.891  0.00  0.00     0.058 C 
ENDROOT
BRANCH   4   7
ATOM      7  C   UNL d   1       8.466   4.832 -12.931  0.00  0.00     0.223 C 
ATOM      8  C   UNL d   1       9.316   3.617 -13.328  0.00  0.00     0.058 C 
ATOM      9  C   UNL d   1       8.598   2.825 -14.428  0.00  0.00     0.115 C 
ATOM     10  N   UNL d   1       7.203   2.481 -14.058  0.00  0.00    -0.274 N 
ATOM     11  C   UNL d   1       6.340   3.587 -13.606  0.00  0.00     0.115 C 
ATOM     12  C   UNL d   1       7.043   4.382 -12.501  0.00  0.00     0.058 C 
BRANCH  10  13
ATOM     13  S   UNL d   1       6.650   0.827 -14.044  0.00  0.00     0.264 S 
ATOM     14  O   UNL d   1       7.810  -0.002 -13.705  0.00  0.00    -0.200 OA
ATOM     15  O   UNL d   1       5.424   0.740 -13.245  0.00  0.00    -0.200 OA
BRANCH  13  16
ATOM     16  C   UNL d   1       6.241   0.472 -15.732  0.00  0.00     0.103 A 
ATOM     17  C   UNL d   1       6.977   1.050 -16.777  0.00  0.00     0.013 A 
ATOM     18  C   UNL d   1       6.637   0.766 -18.108  0.00  0.00     0.001 A 
ATOM     19  C   UNL d   1       5.568  -0.107 -18.387  0.00  0.00     0.000 A 
ATOM     20  C   UNL d   1       4.844  -0.707 -17.331  0.00  0.00     0.001 A 
ATOM     21  C   UNL d   1       5.175  -0.412 -15.993  0.00  0.00     0.013 A 
ENDBRANCH  13  16
ENDBRANCH  10  13
ENDBRANCH   4   7
BRANCH   1  22
ATOM     22  N   UNL d   1      10.334   8.017  -8.485  0.00  0.00    -0.281 N 
ATOM     23  C   UNL d   1      11.119   9.076  -8.781  0.00  0.00     0.350 C 
ATOM     24  O   UNL d   1      11.361   9.532  -9.887  0.00  0.00    -0.244 OA
ATOM     25  N   UNL d   1      11.662   9.550  -7.641  0.00  0.00    -0.191 NA
ATOM     26  C   UNL d   1      11.391   8.710  -6.612  0.00  0.00     0.103 A 
ATOM     27  C   UNL d   1      10.531   7.766  -7.107  0.00  0.00     0.082 A 
ATOM     28  C   UNL d   1      11.868   8.773  -5.311  0.00  0.00     0.032 A 
ATOM     29  C   UNL d   1      10.018   6.784  -6.278  0.00  0.00     0.020 A 
ATOM     30  C   UNL d   1      10.552   6.756  -4.970  0.00  0.00     0.013 A 
ATOM     31  C   UNL d   1      11.458   7.722  -4.473  0.00  0.00     0.059 A 
ATOM     32 CL   UNL d   1      11.967   7.696  -2.823  0.00  0.00    -0.082 Cl
ENDBRANCH   1  22
TORSDOF 4
