REMARK  9 active torsions:
REMARK  status: ('A' for Active; 'I' for Inactive)
REMARK    1  A    between atoms: O_2  and  C_3 
REMARK    2  A    between atoms: C_7  and  C_8 
REMARK       I    between atoms: C_8  and  N_10 
REMARK    3  A    between atoms: N_10  and  C_11 
REMARK    4  A    between atoms: C_11  and  C_12 
REMARK    5  A    between atoms: C_12  and  C_13 
REMARK    6  A    between atoms: C_13  and  C_14 
REMARK    7  A    between atoms: C_14  and  N_15 
REMARK    8  A    between atoms: N_18  and  C_19 
REMARK    9  A    between atoms: C_24  and  O_25 
ROOT
ATOM      1  C   UNL d   1       9.805   5.253 -11.710  0.00  0.00     0.251 C 
ENDROOT
BRANCH   1   2
ATOM      2  C   UNL d   1       8.953   6.017 -10.696  0.00  0.00     0.037 C 
BRANCH   2   3
ATOM      3  C   UNL d   1       9.758   6.318  -9.413  0.00  0.00     0.029 C 
BRANCH   3   4
ATOM      4  C   UNL d   1       8.978   7.173  -8.405  0.00  0.00     0.129 C 
BRANCH   4   5
ATOM      5  N   UNL d   1       9.686   7.358  -7.151  0.00  0.00    -0.234 NA
ATOM      6  C   UNL d   1      10.539   8.370  -6.941  0.00  0.00     0.275 C 
ATOM      7  O   UNL d   1      10.871   9.186  -7.795  0.00  0.00    -0.266 OA
BRANCH   6   8
ATOM      8  C   UNL d   1      11.037   8.485  -5.540  0.00  0.00     0.059 A 
ATOM      9  C   UNL d   1      11.016   9.731  -4.883  0.00  0.00     0.005 A 
ATOM     10  C   UNL d   1      11.487   9.830  -3.563  0.00  0.00     0.002 A 
ATOM     11  C   UNL d   1      12.028   8.706  -2.913  0.00  0.00     0.024 A 
ATOM     12  C   UNL d   1      12.073   7.467  -3.582  0.00  0.00     0.094 A 
ATOM     13  C   UNL d   1      11.561   7.357  -4.883  0.00  0.00     0.029 A 
BRANCH  12  14
ATOM     14  O   UNL d   1      12.645   6.341  -3.051  0.00  0.00    -0.328 OA
ATOM     15  C   UNL d   1      12.578   6.174  -1.661  0.00  0.00     0.181 C 
ENDBRANCH  12  14
ENDBRANCH   6   8
ENDBRANCH   4   5
ENDBRANCH   3   4
ENDBRANCH   2   3
ENDBRANCH   1   2
BRANCH   1  16
ATOM     16  N   UNL d   1       9.097   4.914 -12.942  0.00  0.00     0.141 N 
ATOM     17  C   UNL d   1       8.460   3.611 -12.751  0.00  0.00     0.274 C 
ATOM     18  C   UNL d   1       7.674   3.184 -14.001  0.00  0.00     0.137 C 
ATOM     19  N   UNL d   1       8.585   3.189 -15.139  0.00  0.00    -0.343 N 
ATOM     20  C   UNL d   1       9.318   4.434 -15.339  0.00  0.00     0.137 C 
ATOM     21  C   UNL d   1      10.062   4.793 -14.044  0.00  0.00     0.274 C 
BRANCH  19  22
ATOM     22  C   UNL d   1       8.698   2.069 -15.989  0.00  0.00     0.079 A 
ATOM     23  C   UNL d   1       9.959   1.644 -16.475  0.00  0.00     0.110 A 
ATOM     24  C   UNL d   1      10.038   0.535 -17.348  0.00  0.00     0.026 A 
ATOM     25  C   UNL d   1       8.877  -0.177 -17.715  0.00  0.00     0.002 A 
ATOM     26  C   UNL d   1       7.623   0.237 -17.223  0.00  0.00     0.002 A 
ATOM     27  C   UNL d   1       7.537   1.354 -16.371  0.00  0.00     0.019 A 
BRANCH  23  28
ATOM     28  O   UNL d   1      11.080   2.318 -16.023  0.00  0.00    -0.327 OA
ATOM     29  C   UNL d   1      12.291   2.171 -16.731  0.00  0.00     0.181 C 
ENDBRANCH  23  28
ENDBRANCH  19  22
ENDBRANCH   1  16
TORSDOF 9
