REMARK  1 active torsions:
REMARK  status: ('A' for Active; 'I' for Inactive)
REMARK    1  A    between atoms: C_2  and  C_3 
ROOT
ATOM      1  C   UNL d   1      11.945   8.541  -8.480  0.00  0.00     0.083 C 
ATOM      2  C   UNL d   1      10.887   7.764  -9.222  0.00  0.00    -0.020 A 
ATOM      3  C   UNL d   1      10.380   8.268 -10.436  0.00  0.00    -0.004 A 
ATOM      4  C   UNL d   1       9.463   7.517 -11.183  0.00  0.00    -0.000 A 
ATOM      5  C   UNL d   1       9.000   6.281 -10.689  0.00  0.00    -0.000 A 
ATOM      6  C   UNL d   1       9.452   5.802  -9.446  0.00  0.00    -0.004 A 
ATOM      7  C   UNL d   1      10.399   6.551  -8.725  0.00  0.00    -0.021 A 
ATOM      8  C   UNL d   1      10.883   6.078  -7.373  0.00  0.00     0.052 C 
ATOM      9  C   UNL d   1      11.283   7.188  -6.452  0.00  0.00    -0.021 A 
ATOM     10  C   UNL d   1      11.250   6.947  -5.069  0.00  0.00     0.003 A 
ATOM     11  C   UNL d   1      11.698   7.940  -4.192  0.00  0.00     0.034 A 
ATOM     12 BR   UNL d   1      11.891   7.504  -2.354  0.00  0.00    -0.049 Br
ATOM     13  C   UNL d   1      12.089   9.201  -4.684  0.00  0.00     0.006 A 
ATOM     14  C   UNL d   1      12.139   9.428  -6.077  0.00  0.00    -0.004 A 
ATOM     15  C   UNL d   1      11.746   8.409  -6.973  0.00  0.00    -0.020 A 
ENDROOT
BRANCH   1  16
ATOM     16  C   UNL d   1      13.393   8.156  -8.910  0.00  0.00     0.347 C 
ATOM     17  N   UNL d   1      13.566   7.987 -10.340  0.00  0.00     0.619 N 
ENDBRANCH   1  16
TORSDOF 1
