REMARK  8 active torsions:
REMARK  status: ('A' for Active; 'I' for Inactive)
REMARK    1  A    between atoms: C_6  and  C_7 
REMARK    2  A    between atoms: C_10  and  S_11 
REMARK    3  A    between atoms: S_11  and  C_12 
REMARK    4  A    between atoms: C_12  and  C_13 
REMARK    5  A    between atoms: C_13  and  C_14 
REMARK    6  A    between atoms: C_14  and  N_15 
REMARK    7  A    between atoms: C_20  and  C_21 
REMARK    8  A    between atoms: C_24  and  C_25 
ROOT
ATOM      1  N   UNL d   1       8.576   1.337 -15.849  0.00  0.00     0.137 N 
ATOM      2  C   UNL d   1       7.220   1.020 -15.378  0.00  0.00     0.250 C 
ATOM      3  C   UNL d   1       7.057   1.291 -13.883  0.00  0.00     0.036 C 
ATOM      4  C   UNL d   1       6.923   2.753 -13.408  0.00  0.00     0.006 A 
ATOM      5  C   UNL d   1       6.369   3.866 -14.225  0.00  0.00     0.004 A 
ATOM      6  C   UNL d   1       7.856   3.866 -13.848  0.00  0.00     0.021 A 
ATOM      7  C   UNL d   1       8.985   3.605 -14.849  0.00  0.00     0.039 C 
ATOM      8  C   UNL d   1       8.697   2.771 -16.114  0.00  0.00     0.251 C 
ENDROOT
BRANCH   1   9
ATOM      9  C   UNL d   1       8.829   0.611 -17.089  0.00  0.00     0.251 C 
BRANCH   9  10
ATOM     10  C   UNL d   1      10.334   0.588 -17.402  0.00  0.00     0.047 C 
BRANCH  10  11
ATOM     11  C   UNL d   1      10.632   0.113 -18.827  0.00  0.00     0.067 C 
BRANCH  11  12
ATOM     12  S   UNL d   1      12.319   0.573 -19.334  0.00  0.00    -0.075 SA
BRANCH  12  13
ATOM     13  C   UNL d   1      12.128   2.334 -19.457  0.00  0.00     0.193 A 
ATOM     14  N   UNL d   1      10.967   2.959 -19.650  0.00  0.00    -0.122 NA
ATOM     15  N   UNL d   1      11.257   4.301 -19.616  0.00  0.00    -0.128 NA
ATOM     16  C   UNL d   1      12.574   4.391 -19.406  0.00  0.00     0.174 A 
ATOM     17  N   UNL d   1      13.170   3.177 -19.335  0.00  0.00    -0.288 N 
ATOM     18  C   UNL d   1      14.566   2.838 -19.153  0.00  0.00     0.134 C 
BRANCH  16  19
ATOM     19  C   UNL d   1      13.234   5.694 -19.324  0.00  0.00     0.080 A 
ATOM     20  C   UNL d   1      14.230   6.162 -18.487  0.00  0.00     0.069 A 
ATOM     21  N   UNL d   1      14.598   7.484 -18.752  0.00  0.00    -0.247 NA
ATOM     22  C   UNL d   1      14.916   5.449 -17.360  0.00  0.00     0.053 C 
ATOM     23  C   UNL d   1      13.886   8.033 -19.739  0.00  0.00     0.088 A 
ATOM     24  C   UNL d   1      14.067   9.432 -20.204  0.00  0.00     0.059 C 
ATOM     25  S   UNL d   1      12.703   6.936 -20.433  0.00  0.00    -0.068 SA
ENDBRANCH  16  19
ENDBRANCH  12  13
ENDBRANCH  11  12
ENDBRANCH  10  11
ENDBRANCH   9  10
ENDBRANCH   1   9
BRANCH   6  26
ATOM     26  C   UNL d   1       8.373   4.835 -12.790  0.00  0.00    -0.023 C 
ATOM     27  C   UNL d   1       9.164   4.394 -11.714  0.00  0.00    -0.004 C 
ATOM     28  C   UNL d   1       9.578   5.298 -10.703  0.00  0.00     0.004 C 
ATOM     29  C   UNL d   1       9.377   6.688 -10.870  0.00  0.00     0.071 C 
ATOM     30  C   UNL d   1       8.640   7.140 -11.962  0.00  0.00     0.004 C 
ATOM     31  C   UNL d   1       8.090   6.207 -12.859  0.00  0.00    -0.004 C 
BRANCH  29  32
ATOM     32  C   UNL d   1       9.968   7.656  -9.853  0.00  0.00     0.419 C 
ATOM     33  F   UNL d   1       9.466   7.395  -8.645  0.00  0.00    -0.166 F 
ATOM     34  F   UNL d   1      11.289   7.498  -9.815  0.00  0.00    -0.166 F 
ATOM     35  F   UNL d   1       9.721   8.935 -10.149  0.00  0.00    -0.166 F 
ENDBRANCH  29  32
ENDBRANCH   6  26
TORSDOF 8
