REMARK  6 active torsions:
REMARK  status: ('A' for Active; 'I' for Inactive)
REMARK    1  A    between atoms: C_2  and  C_3 
REMARK    2  A    between atoms: C_2  and  C_21 
REMARK    3  A    between atoms: C_3  and  C_4 
REMARK    4  A    between atoms: C_4  and  C_5 
REMARK    5  A    between atoms: C_5  and  N_6 
REMARK    6  A    between atoms: C_12  and  C_14 
ROOT
ATOM      1  N   UNL d   1      10.257   6.923  -8.883  0.00  0.00     0.133 N 
ATOM      2  C   UNL d   1      11.420   7.805  -9.000  0.00  0.00     0.222 C 
ATOM      3  C   UNL d   1      10.873   9.134  -9.553  0.00  0.00     0.035 C 
ATOM      4  C   UNL d   1       9.421   9.144  -9.066  0.00  0.00     0.035 C 
ATOM      5  C   UNL d   1       9.260   7.817  -8.290  0.00  0.00     0.222 C 
ATOM      6  C   UNL d   1       9.599   7.939  -6.789  0.00  0.00     0.068 C 
ATOM      7  C   UNL d   1      11.028   8.503  -6.520  0.00  0.00     0.149 C 
ATOM      8  O   UNL d   1      10.992   9.896  -6.757  0.00  0.00    -0.221 OA
ATOM      9  C   UNL d   1      12.021   7.925  -7.579  0.00  0.00     0.068 C 
ENDROOT
BRANCH   1  10
ATOM     10  C   UNL d   1       9.803   6.446 -10.172  0.00  0.00     0.251 C 
BRANCH  10  11
ATOM     11  C   UNL d   1       8.794   5.296 -10.073  0.00  0.00     0.043 C 
BRANCH  11  12
ATOM     12  C   UNL d   1       8.030   5.040 -11.384  0.00  0.00     0.071 C 
BRANCH  12  13
ATOM     13  C   UNL d   1       8.890   4.811 -12.647  0.00  0.00     0.173 C 
ATOM     14  O   UNL d   1       9.846   5.531 -12.903  0.00  0.00    -0.291 OA
BRANCH  13  15
ATOM     15  C   UNL d   1       8.493   3.687 -13.532  0.00  0.00     0.035 A 
ATOM     16  C   UNL d   1       9.487   3.060 -14.324  0.00  0.00     0.005 A 
ATOM     17  C   UNL d   1       9.139   2.013 -15.202  0.00  0.00     0.030 A 
ATOM     18  C   UNL d   1       7.797   1.603 -15.295  0.00  0.00     0.140 A 
ATOM     19  C   UNL d   1       6.803   2.227 -14.511  0.00  0.00     0.030 A 
ATOM     20  F   UNL d   1       7.458   0.605 -16.144  0.00  0.00    -0.204 F 
ATOM     21  C   UNL d   1       7.147   3.282 -13.651  0.00  0.00     0.005 A 
ENDBRANCH  13  15
ENDBRANCH  12  13
ENDBRANCH  11  12
ENDBRANCH  10  11
ENDBRANCH   1  10
BRANCH   7  22
ATOM     22  C   UNL d   1      11.461   8.239  -5.077  0.00  0.00     0.005 A 
ATOM     23  C   UNL d   1      11.613   6.925  -4.591  0.00  0.00    -0.002 A 
ATOM     24  C   UNL d   1      12.020   6.706  -3.255  0.00  0.00    -0.000 A 
ATOM     25  C   UNL d   1      12.266   7.788  -2.400  0.00  0.00    -0.000 A 
ATOM     26  C   UNL d   1      12.101   9.101  -2.872  0.00  0.00    -0.000 A 
ATOM     27  C   UNL d   1      11.704   9.323  -4.194  0.00  0.00    -0.002 A 
ENDBRANCH   7  22
TORSDOF 6
