REMARK  4 active torsions:
REMARK  status: ('A' for Active; 'I' for Inactive)
REMARK    1  A    between atoms: C_3  and  O_4 
REMARK    2  A    between atoms: O_4  and  C_5 
REMARK    3  A    between atoms: N_19  and  C_20 
REMARK    4  A    between atoms: C_20  and  C_21 
ROOT
ATOM      1  C   UNL d   1       9.060   8.771 -12.139  0.00  0.00    -0.012 C 
ATOM      2  C   UNL d   1       9.396   7.694 -11.675  0.00  0.00    -0.045 C 
ATOM      3  C   UNL d   1       9.732   6.358 -11.156  0.00  0.00     0.225 C 
ENDROOT
BRANCH   3   4
ATOM      4  O   UNL d   1       9.578   5.367 -12.177  0.00  0.00    -0.317 OA
BRANCH   4   5
ATOM      5  C   UNL d   1       8.309   4.910 -12.516  0.00  0.00     0.095 A 
ATOM      6  C   UNL d   1       8.159   4.005 -13.605  0.00  0.00     0.018 A 
ATOM      7  C   UNL d   1       6.882   3.446 -13.849  0.00  0.00    -0.018 A 
ATOM      8  C   UNL d   1       9.271   3.578 -14.495  0.00  0.00    -0.001 A 
ATOM      9  C   UNL d   1       5.760   3.829 -13.096  0.00  0.00    -0.004 A 
ATOM     10  C   UNL d   1       6.722   2.361 -14.881  0.00  0.00     0.064 C 
ATOM     11  C   UNL d   1       5.900   4.766 -12.078  0.00  0.00     0.002 A 
ATOM     12  C   UNL d   1       7.160   5.289 -11.775  0.00  0.00     0.024 A 
ATOM     13  C   UNL d   1       7.979   1.470 -14.995  0.00  0.00     0.245 C 
ATOM     14  C   UNL d   1       9.234   2.353 -15.214  0.00  0.00     0.005 A 
ATOM     15  N   UNL d   1       7.759   0.456 -16.038  0.00  0.00     0.140 N 
ATOM     16  C   UNL d   1      10.275   1.922 -16.078  0.00  0.00    -0.022 A 
ATOM     17  C   UNL d   1      11.397   2.746 -16.265  0.00  0.00    -0.004 A 
ATOM     18  C   UNL d   1      10.056   0.604 -16.792  0.00  0.00     0.061 C 
ATOM     19  C   UNL d   1      11.457   3.986 -15.614  0.00  0.00    -0.000 A 
ATOM     20  C   UNL d   1      10.407   4.388 -14.766  0.00  0.00    -0.000 A 
ATOM     21  C   UNL d   1       9.010  -0.294 -16.160  0.00  0.00     0.255 C 
BRANCH  15  22
ATOM     22  C   UNL d   1       6.677  -0.490 -15.723  0.00  0.00     0.251 C 
BRANCH  22  23
ATOM     23  C   UNL d   1       6.198  -1.225 -16.989  0.00  0.00     0.035 C 
ATOM     24  C   UNL d   1       5.100  -2.246 -16.673  0.00  0.00     0.002 C 
ENDBRANCH  22  23
ENDBRANCH  15  22
ENDBRANCH   4   5
ENDBRANCH   3   4
TORSDOF 4
