REMARK  5 active torsions:
REMARK  status: ('A' for Active; 'I' for Inactive)
REMARK    1  A    between atoms: C_2  and  C_3 
REMARK       I    between atoms: C_3  and  N_5 
REMARK    2  A    between atoms: N_5  and  C_6 
REMARK    3  A    between atoms: C_10  and  C_11 
REMARK    4  A    between atoms: N_13  and  S_14 
REMARK    5  A    between atoms: S_14  and  C_17 
ROOT
ATOM      1  C   UNL d   1       9.590   4.207 -14.025  0.00  0.00     0.039 A 
ATOM      2  C   UNL d   1      10.648   4.786 -14.694  0.00  0.00     0.093 A 
ATOM      3  N   UNL d   1      10.960   4.040 -15.827  0.00  0.00    -0.231 N 
ATOM      4  C   UNL d   1      10.091   2.956 -15.924  0.00  0.00     0.075 A 
ATOM      5  C   UNL d   1       9.973   1.911 -16.870  0.00  0.00     0.021 C 
ATOM      6  C   UNL d   1       8.981   0.919 -16.725  0.00  0.00     0.031 C 
ATOM      7  C   UNL d   1       8.139   0.977 -15.569  0.00  0.00     0.140 C 
ATOM      8  F   UNL d   1       7.194   0.028 -15.402  0.00  0.00    -0.204 F 
ATOM      9  C   UNL d   1       8.345   1.926 -14.593  0.00  0.00     0.031 C 
ATOM     10  C   UNL d   1       9.232   3.007 -14.757  0.00  0.00     0.022 A 
ENDROOT
BRANCH   1  11
ATOM     11  C   UNL d   1       8.923   4.680 -12.786  0.00  0.00     0.115 A 
ATOM     12  C   UNL d   1       7.602   4.578 -12.346  0.00  0.00     0.096 A 
ATOM     13  N   UNL d   1       7.605   5.191 -11.088  0.00  0.00    -0.062 NA
ATOM     14  C   UNL d   1       6.324   3.999 -12.923  0.00  0.00     0.054 C 
ATOM     15  C   UNL d   1       8.833   5.679 -10.852  0.00  0.00     0.752 A 
ATOM     16  N   UNL d   1       9.677   5.420 -11.848  0.00  0.00    -0.058 NA
BRANCH  15  17
ATOM     17  N   UNL d   1       9.101   6.356  -9.633  0.00  0.00    -0.023 NA
ATOM     18  C   UNL d   1      10.170   7.072  -9.300  0.00  0.00     0.272 C 
ATOM     19  O   UNL d   1      11.146   7.215 -10.019  0.00  0.00    -0.270 OA
BRANCH  18  20
ATOM     20  C   UNL d   1      10.137   7.732  -7.920  0.00  0.00     0.091 C 
ATOM     21  C   UNL d   1      11.455   7.528  -7.162  0.00  0.00     0.010 C 
ENDBRANCH  18  20
ENDBRANCH  15  17
ENDBRANCH   1  11
BRANCH   3  22
ATOM     22  S   UNL d   1      12.214   4.455 -16.930  0.00  0.00     0.271 S 
ATOM     23  O   UNL d   1      13.186   5.221 -16.150  0.00  0.00    -0.200 OA
ATOM     24  O   UNL d   1      12.597   3.194 -17.606  0.00  0.00    -0.200 OA
BRANCH  22  25
ATOM     25  C   UNL d   1      11.385   5.514 -18.108  0.00  0.00     0.104 A 
ATOM     26  C   UNL d   1      11.971   6.746 -18.459  0.00  0.00     0.013 A 
ATOM     27  C   UNL d   1      11.321   7.585 -19.386  0.00  0.00     0.001 A 
ATOM     28  C   UNL d   1      10.090   7.194 -19.952  0.00  0.00     0.000 A 
ATOM     29  C   UNL d   1       9.507   5.961 -19.599  0.00  0.00     0.001 A 
ATOM     30  C   UNL d   1      10.157   5.118 -18.679  0.00  0.00     0.013 A 
ENDBRANCH  22  25
ENDBRANCH   3  22
TORSDOF 5
