REMARK  3 active torsions:
REMARK  status: ('A' for Active; 'I' for Inactive)
REMARK    1  A    between atoms: C_2  and  O_4 
REMARK    2  A    between atoms: O_4  and  C_5 
REMARK    3  A    between atoms: C_10  and  C_11 
ROOT
ATOM      1  C   UNL d   1      11.454   7.855  -5.543  0.00  0.00     0.109 A 
ATOM      2  C   UNL d   1      11.291   6.583  -6.130  0.00  0.00     0.025 A 
ATOM      3  C   UNL d   1      10.512   6.409  -7.290  0.00  0.00     0.002 A 
ATOM      4  C   UNL d   1       9.909   7.512  -7.907  0.00  0.00     0.000 A 
ATOM      5  C   UNL d   1      10.121   8.791  -7.375  0.00  0.00     0.008 A 
ATOM      6  C   UNL d   1      10.900   8.961  -6.214  0.00  0.00     0.087 A 
ENDROOT
BRANCH   1   7
ATOM      7  O   UNL d   1      12.133   8.075  -4.360  0.00  0.00    -0.276 OA
BRANCH   7   8
ATOM      8  C   UNL d   1      11.887   7.348  -3.249  0.00  0.00     0.277 C 
ATOM      9  C   UNL d   1      12.631   7.861  -2.043  0.00  0.00     0.107 C 
ATOM     10  O   UNL d   1      11.131   6.398  -3.138  0.00  0.00    -0.264 OA
ENDBRANCH   7   8
ENDBRANCH   1   7
BRANCH   6  11
ATOM     11  C   UNL d   1      11.101  10.319  -5.659  0.00  0.00     0.213 C 
ATOM     12  O   UNL d   1      10.675  10.593  -4.540  0.00  0.00    -0.644 OA
ATOM     13  O   UNL d   1      11.860  11.137  -6.430  0.00  0.00    -0.644 OA
ENDBRANCH   6  11
TORSDOF 3
