REMARK  6 active torsions:
REMARK  status: ('A' for Active; 'I' for Inactive)
REMARK    1  A    between atoms: C_5  and  O_6 
REMARK    2  A    between atoms: O_6  and  C_7 
REMARK    3  A    between atoms: C_7  and  C_8 
REMARK    4  A    between atoms: C_8  and  C_9 
REMARK    5  A    between atoms: C_9  and  N_10 
REMARK    6  A    between atoms: N_13  and  C_14 
ROOT
ATOM      1  N   UNL d   1       9.954   4.013 -13.956  0.00  0.00     0.141 N 
ATOM      2  C   UNL d   1      11.125   3.150 -14.145  0.00  0.00     0.274 C 
ATOM      3  C   UNL d   1      11.457   3.005 -15.639  0.00  0.00     0.138 C 
ATOM      4  N   UNL d   1      10.290   2.507 -16.360  0.00  0.00    -0.330 N 
ATOM      5  C   UNL d   1       9.062   3.257 -16.123  0.00  0.00     0.138 C 
ATOM      6  C   UNL d   1       8.802   3.390 -14.615  0.00  0.00     0.274 C 
ENDROOT
BRANCH   1   7
ATOM      7  C   UNL d   1       9.702   4.152 -12.526  0.00  0.00     0.253 C 
BRANCH   7   8
ATOM      8  C   UNL d   1       8.661   5.245 -12.226  0.00  0.00     0.068 C 
BRANCH   8   9
ATOM      9  C   UNL d   1       8.659   5.673 -10.756  0.00  0.00     0.151 C 
BRANCH   9  10
ATOM     10  O   UNL d   1       9.864   6.379 -10.492  0.00  0.00    -0.331 OA
BRANCH  10  11
ATOM     11  C   UNL d   1      10.021   6.973  -9.259  0.00  0.00     0.094 A 
ATOM     12  C   UNL d   1      11.134   7.822  -9.100  0.00  0.00     0.026 A 
ATOM     13  C   UNL d   1      11.375   8.475  -7.875  0.00  0.00     0.032 A 
ATOM     14  C   UNL d   1      10.495   8.283  -6.794  0.00  0.00     0.140 A 
ATOM     15  F   UNL d   1      10.717   8.919  -5.619  0.00  0.00    -0.204 F 
ATOM     16  C   UNL d   1       9.381   7.436  -6.939  0.00  0.00     0.032 A 
ATOM     17  C   UNL d   1       9.143   6.781  -8.163  0.00  0.00     0.026 A 
ENDBRANCH  10  11
ENDBRANCH   9  10
ENDBRANCH   8   9
ENDBRANCH   7   8
ENDBRANCH   1   7
BRANCH   4  18
ATOM     18  C   UNL d   1      10.328   1.377 -17.201  0.00  0.00     0.140 A 
ATOM     19  N   UNL d   1       9.144   0.798 -17.508  0.00  0.00    -0.227 NA
ATOM     20  C   UNL d   1       9.131  -0.280 -18.318  0.00  0.00     0.101 A 
ATOM     21  C   UNL d   1      10.297  -0.837 -18.865  0.00  0.00     0.021 A 
ATOM     22  C   UNL d   1      11.532  -0.252 -18.548  0.00  0.00     0.005 A 
ATOM     23  C   UNL d   1      11.553   0.877 -17.710  0.00  0.00     0.037 A 
ENDBRANCH   4  18
TORSDOF 6
