REMARK  7 active torsions:
REMARK  status: ('A' for Active; 'I' for Inactive)
REMARK    1  A    between atoms: C_2  and  C_3 
REMARK       I    between atoms: C_2  and  N_10 
REMARK    2  A    between atoms: C_3  and  C_4 
REMARK    3  A    between atoms: N_10  and  C_11 
REMARK    4  A    between atoms: C_14  and  C_15 
REMARK    5  A    between atoms: C_15  and  C_16 
REMARK    6  A    between atoms: C_16  and  N_17 
REMARK    7  A    between atoms: N_20  and  C_21 
ROOT
ATOM      1  C   UNL d   1       7.964   5.222 -11.498  0.00  0.00     0.035 C 
ENDROOT
BRANCH   1   2
ATOM      2  C   UNL d   1       8.598   6.030 -10.354  0.00  0.00     0.002 C 
ATOM      3  C   UNL d   1       9.456   5.138  -9.436  0.00  0.00     0.002 C 
ATOM      4  C   UNL d   1      10.121   5.937  -8.319  0.00  0.00     0.024 C 
ATOM      5  C   UNL d   1      10.859   7.188  -8.853  0.00  0.00     0.106 C 
ATOM      6  C   UNL d   1       9.974   8.082  -9.731  0.00  0.00     0.024 C 
ATOM      7  C   UNL d   1       9.363   7.280 -10.870  0.00  0.00     0.002 C 
BRANCH   5   8
ATOM      8  N   UNL d   1      11.460   7.949  -7.768  0.00  0.00    -0.240 NA
ATOM      9  C   UNL d   1      10.799   8.607  -6.799  0.00  0.00     0.251 C 
ATOM     10  O   UNL d   1       9.579   8.616  -6.669  0.00  0.00    -0.271 OA
BRANCH   9  11
ATOM     11  C   UNL d   1      11.658   9.333  -5.775  0.00  0.00     0.090 C 
BRANCH  11  12
ATOM     12  C   UNL d   1      11.485   8.721  -4.368  0.00  0.00     0.014 C 
ATOM     13  C   UNL d   1      11.630   7.178  -4.303  0.00  0.00     0.033 C 
ATOM     14  C   UNL d   1      11.644   6.651  -2.857  0.00  0.00     0.142 C 
ATOM     15  O   UNL d   1      12.649   7.303  -2.103  0.00  0.00    -0.354 OA
ATOM     16  C   UNL d   1      12.426   8.699  -2.007  0.00  0.00     0.142 C 
ATOM     17  C   UNL d   1      12.462   9.368  -3.385  0.00  0.00     0.033 C 
ENDBRANCH  11  12
ENDBRANCH   9  11
ENDBRANCH   5   8
ENDBRANCH   1   2
BRANCH   1  18
ATOM     18  C   UNL d   1       9.057   4.817 -12.479  0.00  0.00     0.250 C 
BRANCH  18  19
ATOM     19  N   UNL d   1       8.728   3.634 -13.246  0.00  0.00     0.141 N 
ATOM     20  C   UNL d   1       8.182   3.912 -14.553  0.00  0.00     0.274 C 
ATOM     21  C   UNL d   1       9.251   4.641 -15.429  0.00  0.00     0.138 C 
ATOM     22  N   UNL d   1      10.487   3.871 -15.456  0.00  0.00    -0.330 N 
ATOM     23  C   UNL d   1      11.025   3.436 -14.188  0.00  0.00     0.138 C 
ATOM     24  C   UNL d   1       9.892   2.763 -13.411  0.00  0.00     0.274 C 
BRANCH  22  25
ATOM     25  C   UNL d   1      11.102   3.515 -16.651  0.00  0.00     0.138 A 
ATOM     26  C   UNL d   1      10.355   3.045 -17.751  0.00  0.00     0.036 A 
ATOM     27  C   UNL d   1      10.994   2.741 -18.930  0.00  0.00     0.095 A 
ATOM     28  C   UNL d   1       8.896   2.745 -17.891  0.00  0.00     0.064 A 
ATOM     29  C   UNL d   1      12.384   2.917 -19.036  0.00  0.00     0.045 A 
ATOM     30  O   UNL d   1      10.144   2.262 -19.891  0.00  0.00    -0.331 OA
ATOM     31  C   UNL d   1      13.062   3.384 -17.885  0.00  0.00     0.103 A 
ATOM     32  N   UNL d   1      12.439   3.663 -16.718  0.00  0.00    -0.228 NA
ATOM     33  C   UNL d   1       8.840   2.129 -19.297  0.00  0.00     0.154 A 
ENDBRANCH  22  25
ENDBRANCH  18  19
ENDBRANCH   1  18
TORSDOF 7
