REMARK  10 active torsions:
REMARK  status: ('A' for Active; 'I' for Inactive)
REMARK    1  A    between atoms: C_2  and  C_3 
REMARK    2  A    between atoms: C_2  and  C_12 
REMARK    3  A    between atoms: C_3  and  C_4 
REMARK    4  A    between atoms: C_4  and  C_5 
REMARK    5  A    between atoms: C_5  and  C_6 
REMARK    6  A    between atoms: C_12  and  N_13 
REMARK       I    between atoms: N_13  and  C_14 
REMARK       I    between atoms: C_14  and  N_16 
REMARK       I    between atoms: C_17  and  N_19 
REMARK    7  A    between atoms: N_19  and  C_20 
REMARK    8  A    between atoms: C_20  and  C_21 
REMARK    9  A    between atoms: C_21  and  C_22 
REMARK   10  A    between atoms: C_22  and  C_23 
ROOT
ATOM      1  N   UNL d   1      10.129   6.848 -10.808  0.00  0.00    -0.217 NA
ATOM      2  C   UNL d   1       9.167   7.084 -11.710  0.00  0.00     0.367 C 
ATOM      3  O   UNL d   1       8.913   8.215 -12.129  0.00  0.00    -0.243 OA
ATOM      4  N   UNL d   1       8.590   5.890 -12.092  0.00  0.00    -0.159 NA
ATOM      5  C   UNL d   1       7.307   5.798 -12.287  0.00  0.00     0.237 C 
ATOM      6  N   UNL d   1       6.354   6.782 -12.108  0.00  0.00    -0.060 NA
ATOM      7  N   UNL d   1       6.757   4.614 -12.721  0.00  0.00    -0.241 NA
ENDROOT
BRANCH   1   8
ATOM      8  C   UNL d   1      11.123   7.814 -10.322  0.00  0.00     0.131 C 
BRANCH   8   9
ATOM      9  C   UNL d   1      10.802   8.330  -8.919  0.00  0.00     0.025 C 
ATOM     10  C   UNL d   1       9.387   8.910  -8.869  0.00  0.00     0.002 C 
BRANCH   9  11
ATOM     11  C   UNL d   1      11.027   7.218  -7.880  0.00  0.00     0.002 C 
BRANCH  11  12
ATOM     12  C   UNL d   1      10.596   7.684  -6.489  0.00  0.00     0.005 C 
BRANCH  12  13
ATOM     13  C   UNL d   1      11.118   6.772  -5.358  0.00  0.00     0.026 C 
BRANCH  13  14
ATOM     14  C   UNL d   1      11.587   7.533  -4.133  0.00  0.00    -0.022 A 
ATOM     15  C   UNL d   1      11.462   8.941  -4.007  0.00  0.00    -0.004 A 
ATOM     16  C   UNL d   1      11.930   9.588  -2.853  0.00  0.00    -0.000 A 
ATOM     17  C   UNL d   1      12.521   8.846  -1.809  0.00  0.00    -0.000 A 
ATOM     18  C   UNL d   1      12.623   7.449  -1.914  0.00  0.00    -0.000 A 
ATOM     19  C   UNL d   1      12.165   6.798  -3.071  0.00  0.00    -0.004 A 
ENDBRANCH  13  14
ENDBRANCH  12  13
ENDBRANCH  11  12
ENDBRANCH   9  11
ENDBRANCH   8   9
ENDBRANCH   1   8
BRANCH   7  20
ATOM     20  C   UNL d   1       7.505   3.595 -13.445  0.00  0.00     0.129 C 
BRANCH  20  21
ATOM     21  C   UNL d   1       6.590   2.473 -13.941  0.00  0.00     0.033 C 
BRANCH  21  22
ATOM     22  C   UNL d   1       7.364   1.316 -14.592  0.00  0.00     0.057 C 
BRANCH  22  23
ATOM     23  C   UNL d   1       6.461   0.216 -15.045  0.00  0.00     0.112 A 
ATOM     24  S   UNL d   1       5.980   0.008 -16.726  0.00  0.00    -0.036 SA
ATOM     25  C   UNL d   1       5.022  -1.340 -16.150  0.00  0.00     0.203 A 
ATOM     26  N   UNL d   1       5.075  -1.560 -14.836  0.00  0.00    -0.127 NA
ATOM     27  N   UNL d   1       4.263  -2.102 -17.022  0.00  0.00    -0.070 NA
ATOM     28  N   UNL d   1       5.914  -0.659 -14.194  0.00  0.00    -0.144 NA
ENDBRANCH  22  23
ENDBRANCH  21  22
ENDBRANCH  20  21
ENDBRANCH   7  20
TORSDOF 10
