REMARK  7 active torsions:
REMARK  status: ('A' for Active; 'I' for Inactive)
REMARK    1  A    between atoms: C_8  and  O_9 
REMARK    2  A    between atoms: O_9  and  C_10 
REMARK    3  A    between atoms: C_10  and  C_11 
REMARK    4  A    between atoms: C_11  and  C_12 
REMARK    5  A    between atoms: C_12  and  C_13 
REMARK    6  A    between atoms: C_13  and  N_14 
REMARK    7  A    between atoms: N_17  and  C_18 
ROOT
ATOM      1  C   UNL d   1       9.287   6.990 -11.329  0.00  0.00     0.038 C 
ENDROOT
BRANCH   1   2
ATOM      2  C   UNL d   1      10.285   7.484 -10.266  0.00  0.00     0.035 C 
BRANCH   2   3
ATOM      3  C   UNL d   1       9.819   8.802  -9.613  0.00  0.00     0.151 C 
BRANCH   3   4
ATOM      4  O   UNL d   1      10.732   9.284  -8.641  0.00  0.00    -0.315 OA
BRANCH   4   5
ATOM      5  C   UNL d   1      10.712   8.623  -7.428  0.00  0.00     0.179 A 
ATOM      6  C   UNL d   1       9.932   7.465  -7.249  0.00  0.00     0.044 A 
ATOM      7  C   UNL d   1      10.150   6.772  -6.080  0.00  0.00     0.002 A 
ATOM      8  C   UNL d   1      11.003   7.241  -5.099  0.00  0.00     0.014 A 
ATOM      9  C   UNL d   1      11.128   6.472  -3.805  0.00  0.00     0.039 C 
ATOM     10  C   UNL d   1      11.652   8.469  -5.286  0.00  0.00     0.163 A 
ATOM     11  C   UNL d   1      11.514   7.303  -2.586  0.00  0.00     0.095 C 
ATOM     12  C   UNL d   1      12.427   8.427  -2.959  0.00  0.00     0.257 C 
ATOM     13  O   UNL d   1      13.153   8.777  -2.033  0.00  0.00    -0.270 OA
ATOM     14  N   UNL d   1      12.417   8.965  -4.202  0.00  0.00    -0.193 NA
ATOM     15  N   UNL d   1      11.544   9.124  -6.478  0.00  0.00    -0.204 NA
ENDBRANCH   4   5
ENDBRANCH   3   4
ENDBRANCH   2   3
ENDBRANCH   1   2
BRANCH   1  16
ATOM     16  C   UNL d   1       9.642   5.551 -11.718  0.00  0.00     0.251 C 
BRANCH  16  17
ATOM     17  N   UNL d   1       8.759   5.073 -12.769  0.00  0.00     0.141 N 
ATOM     18  C   UNL d   1       7.444   4.684 -12.210  0.00  0.00     0.274 C 
ATOM     19  C   UNL d   1       6.510   4.158 -13.314  0.00  0.00     0.137 C 
ATOM     20  N   UNL d   1       7.174   3.084 -14.044  0.00  0.00    -0.344 N 
ATOM     21  C   UNL d   1       8.523   3.370 -14.509  0.00  0.00     0.137 C 
ATOM     22  C   UNL d   1       9.382   3.894 -13.373  0.00  0.00     0.274 C 
BRANCH  20  23
ATOM     23  C   UNL d   1       6.535   1.855 -14.299  0.00  0.00     0.067 A 
ATOM     24  C   UNL d   1       6.658   1.140 -15.531  0.00  0.00     0.073 A 
ATOM     25  C   UNL d   1       6.008  -0.095 -15.690  0.00  0.00     0.013 A 
ATOM     26 CL   UNL d   1       7.487   1.725 -16.924  0.00  0.00    -0.081 Cl
ATOM     27  C   UNL d   1       5.208  -0.627 -14.673  0.00  0.00     0.001 A 
ATOM     28  C   UNL d   1       5.051   0.093 -13.482  0.00  0.00     0.002 A 
ATOM     29  C   UNL d   1       5.714   1.310 -13.286  0.00  0.00     0.018 A 
ENDBRANCH  20  23
ENDBRANCH  16  17
ENDBRANCH   1  16
TORSDOF 7
