REMARK  4 active torsions:
REMARK  status: ('A' for Active; 'I' for Inactive)
REMARK    1  A    between atoms: C_4  and  C_5 
REMARK    2  A    between atoms: C_12  and  C_13 
REMARK    3  A    between atoms: C_13  and  N_14 
REMARK    4  A    between atoms: N_17  and  C_18 
ROOT
ATOM      1  C   UNL d   1       6.470   4.624 -12.549  0.00  0.00     0.297 C 
ENDROOT
BRANCH   1   2
ATOM      2  C   UNL d   1       7.782   5.168 -12.040  0.00  0.00     0.108 A 
ATOM      3  C   UNL d   1       8.995   5.412 -12.635  0.00  0.00     0.077 A 
ATOM      4  C   UNL d   1       9.492   5.210 -14.040  0.00  0.00     0.053 C 
ATOM      5  N   UNL d   1       9.852   5.958 -11.687  0.00  0.00    -0.230 NA
ATOM      6  C   UNL d   1       9.175   6.049 -10.540  0.00  0.00     0.162 A 
ATOM      7  N   UNL d   1       7.946   5.565 -10.720  0.00  0.00    -0.228 NA
BRANCH   6   8
ATOM      8  C   UNL d   1       9.726   6.620  -9.306  0.00  0.00     0.036 A 
ATOM      9  C   UNL d   1      10.897   7.415  -9.326  0.00  0.00     0.003 A 
ATOM     10  C   UNL d   1      11.428   7.942  -8.131  0.00  0.00     0.000 A 
ATOM     11  C   UNL d   1      10.784   7.686  -6.904  0.00  0.00     0.000 A 
ATOM     12  C   UNL d   1       9.610   6.910  -6.878  0.00  0.00     0.000 A 
ATOM     13  C   UNL d   1       9.082   6.383  -8.072  0.00  0.00     0.003 A 
ENDBRANCH   6   8
ENDBRANCH   1   2
BRANCH   1  14
ATOM     14  N   UNL d   1       6.515   3.204 -12.866  0.00  0.00     0.147 N 
ATOM     15  C   UNL d   1       5.178   2.610 -12.832  0.00  0.00     0.275 C 
ATOM     16  C   UNL d   1       5.270   1.085 -13.125  0.00  0.00     0.155 C 
ATOM     17  N   UNL d   1       5.966   0.805 -14.370  0.00  0.00    -0.179 N 
ATOM     18  C   UNL d   1       7.252   1.480 -14.466  0.00  0.00     0.155 C 
ATOM     19  C   UNL d   1       7.100   2.976 -14.173  0.00  0.00     0.275 C 
BRANCH  17  20
ATOM     20  C   UNL d   1       5.434   0.049 -15.425  0.00  0.00     0.727 A 
ATOM     21  N   UNL d   1       4.368  -0.693 -15.145  0.00  0.00    -0.060 NA
ATOM     22  C   UNL d   1       3.858  -1.425 -16.153  0.00  0.00     0.120 A 
ATOM     23  C   UNL d   1       4.415  -1.405 -17.444  0.00  0.00     0.043 A 
ATOM     24  C   UNL d   1       5.535  -0.579 -17.620  0.00  0.00     0.120 A 
ATOM     25  N   UNL d   1       6.038   0.150 -16.612  0.00  0.00    -0.060 NA
ENDBRANCH  17  20
ENDBRANCH   1  14
TORSDOF 4
