REMARK  9 active torsions:
REMARK  status: ('A' for Active; 'I' for Inactive)
REMARK    1  A    between atoms: C_2  and  C_3 
REMARK    2  A    between atoms: C_3  and  C_4 
REMARK    3  A    between atoms: C_4  and  C_5 
REMARK    4  A    between atoms: C_5  and  C_6 
REMARK    5  A    between atoms: C_6  and  C_7 
REMARK    6  A    between atoms: C_7  and  C_8 
REMARK    7  A    between atoms: C_8  and  C_9 
REMARK    8  A    between atoms: C_9  and  N_10 
REMARK    9  A    between atoms: C_13  and  C_14 
ROOT
ATOM      1  N   UNL d   1       7.188   5.481 -11.530  0.00  0.00     0.137 N 
ATOM      2  C   UNL d   1       6.844   5.947 -12.851  0.00  0.00     0.251 C 
ATOM      3  C   UNL d   1       5.764   4.967 -13.343  0.00  0.00     0.042 C 
ATOM      4  C   UNL d   1       6.018   3.701 -12.549  0.00  0.00     0.058 C 
ATOM      5  C   UNL d   1       7.219   4.041 -11.654  0.00  0.00     0.255 C 
ENDROOT
BRANCH   1   6
ATOM      6  C   UNL d   1       8.446   6.061 -11.079  0.00  0.00     0.250 C 
BRANCH   6   7
ATOM      7  C   UNL d   1       8.623   5.832  -9.572  0.00  0.00     0.035 C 
BRANCH   7   8
ATOM      8  C   UNL d   1       9.627   6.808  -8.951  0.00  0.00     0.002 C 
BRANCH   8   9
ATOM      9  C   UNL d   1       9.861   6.541  -7.457  0.00  0.00     0.000 C 
BRANCH   9  10
ATOM     10  C   UNL d   1      10.611   7.687  -6.760  0.00  0.00     0.000 C 
BRANCH  10  11
ATOM     11  C   UNL d   1      11.121   7.285  -5.374  0.00  0.00     0.000 C 
BRANCH  11  12
ATOM     12  C   UNL d   1      11.653   8.479  -4.559  0.00  0.00     0.000 C 
BRANCH  12  13
ATOM     13  C   UNL d   1      12.576   8.059  -3.405  0.00  0.00     0.000 C 
ATOM     14  C   UNL d   1      11.928   7.100  -2.402  0.00  0.00     0.000 C 
ENDBRANCH  12  13
ENDBRANCH  11  12
ENDBRANCH  10  11
ENDBRANCH   9  10
ENDBRANCH   8   9
ENDBRANCH   7   8
ENDBRANCH   6   7
ENDBRANCH   1   6
BRANCH   4  15
ATOM     15  C   UNL d   1       6.246   2.479 -13.430  0.00  0.00    -0.018 A 
ATOM     16  C   UNL d   1       7.269   2.473 -14.402  0.00  0.00     0.023 A 
ATOM     17  C   UNL d   1       7.503   1.321 -15.182  0.00  0.00     0.131 A 
ATOM     18  C   UNL d   1       6.711   0.173 -15.002  0.00  0.00     0.027 A 
ATOM     19  O   UNL d   1       8.518   1.318 -16.099  0.00  0.00    -0.190 OA
ATOM     20  C   UNL d   1       5.688   0.175 -14.037  0.00  0.00     0.002 A 
ATOM     21  C   UNL d   1       5.459   1.323 -13.250  0.00  0.00    -0.004 A 
ENDBRANCH   4  15
TORSDOF 9
