REMARK  3 active torsions:
REMARK  status: ('A' for Active; 'I' for Inactive)
REMARK    1  A    between atoms: C_5  and  N_6 
REMARK    2  A    between atoms: N_9  and  C_10 
REMARK    3  A    between atoms: C_10  and  C_11 
ROOT
ATOM      1  N   UNL d   1      10.607   6.913  -8.563  0.00  0.00    -0.344 N 
ATOM      2  C   UNL d   1       9.930   5.624  -8.629  0.00  0.00     0.137 C 
ATOM      3  C   UNL d   1       8.764   5.681  -9.632  0.00  0.00     0.275 C 
ATOM      4  N   UNL d   1       9.221   6.157 -10.946  0.00  0.00     0.146 N 
ATOM      5  C   UNL d   1       9.791   7.504 -10.793  0.00  0.00     0.275 C 
ATOM      6  C   UNL d   1      10.998   7.484  -9.843  0.00  0.00     0.137 C 
ENDROOT
BRANCH   1   7
ATOM      7  C   UNL d   1      10.879   7.557  -7.339  0.00  0.00     0.057 A 
ATOM      8  C   UNL d   1      10.839   8.965  -7.242  0.00  0.00     0.018 A 
ATOM      9  C   UNL d   1      11.104   9.606  -6.011  0.00  0.00     0.014 A 
ATOM     10  C   UNL d   1      11.427   8.837  -4.879  0.00  0.00     0.068 A 
ATOM     11 CL   UNL d   1      11.792   9.591  -3.372  0.00  0.00    -0.082 Cl
ATOM     12  C   UNL d   1      11.460   7.440  -4.963  0.00  0.00     0.070 A 
ATOM     13  C   UNL d   1      11.206   6.797  -6.194  0.00  0.00     0.029 A 
ATOM     14 CL   UNL d   1      11.864   6.535  -3.556  0.00  0.00    -0.081 Cl
ENDBRANCH   1   7
BRANCH   4  15
ATOM     15  C   UNL d   1       8.077   6.198 -11.857  0.00  0.00     0.283 C 
BRANCH  15  16
ATOM     16  C   UNL d   1       7.904   4.949 -12.649  0.00  0.00     0.041 A 
ATOM     17  S   UNL d   1       6.340   4.208 -12.868  0.00  0.00    -0.089 SA
ATOM     18  C   UNL d   1       7.023   3.001 -13.925  0.00  0.00     0.035 A 
ATOM     19  C   UNL d   1       8.380   3.149 -14.047  0.00  0.00     0.007 A 
ATOM     20  C   UNL d   1       8.880   4.267 -13.326  0.00  0.00     0.005 A 
ENDBRANCH  15  16
ENDBRANCH   4  15
TORSDOF 3
