REMARK  8 active torsions:
REMARK  status: ('A' for Active; 'I' for Inactive)
REMARK    1  A    between atoms: C_4  and  C_5 
REMARK    2  A    between atoms: C_8  and  S_9 
REMARK    3  A    between atoms: S_9  and  C_10 
REMARK    4  A    between atoms: C_10  and  C_11 
REMARK    5  A    between atoms: C_11  and  C_12 
REMARK    6  A    between atoms: C_12  and  N_13 
REMARK    7  A    between atoms: N_18  and  C_19 
REMARK    8  A    between atoms: C_22  and  C_23 
ROOT
ATOM      1  N   UNL d   1      10.588   3.641 -14.892  0.00  0.00     0.138 N 
ATOM      2  C   UNL d   1       9.245   3.123 -15.112  0.00  0.00     0.252 C 
ATOM      3  C   UNL d   1       8.647   3.093 -13.706  0.00  0.00     0.052 C 
ATOM      4  C   UNL d   1       7.176   3.524 -13.590  0.00  0.00     0.021 C 
ATOM      5  C   UNL d   1       7.167   4.392 -12.335  0.00  0.00     0.077 C 
ATOM      6  N   UNL d   1       8.462   5.060 -12.341  0.00  0.00    -0.252 NA
ATOM      7  C   UNL d   1       9.429   4.125 -12.909  0.00  0.00     0.097 C 
ATOM      8  C   UNL d   1      10.378   4.734 -13.947  0.00  0.00     0.266 C 
ENDROOT
BRANCH   1   9
ATOM      9  C   UNL d   1      11.173   4.099 -16.149  0.00  0.00     0.251 C 
BRANCH   9  10
ATOM     10  C   UNL d   1      12.706   4.003 -16.123  0.00  0.00     0.047 C 
BRANCH  10  11
ATOM     11  C   UNL d   1      13.373   4.905 -17.176  0.00  0.00     0.067 C 
BRANCH  11  12
ATOM     12  S   UNL d   1      12.676   4.694 -18.852  0.00  0.00    -0.075 SA
BRANCH  12  13
ATOM     13  C   UNL d   1      13.573   3.275 -19.384  0.00  0.00     0.193 A 
ATOM     14  N   UNL d   1      14.870   3.115 -19.138  0.00  0.00    -0.122 NA
ATOM     15  N   UNL d   1      15.208   1.914 -19.710  0.00  0.00    -0.128 NA
ATOM     16  C   UNL d   1      14.089   1.440 -20.268  0.00  0.00     0.170 A 
ATOM     17  N   UNL d   1      13.027   2.267 -20.101  0.00  0.00    -0.289 N 
ATOM     18  C   UNL d   1      11.653   2.115 -20.572  0.00  0.00     0.134 C 
BRANCH  16  19
ATOM     19  C   UNL d   1      14.118   0.168 -20.982  0.00  0.00     0.076 A 
ATOM     20  C   UNL d   1      13.113  -0.494 -21.627  0.00  0.00     0.100 A 
ATOM     21  N   UNL d   1      13.683  -1.637 -22.149  0.00  0.00    -0.247 N 
ATOM     22  C   UNL d   1      13.043  -2.677 -22.918  0.00  0.00     0.154 C 
ATOM     23  N   UNL d   1      15.004  -1.734 -21.872  0.00  0.00    -0.168 NA
ATOM     24  C   UNL d   1      15.271  -0.651 -21.158  0.00  0.00     0.125 A 
ENDBRANCH  16  19
ENDBRANCH  12  13
ENDBRANCH  11  12
ENDBRANCH  10  11
ENDBRANCH   9  10
ENDBRANCH   1   9
BRANCH   6  25
ATOM     25  C   UNL d   1       8.852   5.681 -11.141  0.00  0.00     0.036 A 
ATOM     26  C   UNL d   1       8.664   5.066  -9.880  0.00  0.00     0.011 A 
ATOM     27  C   UNL d   1       9.071   5.715  -8.703  0.00  0.00     0.005 A 
ATOM     28  C   UNL d   1       9.680   6.987  -8.760  0.00  0.00     0.071 A 
ATOM     29  C   UNL d   1       9.876   7.600 -10.014  0.00  0.00     0.005 A 
ATOM     30  C   UNL d   1       9.462   6.954 -11.197  0.00  0.00     0.011 A 
BRANCH  28  31
ATOM     31  C   UNL d   1      10.116   7.697  -7.488  0.00  0.00     0.419 C 
ATOM     32  F   UNL d   1       9.972   6.922  -6.411  0.00  0.00    -0.166 F 
ATOM     33  F   UNL d   1      11.400   8.045  -7.586  0.00  0.00    -0.166 F 
ATOM     34  F   UNL d   1       9.382   8.795  -7.316  0.00  0.00    -0.166 F 
ENDBRANCH  28  31
ENDBRANCH   6  25
TORSDOF 8
