REMARK  8 active torsions:
REMARK  status: ('A' for Active; 'I' for Inactive)
REMARK    1  A    between atoms: O_2  and  N_3 
REMARK    2  A    between atoms: C_4  and  C_5 
REMARK    3  A    between atoms: C_4  and  C_23 
REMARK    4  A    between atoms: C_5  and  C_6 
REMARK    5  A    between atoms: C_6  and  N_7 
REMARK    6  A    between atoms: N_10  and  C_11 
REMARK    7  A    between atoms: C_16  and  O_17 
REMARK    8  A    between atoms: O_17  and  C_18 
ROOT
ATOM      1  N   UNL d   1      10.445   3.307 -14.852  0.00  0.00     0.141 N 
ATOM      2  C   UNL d   1       9.539   3.507 -15.993  0.00  0.00     0.274 C 
ATOM      3  C   UNL d   1      10.313   3.433 -17.322  0.00  0.00     0.137 C 
ATOM      4  N   UNL d   1      11.036   2.179 -17.414  0.00  0.00    -0.343 N 
ATOM      5  C   UNL d   1      11.854   1.833 -16.266  0.00  0.00     0.137 C 
ATOM      6  C   UNL d   1      11.023   1.962 -14.964  0.00  0.00     0.274 C 
ENDROOT
BRANCH   1   7
ATOM      7  C   UNL d   1       9.689   3.388 -13.602  0.00  0.00     0.257 C 
BRANCH   7   8
ATOM      8  C   UNL d   1       9.304   4.848 -13.245  0.00  0.00     0.083 C 
BRANCH   8   9
ATOM      9  C   UNL d   1       8.375   4.962 -12.035  0.00  0.00     0.087 C 
ATOM     10  N   UNL d   1       7.218   4.429 -11.991  0.00  0.00    -0.136 NA
BRANCH  10  11
ATOM     11  O   UNL d   1       6.854   3.796 -13.186  0.00  0.00    -0.234 OA
ATOM     12  C   UNL d   1       5.704   3.011 -12.930  0.00  0.00     0.211 C 
ENDBRANCH  10  11
BRANCH   9  13
ATOM     13  C   UNL d   1       8.899   5.738 -10.889  0.00  0.00     0.016 A 
ATOM     14  C   UNL d   1       8.805   5.236  -9.570  0.00  0.00     0.004 A 
ATOM     15  C   UNL d   1       9.286   5.986  -8.480  0.00  0.00     0.030 A 
ATOM     16  C   UNL d   1       9.862   7.254  -8.693  0.00  0.00     0.140 A 
ATOM     17  C   UNL d   1       9.955   7.768  -9.998  0.00  0.00     0.030 A 
ATOM     18  F   UNL d   1      10.324   7.973  -7.643  0.00  0.00    -0.204 F 
ATOM     19  C   UNL d   1       9.463   7.021 -11.087  0.00  0.00     0.004 A 
ENDBRANCH   9  13
ENDBRANCH   8   9
ENDBRANCH   7   8
ENDBRANCH   1   7
BRANCH   4  20
ATOM     20  C   UNL d   1      10.874   1.314 -18.524  0.00  0.00     0.079 A 
ATOM     21  C   UNL d   1       9.584   0.857 -18.891  0.00  0.00     0.109 A 
ATOM     22  C   UNL d   1       9.453   0.036 -20.042  0.00  0.00     0.026 A 
ATOM     23  C   UNL d   1      10.589  -0.373 -20.756  0.00  0.00     0.002 A 
ATOM     24  C   UNL d   1      11.870   0.080 -20.378  0.00  0.00     0.002 A 
ATOM     25  C   UNL d   1      12.008   0.932 -19.263  0.00  0.00     0.019 A 
BRANCH  21  26
ATOM     26  O   UNL d   1       8.517   1.199 -18.080  0.00  0.00    -0.332 OA
BRANCH  26  27
ATOM     27  C   UNL d   1       7.216   0.664 -18.298  0.00  0.00     0.122 C 
ATOM     28  C   UNL d   1       6.324   1.290 -17.212  0.00  0.00     0.033 C 
ATOM     29  C   UNL d   1       7.178  -0.870 -18.176  0.00  0.00     0.033 C 
ENDBRANCH  26  27
ENDBRANCH  21  26
ENDBRANCH   4  20
TORSDOF 8
