REMARK  7 active torsions:
REMARK  status: ('A' for Active; 'I' for Inactive)
REMARK       I    between atoms: C_2  and  N_3 
REMARK    1  A    between atoms: C_2  and  C_24 
REMARK    2  A    between atoms: N_3  and  C_4 
REMARK    3  A    between atoms: C_4  and  C_5 
REMARK    4  A    between atoms: C_5  and  C_6 
REMARK    5  A    between atoms: C_6  and  C_7 
REMARK    6  A    between atoms: C_7  and  N_8 
REMARK    7  A    between atoms: N_11  and  C_12 
ROOT
ATOM      1  N   UNL d   1       9.238   3.905 -13.281  0.00  0.00     0.141 N 
ATOM      2  C   UNL d   1      10.018   2.923 -14.052  0.00  0.00     0.274 C 
ATOM      3  C   UNL d   1       9.213   1.627 -14.254  0.00  0.00     0.137 C 
ATOM      4  N   UNL d   1       7.918   1.926 -14.834  0.00  0.00    -0.344 N 
ATOM      5  C   UNL d   1       7.147   2.977 -14.200  0.00  0.00     0.137 C 
ATOM      6  C   UNL d   1       8.011   4.231 -14.021  0.00  0.00     0.274 C 
ENDROOT
BRANCH   1   7
ATOM      7  C   UNL d   1      10.042   5.106 -13.109  0.00  0.00     0.251 C 
BRANCH   7   8
ATOM      8  C   UNL d   1       9.404   6.122 -12.131  0.00  0.00     0.037 C 
BRANCH   8   9
ATOM      9  C   UNL d   1      10.025   6.078 -10.734  0.00  0.00     0.029 C 
BRANCH   9  10
ATOM     10  C   UNL d   1       9.276   6.976  -9.765  0.00  0.00     0.129 C 
BRANCH  10  11
ATOM     11  N   UNL d   1      10.007   7.134  -8.521  0.00  0.00    -0.233 NA
ATOM     12  C   UNL d   1      10.629   8.263  -8.158  0.00  0.00     0.293 C 
ATOM     13  O   UNL d   1      10.817   9.208  -8.923  0.00  0.00    -0.264 OA
BRANCH  12  14
ATOM     14  C   UNL d   1      10.996   8.363  -6.735  0.00  0.00     0.139 A 
ATOM     15  N   UNL d   1      11.205   7.200  -6.007  0.00  0.00    -0.241 NA
ATOM     16  C   UNL d   1      11.546   7.493  -4.713  0.00  0.00     0.082 A 
ATOM     17  C   UNL d   1      11.543   8.919  -4.615  0.00  0.00     0.019 A 
ATOM     18  C   UNL d   1      11.880   6.671  -3.631  0.00  0.00     0.019 A 
ATOM     19  C   UNL d   1      11.193   9.442  -5.910  0.00  0.00     0.025 A 
ATOM     20  C   UNL d   1      11.863   9.482  -3.355  0.00  0.00     0.002 A 
ATOM     21  C   UNL d   1      12.226   8.660  -2.269  0.00  0.00     0.000 A 
ATOM     22  C   UNL d   1      12.231   7.258  -2.407  0.00  0.00     0.002 A 
ENDBRANCH  12  14
ENDBRANCH  10  11
ENDBRANCH   9  10
ENDBRANCH   8   9
ENDBRANCH   7   8
ENDBRANCH   1   7
BRANCH   4  23
ATOM     23  C   UNL d   1       7.441   1.239 -15.954  0.00  0.00     0.056 A 
ATOM     24  C   UNL d   1       6.282   0.420 -15.906  0.00  0.00     0.015 A 
ATOM     25  C   UNL d   1       5.834  -0.226 -17.087  0.00  0.00     0.001 A 
ATOM     26  C   UNL d   1       5.559   0.219 -14.698  0.00  0.00     0.001 A 
ATOM     27  C   UNL d   1       6.543  -0.060 -18.293  0.00  0.00     0.000 A 
ATOM     28  C   UNL d   1       4.684  -1.040 -17.057  0.00  0.00     0.000 A 
ATOM     29  C   UNL d   1       7.696   0.742 -18.336  0.00  0.00     0.002 A 
ATOM     30  C   UNL d   1       8.147   1.388 -17.166  0.00  0.00     0.017 A 
ATOM     31  C   UNL d   1       3.969  -1.215 -15.857  0.00  0.00     0.000 A 
ATOM     32  C   UNL d   1       4.405  -0.581 -14.684  0.00  0.00     0.000 A 
ENDBRANCH   4  23
TORSDOF 7
