REMARK  9 active torsions:
REMARK  status: ('A' for Active; 'I' for Inactive)
REMARK    1  A    between atoms: N_11  and  C_12 
REMARK    2  A    between atoms: C_12  and  C_13 
REMARK    3  A    between atoms: C_13  and  C_14 
REMARK    4  A    between atoms: C_14  and  C_15 
REMARK    5  A    between atoms: C_15  and  C_16 
REMARK    6  A    between atoms: C_16  and  C_17 
REMARK    7  A    between atoms: C_17  and  C_18 
REMARK    8  A    between atoms: C_18  and  N_19 
REMARK    9  A    between atoms: C_22  and  C_23 
ROOT
ATOM      1  C   UNL d   1       9.473   4.395 -11.791  0.00  0.00     0.035 C 
ENDROOT
BRANCH   1   2
ATOM      2  C   UNL d   1       8.584   3.958 -12.961  0.00  0.00     0.002 C 
BRANCH   2   3
ATOM      3  C   UNL d   1       9.288   2.891 -13.825  0.00  0.00     0.000 C 
BRANCH   3   4
ATOM      4  C   UNL d   1       8.904   2.997 -15.313  0.00  0.00     0.002 C 
BRANCH   4   5
ATOM      5  C   UNL d   1       9.694   2.048 -16.224  0.00  0.00     0.025 C 
BRANCH   5   6
ATOM      6  C   UNL d   1      11.235   2.231 -16.202  0.00  0.00     0.112 C 
BRANCH   6   7
ATOM      7  N   UNL d   1      11.685   3.585 -16.560  0.00  0.00    -0.264 N 
ATOM      8  C   UNL d   1      12.083   4.543 -15.673  0.00  0.00     0.263 A 
ATOM      9  O   UNL d   1      12.224   4.484 -14.452  0.00  0.00    -0.267 OA
ATOM     10  C   UNL d   1      12.394   5.742 -16.478  0.00  0.00     0.061 A 
ATOM     11  C   UNL d   1      12.237   5.415 -17.801  0.00  0.00     0.061 A 
ATOM     12  C   UNL d   1      12.805   7.017 -16.068  0.00  0.00     0.005 A 
ATOM     13  C   UNL d   1      12.528   6.313 -18.846  0.00  0.00     0.005 A 
ATOM     14  C   UNL d   1      11.769   4.007 -17.845  0.00  0.00     0.263 A 
ATOM     15  C   UNL d   1      12.976   7.603 -18.453  0.00  0.00     0.000 A 
ATOM     16  C   UNL d   1      13.104   7.959 -17.080  0.00  0.00     0.000 A 
ATOM     17  O   UNL d   1      11.533   3.354 -18.861  0.00  0.00    -0.267 OA
ENDBRANCH   6   7
ENDBRANCH   5   6
ENDBRANCH   4   5
ENDBRANCH   3   4
ENDBRANCH   2   3
ENDBRANCH   1   2
BRANCH   1  18
ATOM     18  C   UNL d   1       8.652   4.906 -10.599  0.00  0.00     0.251 C 
BRANCH  18  19
ATOM     19  N   UNL d   1       9.478   5.591  -9.621  0.00  0.00     0.142 N 
ATOM     20  C   UNL d   1       8.723   5.745  -8.387  0.00  0.00     0.255 C 
ATOM     21  C   UNL d   1       9.642   6.311  -7.303  0.00  0.00     0.061 C 
ATOM     22  C   UNL d   1      10.404   7.543  -7.753  0.00  0.00    -0.021 C 
ATOM     23  C   UNL d   1      10.445   7.822  -9.065  0.00  0.00     0.005 C 
ATOM     24  C   UNL d   1       9.857   6.919 -10.125  0.00  0.00     0.276 C 
BRANCH  22  25
ATOM     25  C   UNL d   1      10.998   8.457  -6.759  0.00  0.00     0.017 A 
ATOM     26  C   UNL d   1      11.397   8.153  -5.414  0.00  0.00     0.021 A 
ATOM     27  C   UNL d   1      11.955   9.354  -4.885  0.00  0.00     0.082 A 
ATOM     28  C   UNL d   1      11.393   7.011  -4.566  0.00  0.00     0.031 A 
ATOM     29  N   UNL d   1      11.874  10.301  -5.881  0.00  0.00    -0.244 NA
ATOM     30  C   UNL d   1      12.465   9.423  -3.587  0.00  0.00     0.021 A 
ATOM     31  C   UNL d   1      11.349   9.750  -7.025  0.00  0.00     0.099 A 
ATOM     32  C   UNL d   1      12.443   8.286  -2.765  0.00  0.00     0.031 A 
ATOM     33  C   UNL d   1      11.906   7.087  -3.251  0.00  0.00     0.140 A 
ATOM     34  F   UNL d   1      11.912   6.011  -2.438  0.00  0.00    -0.204 F 
ENDBRANCH  22  25
ENDBRANCH  18  19
ENDBRANCH   1  18
TORSDOF 9
