REMARK  1 active torsions:
REMARK  status: ('A' for Active; 'I' for Inactive)
REMARK    1  A    between atoms: O_2  and  C_3 
ROOT
ATOM      1  C   UNL d   1       5.902   1.187 -14.163  0.00  0.00     0.094 A 
ATOM      2  C   UNL d   1       5.515   2.172 -13.243  0.00  0.00     0.020 A 
ATOM      3  C   UNL d   1       6.325   3.299 -13.021  0.00  0.00    -0.020 A 
ATOM      4  C   UNL d   1       7.600   3.346 -13.647  0.00  0.00     0.005 A 
ATOM      5  C   UNL d   1       8.111   2.327 -14.487  0.00  0.00     0.001 A 
ATOM      6  C   UNL d   1       7.178   1.293 -14.780  0.00  0.00     0.024 A 
ATOM      7  C   UNL d   1       9.438   2.372 -15.137  0.00  0.00     0.021 A 
ATOM      8  C   UNL d   1      10.150   1.238 -15.616  0.00  0.00     0.131 A 
ATOM      9  O   UNL d   1       9.733  -0.048 -15.441  0.00  0.00    -0.190 OA
ATOM     10  C   UNL d   1      11.373   1.387 -16.287  0.00  0.00     0.027 A 
ATOM     11  C   UNL d   1      11.938   2.660 -16.454  0.00  0.00     0.002 A 
ATOM     12  C   UNL d   1      11.272   3.790 -15.943  0.00  0.00    -0.004 A 
ATOM     13  C   UNL d   1      10.034   3.639 -15.280  0.00  0.00    -0.018 A 
ATOM     14  C   UNL d   1       9.358   4.855 -14.682  0.00  0.00     0.064 C 
ATOM     15  C   UNL d   1       8.575   4.505 -13.388  0.00  0.00     0.246 C 
ATOM     16  N   UNL d   1       7.957   5.707 -12.815  0.00  0.00     0.142 N 
ATOM     17  C   UNL d   1       8.953   6.684 -12.372  0.00  0.00     0.286 C 
ATOM     18  C   UNL d   1       7.204   5.289 -11.645  0.00  0.00     0.255 C 
ATOM     19  C   UNL d   1       5.985   4.490 -12.113  0.00  0.00     0.061 C 
ENDROOT
BRANCH   1  20
ATOM     20  O   UNL d   1       5.019   0.157 -14.420  0.00  0.00    -0.328 OA
ATOM     21  C   UNL d   1       5.344  -0.746 -15.466  0.00  0.00     0.181 C 
ENDBRANCH   1  20
TORSDOF 1
