REMARK  5 active torsions:
REMARK  status: ('A' for Active; 'I' for Inactive)
REMARK    1  A    between atoms: S_2  and  N_5 
REMARK    2  A    between atoms: N_5  and  C_6 
REMARK    3  A    between atoms: C_9  and  C_10 
REMARK    4  A    between atoms: C_10  and  C_11 
REMARK    5  A    between atoms: C_11  and  N_12 
ROOT
ATOM      1  N   UNL d   1       8.217   5.628 -12.018  0.00  0.00     0.138 N 
ATOM      2  C   UNL d   1       9.317   5.366 -12.917  0.00  0.00     0.253 C 
ATOM      3  C   UNL d   1       8.599   4.915 -14.172  0.00  0.00     0.070 C 
ATOM      4  C   UNL d   1       9.488   4.064 -15.093  0.00  0.00     0.151 C 
ATOM      5  O   UNL d   1       9.598   2.720 -14.633  0.00  0.00    -0.331 OA
ATOM      6  C   UNL d   1       8.398   2.073 -14.461  0.00  0.00     0.090 A 
ATOM      7  C   UNL d   1       8.323   0.689 -14.711  0.00  0.00     0.025 A 
ATOM      8  C   UNL d   1       7.101   0.006 -14.559  0.00  0.00     0.012 A 
ATOM      9  C   UNL d   1       5.944   0.698 -14.164  0.00  0.00     0.068 A 
ATOM     10  C   UNL d   1       4.681  -0.015 -14.052  0.00  0.00     0.101 C 
ATOM     11  N   UNL d   1       3.675  -0.570 -13.963  0.00  0.00    -0.191 NA
ATOM     12  C   UNL d   1       6.020   2.075 -13.876  0.00  0.00     0.008 A 
ATOM     13  C   UNL d   1       7.237   2.767 -14.037  0.00  0.00     0.003 A 
ATOM     14  C   UNL d   1       7.328   4.230 -13.658  0.00  0.00     0.062 C 
ATOM     15  C   UNL d   1       7.377   4.447 -12.146  0.00  0.00     0.255 C 
ENDROOT
BRANCH   1  16
ATOM     16  C   UNL d   1       8.644   5.783 -10.643  0.00  0.00     0.255 C 
BRANCH  16  17
ATOM     17  C   UNL d   1       9.539   7.032 -10.412  0.00  0.00     0.062 C 
BRANCH  17  18
ATOM     18  C   UNL d   1       9.973   7.249  -8.966  0.00  0.00    -0.020 A 
ATOM     19  C   UNL d   1      11.076   8.089  -8.707  0.00  0.00    -0.003 A 
ATOM     20  C   UNL d   1      11.507   8.311  -7.386  0.00  0.00     0.020 A 
ATOM     21  C   UNL d   1      10.846   7.676  -6.311  0.00  0.00     0.093 A 
ATOM     22  C   UNL d   1       9.727   6.863  -6.568  0.00  0.00     0.020 A 
ATOM     23  C   UNL d   1       9.290   6.647  -7.880  0.00  0.00    -0.003 A 
BRANCH  21  24
ATOM     24  N   UNL d   1      11.295   7.794  -5.003  0.00  0.00    -0.162 NA
BRANCH  24  25
ATOM     25  S   UNL d   1      11.806   9.225  -4.211  0.00  0.00     0.266 S 
ATOM     26  C   UNL d   1      12.154   8.668  -2.514  0.00  0.00     0.165 C 
ATOM     27  O   UNL d   1      10.661  10.142  -4.235  0.00  0.00    -0.203 OA
ATOM     28  O   UNL d   1      13.079   9.585  -4.840  0.00  0.00    -0.203 OA
ENDBRANCH  24  25
ENDBRANCH  21  24
ENDBRANCH  17  18
ENDBRANCH  16  17
ENDBRANCH   1  16
TORSDOF 5
