REMARK  9 active torsions:
REMARK  status: ('A' for Active; 'I' for Inactive)
REMARK    1  A    between atoms: O_2  and  C_3 
REMARK    2  A    between atoms: C_8  and  N_9 
REMARK    3  A    between atoms: N_12  and  C_13 
REMARK    4  A    between atoms: C_13  and  C_14 
REMARK    5  A    between atoms: C_14  and  C_15 
REMARK    6  A    between atoms: C_15  and  C_16 
REMARK    7  A    between atoms: C_16  and  N_17 
REMARK       I    between atoms: N_17  and  C_18 
REMARK    8  A    between atoms: C_18  and  C_20 
REMARK    9  A    between atoms: C_20  and  C_21 
ROOT
ATOM      1  N   UNL d   1      11.463   4.081 -15.284  0.00  0.00    -0.343 N 
ATOM      2  C   UNL d   1      11.458   3.310 -14.052  0.00  0.00     0.137 C 
ATOM      3  C   UNL d   1      10.007   3.017 -13.621  0.00  0.00     0.274 C 
ATOM      4  N   UNL d   1       9.192   4.234 -13.560  0.00  0.00     0.141 N 
ATOM      5  C   UNL d   1       9.138   4.791 -14.912  0.00  0.00     0.274 C 
ATOM      6  C   UNL d   1      10.548   5.204 -15.386  0.00  0.00     0.137 C 
ENDROOT
BRANCH   4   7
ATOM      7  C   UNL d   1       9.631   5.202 -12.569  0.00  0.00     0.251 C 
BRANCH   7   8
ATOM      8  C   UNL d   1       9.242   4.804 -11.144  0.00  0.00     0.037 C 
BRANCH   8   9
ATOM      9  C   UNL d   1       9.480   5.970 -10.177  0.00  0.00     0.029 C 
BRANCH   9  10
ATOM     10  C   UNL d   1       9.026   5.666  -8.741  0.00  0.00     0.129 C 
BRANCH  10  11
ATOM     11  N   UNL d   1       9.185   6.811  -7.852  0.00  0.00    -0.238 NA
ATOM     12  C   UNL d   1      10.336   7.249  -7.319  0.00  0.00     0.251 C 
ATOM     13  O   UNL d   1      11.440   6.804  -7.624  0.00  0.00    -0.271 OA
BRANCH  12  14
ATOM     14  C   UNL d   1      10.208   8.342  -6.263  0.00  0.00     0.090 C 
BRANCH  14  15
ATOM     15  C   UNL d   1      11.383   8.426  -5.271  0.00  0.00     0.009 C 
ATOM     16  C   UNL d   1      11.206   9.633  -4.331  0.00  0.00     0.001 C 
ATOM     17  C   UNL d   1      12.338   9.728  -3.301  0.00  0.00     0.000 C 
ATOM     18  C   UNL d   1      12.481   8.443  -2.479  0.00  0.00     0.000 C 
ATOM     19  C   UNL d   1      12.704   7.254  -3.407  0.00  0.00     0.000 C 
ATOM     20  C   UNL d   1      11.592   7.114  -4.458  0.00  0.00     0.001 C 
ENDBRANCH  14  15
ENDBRANCH  12  14
ENDBRANCH  10  11
ENDBRANCH   9  10
ENDBRANCH   8   9
ENDBRANCH   7   8
ENDBRANCH   4   7
BRANCH   1  21
ATOM     21  C   UNL d   1      12.198   3.668 -16.399  0.00  0.00     0.079 A 
ATOM     22  C   UNL d   1      12.003   2.395 -16.974  0.00  0.00     0.110 A 
ATOM     23  C   UNL d   1      12.774   2.020 -18.096  0.00  0.00     0.026 A 
ATOM     24  C   UNL d   1      13.739   2.909 -18.628  0.00  0.00     0.002 A 
ATOM     25  C   UNL d   1      13.921   4.181 -18.052  0.00  0.00     0.002 A 
ATOM     26  C   UNL d   1      13.138   4.561 -16.946  0.00  0.00     0.019 A 
BRANCH  22  27
ATOM     27  O   UNL d   1      11.051   1.563 -16.399  0.00  0.00    -0.327 OA
ATOM     28  C   UNL d   1      10.693   0.377 -17.075  0.00  0.00     0.181 C 
ENDBRANCH  22  27
ENDBRANCH   1  21
TORSDOF 9
