REMARK  7 active torsions:
REMARK  status: ('A' for Active; 'I' for Inactive)
REMARK    1  A    between atoms: C_2  and  C_3 
REMARK    2  A    between atoms: C_2  and  N_12 
REMARK    3  A    between atoms: C_3  and  C_4 
REMARK    4  A    between atoms: C_4  and  C_5 
REMARK    5  A    between atoms: N_12  and  C_13 
REMARK    6  A    between atoms: C_13  and  C_14 
REMARK    7  A    between atoms: C_14  and  C_15 
ROOT
ATOM      1  C   UNL d   1       9.305   4.833  -8.801  0.00  0.00     0.038 C 
ATOM      2  C   UNL d   1       9.141   6.105  -9.664  0.00  0.00     0.257 C 
ENDROOT
BRANCH   2   3
ATOM      3  C   UNL d   1       9.917   7.283  -9.039  0.00  0.00     0.041 C 
BRANCH   3   4
ATOM      4  C   UNL d   1       9.216   7.917  -7.817  0.00  0.00     0.028 C 
BRANCH   4   5
ATOM      5  C   UNL d   1      10.162   8.097  -6.635  0.00  0.00    -0.022 A 
ATOM      6  C   UNL d   1      10.549   6.973  -5.872  0.00  0.00    -0.002 A 
ATOM      7  C   UNL d   1      11.396   7.120  -4.757  0.00  0.00     0.027 A 
ATOM      8  C   UNL d   1      11.856   8.399  -4.377  0.00  0.00     0.131 A 
ATOM      9  C   UNL d   1      11.473   9.519  -5.152  0.00  0.00     0.027 A 
ATOM     10  O   UNL d   1      12.640   8.549  -3.275  0.00  0.00    -0.190 OA
ATOM     11  C   UNL d   1      10.648   9.367  -6.277  0.00  0.00    -0.002 A 
ENDBRANCH   4   5
ENDBRANCH   3   4
ENDBRANCH   2   3
BRANCH   2  12
ATOM     12  N   UNL d   1       9.633   5.909 -11.020  0.00  0.00     0.337 N 
BRANCH  12  13
ATOM     13  C   UNL d   1       9.065   4.744 -11.675  0.00  0.00     0.295 C 
BRANCH  13  14
ATOM     14  C   UNL d   1       9.311   4.763 -13.197  0.00  0.00     0.065 C 
BRANCH  14  15
ATOM     15  C   UNL d   1       8.795   3.494 -13.852  0.00  0.00    -0.018 A 
ATOM     16  C   UNL d   1       9.697   2.480 -14.247  0.00  0.00     0.025 A 
ATOM     17  C   UNL d   1       9.216   1.297 -14.840  0.00  0.00     0.156 A 
ATOM     18  C   UNL d   1       7.828   1.129 -15.045  0.00  0.00     0.156 A 
ATOM     19  O   UNL d   1      10.086   0.316 -15.229  0.00  0.00    -0.188 OA
ATOM     20  C   UNL d   1       6.930   2.134 -14.639  0.00  0.00     0.029 A 
ATOM     21  O   UNL d   1       7.335   0.012 -15.623  0.00  0.00    -0.188 OA
ATOM     22  C   UNL d   1       7.413   3.312 -14.041  0.00  0.00    -0.002 A 
ENDBRANCH  14  15
ENDBRANCH  13  14
ENDBRANCH  12  13
ENDBRANCH   2  12
TORSDOF 7
