REMARK  5 active torsions:
REMARK  status: ('A' for Active; 'I' for Inactive)
REMARK    1  A    between atoms: C_2  and  C_3 
REMARK       I    between atoms: C_2  and  N_12 
REMARK    2  A    between atoms: N_15  and  C_16 
REMARK    3  A    between atoms: C_16  and  C_17 
REMARK    4  A    between atoms: C_17  and  O_18 
REMARK    5  A    between atoms: O_18  and  C_19 
ROOT
ATOM      1  O   UNL d   1       8.814   9.447  -8.198  0.00  0.00    -0.266 OA
ATOM      2  C   UNL d   1       9.554   8.502  -8.184  0.00  0.00     0.275 C 
ATOM      3  N   UNL d   1       9.897   7.810  -9.290  0.00  0.00    -0.311 N 
ATOM      4  C   UNL d   1      10.747   6.593  -9.329  0.00  0.00     0.140 C 
ATOM      5  C   UNL d   1       9.880   5.505  -9.997  0.00  0.00     0.274 C 
ATOM      6  N   UNL d   1       9.651   5.829 -11.407  0.00  0.00     0.144 N 
ATOM      7  C   UNL d   1       8.821   7.032 -11.431  0.00  0.00     0.274 C 
ATOM      8  C   UNL d   1       9.502   8.217 -10.682  0.00  0.00     0.140 C 
ENDROOT
BRANCH   2   9
ATOM      9  C   UNL d   1      10.233   8.236  -6.890  0.00  0.00     0.137 A 
ATOM     10  N   UNL d   1      10.543   9.338  -6.072  0.00  0.00    -0.241 NA
ATOM     11  C   UNL d   1      11.149   8.931  -4.904  0.00  0.00     0.082 A 
ATOM     12  C   UNL d   1      11.237   7.515  -5.014  0.00  0.00     0.019 A 
ATOM     13  C   UNL d   1      11.604   9.611  -3.743  0.00  0.00     0.019 A 
ATOM     14  C   UNL d   1      10.607   7.095  -6.202  0.00  0.00     0.025 A 
ATOM     15  C   UNL d   1      11.848   6.812  -3.974  0.00  0.00     0.002 A 
ATOM     16  C   UNL d   1      12.342   7.465  -2.814  0.00  0.00     0.000 A 
ATOM     17  C   UNL d   1      12.202   8.864  -2.708  0.00  0.00     0.002 A 
ENDBRANCH   2   9
BRANCH   6  18
ATOM     18  C   UNL d   1       9.012   4.706 -12.063  0.00  0.00     0.283 C 
BRANCH  18  19
ATOM     19  C   UNL d   1       9.207   4.803 -13.600  0.00  0.00     0.184 C 
BRANCH  19  20
ATOM     20  O   UNL d   1       9.564   3.543 -14.159  0.00  0.00    -0.329 OA
BRANCH  20  21
ATOM     21  C   UNL d   1       8.577   2.616 -14.402  0.00  0.00     0.094 A 
ATOM     22  C   UNL d   1       7.215   2.785 -14.042  0.00  0.00     0.025 A 
ATOM     23  C   UNL d   1       6.279   1.768 -14.306  0.00  0.00     0.013 A 
ATOM     24  C   UNL d   1       6.672   0.590 -14.957  0.00  0.00     0.058 A 
ATOM     25  C   UNL d   1       8.023   0.415 -15.317  0.00  0.00     0.013 A 
ATOM     26 CL   UNL d   1       5.489  -0.618 -15.311  0.00  0.00    -0.082 Cl
ATOM     27  C   UNL d   1       8.970   1.415 -15.024  0.00  0.00     0.025 A 
ENDBRANCH  20  21
ENDBRANCH  19  20
ENDBRANCH  18  19
ENDBRANCH   6  18
TORSDOF 5
