REMARK  5 active torsions:
REMARK  status: ('A' for Active; 'I' for Inactive)
REMARK    1  A    between atoms: C_4  and  C_5 
REMARK    2  A    between atoms: C_5  and  C_6 
REMARK    3  A    between atoms: C_6  and  C_7 
REMARK    4  A    between atoms: N_9  and  C_10 
REMARK    5  A    between atoms: C_10  and  C_11 
ROOT
ATOM      1  C   UNL d   1       8.501   4.742 -11.152  0.00  0.00     0.149 C 
ATOM      2  C   UNL d   1       9.269   4.168 -12.353  0.00  0.00     0.280 C 
ATOM      3  N   UNL d   1       8.367   3.587 -13.338  0.00  0.00     0.147 N 
ATOM      4  C   UNL d   1       7.371   4.579 -13.730  0.00  0.00     0.283 C 
ATOM      5  C   UNL d   1       6.631   5.171 -12.520  0.00  0.00     0.178 C 
ATOM      6  O   UNL d   1       7.603   5.727 -11.640  0.00  0.00    -0.352 OA
ENDROOT
BRANCH   3   7
ATOM      7  C   UNL d   1       9.075   3.019 -14.487  0.00  0.00     0.279 C 
BRANCH   7   8
ATOM      8  C   UNL d   1       8.414   1.934 -15.284  0.00  0.00     0.032 A 
ATOM      9  C   UNL d   1       7.174   1.242 -15.007  0.00  0.00     0.017 A 
ATOM     10  C   UNL d   1       6.966   0.273 -16.033  0.00  0.00     0.081 A 
ATOM     11  C   UNL d   1       6.184   1.318 -14.000  0.00  0.00     0.001 A 
ATOM     12  N   UNL d   1       8.061   0.378 -16.864  0.00  0.00    -0.244 NA
ATOM     13  C   UNL d   1       5.827  -0.557 -16.062  0.00  0.00     0.019 A 
ATOM     14  C   UNL d   1       8.929   1.358 -16.412  0.00  0.00     0.097 A 
ATOM     15  C   UNL d   1       4.864  -0.448 -15.045  0.00  0.00     0.002 A 
ATOM     16  C   UNL d   1       5.055   0.482 -14.007  0.00  0.00     0.000 A 
ENDBRANCH   7   8
ENDBRANCH   3   7
BRANCH   1  17
ATOM     17  C   UNL d   1       9.496   5.385 -10.190  0.00  0.00     0.036 C 
BRANCH  17  18
ATOM     18  C   UNL d   1       8.841   5.981  -8.924  0.00  0.00     0.029 C 
BRANCH  18  19
ATOM     19  C   UNL d   1       9.694   7.044  -8.229  0.00  0.00    -0.022 A 
ATOM     20  C   UNL d   1       9.704   7.131  -6.821  0.00  0.00    -0.004 A 
ATOM     21  C   UNL d   1      10.503   8.089  -6.158  0.00  0.00    -0.000 A 
ATOM     22  C   UNL d   1      11.308   8.975  -6.899  0.00  0.00    -0.000 A 
ATOM     23  C   UNL d   1      11.287   8.905  -8.310  0.00  0.00    -0.000 A 
ATOM     24  C   UNL d   1      10.479   7.969  -8.972  0.00  0.00    -0.004 A 
ENDBRANCH  18  19
ENDBRANCH  17  18
ENDBRANCH   1  17
TORSDOF 5
