REMARK  7 active torsions:
REMARK  status: ('A' for Active; 'I' for Inactive)
REMARK    1  A    between atoms: O_2  and  C_3 
REMARK    2  A    between atoms: N_11  and  C_12 
REMARK    3  A    between atoms: C_12  and  C_13 
REMARK    4  A    between atoms: C_13  and  C_14 
REMARK    5  A    between atoms: C_14  and  C_15 
REMARK    6  A    between atoms: C_15  and  N_16 
REMARK       I    between atoms: N_16  and  C_17 
REMARK    7  A    between atoms: C_17  and  C_19 
ROOT
ATOM      1  C   UNL d   1       9.274   3.115 -13.889  0.00  0.00     0.251 C 
ENDROOT
BRANCH   1   2
ATOM      2  N   UNL d   1       8.477   2.457 -14.928  0.00  0.00     0.142 N 
ATOM      3  C   UNL d   1       7.610   1.438 -14.323  0.00  0.00     0.277 C 
ATOM      4  C   UNL d   1       6.828   0.605 -15.326  0.00  0.00     0.009 A 
ATOM      5  C   UNL d   1       7.284   0.494 -16.655  0.00  0.00    -0.020 A 
ATOM      6  C   UNL d   1       5.684  -0.102 -14.919  0.00  0.00     0.027 A 
ATOM      7  C   UNL d   1       6.582  -0.317 -17.574  0.00  0.00     0.022 A 
ATOM      8  C   UNL d   1       8.513   1.274 -17.086  0.00  0.00     0.061 C 
ATOM      9  C   UNL d   1       5.422  -1.010 -17.173  0.00  0.00     0.119 A 
ATOM     10  C   UNL d   1       4.982  -0.911 -15.832  0.00  0.00     0.153 A 
ATOM     11  O   UNL d   1       3.898  -1.611 -15.383  0.00  0.00    -0.188 OA
ATOM     12  C   UNL d   1       9.350   1.788 -15.895  0.00  0.00     0.255 C 
BRANCH   9  13
ATOM     13  O   UNL d   1       4.789  -1.805 -18.099  0.00  0.00    -0.326 OA
ATOM     14  C   UNL d   1       3.470  -1.409 -18.446  0.00  0.00     0.181 C 
ENDBRANCH   9  13
ENDBRANCH   1   2
BRANCH   1  15
ATOM     15  C   UNL d   1       8.507   4.271 -13.214  0.00  0.00     0.037 C 
BRANCH  15  16
ATOM     16  C   UNL d   1       9.282   4.848 -12.018  0.00  0.00     0.029 C 
BRANCH  16  17
ATOM     17  C   UNL d   1       8.514   5.934 -11.255  0.00  0.00     0.129 C 
BRANCH  17  18
ATOM     18  N   UNL d   1       9.264   6.356 -10.075  0.00  0.00    -0.234 NA
ATOM     19  C   UNL d   1       9.870   7.542  -9.902  0.00  0.00     0.275 C 
ATOM     20  O   UNL d   1      10.043   8.360 -10.806  0.00  0.00    -0.266 OA
BRANCH  19  21
ATOM     21  C   UNL d   1      10.365   7.817  -8.506  0.00  0.00     0.058 A 
ATOM     22  C   UNL d   1      11.407   8.748  -8.296  0.00  0.00     0.005 A 
ATOM     23  C   UNL d   1      11.852   9.050  -6.991  0.00  0.00     0.007 A 
ATOM     24  C   UNL d   1      11.258   8.422  -5.880  0.00  0.00     0.035 A 
ATOM     25  C   UNL d   1      10.216   7.498  -6.081  0.00  0.00     0.007 A 
ATOM     26 BR   UNL d   1      11.861   8.819  -4.118  0.00  0.00    -0.049 Br
ATOM     27  C   UNL d   1       9.759   7.210  -7.380  0.00  0.00     0.005 A 
ENDBRANCH  19  21
ENDBRANCH  17  18
ENDBRANCH  16  17
ENDBRANCH  15  16
ENDBRANCH   1  15
TORSDOF 7
