REMARK  6 active torsions:
REMARK  status: ('A' for Active; 'I' for Inactive)
REMARK    1  A    between atoms: S_2  and  C_3 
REMARK    2  A    between atoms: C_6  and  C_7 
REMARK    3  A    between atoms: C_7  and  S_8 
REMARK    4  A    between atoms: S_8  and  C_9 
REMARK    5  A    between atoms: N_17  and  C_18 
REMARK    6  A    between atoms: C_18  and  C_19 
ROOT
ATOM      1  C   UNL d   1      10.169   4.582 -13.088  0.00  0.00     0.172 A 
ATOM      2  N   UNL d   1      11.464   4.380 -13.287  0.00  0.00    -0.221 NA
ATOM      3  C   UNL d   1      11.615   4.485 -14.645  0.00  0.00     0.099 A 
ATOM      4  C   UNL d   1      12.771   4.387 -15.445  0.00  0.00     0.021 A 
ATOM      5  C   UNL d   1      12.683   4.557 -16.839  0.00  0.00     0.002 A 
ATOM      6  C   UNL d   1      11.442   4.849 -17.439  0.00  0.00     0.002 A 
ATOM      7  C   UNL d   1      10.279   4.963 -16.649  0.00  0.00     0.019 A 
ATOM      8  C   UNL d   1      10.375   4.775 -15.262  0.00  0.00     0.080 A 
ATOM      9  N   UNL d   1       9.474   4.825 -14.203  0.00  0.00    -0.303 N 
ENDROOT
BRANCH   1  10
ATOM     10  S   UNL d   1       9.409   4.563 -11.498  0.00  0.00    -0.072 SA
BRANCH  10  11
ATOM     11  C   UNL d   1       9.069   6.338 -11.276  0.00  0.00     0.091 C 
BRANCH  11  12
ATOM     12  C   UNL d   1       9.616   6.805  -9.944  0.00  0.00    -0.011 A 
ATOM     13  C   UNL d   1       9.083   6.291  -8.746  0.00  0.00    -0.003 A 
ATOM     14  C   UNL d   1       9.542   6.766  -7.505  0.00  0.00     0.006 A 
ATOM     15  C   UNL d   1      10.555   7.745  -7.450  0.00  0.00     0.025 A 
ATOM     16  C   UNL d   1      11.087   8.272  -8.646  0.00  0.00     0.006 A 
ATOM     17  C   UNL d   1      10.615   7.803  -9.890  0.00  0.00    -0.003 A 
BRANCH  15  18
ATOM     18  S   UNL d   1      11.144   8.335  -5.892  0.00  0.00    -0.113 SA
ATOM     19  C   UNL d   1      11.200   6.884  -4.797  0.00  0.00     0.074 C 
ENDBRANCH  15  18
ENDBRANCH  11  12
ENDBRANCH  10  11
ENDBRANCH   1  10
BRANCH   9  20
ATOM     20  C   UNL d   1       8.077   5.123 -14.248  0.00  0.00     0.135 C 
BRANCH  20  21
ATOM     21  C   UNL d   1       7.260   3.865 -14.020  0.00  0.00     0.001 A 
ATOM     22  C   UNL d   1       6.240   3.857 -13.045  0.00  0.00    -0.002 A 
ATOM     23  C   UNL d   1       5.467   2.696 -12.850  0.00  0.00     0.011 A 
ATOM     24  C   UNL d   1       5.733   1.550 -13.641  0.00  0.00     0.058 A 
ATOM     25  C   UNL d   1       6.751   1.560 -14.599  0.00  0.00     0.011 A 
ATOM     26 CL   UNL d   1       4.763   0.135 -13.527  0.00  0.00    -0.082 Cl
ATOM     27  C   UNL d   1       7.524   2.712 -14.791  0.00  0.00    -0.002 A 
ENDBRANCH  20  21
ENDBRANCH   9  20
TORSDOF 6
