REMARK  8 active torsions:
REMARK  status: ('A' for Active; 'I' for Inactive)
REMARK    1  A    between atoms: C_2  and  C_3 
REMARK       I    between atoms: C_2  and  N_9 
REMARK    2  A    between atoms: C_3  and  C_4 
REMARK    3  A    between atoms: C_4  and  C_5 
REMARK    4  A    between atoms: N_9  and  C_10 
REMARK    5  A    between atoms: C_13  and  C_14 
REMARK    6  A    between atoms: C_14  and  C_15 
REMARK    7  A    between atoms: C_15  and  N_16 
REMARK    8  A    between atoms: C_19  and  C_20 
ROOT
ATOM      1  C   UNL d   1       8.398   4.880 -12.989  0.00  0.00     0.035 C 
ENDROOT
BRANCH   1   2
ATOM      2  C   UNL d   1       9.265   5.754 -12.079  0.00  0.00     0.002 C 
ATOM      3  C   UNL d   1       8.706   7.175 -12.025  0.00  0.00     0.002 C 
ATOM      4  C   UNL d   1       9.523   8.075 -11.094  0.00  0.00     0.024 C 
ATOM      5  C   UNL d   1       9.635   7.473  -9.676  0.00  0.00     0.106 C 
ATOM      6  C   UNL d   1      10.201   6.050  -9.721  0.00  0.00     0.024 C 
ATOM      7  C   UNL d   1       9.394   5.160 -10.667  0.00  0.00     0.002 C 
BRANCH   5   8
ATOM      8  N   UNL d   1      10.503   8.316  -8.869  0.00  0.00    -0.240 NA
ATOM      9  C   UNL d   1      10.518   8.297  -7.538  0.00  0.00     0.252 C 
ATOM     10  O   UNL d   1       9.848   7.514  -6.870  0.00  0.00    -0.271 OA
BRANCH   9  11
ATOM     11  C   UNL d   1      11.409   9.338  -6.868  0.00  0.00     0.098 C 
BRANCH  11  12
ATOM     12  C   UNL d   1      10.915   9.733  -5.459  0.00  0.00     0.113 C 
BRANCH  12  13
ATOM     13  C   UNL d   1      11.752   9.080  -4.351  0.00  0.00     0.398 C 
ATOM     14  F   UNL d   1      13.014   9.489  -4.420  0.00  0.00    -0.170 F 
ATOM     15  F   UNL d   1      11.247   9.460  -3.188  0.00  0.00    -0.170 F 
ATOM     16  F   UNL d   1      11.715   7.753  -4.433  0.00  0.00    -0.170 F 
ENDBRANCH  12  13
ENDBRANCH  11  12
ENDBRANCH   9  11
ENDBRANCH   5   8
ENDBRANCH   1   2
BRANCH   1  17
ATOM     17  C   UNL d   1       9.052   3.534 -13.295  0.00  0.00     0.250 C 
BRANCH  17  18
ATOM     18  N   UNL d   1      10.235   3.639 -14.155  0.00  0.00     0.137 N 
ATOM     19  C   UNL d   1       9.972   4.151 -15.506  0.00  0.00     0.251 C 
ATOM     20  C   UNL d   1       9.049   3.198 -16.276  0.00  0.00     0.040 C 
ATOM     21  C   UNL d   1       9.590   1.760 -16.328  0.00  0.00     0.028 C 
ATOM     22  C   UNL d   1      10.085   1.282 -14.944  0.00  0.00     0.040 C 
ATOM     23  C   UNL d   1      10.939   2.355 -14.255  0.00  0.00     0.251 C 
BRANCH  21  24
ATOM     24  C   UNL d   1       8.539   0.846 -16.866  0.00  0.00     0.004 A 
ATOM     25  C   UNL d   1       7.331   0.393 -16.218  0.00  0.00     0.021 A 
ATOM     26  C   UNL d   1       6.674  -0.457 -17.142  0.00  0.00     0.100 A 
ATOM     27  C   UNL d   1       6.688   0.579 -14.962  0.00  0.00     0.002 A 
ATOM     28  O   UNL d   1       7.420  -0.513 -18.306  0.00  0.00    -0.305 OA
ATOM     29  C   UNL d   1       5.472  -1.122 -16.860  0.00  0.00     0.025 A 
ATOM     30  C   UNL d   1       8.523   0.273 -18.119  0.00  0.00     0.118 A 
ATOM     31  C   UNL d   1       4.877  -0.940 -15.592  0.00  0.00     0.002 A 
ATOM     32  C   UNL d   1       5.487  -0.083 -14.649  0.00  0.00     0.000 A 
ENDBRANCH  21  24
ENDBRANCH  17  18
ENDBRANCH   1  17
TORSDOF 8
