REMARK  11 active torsions:
REMARK  status: ('A' for Active; 'I' for Inactive)
REMARK       I    between atoms: C_2  and  N_3 
REMARK    1  A    between atoms: C_2  and  C_24 
REMARK    2  A    between atoms: N_3  and  C_4 
REMARK    3  A    between atoms: C_4  and  C_5 
REMARK    4  A    between atoms: C_5  and  C_6 
REMARK    5  A    between atoms: C_6  and  C_7 
REMARK    6  A    between atoms: C_7  and  N_8 
REMARK    7  A    between atoms: N_11  and  C_12 
REMARK    8  A    between atoms: C_16  and  O_17 
REMARK    9  A    between atoms: O_17  and  C_18 
REMARK   10  A    between atoms: C_18  and  C_19 
REMARK   11  A    between atoms: C_27  and  N_28 
ROOT
ATOM      1  C   UNL d   1       6.993   2.805 -14.316  0.00  0.00     0.037 C 
ENDROOT
BRANCH   1   2
ATOM      2  C   UNL d   1       7.739   3.739 -13.374  0.00  0.00     0.029 C 
BRANCH   2   3
ATOM      3  C   UNL d   1       6.839   4.494 -12.380  0.00  0.00     0.129 C 
BRANCH   3   4
ATOM      4  N   UNL d   1       7.579   5.095 -11.270  0.00  0.00    -0.234 NA
ATOM      5  C   UNL d   1       8.801   5.656 -11.314  0.00  0.00     0.275 C 
ATOM      6  O   UNL d   1       9.492   5.738 -12.329  0.00  0.00    -0.266 OA
BRANCH   5   7
ATOM      7  C   UNL d   1       9.289   6.274 -10.038  0.00  0.00     0.058 A 
ATOM      8  C   UNL d   1       8.880   5.795  -8.772  0.00  0.00     0.006 A 
ATOM      9  C   UNL d   1       9.369   6.406  -7.601  0.00  0.00     0.018 A 
ATOM     10  C   UNL d   1      10.281   7.480  -7.683  0.00  0.00     0.066 A 
ATOM     11  C   UNL d   1      10.710   7.941  -8.951  0.00  0.00     0.018 A 
ATOM     12  C   UNL d   1      10.204   7.342 -10.113  0.00  0.00     0.006 A 
BRANCH  10  13
ATOM     13  N   UNL d   1      10.799   8.059  -6.502  0.00  0.00    -0.287 N 
ATOM     14  C   UNL d   1      11.130   9.354  -6.459  0.00  0.00     0.183 A 
ATOM     15  N   UNL d   1      11.596   9.732  -5.279  0.00  0.00    -0.222 NA
ATOM     16  C   UNL d   1      11.566   8.570  -4.508  0.00  0.00     0.120 A 
ATOM     17  C   UNL d   1      11.061   7.523  -5.246  0.00  0.00     0.102 A 
ENDBRANCH  10  13
ENDBRANCH   5   7
ENDBRANCH   3   4
ENDBRANCH   2   3
ENDBRANCH   1   2
BRANCH   1  18
ATOM     18  C   UNL d   1       7.981   2.155 -15.300  0.00  0.00     0.251 C 
BRANCH  18  19
ATOM     19  N   UNL d   1       7.268   1.601 -16.450  0.00  0.00     0.141 N 
ATOM     20  C   UNL d   1       6.660   0.325 -16.077  0.00  0.00     0.274 C 
ATOM     21  C   UNL d   1       5.869  -0.254 -17.259  0.00  0.00     0.137 C 
ATOM     22  N   UNL d   1       6.747  -0.405 -18.430  0.00  0.00    -0.344 N 
ATOM     23  C   UNL d   1       7.468   0.813 -18.787  0.00  0.00     0.137 C 
ATOM     24  C   UNL d   1       8.206   1.378 -17.555  0.00  0.00     0.274 C 
BRANCH  22  25
ATOM     25  C   UNL d   1       6.903  -1.596 -19.134  0.00  0.00     0.058 A 
ATOM     26  C   UNL d   1       6.622  -2.835 -18.516  0.00  0.00     0.041 A 
ATOM     27  C   UNL d   1       6.748  -4.072 -19.192  0.00  0.00     0.096 A 
ATOM     28  C   UNL d   1       7.220  -4.071 -20.513  0.00  0.00     0.024 A 
ATOM     29  C   UNL d   1       7.501  -2.856 -21.170  0.00  0.00     0.004 A 
ATOM     30  C   UNL d   1       7.338  -1.627 -20.493  0.00  0.00     0.017 A 
BRANCH  27  31
ATOM     31  O   UNL d   1       6.432  -5.275 -18.602  0.00  0.00    -0.328 OA
BRANCH  31  32
ATOM     32  C   UNL d   1       5.318  -5.294 -17.709  0.00  0.00     0.187 C 
BRANCH  32  33
ATOM     33  C   UNL d   1       5.664  -5.067 -16.224  0.00  0.00     0.226 C 
ATOM     34  F   UNL d   1       6.321  -6.109 -15.717  0.00  0.00    -0.232 F 
ENDBRANCH  32  33
ENDBRANCH  31  32
ENDBRANCH  27  31
ENDBRANCH  22  25
ENDBRANCH  18  19
ENDBRANCH   1  18
TORSDOF 11
