REMARK  8 active torsions:
REMARK  status: ('A' for Active; 'I' for Inactive)
REMARK    1  A    between atoms: C_2  and  N_3 
REMARK    2  A    between atoms: C_2  and  C_21 
REMARK    3  A    between atoms: N_3  and  C_4 
REMARK    4  A    between atoms: C_6  and  N_7 
REMARK    5  A    between atoms: N_7  and  C_8 
REMARK    6  A    between atoms: C_8  and  C_9 
REMARK    7  A    between atoms: C_9  and  O_10 
REMARK    8  A    between atoms: O_10  and  C_11 
ROOT
ATOM      1  C   UNL d   1       9.127   5.741 -11.163  0.00  0.00     0.160 A 
ATOM      2  C   UNL d   1       9.825   6.929 -10.851  0.00  0.00     0.057 A 
ATOM      3  C   UNL d   1      10.180   7.191  -9.520  0.00  0.00     0.081 A 
ATOM      4  C   UNL d   1       9.819   6.229  -8.551  0.00  0.00     0.040 A 
ATOM      5  C   UNL d   1       9.109   5.084  -8.954  0.00  0.00     0.102 A 
ATOM      6  N   UNL d   1       8.770   4.827 -10.233  0.00  0.00    -0.226 NA
ENDROOT
BRANCH   3   7
ATOM      7  N   UNL d   1      10.891   8.369  -9.249  0.00  0.00    -0.268 NA
BRANCH   7   8
ATOM      8  C   UNL d   1      11.322   8.726  -7.910  0.00  0.00     0.158 C 
BRANCH   8   9
ATOM      9  C   UNL d   1      10.197   9.260  -7.038  0.00  0.00     0.175 C 
BRANCH   9  10
ATOM     10  O   UNL d   1      10.687   9.841  -5.839  0.00  0.00    -0.329 OA
BRANCH  10  11
ATOM     11  C   UNL d   1      11.163   9.004  -4.863  0.00  0.00     0.094 A 
ATOM     12  C   UNL d   1      11.593   9.514  -3.613  0.00  0.00     0.026 A 
ATOM     13  C   UNL d   1      12.136   8.666  -2.615  0.00  0.00     0.032 A 
ATOM     14  C   UNL d   1      12.224   7.286  -2.867  0.00  0.00     0.140 A 
ATOM     15  C   UNL d   1      11.772   6.765  -4.091  0.00  0.00     0.032 A 
ATOM     16  F   UNL d   1      12.707   6.437  -1.927  0.00  0.00    -0.204 F 
ATOM     17  C   UNL d   1      11.254   7.616  -5.079  0.00  0.00     0.026 A 
ENDBRANCH  10  11
ENDBRANCH   9  10
ENDBRANCH   8   9
ENDBRANCH   7   8
ENDBRANCH   3   7
BRANCH   1  18
ATOM     18  N   UNL d   1       8.806   5.488 -12.501  0.00  0.00    -0.250 NA
BRANCH  18  19
ATOM     19  C   UNL d   1       8.691   4.117 -13.000  0.00  0.00     0.127 C 
ATOM     20  C   UNL d   1       7.217   3.766 -13.251  0.00  0.00     0.031 C 
BRANCH  19  21
ATOM     21  C   UNL d   1       9.540   3.880 -14.238  0.00  0.00    -0.000 A 
ATOM     22  C   UNL d   1       9.460   4.746 -15.348  0.00  0.00    -0.002 A 
ATOM     23  C   UNL d   1      10.247   4.500 -16.489  0.00  0.00    -0.000 A 
ATOM     24  C   UNL d   1      11.111   3.389 -16.527  0.00  0.00    -0.000 A 
ATOM     25  C   UNL d   1      11.188   2.525 -15.421  0.00  0.00    -0.000 A 
ATOM     26  C   UNL d   1      10.407   2.771 -14.280  0.00  0.00    -0.002 A 
ENDBRANCH  19  21
ENDBRANCH  18  19
ENDBRANCH   1  18
TORSDOF 8
