REMARK  6 active torsions:
REMARK  status: ('A' for Active; 'I' for Inactive)
REMARK       I    between atoms: C_2  and  N_3 
REMARK    1  A    between atoms: C_2  and  C_27 
REMARK    2  A    between atoms: N_3  and  C_4 
REMARK    3  A    between atoms: C_7  and  C_8 
REMARK    4  A    between atoms: C_8  and  C_9 
REMARK    5  A    between atoms: C_9  and  N_10 
REMARK    6  A    between atoms: C_13  and  C_14 
ROOT
ATOM      1  C   UNL d   1       6.869   3.759 -13.245  0.00  0.00     0.250 C 
ENDROOT
BRANCH   1   2
ATOM      2  C   UNL d   1       8.136   4.641 -13.173  0.00  0.00     0.035 C 
BRANCH   2   3
ATOM      3  C   UNL d   1       8.194   5.545 -11.955  0.00  0.00     0.002 C 
ATOM      4  C   UNL d   1       8.440   4.692 -10.688  0.00  0.00     0.002 C 
ATOM      5  C   UNL d   1       8.628   5.559  -9.453  0.00  0.00     0.024 C 
ATOM      6  C   UNL d   1       9.767   6.567  -9.676  0.00  0.00     0.106 C 
ATOM      7  C   UNL d   1       9.581   7.411 -10.950  0.00  0.00     0.024 C 
ATOM      8  C   UNL d   1       9.367   6.511 -12.156  0.00  0.00     0.002 C 
BRANCH   6   9
ATOM      9  N   UNL d   1       9.856   7.429  -8.514  0.00  0.00    -0.240 NA
ATOM     10  C   UNL d   1      10.991   7.998  -8.103  0.00  0.00     0.251 C 
ATOM     11  O   UNL d   1      12.042   7.956  -8.738  0.00  0.00    -0.271 OA
BRANCH  10  12
ATOM     12  C   UNL d   1      10.913   8.716  -6.758  0.00  0.00     0.083 C 
ATOM     13  C   UNL d   1      11.231   7.796  -5.568  0.00  0.00     0.026 C 
ATOM     14  C   UNL d   1      11.989   8.972  -4.949  0.00  0.00     0.081 C 
ATOM     15  C   UNL d   1      12.152   9.537  -6.359  0.00  0.00     0.026 C 
ATOM     16 CL   UNL d   1      11.121   9.991  -3.733  0.00  0.00    -0.115 Cl
ENDBRANCH  10  12
ENDBRANCH   6   9
ENDBRANCH   2   3
ENDBRANCH   1   2
BRANCH   1  17
ATOM     17  N   UNL d   1       6.865   2.863 -14.403  0.00  0.00     0.137 N 
ATOM     18  C   UNL d   1       8.203   2.582 -14.933  0.00  0.00     0.251 C 
ATOM     19  C   UNL d   1       8.135   1.773 -16.201  0.00  0.00     0.040 C 
ATOM     20  C   UNL d   1       7.450   0.415 -15.965  0.00  0.00     0.028 C 
ATOM     21  C   UNL d   1       6.081   0.699 -15.304  0.00  0.00     0.040 C 
ATOM     22  C   UNL d   1       6.180   1.613 -14.070  0.00  0.00     0.251 C 
BRANCH  20  23
ATOM     23  C   UNL d   1       7.337  -0.375 -17.267  0.00  0.00     0.002 A 
ATOM     24  C   UNL d   1       8.457  -0.558 -18.109  0.00  0.00     0.115 A 
ATOM     25  C   UNL d   1       8.378  -1.221 -19.312  0.00  0.00     0.119 A 
ATOM     26  O   UNL d   1       9.739  -0.130 -17.927  0.00  0.00    -0.300 OA
ATOM     27  C   UNL d   1       7.170  -1.806 -19.752  0.00  0.00     0.026 A 
ATOM     28  O   UNL d   1       9.590  -1.211 -19.926  0.00  0.00    -0.300 OA
ATOM     29  C   UNL d   1       6.034  -1.657 -18.928  0.00  0.00     0.002 A 
ATOM     30  C   UNL d   1       6.107  -0.948 -17.708  0.00  0.00    -0.002 A 
ATOM     31  C   UNL d   1      10.454  -0.521 -19.062  0.00  0.00     0.304 A 
ENDBRANCH  20  23
ENDBRANCH   1  17
TORSDOF 6
