REMARK  4 active torsions:
REMARK  status: ('A' for Active; 'I' for Inactive)
REMARK    1  A    between atoms: C_6  and  N_7 
REMARK    2  A    between atoms: N_10  and  C_11 
REMARK    3  A    between atoms: C_11  and  C_12 
REMARK    4  A    between atoms: C_12  and  C_13 
ROOT
ATOM      1  N   UNL d   1      10.588   7.266  -6.700  0.00  0.00    -0.330 N 
ATOM      2  C   UNL d   1       9.270   6.680  -6.795  0.00  0.00     0.138 C 
ATOM      3  C   UNL d   1       8.734   6.864  -8.207  0.00  0.00     0.274 C 
ATOM      4  N   UNL d   1       9.634   6.337  -9.226  0.00  0.00     0.141 N 
ATOM      5  C   UNL d   1      10.882   7.090  -9.126  0.00  0.00     0.274 C 
ATOM      6  C   UNL d   1      11.511   6.879  -7.730  0.00  0.00     0.138 C 
ENDROOT
BRANCH   4   7
ATOM      7  C   UNL d   1       9.017   6.544 -10.539  0.00  0.00     0.253 C 
BRANCH   7   8
ATOM      8  C   UNL d   1       9.643   5.627 -11.594  0.00  0.00     0.064 C 
BRANCH   8   9
ATOM      9  C   UNL d   1       8.909   5.634 -12.944  0.00  0.00     0.131 A 
ATOM     10  C   UNL d   1       7.783   4.624 -13.021  0.00  0.00     0.005 A 
ATOM     11  C   UNL d   1       8.062   3.712 -14.020  0.00  0.00     0.055 A 
ATOM     12  C   UNL d   1       6.612   4.525 -12.252  0.00  0.00    -0.002 A 
ATOM     13  C   UNL d   1       9.347   4.060 -14.667  0.00  0.00     0.275 A 
ATOM     14  C   UNL d   1       7.192   2.651 -14.344  0.00  0.00     0.004 A 
ATOM     15  N   UNL d   1       9.794   5.148 -14.020  0.00  0.00    -0.232 NA
ATOM     16  O   UNL d   1       9.851   3.496 -15.632  0.00  0.00    -0.266 OA
ATOM     17  C   UNL d   1       6.016   2.531 -13.573  0.00  0.00     0.000 A 
ATOM     18  C   UNL d   1       5.736   3.457 -12.538  0.00  0.00    -0.000 A 
ENDBRANCH   8   9
ENDBRANCH   7   8
ENDBRANCH   4   7
BRANCH   1  19
ATOM     19  C   UNL d   1      10.945   8.139  -5.694  0.00  0.00     0.140 A 
ATOM     20  N   UNL d   1      10.661   9.439  -5.911  0.00  0.00    -0.227 NA
ATOM     21  C   UNL d   1      10.956  10.309  -4.926  0.00  0.00     0.100 A 
ATOM     22  C   UNL d   1      11.520   9.936  -3.700  0.00  0.00     0.017 A 
ATOM     23  C   UNL d   1      11.861   8.595  -3.495  0.00  0.00    -0.017 A 
ATOM     24  C   UNL d   1      12.520   8.159  -2.214  0.00  0.00     0.031 C 
ATOM     25  C   UNL d   1      11.550   7.663  -4.512  0.00  0.00     0.033 A 
ENDBRANCH   1  19
TORSDOF 4
