REMARK  3 active torsions:
REMARK  status: ('A' for Active; 'I' for Inactive)
REMARK    1  A    between atoms: C_2  and  C_3 
REMARK    2  A    between atoms: C_3  and  N_4 
REMARK    3  A    between atoms: C_6  and  C_7 
ROOT
ATOM      1  N   UNL d   1      11.398   8.258  -4.311  0.00  0.00     0.140 N 
ATOM      2  C   UNL d   1      11.078   7.542  -5.561  0.00  0.00     0.284 C 
ATOM      3  C   UNL d   1      10.041   8.293  -6.439  0.00  0.00     0.172 C 
ATOM      4  O   UNL d   1      10.475   9.633  -6.619  0.00  0.00    -0.348 OA
ATOM      5  C   UNL d   1      10.673  10.330  -5.399  0.00  0.00     0.176 C 
ATOM      6  C   UNL d   1      11.755   9.633  -4.596  0.00  0.00     0.249 C 
ATOM      7  C   UNL d   1      13.052   9.752  -5.362  0.00  0.00     0.038 C 
ENDROOT
BRANCH   3   8
ATOM      8  C   UNL d   1       9.856   7.598  -7.768  0.00  0.00     0.026 A 
ATOM      9  C   UNL d   1       9.209   6.351  -7.812  0.00  0.00     0.098 A 
ATOM     10  N   UNL d   1       9.050   5.626  -8.937  0.00  0.00    -0.230 NA
ATOM     11  C   UNL d   1       9.492   6.162 -10.091  0.00  0.00     0.151 A 
ATOM     12  C   UNL d   1      10.131   7.417 -10.168  0.00  0.00     0.033 A 
ATOM     13  N   UNL d   1       9.305   5.402 -11.237  0.00  0.00    -0.080 NA
ATOM     14  C   UNL d   1      10.323   8.145  -8.979  0.00  0.00     0.002 A 
ENDBRANCH   3   8
BRANCH   1  15
ATOM     15  C   UNL d   1      12.404   7.618  -3.478  0.00  0.00     0.250 C 
BRANCH  15  16
ATOM     16  C   UNL d   1      11.879   6.436  -2.689  0.00  0.00     0.035 C 
ATOM     17  C   UNL d   1      12.911   5.996  -1.662  0.00  0.00     0.002 C 
ENDBRANCH  15  16
ENDBRANCH   1  15
TORSDOF 3
