REMARK  3 active torsions:
REMARK  status: ('A' for Active; 'I' for Inactive)
REMARK    1  A    between atoms: C_2  and  C_3 
REMARK    2  A    between atoms: C_3  and  N_4 
REMARK    3  A    between atoms: C_12  and  C_13 
ROOT
ATOM      1  N   UNL d   1      11.379   9.014  -4.596  0.00  0.00     0.140 N 
ATOM      2  C   UNL d   1      11.788  10.266  -5.196  0.00  0.00     0.251 C 
ATOM      3  C   UNL d   1      11.293  10.213  -6.605  0.00  0.00     0.042 C 
ATOM      4  C   UNL d   1      11.623   8.794  -7.003  0.00  0.00     0.055 C 
ATOM      5  C   UNL d   1      10.837   8.279  -8.209  0.00  0.00    -0.024 A 
ATOM      6  C   UNL d   1      10.904   9.009  -9.400  0.00  0.00    -0.004 A 
ATOM      7  C   UNL d   1      10.239   8.547 -10.540  0.00  0.00    -0.000 A 
ATOM      8  C   UNL d   1       9.564   7.323 -10.540  0.00  0.00     0.004 A 
ATOM      9  C   UNL d   1       9.471   6.547  -9.363  0.00  0.00     0.055 A 
ATOM     10  C   UNL d   1      10.086   7.063  -8.179  0.00  0.00    -0.021 A 
ATOM     11  C   UNL d   1       9.990   6.345  -6.858  0.00  0.00     0.028 C 
ATOM     12  C   UNL d   1      10.103   7.247  -5.657  0.00  0.00     0.038 C 
ATOM     13  C   UNL d   1      11.410   8.027  -5.676  0.00  0.00     0.224 C 
ENDROOT
BRANCH   1  14
ATOM     14  C   UNL d   1      12.204   8.679  -3.442  0.00  0.00     0.276 C 
BRANCH  14  15
ATOM     15  C   UNL d   1      11.557   7.615  -2.590  0.00  0.00     0.009 C 
ATOM     16  C   UNL d   1      11.994   6.359  -2.498  0.00  0.00    -0.003 C 
ENDBRANCH  14  15
ENDBRANCH   1  14
BRANCH   9  17
ATOM     17  C   UNL d   1       8.722   5.224  -9.445  0.00  0.00     0.296 C 
ATOM     18  N   UNL d   1       7.892   5.084 -10.477  0.00  0.00    -0.102 N 
ATOM     19  O   UNL d   1       8.831   4.333  -8.602  0.00  0.00    -0.264 OA
ENDBRANCH   9  17
TORSDOF 3
