REMARK  8 active torsions:
REMARK  status: ('A' for Active; 'I' for Inactive)
REMARK    1  A    between atoms: O_2  and  N_3 
REMARK    2  A    between atoms: C_4  and  C_5 
REMARK    3  A    between atoms: C_4  and  C_23 
REMARK    4  A    between atoms: C_5  and  C_6 
REMARK    5  A    between atoms: C_6  and  N_7 
REMARK    6  A    between atoms: N_10  and  C_11 
REMARK    7  A    between atoms: C_16  and  O_17 
REMARK    8  A    between atoms: O_17  and  C_18 
ROOT
ATOM      1  N   UNL d   1      10.092   0.677 -17.480  0.00  0.00     0.141 N 
ATOM      2  C   UNL d   1       8.824  -0.035 -17.252  0.00  0.00     0.274 C 
ATOM      3  C   UNL d   1       8.737  -1.291 -18.150  0.00  0.00     0.137 C 
ATOM      4  N   UNL d   1       8.923  -0.922 -19.545  0.00  0.00    -0.343 N 
ATOM      5  C   UNL d   1      10.114  -0.141 -19.818  0.00  0.00     0.137 C 
ATOM      6  C   UNL d   1      10.159   1.088 -18.891  0.00  0.00     0.274 C 
ENDROOT
BRANCH   1   7
ATOM      7  C   UNL d   1      10.146   1.853 -16.620  0.00  0.00     0.257 C 
BRANCH   7   8
ATOM      8  C   UNL d   1      11.590   2.365 -16.463  0.00  0.00     0.083 C 
BRANCH   8   9
ATOM      9  C   UNL d   1      11.687   3.600 -15.575  0.00  0.00     0.087 C 
ATOM     10  N   UNL d   1      11.096   3.576 -14.443  0.00  0.00    -0.136 NA
BRANCH  10  11
ATOM     11  O   UNL d   1      11.271   4.742 -13.685  0.00  0.00    -0.234 OA
ATOM     12  C   UNL d   1      10.164   4.859 -12.811  0.00  0.00     0.211 C 
ENDBRANCH  10  11
BRANCH   9  13
ATOM     13  C   UNL d   1      12.458   4.748 -16.150  0.00  0.00     0.016 A 
ATOM     14  C   UNL d   1      11.996   6.078 -16.044  0.00  0.00     0.004 A 
ATOM     15  C   UNL d   1      12.742   7.157 -16.550  0.00  0.00     0.030 A 
ATOM     16  C   UNL d   1      13.962   6.919 -17.208  0.00  0.00     0.140 A 
ATOM     17  C   UNL d   1      14.430   5.602 -17.349  0.00  0.00     0.030 A 
ATOM     18  F   UNL d   1      14.682   7.957 -17.698  0.00  0.00    -0.204 F 
ATOM     19  C   UNL d   1      13.685   4.526 -16.823  0.00  0.00     0.004 A 
ENDBRANCH   9  13
ENDBRANCH   8   9
ENDBRANCH   7   8
ENDBRANCH   1   7
BRANCH   4  20
ATOM     20  C   UNL d   1       8.051  -1.307 -20.597  0.00  0.00     0.079 A 
ATOM     21  C   UNL d   1       6.633  -1.181 -20.492  0.00  0.00     0.109 A 
ATOM     22  C   UNL d   1       5.828  -1.573 -21.567  0.00  0.00     0.026 A 
ATOM     23  C   UNL d   1       6.408  -2.061 -22.753  0.00  0.00     0.002 A 
ATOM     24  C   UNL d   1       7.809  -2.170 -22.874  0.00  0.00     0.002 A 
ATOM     25  C   UNL d   1       8.627  -1.798 -21.797  0.00  0.00     0.019 A 
BRANCH  21  26
ATOM     26  O   UNL d   1       6.110  -0.642 -19.316  0.00  0.00    -0.332 OA
BRANCH  26  27
ATOM     27  C   UNL d   1       4.711  -0.442 -19.157  0.00  0.00     0.122 C 
ATOM     28  C   UNL d   1       3.931  -1.780 -19.078  0.00  0.00     0.033 C 
ATOM     29  C   UNL d   1       4.195   0.656 -20.117  0.00  0.00     0.033 C 
ENDBRANCH  26  27
ENDBRANCH  21  26
ENDBRANCH   4  20
TORSDOF 8
