REMARK  9 active torsions:
REMARK  status: ('A' for Active; 'I' for Inactive)
REMARK    1  A    between atoms: C_2  and  N_3 
REMARK    2  A    between atoms: N_3  and  C_4 
REMARK    3  A    between atoms: N_3  and  C_17 
REMARK    4  A    between atoms: C_4  and  C_5 
REMARK    5  A    between atoms: C_5  and  C_6 
REMARK    6  A    between atoms: C_9  and  O_10 
REMARK    7  A    between atoms: O_10  and  C_11 
REMARK    8  A    between atoms: C_17  and  C_18 
REMARK    9  A    between atoms: C_18  and  N_19 
ROOT
ATOM      1  C   UNL d   1       9.167   5.974 -10.656  0.00  0.00     0.255 C 
ENDROOT
BRANCH   1   2
ATOM      2  N   UNL d   1       8.810   5.673 -12.033  0.00  0.00     0.139 N 
BRANCH   2   3
ATOM      3  C   UNL d   1       7.768   6.569 -12.562  0.00  0.00     0.250 C 
ATOM      4  C   UNL d   1       6.331   6.287 -12.091  0.00  0.00     0.037 C 
ENDBRANCH   2   3
BRANCH   2   5
ATOM      5  C   UNL d   1       8.494   4.256 -12.179  0.00  0.00     0.285 C 
BRANCH   5   6
ATOM      6  C   UNL d   1       8.059   3.793 -13.586  0.00  0.00     0.285 C 
BRANCH   6   7
ATOM      7  N   UNL d   1       9.161   3.517 -14.534  0.00  0.00     0.139 N 
ATOM      8  C   UNL d   1      10.037   4.667 -14.734  0.00  0.00     0.250 C 
ATOM      9  C   UNL d   1      11.113   4.415 -15.807  0.00  0.00     0.035 C 
ATOM     10  C   UNL d   1      11.896   3.145 -15.436  0.00  0.00     0.004 C 
ATOM     11  C   UNL d   1      10.936   1.958 -15.249  0.00  0.00     0.035 C 
ATOM     12  C   UNL d   1       9.879   2.307 -14.187  0.00  0.00     0.250 C 
ENDBRANCH   6   7
ENDBRANCH   5   6
ENDBRANCH   2   5
ENDBRANCH   1   2
BRANCH   1  13
ATOM     13  C   UNL d   1       9.774   7.361 -10.368  0.00  0.00     0.062 C 
BRANCH  13  14
ATOM     14  C   UNL d   1      10.173   7.578  -8.921  0.00  0.00    -0.020 A 
ATOM     15  C   UNL d   1      11.299   8.370  -8.607  0.00  0.00    -0.002 A 
ATOM     16  C   UNL d   1      11.641   8.619  -7.259  0.00  0.00     0.024 A 
ATOM     17  C   UNL d   1      10.866   8.049  -6.214  0.00  0.00     0.102 A 
ATOM     18  C   UNL d   1       9.741   7.275  -6.542  0.00  0.00     0.024 A 
ATOM     19  C   UNL d   1       9.384   7.053  -7.879  0.00  0.00    -0.002 A 
BRANCH  17  20
ATOM     20  O   UNL d   1      11.192   8.136  -4.872  0.00  0.00    -0.253 OA
BRANCH  20  21
ATOM     21  C   UNL d   1      11.679   9.301  -4.374  0.00  0.00     0.530 C 
ATOM     22  F   UNL d   1      11.746   9.209  -3.019  0.00  0.00    -0.144 F 
ATOM     23  F   UNL d   1      12.918   9.595  -4.824  0.00  0.00    -0.144 F 
ATOM     24  F   UNL d   1      10.860  10.342  -4.644  0.00  0.00    -0.144 F 
ENDBRANCH  20  21
ENDBRANCH  17  20
ENDBRANCH  13  14
ENDBRANCH   1  13
TORSDOF 9
