REMARK  3 active torsions:
REMARK  status: ('A' for Active; 'I' for Inactive)
REMARK    1  A    between atoms: C_2  and  C_3 
REMARK    2  A    between atoms: N_13  and  C_14 
REMARK    3  A    between atoms: C_14  and  C_15 
ROOT
ATOM      1  O   UNL d   1       9.249   9.189  -7.738  0.00  0.00    -0.221 OA
ATOM      2  C   UNL d   1      10.362   8.322  -7.753  0.00  0.00     0.149 C 
ATOM      3  C   UNL d   1       9.812   6.895  -7.976  0.00  0.00     0.070 C 
ATOM      4  C   UNL d   1       9.264   6.718  -9.348  0.00  0.00     0.254 C 
ATOM      5  N   UNL d   1      10.155   7.101 -10.438  0.00  0.00     0.143 N 
ATOM      6  C   UNL d   1      10.615   8.482 -10.297  0.00  0.00     0.254 C 
ATOM      7  C   UNL d   1      11.291   8.665  -8.939  0.00  0.00     0.070 C 
ENDROOT
BRANCH   5   8
ATOM      8  C   UNL d   1       9.477   7.033 -11.742  0.00  0.00     0.297 C 
BRANCH   8   9
ATOM      9  C   UNL d   1       9.096   5.657 -12.146  0.00  0.00     0.115 C 
ATOM     10  C   UNL d   1       9.659   4.860 -13.141  0.00  0.00     0.037 C 
ATOM     11  C   UNL d   1       8.905   3.718 -13.153  0.00  0.00     0.104 C 
ATOM     12  C   UNL d   1      10.700   5.022 -14.078  0.00  0.00     0.003 C 
ATOM     13  N   UNL d   1       7.815   3.846 -12.374  0.00  0.00    -0.148 NA
ATOM     14  C   UNL d   1       9.248   2.597 -13.935  0.00  0.00     0.021 C 
ATOM     15  N   UNL d   1       8.043   4.959 -11.631  0.00  0.00    -0.150 NA
ATOM     16  C   UNL d   1      10.320   2.716 -14.848  0.00  0.00     0.002 C 
ATOM     17  C   UNL d   1      11.018   3.945 -14.939  0.00  0.00     0.000 C 
ENDBRANCH   8   9
ENDBRANCH   5   8
BRANCH   2  18
ATOM     18  C   UNL d   1      11.069   8.408  -6.410  0.00  0.00     0.006 A 
ATOM     19  C   UNL d   1      10.828   7.475  -5.410  0.00  0.00     0.010 A 
ATOM     20  C   UNL d   1      11.497   7.572  -4.140  0.00  0.00     0.068 A 
ATOM     21  C   UNL d   1      12.396   8.647  -3.917  0.00  0.00     0.068 A 
ATOM     22 CL   UNL d   1      11.312   6.399  -2.932  0.00  0.00    -0.082 Cl
ATOM     23  C   UNL d   1      12.668   9.547  -4.911  0.00  0.00     0.012 A 
ATOM     24 CL   UNL d   1      13.019   8.782  -2.333  0.00  0.00    -0.082 Cl
ATOM     25  C   UNL d   1      12.003   9.473  -6.141  0.00  0.00    -0.001 A 
ENDBRANCH   2  18
TORSDOF 3
