REMARK  5 active torsions:
REMARK  status: ('A' for Active; 'I' for Inactive)
REMARK       I    between atoms: C_2  and  N_4 
REMARK    1  A    between atoms: N_4  and  C_5 
REMARK    2  A    between atoms: C_8  and  C_9 
REMARK    3  A    between atoms: C_9  and  C_10 
REMARK    4  A    between atoms: C_10  and  N_11 
REMARK    5  A    between atoms: N_14  and  C_15 
ROOT
ATOM      1  N   UNL d   1       8.809   5.341 -11.984  0.00  0.00     0.141 N 
ATOM      2  C   UNL d   1       7.515   4.821 -11.515  0.00  0.00     0.274 C 
ATOM      3  C   UNL d   1       6.592   4.485 -12.704  0.00  0.00     0.138 C 
ATOM      4  N   UNL d   1       7.265   3.582 -13.638  0.00  0.00    -0.330 N 
ATOM      5  C   UNL d   1       8.611   3.986 -14.033  0.00  0.00     0.138 C 
ATOM      6  C   UNL d   1       9.456   4.315 -12.800  0.00  0.00     0.274 C 
ENDROOT
BRANCH   1   7
ATOM      7  C   UNL d   1       9.711   5.639 -10.874  0.00  0.00     0.250 C 
BRANCH   7   8
ATOM      8  C   UNL d   1       9.155   6.753  -9.988  0.00  0.00     0.035 C 
BRANCH   8   9
ATOM      9  C   UNL d   1      10.132   7.246  -8.923  0.00  0.00     0.002 C 
ATOM     10  C   UNL d   1       9.683   8.612  -8.374  0.00  0.00     0.002 C 
ATOM     11  C   UNL d   1      10.631   9.106  -7.273  0.00  0.00     0.024 C 
ATOM     12  C   UNL d   1      10.756   8.080  -6.139  0.00  0.00     0.106 C 
ATOM     13  C   UNL d   1      11.204   6.720  -6.695  0.00  0.00     0.024 C 
ATOM     14  C   UNL d   1      10.252   6.221  -7.780  0.00  0.00     0.002 C 
BRANCH  12  15
ATOM     15  N   UNL d   1      11.669   8.592  -5.120  0.00  0.00    -0.240 NA
ATOM     16  C   UNL d   1      11.873   8.059  -3.905  0.00  0.00     0.252 C 
ATOM     17  C   UNL d   1      12.642   8.913  -2.908  0.00  0.00     0.100 C 
ATOM     18  O   UNL d   1      11.467   6.956  -3.559  0.00  0.00    -0.271 OA
ENDBRANCH  12  15
ENDBRANCH   8   9
ENDBRANCH   7   8
ENDBRANCH   1   7
BRANCH   4  19
ATOM     19  C   UNL d   1       6.689   2.367 -14.074  0.00  0.00     0.142 A 
ATOM     20  C   UNL d   1       7.051   1.722 -15.297  0.00  0.00     0.059 A 
ATOM     21  C   UNL d   1       6.372   0.516 -15.613  0.00  0.00     0.104 A 
ATOM     22  C   UNL d   1       7.939   1.958 -16.415  0.00  0.00     0.032 A 
ATOM     23  C   UNL d   1       5.395  -0.037 -14.780  0.00  0.00     0.045 A 
ATOM     24  O   UNL d   1       6.810   0.032 -16.829  0.00  0.00    -0.305 OA
ATOM     25  C   UNL d   1       5.122   0.660 -13.605  0.00  0.00     0.103 A 
ATOM     26  N   UNL d   1       5.741   1.808 -13.267  0.00  0.00    -0.227 NA
ATOM     27  C   UNL d   1       7.761   0.908 -17.277  0.00  0.00     0.123 A 
ENDBRANCH   4  19
TORSDOF 5
