REMARK  5 active torsions:
REMARK  status: ('A' for Active; 'I' for Inactive)
REMARK       I    between atoms: C_2  and  N_3 
REMARK    1  A    between atoms: C_2  and  C_18 
REMARK    2  A    between atoms: N_3  and  C_4 
REMARK    3  A    between atoms: C_4  and  C_5 
REMARK    4  A    between atoms: C_5  and  N_6 
REMARK    5  A    between atoms: N_9  and  C_10 
ROOT
ATOM      1  O   UNL d   1       9.979   5.593 -13.376  0.00  0.00    -0.266 OA
ATOM      2  C   UNL d   1       9.248   4.650 -13.100  0.00  0.00     0.277 C 
ATOM      3  N   UNL d   1       8.466   4.623 -12.008  0.00  0.00    -0.232 NA
ENDROOT
BRANCH   3   4
ATOM      4  C   UNL d   1       8.338   5.687 -11.015  0.00  0.00     0.164 C 
BRANCH   4   5
ATOM      5  C   UNL d   1       9.699   6.083 -10.399  0.00  0.00     0.277 C 
BRANCH   5   6
ATOM      6  N   UNL d   1       9.559   7.018  -9.293  0.00  0.00     0.143 N 
ATOM      7  C   UNL d   1      10.845   7.693  -9.072  0.00  0.00     0.274 C 
ATOM      8  C   UNL d   1      10.731   8.722  -7.933  0.00  0.00     0.137 C 
ATOM      9  N   UNL d   1      10.223   8.077  -6.735  0.00  0.00    -0.344 N 
ATOM     10  C   UNL d   1       9.013   7.284  -6.910  0.00  0.00     0.137 C 
ATOM     11  C   UNL d   1       9.174   6.295  -8.074  0.00  0.00     0.274 C 
BRANCH   9  12
ATOM     12  C   UNL d   1      10.919   8.126  -5.521  0.00  0.00     0.056 A 
ATOM     13  C   UNL d   1      11.202   6.942  -4.813  0.00  0.00     0.017 A 
ATOM     14  C   UNL d   1      11.867   6.997  -3.571  0.00  0.00     0.002 A 
ATOM     15  C   UNL d   1      12.246   8.237  -3.032  0.00  0.00     0.000 A 
ATOM     16  C   UNL d   1      11.957   9.423  -3.725  0.00  0.00     0.002 A 
ATOM     17  C   UNL d   1      11.311   9.369  -4.979  0.00  0.00     0.017 A 
ENDBRANCH   9  12
ENDBRANCH   5   6
ENDBRANCH   4   5
ENDBRANCH   3   4
BRANCH   2  18
ATOM     18  C   UNL d   1       9.219   3.435 -13.977  0.00  0.00     0.083 A 
ATOM     19  C   UNL d   1      10.351   3.035 -14.748  0.00  0.00     0.136 A 
ATOM     20  C   UNL d   1      10.247   1.918 -15.614  0.00  0.00     0.026 A 
ATOM     21  O   UNL d   1      11.543   3.705 -14.658  0.00  0.00    -0.190 OA
ATOM     22  C   UNL d   1       9.031   1.186 -15.691  0.00  0.00     0.008 A 
ATOM     23  C   UNL d   1      11.348   1.519 -16.409  0.00  0.00     0.002 A 
ATOM     24  C   UNL d   1       7.920   1.581 -14.911  0.00  0.00     0.035 A 
ATOM     25  C   UNL d   1       8.945   0.066 -16.547  0.00  0.00     0.001 A 
ATOM     26  C   UNL d   1       8.018   2.707 -14.081  0.00  0.00     0.014 A 
ATOM     27 BR   UNL d   1       6.267   0.626 -14.925  0.00  0.00    -0.049 Br
ATOM     28  C   UNL d   1      10.047  -0.322 -17.328  0.00  0.00     0.000 A 
ATOM     29  C   UNL d   1      11.246   0.407 -17.263  0.00  0.00     0.000 A 
ENDBRANCH   2  18
TORSDOF 5
