REMARK  8 active torsions:
REMARK  status: ('A' for Active; 'I' for Inactive)
REMARK    1  A    between atoms: C_2  and  O_4 
REMARK    2  A    between atoms: O_4  and  C_5 
REMARK    3  A    between atoms: C_5  and  C_6 
REMARK    4  A    between atoms: C_8  and  N_9 
REMARK    5  A    between atoms: C_17  and  O_18 
REMARK    6  A    between atoms: O_18  and  C_19 
REMARK    7  A    between atoms: C_22  and  O_23 
REMARK    8  A    between atoms: O_23  and  C_24 
ROOT
ATOM      1  C   UNL d   1      11.536   3.987 -17.217  0.00  0.00     0.178 C 
ATOM      2  O   UNL d   1      11.664   3.059 -16.142  0.00  0.00    -0.330 OA
ATOM      3  C   UNL d   1      11.235   1.794 -16.552  0.00  0.00     0.257 C 
ATOM      4  C   UNL d   1      11.032   1.845 -18.075  0.00  0.00     0.205 C 
ATOM      5  C   UNL d   1      10.674   3.302 -18.272  0.00  0.00     0.186 C 
ENDROOT
BRANCH   3   6
ATOM      6  N   UNL d   1       9.926   1.504 -15.873  0.00  0.00    -0.172 N 
ATOM      7  C   UNL d   1       9.456   0.174 -15.877  0.00  0.00     0.371 A 
ATOM      8  N   UNL d   1       8.273  -0.001 -15.236  0.00  0.00    -0.151 NA
ATOM      9  O   UNL d   1      10.053  -0.748 -16.414  0.00  0.00    -0.243 OA
ATOM     10  C   UNL d   1       7.557   0.955 -14.615  0.00  0.00     0.304 A 
ATOM     11  C   UNL d   1       8.092   2.337 -14.668  0.00  0.00     0.183 A 
ATOM     12  O   UNL d   1       6.499   0.702 -14.039  0.00  0.00    -0.263 OA
ATOM     13  N   UNL d   1       9.213   2.574 -15.276  0.00  0.00    -0.157 NA
ENDBRANCH   3   6
BRANCH   4  14
ATOM     14  O   UNL d   1      12.244   1.523 -18.741  0.00  0.00    -0.297 OA
BRANCH  14  15
ATOM     15  C   UNL d   1      12.589   0.243 -18.942  0.00  0.00     0.273 C 
ATOM     16  C   UNL d   1      13.917   0.110 -19.665  0.00  0.00     0.106 C 
ATOM     17  O   UNL d   1      11.958  -0.746 -18.590  0.00  0.00    -0.264 OA
ENDBRANCH  14  15
ENDBRANCH   4  14
BRANCH   1  18
ATOM     18  C   UNL d   1      10.876   5.283 -16.715  0.00  0.00     0.184 C 
BRANCH  18  19
ATOM     19  O   UNL d   1      11.815   6.087 -16.018  0.00  0.00    -0.299 OA
BRANCH  19  20
ATOM     20  C   UNL d   1      12.664   6.936 -16.644  0.00  0.00     0.273 C 
ATOM     21  C   UNL d   1      12.579   7.009 -18.177  0.00  0.00     0.106 C 
ATOM     22  O   UNL d   1      13.458   7.641 -16.030  0.00  0.00    -0.264 OA
ENDBRANCH  19  20
ENDBRANCH  18  19
ENDBRANCH   1  18
BRANCH   5  23
ATOM     23  O   UNL d   1      10.930   3.764 -19.596  0.00  0.00    -0.299 OA
BRANCH  23  24
ATOM     24  C   UNL d   1       9.965   3.668 -20.533  0.00  0.00     0.273 C 
ATOM     25  C   UNL d   1      10.412   4.170 -21.902  0.00  0.00     0.106 C 
ATOM     26  O   UNL d   1       8.830   3.226 -20.353  0.00  0.00    -0.264 OA
ENDBRANCH  23  24
ENDBRANCH   5  23
TORSDOF 8
