REMARK  4 active torsions:
REMARK  status: ('A' for Active; 'I' for Inactive)
REMARK       I    between atoms: N_11  and  C_12 
REMARK    1  A    between atoms: C_12  and  C_14 
REMARK    2  A    between atoms: C_14  and  N_15 
REMARK    3  A    between atoms: N_18  and  C_19 
REMARK    4  A    between atoms: C_19  and  C_20 
ROOT
ATOM      1  N   UNL d   1       9.181   5.919 -10.350  0.00  0.00     0.151 N 
ATOM      2  C   UNL d   1       9.197   5.528  -8.935  0.00  0.00     0.286 C 
ATOM      3  C   UNL d   1       9.080   6.753  -8.009  0.00  0.00     0.286 C 
ATOM      4  N   UNL d   1      10.187   7.695  -8.231  0.00  0.00     0.146 N 
ATOM      5  C   UNL d   1      10.146   8.106  -9.633  0.00  0.00     0.286 C 
ATOM      6  C   UNL d   1      10.264   6.899 -10.566  0.00  0.00     0.286 C 
ENDROOT
BRANCH   1   7
ATOM      7  C   UNL d   1       9.209   4.754 -11.256  0.00  0.00     0.337 C 
BRANCH   7   8
ATOM      8  C   UNL d   1       8.960   5.051 -12.749  0.00  0.00     0.271 C 
ATOM      9  N   UNL d   1       8.809   3.997 -13.572  0.00  0.00    -0.301 N 
ATOM     10  C   UNL d   1       9.703   3.652 -14.690  0.00  0.00     0.075 C 
ATOM     11  C   UNL d   1       7.627   3.241 -13.637  0.00  0.00     0.058 A 
ATOM     12  C   UNL d   1      11.119   3.367 -14.154  0.00  0.00     0.023 C 
ATOM     13  C   UNL d   1       9.783   4.775 -15.740  0.00  0.00     0.023 C 
ATOM     14  C   UNL d   1       9.059   2.384 -15.328  0.00  0.00     0.049 C 
ATOM     15  C   UNL d   1       7.745   2.261 -14.606  0.00  0.00    -0.004 A 
ATOM     16  C   UNL d   1       6.748   1.301 -14.809  0.00  0.00    -0.003 A 
ATOM     17  C   UNL d   1       5.605   1.352 -13.984  0.00  0.00    -0.000 A 
ATOM     18  C   UNL d   1       5.455   2.391 -13.032  0.00  0.00     0.002 A 
ATOM     19  C   UNL d   1       6.447   3.365 -12.852  0.00  0.00     0.017 A 
ATOM     20  O   UNL d   1       8.858   6.194 -13.168  0.00  0.00    -0.270 OA
ENDBRANCH   7   8
ENDBRANCH   1   7
BRANCH   4  21
ATOM     21  C   UNL d   1      10.126   8.853  -7.349  0.00  0.00     0.277 C 
BRANCH  21  22
ATOM     22  C   UNL d   1      10.741   8.625  -5.975  0.00  0.00     0.011 A 
ATOM     23  C   UNL d   1      10.977   7.317  -5.472  0.00  0.00    -0.002 A 
ATOM     24  C   UNL d   1      11.510   7.146  -4.187  0.00  0.00     0.011 A 
ATOM     25  C   UNL d   1      11.873   8.265  -3.417  0.00  0.00     0.058 A 
ATOM     26  C   UNL d   1      11.679   9.562  -3.924  0.00  0.00     0.011 A 
ATOM     27 CL   UNL d   1      12.574   8.050  -1.863  0.00  0.00    -0.082 Cl
ATOM     28  C   UNL d   1      11.107   9.753  -5.198  0.00  0.00    -0.002 A 
ENDBRANCH  21  22
ENDBRANCH   4  21
TORSDOF 4
