REMARK  2 active torsions:
REMARK  status: ('A' for Active; 'I' for Inactive)
REMARK    1  A    between atoms: C_2  and  C_3 
REMARK    2  A    between atoms: C_3  and  N_4 
ROOT
ATOM      1  N   UNL d   1      11.422   1.133 -16.952  0.00  0.00     0.140 N 
ATOM      2  C   UNL d   1      11.804   2.553 -17.038  0.00  0.00     0.251 C 
ATOM      3  C   UNL d   1      10.904   3.313 -16.046  0.00  0.00     0.042 C 
ATOM      4  C   UNL d   1      10.139   2.197 -15.352  0.00  0.00     0.055 C 
ATOM      5  C   UNL d   1       8.785   2.515 -14.728  0.00  0.00    -0.024 A 
ATOM      6  C   UNL d   1       8.540   3.778 -14.145  0.00  0.00    -0.004 A 
ATOM      7  C   UNL d   1       7.302   4.038 -13.530  0.00  0.00     0.000 A 
ATOM      8  C   UNL d   1       6.308   3.046 -13.490  0.00  0.00     0.010 A 
ATOM      9  C   UNL d   1       6.542   1.773 -14.054  0.00  0.00     0.064 A 
ATOM     10  C   UNL d   1       5.492   0.762 -13.954  0.00  0.00     0.101 C 
ATOM     11  N   UNL d   1       4.658  -0.036 -13.874  0.00  0.00    -0.191 NA
ATOM     12  C   UNL d   1       7.788   1.502 -14.685  0.00  0.00    -0.016 A 
ATOM     13  C   UNL d   1       8.046   0.127 -15.327  0.00  0.00     0.029 C 
ATOM     14  C   UNL d   1       9.471  -0.122 -15.875  0.00  0.00     0.038 C 
ATOM     15  C   UNL d   1      10.042   1.168 -16.463  0.00  0.00     0.224 C 
ENDROOT
BRANCH   1  16
ATOM     16  C   UNL d   1      11.587   0.420 -18.221  0.00  0.00     0.276 C 
BRANCH  16  17
ATOM     17  C   UNL d   1      13.012   0.442 -18.763  0.00  0.00     0.009 C 
ATOM     18  C   UNL d   1      13.663  -0.630 -19.238  0.00  0.00    -0.003 C 
ENDBRANCH  16  17
ENDBRANCH   1  16
TORSDOF 2
