REMARK  5 active torsions:
REMARK  status: ('A' for Active; 'I' for Inactive)
REMARK    1  A    between atoms: C_8  and  C_9 
REMARK    2  A    between atoms: C_9  and  C_11 
REMARK    3  A    between atoms: C_11  and  C_12 
REMARK    4  A    between atoms: C_12  and  C_13 
REMARK    5  A    between atoms: C_13  and  N_14 
ROOT
ATOM      1  N   UNL d   1       9.805   3.858 -15.453  0.00  0.00     0.137 N 
ATOM      2  C   UNL d   1       9.026   2.746 -16.013  0.00  0.00     0.252 C 
ATOM      3  C   UNL d   1       9.754   2.146 -17.218  0.00  0.00     0.052 C 
ATOM      4  C   UNL d   1      11.126   1.580 -16.810  0.00  0.00     0.070 C 
ATOM      5  C   UNL d   1      11.878   2.592 -15.956  0.00  0.00     0.072 C 
ATOM      6  C   UNL d   1      11.043   3.335 -14.898  0.00  0.00     0.256 C 
ATOM      7  C   UNL d   1      12.578   3.422 -16.988  0.00  0.00    -0.008 A 
ATOM      8  C   UNL d   1      13.143   4.706 -16.950  0.00  0.00    -0.003 A 
ATOM      9  C   UNL d   1      13.791   5.174 -18.110  0.00  0.00     0.000 A 
ATOM     10  C   UNL d   1      13.898   4.355 -19.262  0.00  0.00     0.007 A 
ATOM     11  C   UNL d   1      13.365   3.043 -19.323  0.00  0.00     0.035 A 
ATOM     12  C   UNL d   1      12.684   2.643 -18.149  0.00  0.00     0.038 A 
ATOM     13  N   UNL d   1      11.996   1.399 -17.962  0.00  0.00    -0.253 NA
ATOM     14  C   UNL d   1      11.473   0.715 -19.139  0.00  0.00     0.077 C 
ATOM     15  C   UNL d   1      12.480  -0.254 -19.773  0.00  0.00     0.030 C 
ATOM     16  C   UNL d   1      13.833   0.373 -20.114  0.00  0.00     0.064 C 
ATOM     17  S   UNL d   1      13.652   2.050 -20.760  0.00  0.00    -0.113 SA
ENDROOT
BRANCH   1  18
ATOM     18  C   UNL d   1       9.057   4.614 -14.466  0.00  0.00     0.251 C 
BRANCH  18  19
ATOM     19  C   UNL d   1       8.457   3.745 -13.320  0.00  0.00     0.043 C 
BRANCH  19  20
ATOM     20  C   UNL d   1       7.367   4.436 -12.470  0.00  0.00     0.071 C 
BRANCH  20  21
ATOM     21  C   UNL d   1       7.761   5.870 -12.049  0.00  0.00     0.174 C 
ATOM     22  O   UNL d   1       7.325   6.806 -12.723  0.00  0.00    -0.291 OA
BRANCH  21  23
ATOM     23  C   UNL d   1       8.679   6.034 -10.895  0.00  0.00     0.048 A 
ATOM     24  C   UNL d   1       9.470   7.211 -10.710  0.00  0.00     0.075 A 
ATOM     25  N   UNL d   1       9.479   8.263 -11.636  0.00  0.00    -0.100 NA
ATOM     26  C   UNL d   1      10.260   7.365  -9.538  0.00  0.00     0.044 A 
ATOM     27  C   UNL d   1      10.257   6.361  -8.552  0.00  0.00     0.141 A 
ATOM     28  F   UNL d   1      10.995   6.515  -7.432  0.00  0.00    -0.204 F 
ATOM     29  C   UNL d   1       9.482   5.204  -8.733  0.00  0.00     0.030 A 
ATOM     30  C   UNL d   1       8.693   5.043  -9.888  0.00  0.00     0.006 A 
ENDBRANCH  21  23
ENDBRANCH  20  21
ENDBRANCH  19  20
ENDBRANCH  18  19
ENDBRANCH   1  18
TORSDOF 5
