REMARK  6 active torsions:
REMARK  status: ('A' for Active; 'I' for Inactive)
REMARK    1  A    between atoms: C_2  and  N_3 
REMARK    2  A    between atoms: C_7  and  C_8 
REMARK    3  A    between atoms: C_8  and  N_9 
REMARK       I    between atoms: N_9  and  C_10 
REMARK    4  A    between atoms: C_10  and  C_12 
REMARK    5  A    between atoms: C_14  and  O_15 
REMARK    6  A    between atoms: C_20  and  O_21 
ROOT
ATOM      1  C   UNL d   1       8.706   3.703 -13.444  0.00  0.00     0.084 C 
ATOM      2  C   UNL d   1       7.350   3.349 -13.383  0.00  0.00     0.031 C 
ATOM      3  C   UNL d   1       6.865   2.210 -14.067  0.00  0.00     0.097 C 
ATOM      4  C   UNL d   1       7.728   1.539 -14.949  0.00  0.00     0.054 C 
ATOM      5  C   UNL d   1       9.075   1.935 -15.076  0.00  0.00     0.155 C 
ATOM      6  O   UNL d   1       9.918   1.242 -15.897  0.00  0.00    -0.188 OA
ATOM      7  C   UNL d   1       9.582   3.021 -14.324  0.00  0.00     0.124 C 
ENDROOT
BRANCH   1   8
ATOM      8  C   UNL d   1       9.147   4.831 -12.569  0.00  0.00     0.277 C 
ATOM      9  N   UNL d   1       8.531   4.940 -11.373  0.00  0.00    -0.232 NA
ATOM     10  O   UNL d   1       9.974   5.622 -12.989  0.00  0.00    -0.266 OA
BRANCH   9  11
ATOM     11  C   UNL d   1       8.551   6.141 -10.558  0.00  0.00     0.162 C 
BRANCH  11  12
ATOM     12  C   UNL d   1       9.827   6.231  -9.715  0.00  0.00     0.243 C 
ATOM     13  N   UNL d   1      10.010   7.511  -9.034  0.00  0.00     0.137 N 
ATOM     14  C   UNL d   1      11.058   7.231  -8.068  0.00  0.00     0.250 C 
ATOM     15  C   UNL d   1      10.685   5.883  -7.498  0.00  0.00     0.037 C 
ATOM     16  C   UNL d   1       9.862   5.200  -8.584  0.00  0.00     0.037 C 
BRANCH  13  17
ATOM     17  C   UNL d   1      10.349   8.582  -9.980  0.00  0.00     0.250 C 
ATOM     18  C   UNL d   1      11.318   9.619  -9.396  0.00  0.00     0.037 C 
ENDBRANCH  13  17
ENDBRANCH  11  12
ENDBRANCH   9  11
ENDBRANCH   1   8
BRANCH   7  19
ATOM     19  O   UNL d   1      10.899   3.388 -14.458  0.00  0.00    -0.326 OA
ATOM     20  C   UNL d   1      11.143   4.165 -15.624  0.00  0.00     0.181 C 
ENDBRANCH   7  19
BRANCH   3  21
ATOM     21  O   UNL d   1       5.617   1.683 -13.820  0.00  0.00    -0.328 OA
ATOM     22  C   UNL d   1       4.821   2.325 -12.840  0.00  0.00     0.181 C 
ENDBRANCH   3  21
TORSDOF 6
