REMARK  4 active torsions:
REMARK  status: ('A' for Active; 'I' for Inactive)
REMARK    1  A    between atoms: C_6  and  C_7 
REMARK       I    between atoms: C_7  and  N_9 
REMARK    2  A    between atoms: N_9  and  C_10 
REMARK    3  A    between atoms: C_10  and  N_11 
REMARK    4  A    between atoms: N_14  and  C_15 
ROOT
ATOM      1  N   UNL d   1       9.851   7.086  -9.500  0.00  0.00     0.166 N 
ATOM      2  C   UNL d   1      10.530   6.146  -8.609  0.00  0.00     0.277 C 
ATOM      3  C   UNL d   1      11.640   6.859  -7.817  0.00  0.00     0.137 C 
ATOM      4  N   UNL d   1      11.078   7.935  -7.037  0.00  0.00    -0.344 N 
ATOM      5  C   UNL d   1      10.287   8.858  -7.837  0.00  0.00     0.137 C 
ATOM      6  C   UNL d   1       9.237   8.104  -8.646  0.00  0.00     0.277 C 
ENDROOT
BRANCH   1   7
ATOM      7  C   UNL d   1       8.804   6.390 -10.253  0.00  0.00     0.380 C 
BRANCH   7   8
ATOM      8  N   UNL d   1       9.253   5.370 -11.185  0.00  0.00    -0.200 NA
ATOM      9  C   UNL d   1       8.463   4.804 -12.111  0.00  0.00     0.277 C 
ATOM     10  O   UNL d   1       7.237   4.885 -12.095  0.00  0.00    -0.266 OA
BRANCH   9  11
ATOM     11  C   UNL d   1       9.178   4.051 -13.196  0.00  0.00     0.057 A 
ATOM     12  C   UNL d   1       8.502   3.057 -13.934  0.00  0.00     0.005 A 
ATOM     13  C   UNL d   1       9.161   2.361 -14.966  0.00  0.00    -0.000 A 
ATOM     14  C   UNL d   1      10.493   2.678 -15.296  0.00  0.00    -0.004 A 
ATOM     15  C   UNL d   1      11.169   3.689 -14.585  0.00  0.00    -0.022 A 
ATOM     16  C   UNL d   1      12.596   4.055 -14.933  0.00  0.00     0.031 C 
ATOM     17  C   UNL d   1      10.506   4.375 -13.551  0.00  0.00     0.001 A 
ENDBRANCH   9  11
ENDBRANCH   7   8
ENDBRANCH   1   7
BRANCH   4  18
ATOM     18  C   UNL d   1      11.356   8.084  -5.663  0.00  0.00     0.067 A 
ATOM     19  C   UNL d   1      11.577   9.344  -5.079  0.00  0.00     0.073 A 
ATOM     20  C   UNL d   1      11.801   9.429  -3.680  0.00  0.00     0.013 A 
ATOM     21 CL   UNL d   1      11.643  10.774  -6.041  0.00  0.00    -0.081 Cl
ATOM     22  C   UNL d   1      11.867   8.268  -2.888  0.00  0.00     0.001 A 
ATOM     23  C   UNL d   1      11.721   7.010  -3.484  0.00  0.00     0.002 A 
ATOM     24  C   UNL d   1      11.453   6.927  -4.864  0.00  0.00     0.018 A 
ENDBRANCH   4  18
TORSDOF 4
