REMARK  4 active torsions:
REMARK  status: ('A' for Active; 'I' for Inactive)
REMARK    1  A    between atoms: C_8  and  C_9 
REMARK    2  A    between atoms: C_9  and  C_10 
REMARK    3  A    between atoms: C_10  and  N_11 
REMARK    4  A    between atoms: N_14  and  C_15 
ROOT
ATOM      1  N   UNL d   1       8.841   3.709 -14.355  0.00  0.00     0.141 N 
ATOM      2  C   UNL d   1       9.998   3.511 -15.235  0.00  0.00     0.274 C 
ATOM      3  C   UNL d   1       9.545   3.146 -16.662  0.00  0.00     0.138 C 
ATOM      4  N   UNL d   1       8.673   1.978 -16.643  0.00  0.00    -0.329 N 
ATOM      5  C   UNL d   1       7.571   2.062 -15.697  0.00  0.00     0.138 C 
ATOM      6  C   UNL d   1       8.079   2.459 -14.303  0.00  0.00     0.274 C 
ENDROOT
BRANCH   1   7
ATOM      7  C   UNL d   1       9.287   4.065 -13.008  0.00  0.00     0.255 C 
BRANCH   7   8
ATOM      8  C   UNL d   1       8.359   5.118 -12.384  0.00  0.00     0.062 C 
BRANCH   8   9
ATOM      9  C   UNL d   1       8.850   5.539 -11.011  0.00  0.00    -0.020 A 
ATOM     10  C   UNL d   1       8.331   4.915  -9.851  0.00  0.00    -0.005 A 
ATOM     11  C   UNL d   1       8.768   5.305  -8.566  0.00  0.00    -0.005 A 
ATOM     12  C   UNL d   1       9.752   6.303  -8.466  0.00  0.00    -0.024 A 
ATOM     13  C   UNL d   1      10.355   6.875  -7.213  0.00  0.00     0.029 C 
ATOM     14  C   UNL d   1      10.268   6.911  -9.601  0.00  0.00     0.010 A 
ATOM     15  C   UNL d   1      11.483   7.802  -7.740  0.00  0.00     0.048 C 
ATOM     16  C   UNL d   1      11.282   7.962  -9.264  0.00  0.00     0.324 C 
ATOM     17  N   UNL d   1      10.794   9.281  -9.580  0.00  0.00     0.621 N 
ATOM     18  C   UNL d   1       9.824   6.554 -10.882  0.00  0.00    -0.007 A 
ENDBRANCH   8   9
ENDBRANCH   7   8
ENDBRANCH   1   7
BRANCH   4  19
ATOM     19  C   UNL d   1       8.919   0.824 -17.416  0.00  0.00     0.148 A 
ATOM     20  C   UNL d   1       7.844   0.046 -18.020  0.00  0.00     0.042 A 
ATOM     21  C   UNL d   1       8.404  -1.041 -18.752  0.00  0.00     0.050 A 
ATOM     22  C   UNL d   1       6.431   0.170 -18.047  0.00  0.00     0.004 A 
ATOM     23  S   UNL d   1      10.146  -0.956 -18.581  0.00  0.00     0.015 SA
ATOM     24  C   UNL d   1       7.604  -1.958 -19.463  0.00  0.00     0.008 A 
ATOM     25  N   UNL d   1      10.155   0.430 -17.643  0.00  0.00    -0.192 NA
ATOM     26  C   UNL d   1       6.204  -1.808 -19.455  0.00  0.00     0.001 A 
ATOM     27  C   UNL d   1       5.622  -0.747 -18.742  0.00  0.00     0.000 A 
ENDBRANCH   4  19
TORSDOF 4
