REMARK  6 active torsions:
REMARK  status: ('A' for Active; 'I' for Inactive)
REMARK       I    between atoms: C_2  and  N_3 
REMARK    1  A    between atoms: C_2  and  C_27 
REMARK    2  A    between atoms: N_3  and  C_4 
REMARK    3  A    between atoms: C_7  and  C_8 
REMARK    4  A    between atoms: C_8  and  C_9 
REMARK    5  A    between atoms: C_9  and  N_10 
REMARK    6  A    between atoms: C_13  and  C_14 
ROOT
ATOM      1  N   UNL d   1       9.198   6.348  -9.383  0.00  0.00     0.137 N 
ATOM      2  C   UNL d   1      10.662   6.366  -9.246  0.00  0.00     0.251 C 
ATOM      3  C   UNL d   1      11.114   7.335  -8.168  0.00  0.00     0.040 C 
ATOM      4  C   UNL d   1      10.499   6.963  -6.827  0.00  0.00     0.026 C 
ATOM      5  C   UNL d   1       8.975   6.816  -6.974  0.00  0.00     0.040 C 
ATOM      6  C   UNL d   1       8.624   5.862  -8.130  0.00  0.00     0.251 C 
ENDROOT
BRANCH   1   7
ATOM      7  C   UNL d   1       8.754   5.458 -10.457  0.00  0.00     0.250 C 
BRANCH   7   8
ATOM      8  C   UNL d   1       9.473   5.705 -11.801  0.00  0.00     0.035 C 
BRANCH   8   9
ATOM      9  C   UNL d   1       9.566   4.447 -12.684  0.00  0.00     0.002 C 
ATOM     10  C   UNL d   1       8.207   4.151 -13.324  0.00  0.00     0.002 C 
ATOM     11  C   UNL d   1       8.293   2.960 -14.282  0.00  0.00     0.024 C 
ATOM     12  C   UNL d   1       9.383   3.189 -15.348  0.00  0.00     0.106 C 
ATOM     13  C   UNL d   1      10.752   3.436 -14.695  0.00  0.00     0.024 C 
ATOM     14  C   UNL d   1      10.671   4.627 -13.739  0.00  0.00     0.002 C 
BRANCH  12  15
ATOM     15  N   UNL d   1       9.478   2.030 -16.216  0.00  0.00    -0.240 NA
ATOM     16  C   UNL d   1       8.936   1.909 -17.433  0.00  0.00     0.251 C 
ATOM     17  O   UNL d   1       8.261   2.788 -17.968  0.00  0.00    -0.271 OA
BRANCH  16  18
ATOM     18  C   UNL d   1       9.203   0.599 -18.170  0.00  0.00     0.081 C 
ATOM     19  C   UNL d   1      10.681   0.167 -18.235  0.00  0.00     0.009 C 
ATOM     20  C   UNL d   1      10.205  -1.262 -17.952  0.00  0.00     0.001 C 
ATOM     21  C   UNL d   1       8.918  -0.679 -17.364  0.00  0.00     0.009 C 
ENDBRANCH  16  18
ENDBRANCH  12  15
ENDBRANCH   8   9
ENDBRANCH   7   8
ENDBRANCH   1   7
BRANCH   4  22
ATOM     22  C   UNL d   1      10.878   7.991  -5.774  0.00  0.00    -0.024 A 
ATOM     23  C   UNL d   1      11.485   7.639  -4.557  0.00  0.00    -0.001 A 
ATOM     24  C   UNL d   1      11.827   8.574  -3.590  0.00  0.00     0.090 A 
ATOM     25  C   UNL d   1      11.861   6.293  -4.074  0.00  0.00     0.061 A 
ATOM     26  C   UNL d   1      11.544   9.928  -3.792  0.00  0.00     0.024 A 
ATOM     27  O   UNL d   1      12.400   8.020  -2.476  0.00  0.00    -0.331 OA
ATOM     28  C   UNL d   1      10.966  10.318  -5.022  0.00  0.00     0.002 A 
ATOM     29  C   UNL d   1      10.633   9.362  -6.001  0.00  0.00    -0.004 A 
ATOM     30  C   UNL d   1      12.364   6.593  -2.642  0.00  0.00     0.154 A 
ENDBRANCH   4  22
TORSDOF 6
