REMARK  8 active torsions:
REMARK  status: ('A' for Active; 'I' for Inactive)
REMARK    1  A    between atoms: C_2  and  O_3 
REMARK    2  A    between atoms: O_3  and  C_4 
REMARK    3  A    between atoms: C_4  and  O_6 
REMARK    4  A    between atoms: O_6  and  C_7 
REMARK    5  A    between atoms: C_7  and  O_9 
REMARK    6  A    between atoms: O_9  and  C_10 
REMARK    7  A    between atoms: C_11  and  C_12 
REMARK       I    between atoms: C_12  and  N_14 
REMARK    8  A    between atoms: N_14  and  C_15 
ROOT
ATOM      1  C   UNL d   1       8.962   4.241 -13.476  0.00  0.00     0.118 C 
ATOM      2  C   UNL d   1       8.291   5.214 -12.797  0.00  0.00     0.150 C 
ATOM      3  N   UNL d   1       6.877   5.295 -12.835  0.00  0.00    -0.245 N 
ATOM      4  C   UNL d   1       6.145   6.472 -12.329  0.00  0.00     0.144 C 
ATOM      5  S   UNL d   1       6.023   3.800 -12.789  0.00  0.00     0.268 S 
ATOM      6  O   UNL d   1       6.259   3.224 -11.477  0.00  0.00    -0.200 OA
ATOM      7  O   UNL d   1       4.649   4.012 -13.250  0.00  0.00    -0.200 OA
ATOM      8  C   UNL d   1       6.928   2.848 -13.995  0.00  0.00     0.106 A 
ATOM      9  C   UNL d   1       6.269   1.786 -14.648  0.00  0.00     0.013 A 
ATOM     10  C   UNL d   1       6.937   1.057 -15.652  0.00  0.00     0.001 A 
ATOM     11  C   UNL d   1       8.288   1.343 -15.909  0.00  0.00     0.000 A 
ATOM     12  C   UNL d   1       8.985   2.307 -15.155  0.00  0.00     0.003 A 
ATOM     13  C   UNL d   1       8.292   3.127 -14.218  0.00  0.00     0.036 A 
ENDROOT
BRANCH   1  14
ATOM     14  O   UNL d   1      10.335   4.168 -13.424  0.00  0.00    -0.304 OA
BRANCH  14  15
ATOM     15  C   UNL d   1      11.094   4.818 -14.394  0.00  0.00     0.249 C 
ATOM     16  C   UNL d   1      12.556   4.325 -14.207  0.00  0.00     0.068 C 
BRANCH  15  17
ATOM     17  O   UNL d   1      10.655   4.506 -15.672  0.00  0.00    -0.253 OA
BRANCH  17  18
ATOM     18  C   UNL d   1      11.065   5.295 -16.687  0.00  0.00     0.410 C 
ATOM     19  O   UNL d   1      11.830   6.304 -16.637  0.00  0.00    -0.229 OA
BRANCH  18  20
ATOM     20  O   UNL d   1      10.493   4.819 -17.770  0.00  0.00    -0.279 OA
BRANCH  20  21
ATOM     21  C   UNL d   1      10.505   5.510 -18.992  0.00  0.00     0.154 C 
ATOM     22  C   UNL d   1       9.341   6.507 -19.014  0.00  0.00     0.035 C 
ENDBRANCH  20  21
ENDBRANCH  18  20
ENDBRANCH  17  18
ENDBRANCH  15  17
ENDBRANCH  14  15
ENDBRANCH   1  14
BRANCH   2  23
ATOM     23  C   UNL d   1       9.037   6.259 -12.102  0.00  0.00     0.299 C 
ATOM     24  O   UNL d   1       9.410   7.274 -12.665  0.00  0.00    -0.263 OA
ATOM     25  N   UNL d   1       9.229   5.996 -10.787  0.00  0.00    -0.188 NA
BRANCH  25  26
ATOM     26  C   UNL d   1       9.833   6.865  -9.832  0.00  0.00     0.166 A 
ATOM     27  N   UNL d   1      10.361   8.066 -10.164  0.00  0.00    -0.225 NA
ATOM     28  C   UNL d   1      10.875   8.865  -9.210  0.00  0.00     0.101 A 
ATOM     29  C   UNL d   1      10.902   8.512  -7.846  0.00  0.00     0.021 A 
ATOM     30  C   UNL d   1      10.377   7.258  -7.487  0.00  0.00     0.005 A 
ATOM     31  C   UNL d   1       9.843   6.418  -8.485  0.00  0.00     0.039 A 
ENDBRANCH  25  26
ENDBRANCH   2  23
TORSDOF 8
