REMARK  7 active torsions:
REMARK  status: ('A' for Active; 'I' for Inactive)
REMARK    1  A    between atoms: C_2  and  C_5 
REMARK       I    between atoms: C_5  and  N_7 
REMARK    2  A    between atoms: N_7  and  C_8 
REMARK    3  A    between atoms: C_8  and  C_9 
REMARK    4  A    between atoms: C_9  and  C_10 
REMARK    5  A    between atoms: C_10  and  C_11 
REMARK    6  A    between atoms: C_11  and  N_12 
REMARK    7  A    between atoms: N_15  and  C_16 
ROOT
ATOM      1  N   UNL d   1       9.858   7.153  -9.013  0.00  0.00     0.141 N 
ATOM      2  C   UNL d   1      11.098   7.878  -8.720  0.00  0.00     0.274 C 
ATOM      3  C   UNL d   1      10.910   8.752  -7.488  0.00  0.00     0.137 C 
ATOM      4  N   UNL d   1      10.475   7.943  -6.364  0.00  0.00    -0.344 N 
ATOM      5  C   UNL d   1       9.303   7.118  -6.598  0.00  0.00     0.137 C 
ATOM      6  C   UNL d   1       9.515   6.288  -7.871  0.00  0.00     0.274 C 
ENDROOT
BRANCH   1   7
ATOM      7  C   UNL d   1      10.040   6.352 -10.201  0.00  0.00     0.251 C 
BRANCH   7   8
ATOM      8  C   UNL d   1       8.695   5.950 -10.837  0.00  0.00     0.037 C 
BRANCH   8   9
ATOM      9  C   UNL d   1       8.910   4.918 -11.938  0.00  0.00     0.029 C 
BRANCH   9  10
ATOM     10  C   UNL d   1       7.624   4.559 -12.717  0.00  0.00     0.129 C 
BRANCH  10  11
ATOM     11  N   UNL d   1       7.800   3.441 -13.649  0.00  0.00    -0.238 NA
ATOM     12  C   UNL d   1       8.812   3.240 -14.515  0.00  0.00     0.250 C 
ATOM     13  O   UNL d   1       9.658   4.100 -14.759  0.00  0.00    -0.271 OA
BRANCH  12  14
ATOM     14  C   UNL d   1       8.898   1.878 -15.245  0.00  0.00     0.073 C 
ATOM     15  C   UNL d   1      10.342   1.334 -15.105  0.00  0.00     0.009 C 
ATOM     16  C   UNL d   1       8.587   2.124 -16.731  0.00  0.00     0.009 C 
ATOM     17  C   UNL d   1       7.916   0.819 -14.684  0.00  0.00     0.009 C 
ENDBRANCH  12  14
ENDBRANCH  10  11
ENDBRANCH   9  10
ENDBRANCH   8   9
ENDBRANCH   7   8
ENDBRANCH   1   7
BRANCH   4  18
ATOM     18  C   UNL d   1      11.132   7.990  -5.113  0.00  0.00     0.067 A 
ATOM     19  C   UNL d   1      11.463   9.212  -4.486  0.00  0.00     0.073 A 
ATOM     20  C   UNL d   1      12.092   9.227  -3.233  0.00  0.00     0.013 A 
ATOM     21 CL   UNL d   1      11.015  10.715  -5.204  0.00  0.00    -0.081 Cl
ATOM     22  C   UNL d   1      12.425   8.028  -2.585  0.00  0.00     0.001 A 
ATOM     23  C   UNL d   1      12.104   6.806  -3.196  0.00  0.00     0.002 A 
ATOM     24  C   UNL d   1      11.458   6.788  -4.444  0.00  0.00     0.018 A 
ENDBRANCH   4  18
TORSDOF 7
