REMARK  5 active torsions:
REMARK  status: ('A' for Active; 'I' for Inactive)
REMARK    1  A    between atoms: N_2  and  C_4 
REMARK    2  A    between atoms: C_4  and  C_5 
REMARK    3  A    between atoms: C_5  and  S_6 
REMARK    4  A    between atoms: S_6  and  C_7 
REMARK    5  A    between atoms: C_11  and  C_12 
ROOT
ATOM      1  C   UNL d   1       7.135   4.168 -13.061  0.00  0.00     0.107 A 
ATOM      2  C   UNL d   1       7.982   3.617 -14.034  0.00  0.00     0.025 A 
ATOM      3  C   UNL d   1       9.360   3.807 -13.872  0.00  0.00     0.004 A 
ATOM      4  C   UNL d   1       9.803   4.558 -12.765  0.00  0.00     0.019 A 
ATOM      5  C   UNL d   1       8.866   5.063 -11.842  0.00  0.00     0.082 A 
ATOM      6  N   UNL d   1       7.545   4.868 -11.985  0.00  0.00    -0.239 NA
ENDROOT
BRANCH   1   7
ATOM      7  S   UNL d   1       5.413   4.018 -13.202  0.00  0.00    -0.093 SA
BRANCH   7   8
ATOM      8  C   UNL d   1       5.035   2.303 -12.806  0.00  0.00     0.099 C 
BRANCH   8   9
ATOM      9  C   UNL d   1       5.648   1.288 -13.801  0.00  0.00     0.262 C 
BRANCH   9  10
ATOM     10  N   UNL d   1       5.101  -0.064 -13.634  0.00  0.00     0.142 N 
ATOM     11  C   UNL d   1       5.955  -0.999 -14.356  0.00  0.00     0.285 C 
ATOM     12  C   UNL d   1       3.756  -0.174 -14.187  0.00  0.00     0.285 C 
ENDBRANCH   9  10
ENDBRANCH   8   9
ENDBRANCH   7   8
ENDBRANCH   1   7
BRANCH   5  13
ATOM     13  C   UNL d   1       9.264   5.833 -10.651  0.00  0.00     0.018 A 
ATOM     14  C   UNL d   1       9.060   5.314  -9.358  0.00  0.00     0.002 A 
ATOM     15  C   UNL d   1       9.457   6.046  -8.222  0.00  0.00     0.000 A 
ATOM     16  C   UNL d   1      10.050   7.311  -8.368  0.00  0.00     0.000 A 
ATOM     17  C   UNL d   1      10.254   7.844  -9.652  0.00  0.00     0.000 A 
ATOM     18  C   UNL d   1       9.848   7.109 -10.786  0.00  0.00     0.002 A 
ENDBRANCH   5  13
TORSDOF 5
