REMARK  2 active torsions:
REMARK  status: ('A' for Active; 'I' for Inactive)
REMARK    1  A    between atoms: C_17  and  N_18 
REMARK    2  A    between atoms: N_18  and  S_19 
ROOT
ATOM      1  C   UNL d   1       5.189   2.803 -12.668  0.00  0.00     0.121 C 
ATOM      2  N   UNL d   1       5.876   3.346 -13.851  0.00  0.00    -0.368 N 
ATOM      3  C   UNL d   1       6.326   2.291 -14.778  0.00  0.00     0.102 C 
ATOM      4  C   UNL d   1       7.516   1.440 -14.329  0.00  0.00     0.050 C 
ATOM      5  C   UNL d   1       8.842   2.201 -14.467  0.00  0.00    -0.023 A 
ATOM      6  C   UNL d   1       9.790   1.662 -15.364  0.00  0.00     0.009 A 
ATOM      7  C   UNL d   1      10.972   2.351 -15.692  0.00  0.00     0.083 A 
ATOM      8 CL   UNL d   1      11.980   1.713 -16.942  0.00  0.00    -0.080 Cl
ATOM      9  C   UNL d   1      11.255   3.585 -15.067  0.00  0.00     0.141 A 
ATOM     10  O   UNL d   1      12.407   4.266 -15.361  0.00  0.00    -0.189 OA
ATOM     11  C   UNL d   1      10.310   4.133 -14.164  0.00  0.00     0.024 A 
ATOM     12  C   UNL d   1       9.101   3.454 -13.848  0.00  0.00    -0.018 A 
ATOM     13  C   UNL d   1       8.081   4.082 -12.869  0.00  0.00     0.064 C 
ATOM     14  C   UNL d   1       8.670   5.211 -11.992  0.00  0.00    -0.021 C 
ATOM     15  C   UNL d   1       9.548   4.872 -10.970  0.00  0.00    -0.003 C 
ATOM     16  C   UNL d   1      10.095   5.859 -10.148  0.00  0.00     0.020 C 
ATOM     17  C   UNL d   1       9.877   7.237 -10.389  0.00  0.00     0.093 C 
ATOM     18  C   UNL d   1       9.026   7.595 -11.439  0.00  0.00     0.015 C 
ATOM     19  C   UNL d   1       8.288   6.557 -12.114  0.00  0.00    -0.024 C 
ATOM     20  C   UNL d   1       6.995   6.895 -12.816  0.00  0.00     0.028 C 
ATOM     21  C   UNL d   1       6.051   5.676 -12.876  0.00  0.00     0.027 C 
ATOM     22  C   UNL d   1       6.776   4.482 -13.576  0.00  0.00     0.085 C 
ENDROOT
BRANCH  17  23
ATOM     23  N   UNL d   1      10.447   8.203  -9.559  0.00  0.00    -0.162 NA
BRANCH  23  24
ATOM     24  S   UNL d   1      10.589   8.177  -7.816  0.00  0.00     0.266 S 
ATOM     25  C   UNL d   1       8.864   8.006  -7.201  0.00  0.00     0.165 C 
ATOM     26  O   UNL d   1      11.347   6.976  -7.446  0.00  0.00    -0.203 OA
ATOM     27  O   UNL d   1      11.086   9.507  -7.444  0.00  0.00    -0.203 OA
ENDBRANCH  23  24
ENDBRANCH  17  23
TORSDOF 2
