REMARK  6 active torsions:
REMARK  status: ('A' for Active; 'I' for Inactive)
REMARK    1  A    between atoms: O_2  and  N_3 
REMARK    2  A    between atoms: C_4  and  C_5 
REMARK    3  A    between atoms: C_4  and  C_19 
REMARK    4  A    between atoms: C_5  and  C_6 
REMARK    5  A    between atoms: C_6  and  N_7 
REMARK    6  A    between atoms: N_10  and  C_11 
ROOT
ATOM      1  N   UNL d   1      10.055   7.336  -9.144  0.00  0.00     0.141 N 
ATOM      2  C   UNL d   1      11.328   7.967  -8.777  0.00  0.00     0.274 C 
ATOM      3  C   UNL d   1      11.136   8.945  -7.608  0.00  0.00     0.138 C 
ATOM      4  N   UNL d   1      10.510   8.259  -6.492  0.00  0.00    -0.330 N 
ATOM      5  C   UNL d   1       9.302   7.498  -6.792  0.00  0.00     0.138 C 
ATOM      6  C   UNL d   1       9.542   6.572  -7.996  0.00  0.00     0.274 C 
ENDROOT
BRANCH   1   7
ATOM      7  C   UNL d   1      10.255   6.438 -10.275  0.00  0.00     0.257 C 
BRANCH   7   8
ATOM      8  C   UNL d   1       9.059   6.459 -11.245  0.00  0.00     0.084 C 
BRANCH   8   9
ATOM      9  C   UNL d   1       9.144   5.350 -12.317  0.00  0.00     0.089 C 
ATOM     10  N   UNL d   1      10.253   5.188 -12.936  0.00  0.00    -0.136 NA
BRANCH  10  11
ATOM     11  O   UNL d   1      10.297   4.090 -13.803  0.00  0.00    -0.234 OA
ATOM     12  C   UNL d   1      11.393   4.262 -14.685  0.00  0.00     0.211 C 
ENDBRANCH  10  11
BRANCH   9  13
ATOM     13  C   UNL d   1       7.899   4.570 -12.576  0.00  0.00     0.035 A 
ATOM     14  C   UNL d   1       7.003   4.261 -11.536  0.00  0.00     0.100 A 
ATOM     15  N   UNL d   1       5.854   3.588 -11.701  0.00  0.00    -0.242 NA
ATOM     16  C   UNL d   1       5.539   3.134 -12.925  0.00  0.00     0.099 A 
ATOM     17  C   UNL d   1       6.368   3.350 -14.036  0.00  0.00     0.021 A 
ATOM     18  C   UNL d   1       7.547   4.096 -13.859  0.00  0.00     0.004 A 
ENDBRANCH   9  13
ENDBRANCH   8   9
ENDBRANCH   7   8
ENDBRANCH   1   7
BRANCH   4  19
ATOM     19  C   UNL d   1      11.085   8.296  -5.227  0.00  0.00     0.140 A 
ATOM     20  N   UNL d   1      11.393   7.115  -4.638  0.00  0.00    -0.227 NA
ATOM     21  C   UNL d   1      11.940   7.138  -3.405  0.00  0.00     0.101 A 
ATOM     22  C   UNL d   1      12.207   8.323  -2.701  0.00  0.00     0.021 A 
ATOM     23  C   UNL d   1      11.883   9.546  -3.308  0.00  0.00     0.005 A 
ATOM     24  C   UNL d   1      11.326   9.539  -4.600  0.00  0.00     0.037 A 
ENDBRANCH   4  19
TORSDOF 6
