REMARK  3 active torsions:
REMARK  status: ('A' for Active; 'I' for Inactive)
REMARK    1  A    between atoms: N_5  and  C_6 
REMARK    2  A    between atoms: N_12  and  S_13 
REMARK    3  A    between atoms: S_13  and  C_16 
ROOT
ATOM      1  C   UNL d   1       7.595   1.839 -14.974  0.00  0.00     0.058 A 
ATOM      2  C   UNL d   1       8.607   1.430 -15.882  0.00  0.00     0.017 A 
ATOM      3  C   UNL d   1       9.767   2.208 -16.014  0.00  0.00     0.006 A 
ATOM      4  C   UNL d   1       9.949   3.379 -15.245  0.00  0.00     0.051 A 
ATOM      5  C   UNL d   1       8.936   3.768 -14.325  0.00  0.00     0.074 A 
ATOM      6  C   UNL d   1       7.754   3.026 -14.232  0.00  0.00     0.035 A 
ATOM      7  N   UNL d   1       9.045   4.864 -13.450  0.00  0.00    -0.253 N 
ATOM      8  C   UNL d   1      10.385   5.423 -13.401  0.00  0.00     0.127 C 
ATOM      9  C   UNL d   1      11.210   5.463 -14.716  0.00  0.00     0.095 C 
ATOM     10  C   UNL d   1      11.205   4.155 -15.433  0.00  0.00     0.176 C 
ATOM     11  O   UNL d   1      12.170   3.817 -16.130  0.00  0.00    -0.291 OA
ENDROOT
BRANCH   7  12
ATOM     12  S   UNL d   1       7.887   5.317 -12.190  0.00  0.00     0.268 S 
ATOM     13  O   UNL d   1       6.817   6.105 -12.830  0.00  0.00    -0.200 OA
ATOM     14  O   UNL d   1       7.564   4.103 -11.461  0.00  0.00    -0.200 OA
BRANCH  12  15
ATOM     15  C   UNL d   1       8.733   6.381 -11.049  0.00  0.00     0.104 A 
ATOM     16  C   UNL d   1       8.809   5.979  -9.686  0.00  0.00     0.013 A 
ATOM     17  C   UNL d   1       9.463   6.798  -8.763  0.00  0.00     0.001 A 
ATOM     18  C   UNL d   1      10.106   7.982  -9.201  0.00  0.00     0.000 A 
ATOM     19  C   UNL d   1       9.441   6.475  -7.391  0.00  0.00     0.000 A 
ATOM     20  C   UNL d   1      10.049   8.370 -10.552  0.00  0.00     0.001 A 
ATOM     21  C   UNL d   1      10.770   8.802  -8.287  0.00  0.00     0.000 A 
ATOM     22  C   UNL d   1       9.296   7.600 -11.467  0.00  0.00     0.013 A 
ATOM     23  C   UNL d   1      10.747   8.475  -6.910  0.00  0.00     0.000 A 
ATOM     24  C   UNL d   1      10.072   7.313  -6.481  0.00  0.00     0.000 A 
ENDBRANCH  12  15
ENDBRANCH   7  12
BRANCH   1  25
ATOM     25  N   UNL d   1       6.412   1.105 -14.782  0.00  0.00    -0.344 N 
ATOM     26  C   UNL d   1       6.159   0.014 -15.697  0.00  0.00     0.137 C 
ATOM     27  C   UNL d   1       4.732  -0.505 -15.534  0.00  0.00     0.274 C 
ATOM     28  N   UNL d   1       4.476  -0.883 -14.151  0.00  0.00     0.143 N 
ATOM     29  C   UNL d   1       3.100  -1.351 -14.072  0.00  0.00     0.286 C 
ATOM     30  C   UNL d   1       4.654   0.283 -13.295  0.00  0.00     0.274 C 
ATOM     31  C   UNL d   1       6.082   0.779 -13.398  0.00  0.00     0.137 C 
ENDBRANCH   1  25
TORSDOF 3
