REMARK  6 active torsions:
REMARK  status: ('A' for Active; 'I' for Inactive)
REMARK       I    between atoms: C_2  and  N_3 
REMARK    1  A    between atoms: C_2  and  C_24 
REMARK    2  A    between atoms: N_3  and  C_4 
REMARK    3  A    between atoms: C_7  and  C_8 
REMARK    4  A    between atoms: C_8  and  C_9 
REMARK    5  A    between atoms: C_9  and  N_10 
REMARK    6  A    between atoms: N_13  and  C_14 
ROOT
ATOM      1  C   UNL d   1      10.148   9.145  -7.254  0.00  0.00     0.107 C 
ATOM      2  C   UNL d   1       8.806   8.531  -7.633  0.00  0.00     0.024 C 
ATOM      3  C   UNL d   1       9.084   7.212  -8.386  0.00  0.00     0.002 C 
ATOM      4  C   UNL d   1       9.992   7.487  -9.596  0.00  0.00     0.002 C 
ATOM      5  C   UNL d   1      11.352   8.072  -9.159  0.00  0.00     0.002 C 
ATOM      6  C   UNL d   1      11.037   9.368  -8.476  0.00  0.00     0.024 C 
ENDROOT
BRANCH   4   7
ATOM      7  C   UNL d   1      10.200   6.191 -10.362  0.00  0.00     0.035 C 
BRANCH   7   8
ATOM      8  C   UNL d   1       9.080   5.882 -11.372  0.00  0.00     0.250 C 
BRANCH   8   9
ATOM      9  N   UNL d   1       9.625   5.239 -12.584  0.00  0.00     0.141 N 
ATOM     10  C   UNL d   1       9.730   3.791 -12.424  0.00  0.00     0.274 C 
ATOM     11  C   UNL d   1      10.336   3.129 -13.700  0.00  0.00     0.137 C 
ATOM     12  N   UNL d   1       9.588   3.518 -14.891  0.00  0.00    -0.344 N 
ATOM     13  C   UNL d   1       9.346   4.951 -15.031  0.00  0.00     0.137 C 
ATOM     14  C   UNL d   1       8.717   5.479 -13.691  0.00  0.00     0.274 C 
BRANCH  12  15
ATOM     15  C   UNL d   1       8.991   2.546 -15.722  0.00  0.00     0.056 A 
ATOM     16  C   UNL d   1       8.453   1.343 -15.209  0.00  0.00     0.017 A 
ATOM     17  C   UNL d   1       7.876   0.386 -16.057  0.00  0.00     0.002 A 
ATOM     18  C   UNL d   1       7.836   0.599 -17.456  0.00  0.00     0.000 A 
ATOM     19  C   UNL d   1       8.368   1.803 -17.977  0.00  0.00     0.002 A 
ATOM     20  C   UNL d   1       8.928   2.758 -17.122  0.00  0.00     0.017 A 
ENDBRANCH  12  15
ENDBRANCH   8   9
ENDBRANCH   7   8
ENDBRANCH   4   7
BRANCH   1  21
ATOM     21  N   UNL d   1      10.786   8.376  -6.189  0.00  0.00    -0.236 NA
ATOM     22  C   UNL d   1      11.764   8.817  -5.412  0.00  0.00     0.281 C 
ATOM     23  O   UNL d   1      12.436   9.843  -5.621  0.00  0.00    -0.265 OA
BRANCH  22  24
ATOM     24  C   UNL d   1      11.940   8.085  -4.181  0.00  0.00     0.087 A 
ATOM     25  S   UNL d   1      12.480   9.069  -2.870  0.00  0.00    -0.082 SA
ATOM     26  C   UNL d   1      12.523   7.710  -1.841  0.00  0.00     0.036 A 
ATOM     27  C   UNL d   1      12.084   6.572  -2.458  0.00  0.00     0.008 A 
ATOM     28  C   UNL d   1      11.775   6.770  -3.821  0.00  0.00     0.012 A 
ENDBRANCH  22  24
ENDBRANCH   1  21
TORSDOF 6
