REMARK  3 active torsions:
REMARK  status: ('A' for Active; 'I' for Inactive)
REMARK    1  A    between atoms: C_2  and  C_3 
REMARK    2  A    between atoms: C_11  and  C_12 
REMARK    3  A    between atoms: C_12  and  C_14 
ROOT
ATOM      1  C   UNL d   1       5.974  -0.004 -14.579  0.00  0.00     0.081 A 
ATOM      2  O   UNL d   1       5.306   0.598 -13.550  0.00  0.00    -0.311 OA
ATOM      3  C   UNL d   1       5.845   1.848 -13.392  0.00  0.00     0.100 A 
ATOM      4  C   UNL d   1       5.464   2.800 -12.439  0.00  0.00     0.025 A 
ATOM      5  C   UNL d   1       6.164   4.014 -12.361  0.00  0.00     0.002 A 
ATOM      6  C   UNL d   1       7.238   4.242 -13.237  0.00  0.00     0.000 A 
ATOM      7  C   UNL d   1       7.610   3.266 -14.198  0.00  0.00     0.002 A 
ATOM      8  C   UNL d   1       6.907   2.035 -14.315  0.00  0.00     0.028 A 
ATOM      9  C   UNL d   1       6.941   0.840 -15.134  0.00  0.00     0.059 A 
ENDROOT
BRANCH   9  10
ATOM     10  C   UNL d   1       7.842   0.559 -16.259  0.00  0.00     0.197 C 
ATOM     11  O   UNL d   1       9.058   0.499 -16.093  0.00  0.00    -0.286 OA
BRANCH  10  12
ATOM     12  C   UNL d   1       7.239   0.490 -17.641  0.00  0.00     0.040 A 
ATOM     13  C   UNL d   1       6.023  -0.233 -17.863  0.00  0.00     0.012 A 
ATOM     14  C   UNL d   1       5.468  -0.344 -19.161  0.00  0.00     0.061 A 
ATOM     15  C   UNL d   1       6.075   0.272 -20.280  0.00  0.00     0.143 A 
ATOM     16 BR   UNL d   1       3.893  -1.383 -19.277  0.00  0.00    -0.047 Br
ATOM     17  C   UNL d   1       7.279   1.004 -20.061  0.00  0.00     0.061 A 
ATOM     18  O   UNL d   1       5.470   0.139 -21.496  0.00  0.00    -0.189 OA
ATOM     19  C   UNL d   1       7.877   1.118 -18.761  0.00  0.00     0.012 A 
ATOM     20 BR   UNL d   1       8.113   1.897 -21.522  0.00  0.00    -0.047 Br
ENDBRANCH  10  12
ENDBRANCH   9  10
BRANCH   1  21
ATOM     21  C   UNL d   1       5.491  -1.393 -14.848  0.00  0.00     0.052 C 
ATOM     22  C   UNL d   1       4.000  -1.383 -15.352  0.00  0.00     0.007 C 
ENDBRANCH   1  21
TORSDOF 3
