REMARK  7 active torsions:
REMARK  status: ('A' for Active; 'I' for Inactive)
REMARK    1  A    between atoms: C_5  and  C_6 
REMARK    2  A    between atoms: N_9  and  C_10 
REMARK    3  A    between atoms: C_10  and  C_11 
REMARK    4  A    between atoms: C_14  and  O_15 
REMARK    5  A    between atoms: O_15  and  C_16 
REMARK    6  A    between atoms: C_29  and  N_30 
REMARK       I    between atoms: N_30  and  C_31 
REMARK    7  A    between atoms: C_31  and  C_33 
ROOT
ATOM      1  C   UNL d   1       7.419   2.266 -14.985  0.00  0.00     0.026 C 
ATOM      2  C   UNL d   1       8.809   1.754 -14.680  0.00  0.00     0.040 C 
ATOM      3  C   UNL d   1       9.722   2.934 -14.315  0.00  0.00     0.251 C 
ATOM      4  N   UNL d   1       9.135   3.642 -13.183  0.00  0.00     0.141 N 
ATOM      5  C   UNL d   1       7.909   4.330 -13.537  0.00  0.00     0.251 C 
ATOM      6  C   UNL d   1       6.870   3.269 -13.902  0.00  0.00     0.040 C 
ENDROOT
BRANCH   4   7
ATOM      7  C   UNL d   1      10.077   4.645 -12.705  0.00  0.00     0.277 C 
BRANCH   7   8
ATOM      8  C   UNL d   1       9.681   5.227 -11.357  0.00  0.00     0.011 A 
ATOM      9  C   UNL d   1       9.606   6.619 -11.226  0.00  0.00    -0.000 A 
ATOM     10  C   UNL d   1       9.461   7.176  -9.929  0.00  0.00     0.024 A 
ATOM     11  C   UNL d   1       9.326   6.352  -8.797  0.00  0.00     0.100 A 
ATOM     12  C   UNL d   1       9.378   4.958  -8.932  0.00  0.00     0.024 A 
ATOM     13  C   UNL d   1       9.566   4.416 -10.227  0.00  0.00    -0.000 A 
BRANCH  11  14
ATOM     14  O   UNL d   1       9.017   6.870  -7.556  0.00  0.00    -0.307 OA
BRANCH  14  15
ATOM     15  C   UNL d   1       9.955   7.636  -6.917  0.00  0.00     0.102 A 
ATOM     16  C   UNL d   1      10.503   7.186  -5.695  0.00  0.00     0.057 A 
ATOM     17  C   UNL d   1      11.480   7.961  -5.033  0.00  0.00     0.169 A 
ATOM     18  C   UNL d   1      11.896   9.174  -5.588  0.00  0.00     0.168 A 
ATOM     19  F   UNL d   1      12.035   7.513  -3.889  0.00  0.00    -0.202 F 
ATOM     20  C   UNL d   1      11.316   9.652  -6.772  0.00  0.00     0.034 A 
ATOM     21  F   UNL d   1      12.890   9.903  -5.023  0.00  0.00    -0.202 F 
ATOM     22  C   UNL d   1      10.332   8.889  -7.440  0.00  0.00     0.027 A 
ENDBRANCH  14  15
ENDBRANCH  11  14
ENDBRANCH   7   8
ENDBRANCH   4   7
BRANCH   1  23
ATOM     23  C   UNL d   1       6.460   1.126 -15.301  0.00  0.00    -0.021 A 
ATOM     24  C   UNL d   1       5.740   0.492 -14.281  0.00  0.00    -0.004 A 
ATOM     25  C   UNL d   1       4.787  -0.480 -14.620  0.00  0.00    -0.003 A 
ATOM     26  C   UNL d   1       4.589  -0.825 -15.965  0.00  0.00    -0.004 A 
ATOM     27  C   UNL d   1       3.575  -1.889 -16.256  0.00  0.00     0.033 C 
ATOM     28  C   UNL d   1       5.313  -0.215 -17.008  0.00  0.00     0.080 A 
ATOM     29  C   UNL d   1       6.257   0.782 -16.655  0.00  0.00     0.015 A 
BRANCH  28  30
ATOM     30  N   UNL d   1       5.013  -0.579 -18.350  0.00  0.00    -0.212 NA
ATOM     31  C   UNL d   1       5.779  -0.436 -19.453  0.00  0.00     0.255 C 
ATOM     32  O   UNL d   1       6.833   0.190 -19.494  0.00  0.00    -0.270 OA
BRANCH  31  33
ATOM     33  C   UNL d   1       5.258  -1.131 -20.716  0.00  0.00     0.081 C 
ATOM     34  C   UNL d   1       5.775  -2.578 -20.762  0.00  0.00     0.010 C 
ATOM     35  C   UNL d   1       5.657  -0.351 -21.985  0.00  0.00     0.010 C 
ENDBRANCH  31  33
ENDBRANCH  28  30
ENDBRANCH   1  23
TORSDOF 7
