REMARK  7 active torsions:
REMARK  status: ('A' for Active; 'I' for Inactive)
REMARK    1  A    between atoms: C_7  and  C_8 
REMARK       I    between atoms: C_8  and  N_10 
REMARK    2  A    between atoms: N_10  and  C_11 
REMARK    3  A    between atoms: C_11  and  C_12 
REMARK    4  A    between atoms: C_12  and  C_13 
REMARK    5  A    between atoms: C_13  and  C_14 
REMARK    6  A    between atoms: C_14  and  N_15 
REMARK    7  A    between atoms: N_18  and  C_19 
ROOT
ATOM      1  C   UNL d   1       4.406  -0.844 -14.987  0.00  0.00     0.081 C 
ATOM      2  C   UNL d   1       5.456  -0.256 -15.224  0.00  0.00    -0.127 C 
ATOM      3  C   UNL d   1       6.690   0.445 -15.521  0.00  0.00     0.030 A 
ATOM      4  C   UNL d   1       7.535  -0.004 -16.558  0.00  0.00     0.007 A 
ATOM      5  C   UNL d   1       8.737   0.673 -16.835  0.00  0.00     0.001 A 
ATOM      6  C   UNL d   1       9.096   1.799 -16.075  0.00  0.00     0.005 A 
ATOM      7  C   UNL d   1       8.257   2.266 -15.040  0.00  0.00     0.058 A 
ATOM      8  C   UNL d   1       7.055   1.571 -14.757  0.00  0.00     0.012 A 
ENDROOT
BRANCH   7   9
ATOM      9  C   UNL d   1       8.674   3.479 -14.258  0.00  0.00     0.275 C 
ATOM     10  O   UNL d   1       9.833   3.889 -14.319  0.00  0.00    -0.266 OA
ATOM     11  N   UNL d   1       7.703   4.083 -13.550  0.00  0.00    -0.234 NA
BRANCH  11  12
ATOM     12  C   UNL d   1       7.814   5.343 -12.822  0.00  0.00     0.129 C 
BRANCH  12  13
ATOM     13  C   UNL d   1       8.957   5.321 -11.793  0.00  0.00     0.029 C 
BRANCH  13  14
ATOM     14  C   UNL d   1       8.940   6.523 -10.854  0.00  0.00     0.037 C 
BRANCH  14  15
ATOM     15  C   UNL d   1      10.272   6.677 -10.098  0.00  0.00     0.251 C 
BRANCH  15  16
ATOM     16  N   UNL d   1      10.232   7.749  -9.107  0.00  0.00     0.141 N 
ATOM     17  C   UNL d   1       9.430   7.322  -7.949  0.00  0.00     0.274 C 
ATOM     18  C   UNL d   1       9.336   8.449  -6.909  0.00  0.00     0.137 C 
ATOM     19  N   UNL d   1      10.656   8.934  -6.551  0.00  0.00    -0.344 N 
ATOM     20  C   UNL d   1      11.582   9.203  -7.634  0.00  0.00     0.137 C 
ATOM     21  C   UNL d   1      11.596   8.062  -8.663  0.00  0.00     0.274 C 
BRANCH  19  22
ATOM     22  C   UNL d   1      11.098   8.936  -5.222  0.00  0.00     0.068 A 
ATOM     23  C   UNL d   1      11.604   7.777  -4.605  0.00  0.00     0.084 A 
ATOM     24  C   UNL d   1      12.046   7.789  -3.260  0.00  0.00     0.070 A 
ATOM     25 CL   UNL d   1      11.707   6.379  -5.556  0.00  0.00    -0.080 Cl
ATOM     26  C   UNL d   1      12.006   8.973  -2.525  0.00  0.00     0.012 A 
ATOM     27 CL   UNL d   1      12.645   6.406  -2.459  0.00  0.00    -0.081 Cl
ATOM     28  C   UNL d   1      11.525  10.107  -3.174  0.00  0.00     0.002 A 
ATOM     29  C   UNL d   1      11.058  10.125  -4.496  0.00  0.00     0.018 A 
ENDBRANCH  19  22
ENDBRANCH  15  16
ENDBRANCH  14  15
ENDBRANCH  13  14
ENDBRANCH  12  13
ENDBRANCH  11  12
ENDBRANCH   7   9
TORSDOF 7
