REMARK  7 active torsions:
REMARK  status: ('A' for Active; 'I' for Inactive)
REMARK    1  A    between atoms: C_2  and  C_3 
REMARK    2  A    between atoms: C_2  and  C_11 
REMARK    3  A    between atoms: C_3  and  O_4 
REMARK    4  A    between atoms: O_4  and  C_5 
REMARK    5  A    between atoms: C_11  and  N_12 
REMARK    6  A    between atoms: C_15  and  O_16 
REMARK    7  A    between atoms: O_16  and  C_17 
ROOT
ATOM      1  N   UNL d   1       9.633   6.249  -9.527  0.00  0.00     0.140 N 
ATOM      2  C   UNL d   1       9.406   5.832  -8.166  0.00  0.00     0.253 C 
ATOM      3  C   UNL d   1      10.493   6.308  -7.206  0.00  0.00     0.066 C 
ATOM      4  C   UNL d   1      10.671   7.850  -7.229  0.00  0.00     0.125 C 
ATOM      5  C   UNL d   1      10.864   8.273  -8.696  0.00  0.00     0.066 C 
ATOM      6  C   UNL d   1       9.732   7.710  -9.562  0.00  0.00     0.253 C 
ENDROOT
BRANCH   1   7
ATOM      7  C   UNL d   1       8.597   5.713 -10.396  0.00  0.00     0.285 C 
BRANCH   7   8
ATOM      8  C   UNL d   1       8.768   6.104 -11.868  0.00  0.00     0.215 C 
ATOM      9  O   UNL d   1       7.849   7.141 -12.173  0.00  0.00    -0.219 OA
BRANCH   8  10
ATOM     10  C   UNL d   1       8.446   4.938 -12.805  0.00  0.00     0.184 C 
BRANCH  10  11
ATOM     11  O   UNL d   1       9.622   4.192 -13.160  0.00  0.00    -0.328 OA
BRANCH  11  12
ATOM     12  C   UNL d   1       9.433   3.127 -14.023  0.00  0.00     0.094 A 
ATOM     13  C   UNL d   1      10.599   2.432 -14.440  0.00  0.00     0.024 A 
ATOM     14  C   UNL d   1      10.502   1.317 -15.297  0.00  0.00     0.002 A 
ATOM     15  C   UNL d   1       9.242   0.880 -15.755  0.00  0.00     0.000 A 
ATOM     16  C   UNL d   1       8.084   1.563 -15.352  0.00  0.00     0.002 A 
ATOM     17  C   UNL d   1       8.175   2.670 -14.504  0.00  0.00     0.024 A 
ENDBRANCH  11  12
ENDBRANCH  10  11
ENDBRANCH   8  10
ENDBRANCH   7   8
ENDBRANCH   1   7
BRANCH   4  18
ATOM     18  O   UNL d   1      11.792   8.365  -6.504  0.00  0.00    -0.333 OA
BRANCH  18  19
ATOM     19  C   UNL d   1      11.734   8.212  -5.134  0.00  0.00     0.094 A 
ATOM     20  C   UNL d   1      11.783   9.392  -4.370  0.00  0.00     0.024 A 
ATOM     21  C   UNL d   1      11.854   9.327  -2.962  0.00  0.00     0.002 A 
ATOM     22  C   UNL d   1      11.879   8.073  -2.314  0.00  0.00     0.000 A 
ATOM     23  C   UNL d   1      11.878   6.892  -3.065  0.00  0.00     0.002 A 
ATOM     24  C   UNL d   1      11.851   6.966  -4.469  0.00  0.00     0.024 A 
ENDBRANCH  18  19
ENDBRANCH   4  18
TORSDOF 7
