REMARK  4 active torsions:
REMARK  status: ('A' for Active; 'I' for Inactive)
REMARK    1  A    between atoms: C_8  and  C_9 
REMARK    2  A    between atoms: C_9  and  C_10 
REMARK    3  A    between atoms: C_10  and  N_11 
REMARK    4  A    between atoms: N_14  and  C_15 
ROOT
ATOM      1  C   UNL d   1       9.463   5.954 -11.257  0.00  0.00     0.255 C 
ENDROOT
BRANCH   1   2
ATOM      2  C   UNL d   1       9.107   4.476 -11.481  0.00  0.00     0.068 C 
BRANCH   2   3
ATOM      3  C   UNL d   1       9.031   4.056 -12.947  0.00  0.00     0.050 A 
ATOM      4  C   UNL d   1       7.898   3.581 -13.521  0.00  0.00     0.061 A 
ATOM      5  C   UNL d   1       6.539   3.546 -12.812  0.00  0.00     0.052 C 
ATOM      6  N   UNL d   1       7.929   3.037 -14.804  0.00  0.00    -0.234 NA
ATOM      7  C   UNL d   1       9.012   3.100 -15.516  0.00  0.00     0.150 A 
ATOM      8  C   UNL d   1       9.042   2.658 -16.988  0.00  0.00     0.177 C 
ATOM      9  N   UNL d   1      10.219   3.628 -14.998  0.00  0.00    -0.283 N 
ATOM     10  C   UNL d   1      10.293   1.810 -17.283  0.00  0.00     0.040 C 
ATOM     11  C   UNL d   1       7.763   1.898 -17.408  0.00  0.00     0.041 C 
ATOM     12  O   UNL d   1       9.068   3.807 -17.830  0.00  0.00    -0.218 OA
ATOM     13  C   UNL d   1      11.589   2.359 -16.658  0.00  0.00     0.028 C 
ATOM     14  C   UNL d   1      11.386   3.682 -15.901  0.00  0.00     0.111 C 
ATOM     15  C   UNL d   1      10.283   4.104 -13.723  0.00  0.00     0.259 A 
ATOM     16  O   UNL d   1      11.328   4.570 -13.276  0.00  0.00    -0.267 OA
ENDBRANCH   2   3
ENDBRANCH   1   2
BRANCH   1  17
ATOM     17  N   UNL d   1       9.302   6.345  -9.865  0.00  0.00     0.141 N 
ATOM     18  C   UNL d   1       9.489   7.804  -9.775  0.00  0.00     0.274 C 
ATOM     19  C   UNL d   1       9.297   8.251  -8.303  0.00  0.00     0.137 C 
ATOM     20  N   UNL d   1      10.244   7.542  -7.450  0.00  0.00    -0.344 N 
ATOM     21  C   UNL d   1      10.252   6.109  -7.594  0.00  0.00     0.137 C 
ATOM     22  C   UNL d   1      10.355   5.730  -9.068  0.00  0.00     0.274 C 
BRANCH  20  23
ATOM     23  C   UNL d   1      11.074   8.198  -6.522  0.00  0.00     0.057 C 
ATOM     24  C   UNL d   1      11.405   7.684  -5.230  0.00  0.00     0.022 A 
ATOM     25  C   UNL d   1      12.265   8.431  -4.399  0.00  0.00     0.031 A 
ATOM     26  C   UNL d   1      10.987   6.522  -4.524  0.00  0.00     0.009 A 
ATOM     27  C   UNL d   1      12.836   9.587  -4.834  0.00  0.00     0.007 C 
ATOM     28  S   UNL d   1      12.515   7.751  -2.815  0.00  0.00    -0.086 SA
ATOM     29  C   UNL d   1      12.438  10.121  -6.056  0.00  0.00     0.002 C 
ATOM     30  C   UNL d   1      11.604   9.430  -6.928  0.00  0.00     0.017 C 
ATOM     31  C   UNL d   1      11.515   6.432  -3.263  0.00  0.00     0.035 A 
ENDBRANCH  20  23
ENDBRANCH   1  17
TORSDOF 4
