REMARK  5 active torsions:
REMARK  status: ('A' for Active; 'I' for Inactive)
REMARK    1  A    between atoms: C_4  and  N_5 
REMARK    2  A    between atoms: N_8  and  C_9 
REMARK    3  A    between atoms: C_9  and  C_10 
REMARK    4  A    between atoms: C_13  and  N_14 
REMARK    5  A    between atoms: N_14  and  C_15 
ROOT
ATOM      1  C   UNL d   1       9.072   6.418 -11.157  0.00  0.00     0.034 C 
ATOM      2  C   UNL d   1       9.533   6.017 -12.567  0.00  0.00     0.004 C 
ATOM      3  C   UNL d   1       8.453   5.300 -13.381  0.00  0.00     0.025 C 
ATOM      4  C   UNL d   1       7.894   4.069 -12.666  0.00  0.00     0.122 C 
ATOM      5  C   UNL d   1       7.392   4.459 -11.272  0.00  0.00     0.025 C 
ATOM      6  C   UNL d   1       8.450   5.192 -10.449  0.00  0.00     0.004 C 
ENDROOT
BRANCH   1   7
ATOM      7  C   UNL d   1      10.249   7.067 -10.375  0.00  0.00     0.250 C 
BRANCH   7   8
ATOM      8  N   UNL d   1       9.890   7.496  -9.034  0.00  0.00     0.141 N 
ATOM      9  C   UNL d   1      10.716   8.662  -8.648  0.00  0.00     0.274 C 
ATOM     10  C   UNL d   1      10.319   9.185  -7.255  0.00  0.00     0.137 C 
ATOM     11  N   UNL d   1      10.347   8.103  -6.267  0.00  0.00    -0.344 N 
ATOM     12  C   UNL d   1       9.610   6.903  -6.679  0.00  0.00     0.137 C 
ATOM     13  C   UNL d   1      10.110   6.436  -8.044  0.00  0.00     0.274 C 
BRANCH  11  14
ATOM     14  C   UNL d   1      11.066   8.166  -5.079  0.00  0.00     0.056 A 
ATOM     15  C   UNL d   1      11.558   6.998  -4.421  0.00  0.00     0.017 A 
ATOM     16  C   UNL d   1      12.256   7.085  -3.207  0.00  0.00     0.002 A 
ATOM     17  C   UNL d   1      12.496   8.343  -2.617  0.00  0.00     0.000 A 
ATOM     18  C   UNL d   1      12.011   9.503  -3.248  0.00  0.00     0.002 A 
ATOM     19  C   UNL d   1      11.308   9.418  -4.455  0.00  0.00     0.017 A 
ENDBRANCH  11  14
ENDBRANCH   7   8
ENDBRANCH   1   7
BRANCH   4  20
ATOM     20  N   UNL d   1       6.801   3.514 -13.440  0.00  0.00    -0.088 NA
BRANCH  20  21
ATOM     21  C   UNL d   1       6.920   2.348 -14.153  0.00  0.00     0.746 A 
ATOM     22  N   UNL d   1       5.861   1.545 -14.129  0.00  0.00    -0.058 NA
ATOM     23  C   UNL d   1       5.895   0.462 -14.937  0.00  0.00     0.120 A 
ATOM     24  C   UNL d   1       7.004   0.194 -15.762  0.00  0.00     0.043 A 
ATOM     25  C   UNL d   1       8.086   1.084 -15.660  0.00  0.00     0.120 A 
ATOM     26  N   UNL d   1       8.050   2.161 -14.851  0.00  0.00    -0.058 NA
ENDBRANCH  20  21
ENDBRANCH   4  20
TORSDOF 5
