REMARK  9 active torsions:
REMARK  status: ('A' for Active; 'I' for Inactive)
REMARK    1  A    between atoms: C_8  and  O_9 
REMARK    2  A    between atoms: O_9  and  C_10 
REMARK    3  A    between atoms: C_10  and  C_11 
REMARK    4  A    between atoms: C_11  and  C_12 
REMARK    5  A    between atoms: C_12  and  C_13 
REMARK    6  A    between atoms: C_13  and  N_14 
REMARK    7  A    between atoms: N_14  and  C_15 
REMARK    8  A    between atoms: C_15  and  C_16 
REMARK    9  A    between atoms: C_18  and  C_19 
ROOT
ATOM      1  C   UNL d   1       8.208   5.618 -11.013  0.00  0.00     0.290 C 
ENDROOT
BRANCH   1   2
ATOM      2  C   UNL d   1       7.276   5.358 -12.185  0.00  0.00     0.041 C 
BRANCH   2   3
ATOM      3  C   UNL d   1       6.811   3.903 -12.211  0.00  0.00     0.035 C 
BRANCH   3   4
ATOM      4  C   UNL d   1       5.816   3.636 -13.357  0.00  0.00     0.149 C 
BRANCH   4   5
ATOM      5  O   UNL d   1       5.935   2.314 -13.904  0.00  0.00    -0.331 OA
BRANCH   5   6
ATOM      6  C   UNL d   1       7.099   2.008 -14.582  0.00  0.00     0.096 A 
ATOM      7  C   UNL d   1       7.262   0.746 -15.215  0.00  0.00     0.024 A 
ATOM      8  C   UNL d   1       8.485   0.427 -15.850  0.00  0.00     0.004 A 
ATOM      9  C   UNL d   1       9.560   1.342 -15.829  0.00  0.00     0.018 A 
ATOM     10  C   UNL d   1      10.857   1.121 -16.456  0.00  0.00     0.006 A 
ATOM     11  C   UNL d   1       9.392   2.583 -15.195  0.00  0.00     0.087 A 
ATOM     12  C   UNL d   1      11.834   2.057 -16.403  0.00  0.00     0.063 A 
ATOM     13  C   UNL d   1      11.667   3.332 -15.692  0.00  0.00     0.279 A 
ATOM     14  O   UNL d   1      12.538   4.199 -15.598  0.00  0.00    -0.265 OA
ATOM     15  N   UNL d   1      10.463   3.506 -15.130  0.00  0.00    -0.208 NA
ATOM     16  C   UNL d   1       8.180   2.919 -14.643  0.00  0.00     0.043 A 
ENDBRANCH   5   6
ENDBRANCH   4   5
ENDBRANCH   3   4
ENDBRANCH   2   3
ENDBRANCH   1   2
BRANCH   1  17
ATOM     17  N   UNL d   1       8.955   6.828 -11.307  0.00  0.00     0.339 N 
BRANCH  17  18
ATOM     18  C   UNL d   1       9.458   7.290 -10.045  0.00  0.00     0.290 C 
BRANCH  18  19
ATOM     19  C   UNL d   1      10.211   8.597 -10.196  0.00  0.00     0.041 A 
ATOM     20  C   UNL d   1      11.077   9.128  -9.063  0.00  0.00     0.024 A 
ATOM     21  C   UNL d   1      11.723   8.675 -10.347  0.00  0.00     0.007 A 
BRANCH  20  22
ATOM     22  C   UNL d   1      11.224   8.358  -7.762  0.00  0.00    -0.022 A 
ATOM     23  C   UNL d   1      11.250   8.890  -6.455  0.00  0.00    -0.004 A 
ATOM     24  C   UNL d   1      11.392   8.029  -5.325  0.00  0.00    -0.000 A 
ATOM     25  C   UNL d   1      11.113  10.263  -6.250  0.00  0.00    -0.000 C 
ATOM     26  C   UNL d   1      11.520   6.646  -5.471  0.00  0.00    -0.000 A 
ATOM     27  C   UNL d   1      11.463   8.563  -4.031  0.00  0.00    -0.000 C 
ATOM     28  C   UNL d   1      11.576   6.141  -6.764  0.00  0.00    -0.000 A 
ATOM     29  C   UNL d   1      11.369   6.986  -7.828  0.00  0.00    -0.004 A 
ATOM     30  C   UNL d   1      11.238   9.930  -3.848  0.00  0.00    -0.000 C 
ATOM     31  C   UNL d   1      10.998  10.750  -4.954  0.00  0.00    -0.000 C 
ENDBRANCH  20  22
ENDBRANCH  18  19
ENDBRANCH  17  18
ENDBRANCH   1  17
TORSDOF 9
