REMARK  7 active torsions:
REMARK  status: ('A' for Active; 'I' for Inactive)
REMARK    1  A    between atoms: C_2  and  N_4 
REMARK    2  A    between atoms: N_4  and  C_5 
REMARK       I    between atoms: N_4  and  C_20 
REMARK    3  A    between atoms: C_5  and  C_6 
REMARK    4  A    between atoms: C_6  and  C_7 
REMARK    5  A    between atoms: C_7  and  N_8 
REMARK    6  A    between atoms: N_11  and  C_12 
REMARK    7  A    between atoms: C_20  and  C_22 
ROOT
ATOM      1  C   UNL d   1       8.876   5.880 -12.849  0.00  0.00     0.060 C 
ENDROOT
BRANCH   1   2
ATOM      2  C   UNL d   1       8.914   4.327 -12.991  0.00  0.00     0.106 C 
BRANCH   2   3
ATOM      3  N   UNL d   1       9.260   3.863 -14.369  0.00  0.00    -0.319 N 
ATOM      4  C   UNL d   1       8.694   2.802 -15.034  0.00  0.00     0.257 C 
ATOM      5  O   UNL d   1       9.122   2.393 -16.119  0.00  0.00    -0.267 OA
BRANCH   3   6
ATOM      6  C   UNL d   1      10.483   4.530 -14.927  0.00  0.00     0.084 C 
ATOM      7  C   UNL d   1      10.317   5.055 -16.374  0.00  0.00     0.024 C 
ATOM      8  C   UNL d   1      11.764   3.700 -14.713  0.00  0.00     0.024 C 
ENDBRANCH   3   6
BRANCH   4   9
ATOM      9  C   UNL d   1       7.547   2.038 -14.458  0.00  0.00     0.056 C 
ATOM     10  C   UNL d   1       6.405   2.674 -13.915  0.00  0.00     0.005 C 
ATOM     11  C   UNL d   1       5.436   1.921 -13.238  0.00  0.00     0.000 C 
ATOM     12  C   UNL d   1       5.456   0.503 -13.302  0.00  0.00     0.000 C 
ATOM     13  C   UNL d   1       6.505  -0.148 -13.966  0.00  0.00     0.000 C 
ATOM     14  C   UNL d   1       7.548   0.610 -14.526  0.00  0.00     0.005 C 
ENDBRANCH   4   9
ENDBRANCH   2   3
ENDBRANCH   1   2
BRANCH   1  15
ATOM     15  C   UNL d   1       8.352   6.333 -11.488  0.00  0.00     0.252 C 
BRANCH  15  16
ATOM     16  N   UNL d   1       9.486   6.363 -10.565  0.00  0.00     0.141 N 
ATOM     17  C   UNL d   1      10.051   7.720 -10.508  0.00  0.00     0.274 C 
ATOM     18  C   UNL d   1      11.254   7.788  -9.546  0.00  0.00     0.138 C 
ATOM     19  N   UNL d   1      10.878   7.277  -8.233  0.00  0.00    -0.330 N 
ATOM     20  C   UNL d   1      10.226   5.976  -8.235  0.00  0.00     0.138 C 
ATOM     21  C   UNL d   1       9.050   5.966  -9.230  0.00  0.00     0.274 C 
BRANCH  19  22
ATOM     22  C   UNL d   1      11.067   8.011  -7.047  0.00  0.00     0.140 A 
ATOM     23  N   UNL d   1      11.088   9.357  -7.151  0.00  0.00    -0.227 NA
ATOM     24  C   UNL d   1      11.280  10.094  -6.036  0.00  0.00     0.101 A 
ATOM     25  C   UNL d   1      11.462   9.534  -4.759  0.00  0.00     0.021 A 
ATOM     26  C   UNL d   1      11.449   8.136  -4.646  0.00  0.00     0.005 A 
ATOM     27  C   UNL d   1      11.246   7.358  -5.807  0.00  0.00     0.037 A 
ENDBRANCH  19  22
ENDBRANCH  15  16
ENDBRANCH   1  15
TORSDOF 7
