REMARK  4 active torsions:
REMARK  status: ('A' for Active; 'I' for Inactive)
REMARK    1  A    between atoms: O_2  and  C_3 
REMARK    2  A    between atoms: C_12  and  C_14 
REMARK    3  A    between atoms: C_17  and  O_18 
REMARK    4  A    between atoms: O_18  and  C_19 
ROOT
ATOM      1  C   UNL d   1       6.066  -0.368 -15.027  0.00  0.00     0.119 A 
ATOM      2  C   UNL d   1       7.191   0.010 -15.797  0.00  0.00     0.022 A 
ATOM      3  C   UNL d   1       7.845   1.231 -15.564  0.00  0.00    -0.020 A 
ATOM      4  C   UNL d   1       7.394   2.104 -14.547  0.00  0.00     0.007 A 
ATOM      5  C   UNL d   1       6.256   1.735 -13.792  0.00  0.00     0.027 A 
ATOM      6  C   UNL d   1       5.626   0.497 -14.011  0.00  0.00     0.153 A 
ATOM      7  O   UNL d   1       4.544   0.141 -13.268  0.00  0.00    -0.188 OA
ATOM      8  C   UNL d   1       8.097   3.450 -14.349  0.00  0.00     0.244 C 
ATOM      9  C   UNL d   1       8.186   3.895 -12.867  0.00  0.00     0.073 C 
ATOM     10  C   UNL d   1       8.800   5.288 -12.665  0.00  0.00     0.150 C 
ATOM     11  O   UNL d   1       7.923   6.248 -13.212  0.00  0.00    -0.221 OA
ATOM     12  C   UNL d   1      10.118   5.273 -13.457  0.00  0.00     0.070 C 
ATOM     13  C   UNL d   1       9.970   4.841 -14.907  0.00  0.00     0.254 C 
ATOM     14  N   UNL d   1       9.442   3.489 -14.956  0.00  0.00     0.140 N 
ATOM     15  C   UNL d   1       9.394   3.084 -16.356  0.00  0.00     0.255 C 
ATOM     16  C   UNL d   1       9.051   1.593 -16.412  0.00  0.00     0.061 C 
ENDROOT
BRANCH  10  17
ATOM     17  C   UNL d   1       9.047   5.652 -11.200  0.00  0.00     0.005 A 
ATOM     18  C   UNL d   1       9.758   6.831 -10.884  0.00  0.00     0.000 A 
ATOM     19  C   UNL d   1       9.973   7.217  -9.554  0.00  0.00     0.024 A 
ATOM     20  C   UNL d   1       9.466   6.429  -8.493  0.00  0.00     0.102 A 
ATOM     21  C   UNL d   1       8.733   5.268  -8.804  0.00  0.00     0.024 A 
ATOM     22  C   UNL d   1       8.523   4.886 -10.137  0.00  0.00     0.000 A 
BRANCH  20  23
ATOM     23  O   UNL d   1       9.652   6.718  -7.159  0.00  0.00    -0.253 OA
BRANCH  23  24
ATOM     24  C   UNL d   1      10.443   7.756  -6.784  0.00  0.00     0.530 C 
ATOM     25  F   UNL d   1      11.682   7.682  -7.333  0.00  0.00    -0.144 F 
ATOM     26  F   UNL d   1       9.885   8.955  -7.090  0.00  0.00    -0.144 F 
ATOM     27  F   UNL d   1      10.615   7.718  -5.442  0.00  0.00    -0.144 F 
ENDBRANCH  23  24
ENDBRANCH  20  23
ENDBRANCH  10  17
BRANCH   1  28
ATOM     28  O   UNL d   1       5.380  -1.549 -15.200  0.00  0.00    -0.326 OA
ATOM     29  C   UNL d   1       5.273  -2.026 -16.535  0.00  0.00     0.181 C 
ENDBRANCH   1  28
TORSDOF 4
