REMARK  4 active torsions:
REMARK  status: ('A' for Active; 'I' for Inactive)
REMARK    1  A    between atoms: O_2  and  C_3 
REMARK    2  A    between atoms: C_8  and  N_9 
REMARK    3  A    between atoms: N_12  and  C_13 
REMARK    4  A    between atoms: C_13  and  C_14 
ROOT
ATOM      1  N   UNL d   1       7.737   5.506 -11.893  0.00  0.00    -0.343 N 
ATOM      2  C   UNL d   1       8.070   6.804 -12.457  0.00  0.00     0.137 C 
ATOM      3  C   UNL d   1       9.450   7.262 -11.947  0.00  0.00     0.275 C 
ATOM      4  N   UNL d   1       9.493   7.261 -10.483  0.00  0.00     0.147 N 
ATOM      5  C   UNL d   1       9.235   5.898 -10.002  0.00  0.00     0.275 C 
ATOM      6  C   UNL d   1       7.860   5.393 -10.457  0.00  0.00     0.137 C 
ENDROOT
BRANCH   4   7
ATOM      7  C   UNL d   1      10.784   7.762 -10.008  0.00  0.00     0.297 C 
BRANCH   7   8
ATOM      8  C   UNL d   1      11.024   7.923  -8.531  0.00  0.00     0.112 A 
ATOM      9  N   UNL d   1      11.236   9.172  -7.958  0.00  0.00    -0.229 NA
ATOM     10  C   UNL d   1      11.408   8.957  -6.654  0.00  0.00     0.148 A 
ATOM     11  N   UNL d   1      11.303   7.575  -6.370  0.00  0.00    -0.287 N 
ATOM     12  C   UNL d   1      11.667   9.828  -5.566  0.00  0.00     0.038 A 
ATOM     13  C   UNL d   1      11.071   6.945  -7.572  0.00  0.00     0.098 A 
ATOM     14  C   UNL d   1      11.444   7.067  -5.111  0.00  0.00     0.087 A 
ATOM     15  C   UNL d   1      11.709   7.920  -4.069  0.00  0.00     0.048 A 
ATOM     16  I   UNL d   1      11.912   7.154  -2.138  0.00  0.00    -0.041 I 
ATOM     17  C   UNL d   1      11.816   9.312  -4.295  0.00  0.00     0.010 A 
ENDBRANCH   7   8
ENDBRANCH   4   7
BRANCH   1  18
ATOM     18  C   UNL d   1       7.400   4.399 -12.681  0.00  0.00     0.079 A 
ATOM     19  C   UNL d   1       8.286   3.920 -13.676  0.00  0.00     0.110 A 
ATOM     20  C   UNL d   1       7.902   2.792 -14.441  0.00  0.00     0.026 A 
ATOM     21  C   UNL d   1       6.663   2.165 -14.229  0.00  0.00     0.002 A 
ATOM     22  C   UNL d   1       5.800   2.639 -13.227  0.00  0.00     0.002 A 
ATOM     23  C   UNL d   1       6.169   3.749 -12.449  0.00  0.00     0.019 A 
BRANCH  19  24
ATOM     24  O   UNL d   1       9.496   4.572 -13.825  0.00  0.00    -0.327 OA
ATOM     25  C   UNL d   1      10.400   4.088 -14.803  0.00  0.00     0.181 C 
ENDBRANCH  19  24
ENDBRANCH   1  18
TORSDOF 4
