REMARK  5 active torsions:
REMARK  status: ('A' for Active; 'I' for Inactive)
REMARK    1  A    between atoms: C_7  and  C_8 
REMARK       I    between atoms: C_8  and  N_10 
REMARK    2  A    between atoms: N_13  and  C_14 
REMARK    3  A    between atoms: C_14  and  C_15 
REMARK    4  A    between atoms: C_15  and  O_16 
REMARK    5  A    between atoms: O_16  and  C_17 
ROOT
ATOM      1  C   UNL d   1       9.691   8.485  -8.491  0.00  0.00     0.275 C 
ATOM      2  O   UNL d   1       9.119   9.547  -8.617  0.00  0.00    -0.266 OA
ATOM      3  N   UNL d   1       9.889   7.637  -9.535  0.00  0.00    -0.311 N 
ATOM      4  C   UNL d   1       9.675   8.067 -10.954  0.00  0.00     0.140 C 
ATOM      5  C   UNL d   1       8.832   6.993 -11.688  0.00  0.00     0.274 C 
ATOM      6  N   UNL d   1       9.426   5.659 -11.597  0.00  0.00     0.144 N 
ATOM      7  C   UNL d   1       9.516   5.318 -10.177  0.00  0.00     0.274 C 
ATOM      8  C   UNL d   1      10.466   6.302  -9.477  0.00  0.00     0.140 C 
ENDROOT
BRANCH   1   9
ATOM      9  C   UNL d   1      10.270   8.187  -7.152  0.00  0.00     0.137 A 
ATOM     10  N   UNL d   1      10.586   9.271  -6.339  0.00  0.00    -0.241 NA
ATOM     11  C   UNL d   1      11.090   8.858  -5.123  0.00  0.00     0.082 A 
ATOM     12  C   UNL d   1      11.514   9.536  -3.959  0.00  0.00     0.019 A 
ATOM     13  C   UNL d   1      11.093   7.446  -5.205  0.00  0.00     0.019 A 
ATOM     14  C   UNL d   1      11.985   8.769  -2.870  0.00  0.00    -0.003 A 
ATOM     15  C   UNL d   1      12.021   7.362  -2.954  0.00  0.00    -0.022 A 
ATOM     16  C   UNL d   1      12.488   6.509  -1.802  0.00  0.00     0.031 C 
ATOM     17  C   UNL d   1      11.586   6.716  -4.126  0.00  0.00    -0.003 A 
ATOM     18  C   UNL d   1      10.530   7.032  -6.433  0.00  0.00     0.025 A 
ENDBRANCH   1   9
BRANCH   6  19
ATOM     19  C   UNL d   1       8.583   4.657 -12.232  0.00  0.00     0.283 C 
BRANCH  19  20
ATOM     20  C   UNL d   1       8.644   4.805 -13.764  0.00  0.00     0.184 C 
BRANCH  20  21
ATOM     21  O   UNL d   1       7.877   3.758 -14.337  0.00  0.00    -0.327 OA
BRANCH  21  22
ATOM     22  C   UNL d   1       8.501   2.590 -14.709  0.00  0.00     0.113 A 
ATOM     23  C   UNL d   1       7.689   1.567 -15.243  0.00  0.00     0.123 A 
ATOM     24  N   UNL d   1       8.166   0.387 -15.680  0.00  0.00    -0.240 NA
ATOM     25  C   UNL d   1       9.496   0.170 -15.597  0.00  0.00     0.099 A 
ATOM     26  C   UNL d   1      10.398   1.118 -15.082  0.00  0.00     0.023 A 
ATOM     27  C   UNL d   1       9.893   2.346 -14.620  0.00  0.00     0.027 A 
ENDBRANCH  21  22
ENDBRANCH  20  21
ENDBRANCH  19  20
ENDBRANCH   6  19
TORSDOF 5
