REMARK  4 active torsions:
REMARK  status: ('A' for Active; 'I' for Inactive)
REMARK    1  A    between atoms: C_2  and  O_4 
REMARK    2  A    between atoms: C_2  and  C_21 
REMARK    3  A    between atoms: O_4  and  C_5 
REMARK    4  A    between atoms: C_8  and  C_9 
ROOT
ATOM      1  C   UNL d   1       6.401   2.665 -13.887  0.00  0.00     0.095 A 
ATOM      2  C   UNL d   1       5.480   3.316 -13.041  0.00  0.00     0.024 A 
ATOM      3  C   UNL d   1       5.817   4.514 -12.394  0.00  0.00    -0.002 A 
ATOM      4  C   UNL d   1       7.114   5.037 -12.562  0.00  0.00    -0.018 A 
ATOM      5  C   UNL d   1       8.046   4.388 -13.362  0.00  0.00    -0.002 A 
ATOM      6  C   UNL d   1       7.678   3.232 -14.059  0.00  0.00     0.024 A 
ENDROOT
BRANCH   4   7
ATOM      7  C   UNL d   1       7.511   6.280 -11.778  0.00  0.00     0.044 C 
ATOM      8  C   UNL d   1       8.547   6.007 -10.709  0.00  0.00    -0.022 A 
ATOM      9  C   UNL d   1       9.568   6.941 -10.387  0.00  0.00    -0.026 A 
ATOM     10  C   UNL d   1       8.355   4.886  -9.881  0.00  0.00    -0.004 A 
ATOM     11  C   UNL d   1       9.781   8.231 -11.152  0.00  0.00     0.026 C 
ATOM     12  C   UNL d   1      10.431   6.709  -9.308  0.00  0.00    -0.005 A 
ATOM     13  C   UNL d   1       8.645   8.636 -12.075  0.00  0.00     0.005 C 
ATOM     14  C   UNL d   1       7.922   7.407 -12.702  0.00  0.00     0.009 C 
ATOM     15  C   UNL d   1      10.229   5.580  -8.495  0.00  0.00    -0.000 A 
ATOM     16  C   UNL d   1       9.215   4.657  -8.791  0.00  0.00    -0.000 A 
ENDBRANCH   4   7
BRANCH   1  17
ATOM     17  O   UNL d   1       5.979   1.471 -14.418  0.00  0.00    -0.325 OA
BRANCH  17  18
ATOM     18  C   UNL d   1       6.758   0.625 -15.275  0.00  0.00     0.176 C 
ATOM     19  C   UNL d   1       7.024   1.330 -16.625  0.00  0.00     0.041 C 
ATOM     20  C   UNL d   1       8.068   0.172 -14.587  0.00  0.00     0.041 C 
BRANCH  18  21
ATOM     21  C   UNL d   1       5.852  -0.630 -15.420  0.00  0.00     0.211 C 
ATOM     22  O   UNL d   1       5.371  -1.185 -14.447  0.00  0.00    -0.646 OA
ATOM     23  O   UNL d   1       5.670  -1.050 -16.711  0.00  0.00    -0.646 OA
ENDBRANCH  18  21
ENDBRANCH  17  18
ENDBRANCH   1  17
TORSDOF 4
