REMARK  6 active torsions:
REMARK  status: ('A' for Active; 'I' for Inactive)
REMARK    1  A    between atoms: C_6  and  C_7 
REMARK    2  A    between atoms: C_10  and  S_11 
REMARK    3  A    between atoms: S_11  and  C_12 
REMARK    4  A    between atoms: C_12  and  C_13 
REMARK    5  A    between atoms: C_13  and  C_14 
REMARK    6  A    between atoms: C_14  and  N_15 
ROOT
ATOM      1  C   UNL d   1      12.283   3.534 -15.382  0.00  0.00     0.251 C 
ENDROOT
BRANCH   1   2
ATOM      2  C   UNL d   1      10.867   3.519 -14.781  0.00  0.00     0.047 C 
BRANCH   2   3
ATOM      3  C   UNL d   1       9.846   2.787 -15.659  0.00  0.00     0.067 C 
BRANCH   3   4
ATOM      4  S   UNL d   1      10.245   1.020 -15.853  0.00  0.00    -0.075 SA
BRANCH   4   5
ATOM      5  C   UNL d   1       8.643   0.472 -16.325  0.00  0.00     0.193 A 
ATOM      6  N   UNL d   1       8.332   0.096 -17.566  0.00  0.00    -0.122 NA
ATOM      7  N   UNL d   1       7.006  -0.265 -17.509  0.00  0.00    -0.126 NA
ATOM      8  C   UNL d   1       6.626  -0.096 -16.232  0.00  0.00     0.191 A 
ATOM      9  N   UNL d   1       7.618   0.387 -15.459  0.00  0.00    -0.287 N 
ATOM     10  C   UNL d   1       7.599   0.713 -14.039  0.00  0.00     0.134 C 
BRANCH   8  11
ATOM     11  C   UNL d   1       5.284  -0.452 -15.779  0.00  0.00     0.151 A 
ATOM     12  C   UNL d   1       4.280  -1.200 -16.341  0.00  0.00     0.087 A 
ATOM     13  C   UNL d   1       4.229  -1.912 -17.658  0.00  0.00     0.054 C 
ATOM     14  N   UNL d   1       3.202  -1.218 -15.473  0.00  0.00    -0.221 NA
ATOM     15  C   UNL d   1       3.598  -0.489 -14.433  0.00  0.00     0.225 A 
ATOM     16  O   UNL d   1       4.863  -0.013 -14.546  0.00  0.00    -0.282 OA
ENDBRANCH   8  11
ENDBRANCH   4   5
ENDBRANCH   3   4
ENDBRANCH   2   3
ENDBRANCH   1   2
BRANCH   1  17
ATOM     17  N   UNL d   1      12.352   4.481 -16.479  0.00  0.00     0.137 N 
ATOM     18  C   UNL d   1      13.495   4.237 -17.346  0.00  0.00     0.254 C 
ATOM     19  C   UNL d   1      13.591   5.527 -18.197  0.00  0.00     0.052 C 
ATOM     20  C   UNL d   1      12.975   6.612 -17.256  0.00  0.00     0.041 C 
ATOM     21  C   UNL d   1      15.048   5.817 -18.570  0.00  0.00    -0.025 A 
ATOM     22  C   UNL d   1      12.674   5.411 -19.432  0.00  0.00     0.006 C 
ATOM     23  C   UNL d   1      12.564   5.850 -16.013  0.00  0.00     0.251 C 
ATOM     24  C   UNL d   1      15.534   5.641 -19.892  0.00  0.00    -0.026 A 
ATOM     25  C   UNL d   1      15.950   6.284 -17.580  0.00  0.00    -0.004 A 
ATOM     26  C   UNL d   1      14.622   5.145 -21.014  0.00  0.00     0.026 C 
ATOM     27  C   UNL d   1      16.875   5.977 -20.211  0.00  0.00     0.002 A 
ATOM     28  C   UNL d   1      13.303   4.540 -20.550  0.00  0.00     0.005 C 
ATOM     29  C   UNL d   1      17.741   6.462 -19.211  0.00  0.00     0.034 A 
ATOM     30 BR   UNL d   1      19.555   6.883 -19.634  0.00  0.00    -0.049 Br
ATOM     31  C   UNL d   1      17.284   6.614 -17.900  0.00  0.00     0.006 A 
ENDBRANCH   1  17
TORSDOF 6
