REMARK  0 active torsions:
REMARK  status: ('A' for Active; 'I' for Inactive)
ROOT
ATOM      1  C   UNL d   1      12.444   6.095 -16.511  0.00  0.00     0.033 C 
ATOM      2  C   UNL d   1      11.496   5.103 -17.197  0.00  0.00     0.126 A 
ATOM      3  C   UNL d   1      12.190   3.779 -17.601  0.00  0.00     0.058 A 
ATOM      4  C   UNL d   1      11.372   2.775 -16.869  0.00  0.00     0.003 A 
ATOM      5  C   UNL d   1      11.508   1.381 -16.888  0.00  0.00    -0.003 A 
ATOM      6  C   UNL d   1      10.600   0.623 -16.128  0.00  0.00    -0.004 A 
ATOM      7  C   UNL d   1       9.592   1.267 -15.370  0.00  0.00    -0.018 A 
ATOM      8  C   UNL d   1       9.485   2.675 -15.321  0.00  0.00     0.018 A 
ATOM      9  C   UNL d   1      10.393   3.414 -16.120  0.00  0.00     0.090 A 
ATOM     10  O   UNL d   1      10.434   4.771 -16.287  0.00  0.00    -0.333 OA
ATOM     11  C   UNL d   1       8.430   3.276 -14.473  0.00  0.00    -0.001 A 
ATOM     12  C   UNL d   1       8.486   4.613 -14.006  0.00  0.00    -0.000 A 
ATOM     13  C   UNL d   1       7.483   5.186 -13.203  0.00  0.00    -0.000 A 
ATOM     14  C   UNL d   1       6.363   4.430 -12.825  0.00  0.00    -0.004 A 
ATOM     15  C   UNL d   1       6.251   3.099 -13.250  0.00  0.00    -0.022 A 
ATOM     16  C   UNL d   1       7.289   2.545 -14.043  0.00  0.00     0.005 A 
ATOM     17  C   UNL d   1       7.194   1.079 -14.516  0.00  0.00     0.246 C 
ATOM     18  C   UNL d   1       8.598   0.427 -14.604  0.00  0.00     0.064 C 
ATOM     19  N   UNL d   1       6.279   0.241 -13.723  0.00  0.00     0.142 N 
ATOM     20  C   UNL d   1       6.043  -1.046 -14.357  0.00  0.00     0.286 C 
ATOM     21  C   UNL d   1       4.997   0.895 -13.671  0.00  0.00     0.255 C 
ATOM     22  C   UNL d   1       5.147   2.149 -12.820  0.00  0.00     0.061 C 
ENDROOT
TORSDOF 0
