REMARK  7 active torsions:
REMARK  status: ('A' for Active; 'I' for Inactive)
REMARK    1  A    between atoms: C_2  and  C_3 
REMARK    2  A    between atoms: C_3  and  C_5 
REMARK       I    between atoms: C_5  and  N_7 
REMARK    3  A    between atoms: N_7  and  C_8 
REMARK    4  A    between atoms: C_11  and  C_12 
REMARK    5  A    between atoms: C_12  and  C_13 
REMARK    6  A    between atoms: C_13  and  N_14 
REMARK    7  A    between atoms: C_17  and  C_18 
ROOT
ATOM      1  N   UNL d   1       9.185   3.583 -13.338  0.00  0.00     0.137 N 
ATOM      2  C   UNL d   1      10.203   3.263 -14.336  0.00  0.00     0.251 C 
ATOM      3  C   UNL d   1       9.757   2.080 -15.228  0.00  0.00     0.040 C 
ATOM      4  C   UNL d   1       8.404   2.360 -15.893  0.00  0.00     0.028 C 
ATOM      5  C   UNL d   1       7.449   2.814 -14.775  0.00  0.00     0.040 C 
ATOM      6  C   UNL d   1       7.954   4.005 -13.975  0.00  0.00     0.251 C 
ENDROOT
BRANCH   1   7
ATOM      7  C   UNL d   1       9.679   4.615 -12.446  0.00  0.00     0.250 C 
BRANCH   7   8
ATOM      8  C   UNL d   1       8.688   4.915 -11.300  0.00  0.00     0.035 C 
BRANCH   8   9
ATOM      9  C   UNL d   1       9.336   5.557 -10.066  0.00  0.00     0.002 C 
ATOM     10  C   UNL d   1       9.708   7.027 -10.335  0.00  0.00     0.002 C 
ATOM     11  C   UNL d   1      10.304   7.692  -9.089  0.00  0.00     0.024 C 
ATOM     12  C   UNL d   1       9.368   7.562  -7.856  0.00  0.00     0.106 C 
ATOM     13  C   UNL d   1       8.918   6.099  -7.623  0.00  0.00     0.024 C 
ATOM     14  C   UNL d   1       8.361   5.464  -8.887  0.00  0.00     0.002 C 
BRANCH  12  15
ATOM     15  N   UNL d   1       9.979   8.122  -6.651  0.00  0.00    -0.240 NA
ATOM     16  C   UNL d   1      11.062   7.630  -6.035  0.00  0.00     0.251 C 
ATOM     17  O   UNL d   1      11.649   6.622  -6.417  0.00  0.00    -0.271 OA
BRANCH  16  18
ATOM     18  C   UNL d   1      11.590   8.427  -4.843  0.00  0.00     0.081 C 
ATOM     19  C   UNL d   1      12.485   9.542  -5.382  0.00  0.00     0.010 C 
BRANCH  18  20
ATOM     20  C   UNL d   1      12.366   7.548  -3.828  0.00  0.00     0.009 C 
ATOM     21  C   UNL d   1      11.488   6.740  -2.876  0.00  0.00     0.001 C 
ENDBRANCH  18  20
ENDBRANCH  16  18
ENDBRANCH  12  15
ENDBRANCH   8   9
ENDBRANCH   7   8
ENDBRANCH   1   7
BRANCH   4  22
ATOM     22  C   UNL d   1       7.864   1.155 -16.624  0.00  0.00     0.004 A 
ATOM     23  C   UNL d   1       6.698   0.347 -16.328  0.00  0.00     0.021 A 
ATOM     24  C   UNL d   1       6.657  -0.675 -17.321  0.00  0.00     0.100 A 
ATOM     25  C   UNL d   1       5.641   0.309 -15.372  0.00  0.00     0.002 A 
ATOM     26  O   UNL d   1       7.738  -0.509 -18.172  0.00  0.00    -0.305 OA
ATOM     27  C   UNL d   1       5.673  -1.676 -17.374  0.00  0.00     0.025 A 
ATOM     28  C   UNL d   1       8.438   0.585 -17.737  0.00  0.00     0.118 A 
ATOM     29  C   UNL d   1       4.664  -1.683 -16.390  0.00  0.00     0.002 A 
ATOM     30  C   UNL d   1       4.654  -0.690 -15.391  0.00  0.00     0.000 A 
ENDBRANCH   4  22
TORSDOF 7
