REMARK  0 active torsions:
REMARK  status: ('A' for Active; 'I' for Inactive)
ROOT
ATOM      1  O   UNL d   1      12.577   9.590  -6.383  0.00  0.00    -0.188 OA
ATOM      2  C   UNL d   1      11.560   8.735  -6.688  0.00  0.00     0.154 A 
ATOM      3  C   UNL d   1      10.917   8.053  -5.647  0.00  0.00     0.057 A 
ATOM      4  I   UNL d   1      11.548   8.328  -3.677  0.00  0.00    -0.041 I 
ATOM      5  C   UNL d   1       9.896   7.145  -5.953  0.00  0.00     0.014 A 
ATOM      6  C   UNL d   1       9.503   6.938  -7.282  0.00  0.00     0.032 A 
ATOM      7  I   UNL d   1       7.998   5.566  -7.655  0.00  0.00    -0.043 I 
ATOM      8  C   UNL d   1      10.133   7.617  -8.327  0.00  0.00     0.025 A 
ATOM      9  C   UNL d   1       9.739   7.415  -9.668  0.00  0.00     0.004 A 
ATOM     10  C   UNL d   1      10.387   8.148 -10.657  0.00  0.00     0.021 A 
ATOM     11  C   UNL d   1      11.462   8.967 -10.277  0.00  0.00     0.099 A 
ATOM     12  N   UNL d   1      11.845   9.152  -9.011  0.00  0.00    -0.242 NA
ATOM     13  C   UNL d   1      11.187   8.515  -8.033  0.00  0.00     0.107 A 
ENDROOT
TORSDOF 0
