REMARK  7 active torsions:
REMARK  status: ('A' for Active; 'I' for Inactive)
REMARK    1  A    between atoms: C_9  and  O_10 
REMARK    2  A    between atoms: O_10  and  C_11 
REMARK    3  A    between atoms: C_11  and  C_12 
REMARK    4  A    between atoms: C_12  and  C_13 
REMARK    5  A    between atoms: C_13  and  C_14 
REMARK    6  A    between atoms: C_14  and  N_15 
REMARK    7  A    between atoms: N_19  and  C_20 
ROOT
ATOM      1  C   UNL d   1       8.460   6.474 -12.471  0.00  0.00     0.250 C 
ENDROOT
BRANCH   1   2
ATOM      2  C   UNL d   1       9.044   6.766 -11.095  0.00  0.00     0.038 C 
BRANCH   2   3
ATOM      3  C   UNL d   1       9.467   8.236 -10.939  0.00  0.00     0.035 C 
BRANCH   3   4
ATOM      4  C   UNL d   1       9.954   8.586  -9.526  0.00  0.00     0.149 C 
BRANCH   4   5
ATOM      5  O   UNL d   1       9.899   7.434  -8.704  0.00  0.00    -0.331 OA
BRANCH   5   6
ATOM      6  C   UNL d   1      10.483   7.522  -7.476  0.00  0.00     0.094 A 
ATOM      7  C   UNL d   1      11.149   6.390  -7.000  0.00  0.00     0.024 A 
ATOM      8  C   UNL d   1      11.791   6.392  -5.749  0.00  0.00    -0.002 A 
ATOM      9  C   UNL d   1      11.733   7.523  -4.936  0.00  0.00    -0.015 A 
ATOM     10  C   UNL d   1      12.496   7.556  -3.627  0.00  0.00     0.053 C 
ATOM     11  C   UNL d   1      11.053   8.656  -5.406  0.00  0.00     0.056 A 
ATOM     12  C   UNL d   1      11.890   8.565  -2.647  0.00  0.00     0.134 C 
ATOM     13  N   UNL d   1      11.468   9.796  -3.306  0.00  0.00    -0.234 NA
ATOM     14  C   UNL d   1      11.058   9.887  -4.583  0.00  0.00     0.275 C 
ATOM     15  O   UNL d   1      10.665  10.929  -5.064  0.00  0.00    -0.266 OA
ATOM     16  C   UNL d   1      10.419   8.669  -6.666  0.00  0.00     0.029 A 
ENDBRANCH   5   6
ENDBRANCH   4   5
ENDBRANCH   3   4
ENDBRANCH   2   3
ENDBRANCH   1   2
BRANCH   1  17
ATOM     17  N   UNL d   1       8.493   5.041 -12.754  0.00  0.00     0.139 N 
ATOM     18  C   UNL d   1       9.851   4.694 -13.187  0.00  0.00     0.274 C 
ATOM     19  C   UNL d   1      10.027   3.189 -13.415  0.00  0.00     0.137 C 
ATOM     20  N   UNL d   1       9.572   2.763 -14.729  0.00  0.00    -0.345 N 
ATOM     21  C   UNL d   1       8.158   2.518 -14.983  0.00  0.00     0.104 C 
ATOM     22  C   UNL d   1       7.217   3.280 -14.028  0.00  0.00     0.059 C 
ATOM     23  C   UNL d   1       7.546   4.766 -13.837  0.00  0.00     0.252 C 
BRANCH  20  24
ATOM     24  C   UNL d   1      10.497   2.638 -15.789  0.00  0.00     0.068 A 
ATOM     25  C   UNL d   1      10.704   1.392 -16.441  0.00  0.00     0.084 A 
ATOM     26  C   UNL d   1      11.599   1.309 -17.531  0.00  0.00     0.070 A 
ATOM     27 CL   UNL d   1       9.891  -0.037 -15.902  0.00  0.00    -0.080 Cl
ATOM     28  C   UNL d   1      12.300   2.445 -17.958  0.00  0.00     0.012 A 
ATOM     29 CL   UNL d   1      11.847  -0.183 -18.364  0.00  0.00    -0.081 Cl
ATOM     30  C   UNL d   1      12.116   3.672 -17.308  0.00  0.00     0.002 A 
ATOM     31  C   UNL d   1      11.221   3.772 -16.230  0.00  0.00     0.018 A 
ENDBRANCH  20  24
ENDBRANCH   1  17
TORSDOF 7
