REMARK  8 active torsions:
REMARK  status: ('A' for Active; 'I' for Inactive)
REMARK    1  A    between atoms: C_6  and  C_7 
REMARK    2  A    between atoms: C_10  and  S_11 
REMARK    3  A    between atoms: S_11  and  C_12 
REMARK    4  A    between atoms: C_12  and  C_13 
REMARK    5  A    between atoms: C_13  and  C_15 
REMARK    6  A    between atoms: C_15  and  N_16 
REMARK    7  A    between atoms: C_21  and  C_22 
REMARK    8  A    between atoms: C_25  and  C_26 
ROOT
ATOM      1  N   UNL d   1      11.238   3.334 -15.864  0.00  0.00     0.140 N 
ATOM      2  C   UNL d   1      12.467   3.772 -16.499  0.00  0.00     0.250 C 
ATOM      3  C   UNL d   1      12.424   3.129 -17.904  0.00  0.00     0.038 C 
ATOM      4  C   UNL d   1      11.560   1.896 -17.715  0.00  0.00     0.037 A 
ATOM      5  C   UNL d   1      11.866   0.593 -18.427  0.00  0.00     0.007 A 
ATOM      6  C   UNL d   1      10.620   1.368 -18.782  0.00  0.00     0.024 A 
ATOM      7  C   UNL d   1      11.164   1.935 -16.253  0.00  0.00     0.251 C 
ENDROOT
BRANCH   1   8
ATOM      8  C   UNL d   1      11.208   3.498 -14.420  0.00  0.00     0.284 C 
BRANCH   8   9
ATOM      9  C   UNL d   1       9.785   3.591 -13.819  0.00  0.00     0.197 C 
ATOM     10  O   UNL d   1       9.902   3.212 -12.471  0.00  0.00    -0.220 OA
BRANCH   9  11
ATOM     11  C   UNL d   1       9.241   5.034 -13.858  0.00  0.00     0.100 C 
BRANCH  11  12
ATOM     12  S   UNL d   1       7.934   5.397 -12.637  0.00  0.00    -0.073 SA
BRANCH  12  13
ATOM     13  C   UNL d   1       8.837   6.570 -11.670  0.00  0.00     0.193 A 
ATOM     14  N   UNL d   1       9.163   7.778 -12.117  0.00  0.00    -0.122 NA
ATOM     15  N   UNL d   1       9.823   8.385 -11.080  0.00  0.00    -0.126 NA
ATOM     16  C   UNL d   1       9.852   7.506 -10.075  0.00  0.00     0.191 A 
ATOM     17  N   UNL d   1       9.250   6.335 -10.402  0.00  0.00    -0.287 N 
ATOM     18  C   UNL d   1       9.011   5.155  -9.587  0.00  0.00     0.134 C 
BRANCH  16  19
ATOM     19  C   UNL d   1      10.461   7.855  -8.785  0.00  0.00     0.151 A 
ATOM     20  C   UNL d   1      10.155   7.586  -7.465  0.00  0.00     0.087 A 
ATOM     21  C   UNL d   1       9.050   6.793  -6.851  0.00  0.00     0.054 C 
ATOM     22  N   UNL d   1      11.114   8.194  -6.663  0.00  0.00    -0.221 NA
ATOM     23  C   UNL d   1      11.932   8.795  -7.514  0.00  0.00     0.225 A 
ATOM     24  O   UNL d   1      11.600   8.621  -8.820  0.00  0.00    -0.282 OA
ENDBRANCH  16  19
ENDBRANCH  12  13
ENDBRANCH  11  12
ENDBRANCH   9  11
ENDBRANCH   8   9
ENDBRANCH   1   8
BRANCH   6  25
ATOM     25  C   UNL d   1       9.260   0.873 -18.395  0.00  0.00    -0.022 A 
ATOM     26  C   UNL d   1       8.300   1.752 -17.846  0.00  0.00    -0.004 A 
ATOM     27  C   UNL d   1       7.057   1.261 -17.404  0.00  0.00     0.004 A 
ATOM     28  C   UNL d   1       6.753  -0.112 -17.520  0.00  0.00     0.071 A 
ATOM     29  C   UNL d   1       7.703  -0.983 -18.090  0.00  0.00     0.004 A 
ATOM     30  C   UNL d   1       8.948  -0.495 -18.523  0.00  0.00    -0.004 A 
BRANCH  28  31
ATOM     31  C   UNL d   1       5.400  -0.638 -17.066  0.00  0.00     0.419 C 
ATOM     32  F   UNL d   1       5.013  -0.015 -15.954  0.00  0.00    -0.166 F 
ATOM     33  F   UNL d   1       4.512  -0.408 -18.032  0.00  0.00    -0.166 F 
ATOM     34  F   UNL d   1       5.435  -1.946 -16.819  0.00  0.00    -0.166 F 
ENDBRANCH  28  31
ENDBRANCH   6  25
TORSDOF 8
