REMARK  6 active torsions:
REMARK  status: ('A' for Active; 'I' for Inactive)
REMARK    1  A    between atoms: C_2  and  O_3 
REMARK    2  A    between atoms: O_3  and  C_4 
REMARK    3  A    between atoms: C_4  and  C_6 
REMARK    4  A    between atoms: C_15  and  C_16 
REMARK    5  A    between atoms: C_16  and  N_17 
REMARK    6  A    between atoms: C_20  and  C_21 
ROOT
ATOM      1  C   UNL d   1       8.717   4.457 -12.485  0.00  0.00     0.251 C 
ENDROOT
BRANCH   1   2
ATOM      2  C   UNL d   1       9.753   3.777 -13.399  0.00  0.00     0.048 C 
ATOM      3  C   UNL d   1       9.082   2.690 -14.277  0.00  0.00     0.072 C 
ATOM      4  C   UNL d   1      10.021   2.020 -15.298  0.00  0.00     0.174 C 
ATOM      5  C   UNL d   1      11.050   2.901 -15.892  0.00  0.00     0.051 A 
ATOM      6  O   UNL d   1       9.882   0.838 -15.606  0.00  0.00    -0.291 OA
ATOM      7  C   UNL d   1      11.228   4.141 -15.368  0.00  0.00     0.080 A 
ATOM      8  C   UNL d   1      11.998   2.777 -16.951  0.00  0.00     0.011 A 
ATOM      9  O   UNL d   1      12.199   4.815 -16.010  0.00  0.00    -0.306 OA
ATOM     10  C   UNL d   1      10.512   4.807 -14.252  0.00  0.00     0.054 C 
ATOM     11  C   UNL d   1      12.676   3.976 -16.975  0.00  0.00     0.159 A 
ATOM     12  C   UNL d   1      12.211   1.581 -17.844  0.00  0.00     0.033 C 
BRANCH  11  13
ATOM     13  C   UNL d   1      13.791   4.432 -17.815  0.00  0.00     0.319 C 
ATOM     14  O   UNL d   1      14.289   3.732 -18.701  0.00  0.00    -0.257 OA
BRANCH  13  15
ATOM     15  O   UNL d   1      14.212   5.672 -17.486  0.00  0.00    -0.297 OA
BRANCH  15  16
ATOM     16  C   UNL d   1      15.390   6.219 -18.067  0.00  0.00     0.152 C 
ATOM     17  C   UNL d   1      16.583   5.876 -17.167  0.00  0.00     0.035 C 
ENDBRANCH  15  16
ENDBRANCH  13  15
ENDBRANCH  11  13
ENDBRANCH   1   2
BRANCH   1  18
ATOM     18  N   UNL d   1       9.388   5.327 -11.519  0.00  0.00     0.137 N 
ATOM     19  C   UNL d   1       8.787   6.656 -11.567  0.00  0.00     0.251 C 
ATOM     20  C   UNL d   1       9.517   7.612 -10.619  0.00  0.00     0.041 C 
ATOM     21  C   UNL d   1       9.476   7.124  -9.153  0.00  0.00     0.047 C 
ATOM     22  C   UNL d   1       9.976   5.676  -9.139  0.00  0.00     0.041 C 
ATOM     23  C   UNL d   1       9.255   4.797 -10.163  0.00  0.00     0.251 C 
BRANCH  21  24
ATOM     24  C   UNL d   1      10.293   8.014  -8.232  0.00  0.00     0.087 A 
ATOM     25  C   UNL d   1      10.722   7.856  -6.894  0.00  0.00     0.041 A 
ATOM     26  C   UNL d   1      11.447   8.971  -6.494  0.00  0.00     0.129 A 
ATOM     27  C   UNL d   1      10.525   6.821  -5.967  0.00  0.00     0.006 A 
ATOM     28  O   UNL d   1      11.451   9.795  -7.593  0.00  0.00    -0.211 OA
ATOM     29  C   UNL d   1      12.009   9.118  -5.224  0.00  0.00     0.057 A 
ATOM     30  N   UNL d   1      10.744   9.187  -8.658  0.00  0.00    -0.131 NA
ATOM     31  C   UNL d   1      11.850   8.057  -4.309  0.00  0.00     0.142 A 
ATOM     32  F   UNL d   1      12.378   8.146  -3.063  0.00  0.00    -0.204 F 
ATOM     33  C   UNL d   1      11.118   6.909  -4.687  0.00  0.00     0.030 A 
ENDBRANCH  21  24
ENDBRANCH   1  18
TORSDOF 6
