REMARK  9 active torsions:
REMARK  status: ('A' for Active; 'I' for Inactive)
REMARK    1  A    between atoms: N_15  and  C_16 
REMARK    2  A    between atoms: C_16  and  C_17 
REMARK    3  A    between atoms: C_17  and  C_18 
REMARK    4  A    between atoms: C_18  and  C_19 
REMARK    5  A    between atoms: C_19  and  C_20 
REMARK    6  A    between atoms: C_20  and  C_21 
REMARK    7  A    between atoms: C_21  and  N_22 
REMARK    8  A    between atoms: N_25  and  C_26 
REMARK    9  A    between atoms: C_31  and  N_32 
ROOT
ATOM      1  C   UNL d   1       9.244   2.402 -17.074  0.00  0.00     0.002 C 
ENDROOT
BRANCH   1   2
ATOM      2  C   UNL d   1       8.981   1.150 -17.928  0.00  0.00     0.025 C 
BRANCH   2   3
ATOM      3  C   UNL d   1       9.305   1.355 -19.423  0.00  0.00     0.112 C 
BRANCH   3   4
ATOM      4  N   UNL d   1      10.753   1.549 -19.674  0.00  0.00    -0.264 N 
ATOM      5  C   UNL d   1      11.551   0.444 -19.642  0.00  0.00     0.263 A 
ATOM      6  O   UNL d   1      11.117  -0.689 -19.410  0.00  0.00    -0.267 OA
ATOM      7  C   UNL d   1      13.027   0.613 -19.892  0.00  0.00     0.056 A 
ATOM      8  C   UNL d   1      13.584   1.889 -20.152  0.00  0.00     0.009 A 
ATOM      9  C   UNL d   1      13.903  -0.496 -19.877  0.00  0.00     0.005 A 
ATOM     10  C   UNL d   1      14.977   2.056 -20.399  0.00  0.00     0.000 A 
ATOM     11  C   UNL d   1      12.694   2.989 -20.159  0.00  0.00     0.056 A 
ATOM     12  C   UNL d   1      15.809   0.921 -20.378  0.00  0.00     0.000 A 
ATOM     13  C   UNL d   1      15.462   3.352 -20.662  0.00  0.00     0.000 A 
ATOM     14  C   UNL d   1      15.279  -0.349 -20.115  0.00  0.00     0.000 A 
ATOM     15  C   UNL d   1      14.602   4.457 -20.665  0.00  0.00     0.000 A 
ATOM     16  C   UNL d   1      13.233   4.270 -20.416  0.00  0.00     0.005 A 
ATOM     17  C   UNL d   1      11.219   2.810 -19.900  0.00  0.00     0.263 A 
ATOM     18  O   UNL d   1      10.492   3.806 -19.892  0.00  0.00    -0.267 OA
ENDBRANCH   3   4
ENDBRANCH   2   3
ENDBRANCH   1   2
BRANCH   1  19
ATOM     19  C   UNL d   1       8.857   2.207 -15.605  0.00  0.00     0.002 C 
BRANCH  19  20
ATOM     20  C   UNL d   1       9.071   3.487 -14.791  0.00  0.00     0.035 C 
BRANCH  20  21
ATOM     21  C   UNL d   1       8.613   3.313 -13.341  0.00  0.00     0.250 C 
BRANCH  21  22
ATOM     22  N   UNL d   1       8.601   4.608 -12.688  0.00  0.00     0.141 N 
ATOM     23  C   UNL d   1       7.635   4.655 -11.575  0.00  0.00     0.274 C 
ATOM     24  C   UNL d   1       7.729   5.986 -10.845  0.00  0.00     0.137 C 
ATOM     25  N   UNL d   1       9.086   6.239 -10.380  0.00  0.00    -0.343 N 
ATOM     26  C   UNL d   1      10.011   6.228 -11.462  0.00  0.00     0.137 C 
ATOM     27  C   UNL d   1       9.935   4.861 -12.158  0.00  0.00     0.274 C 
BRANCH  25  28
ATOM     28  C   UNL d   1       9.412   6.656  -9.059  0.00  0.00     0.078 A 
ATOM     29  C   UNL d   1      10.401   7.628  -8.724  0.00  0.00     0.142 A 
ATOM     30  C   UNL d   1      10.652   8.023  -7.392  0.00  0.00     0.025 A 
ATOM     31  C   UNL d   1       9.928   7.456  -6.350  0.00  0.00     0.002 A 
ATOM     32  C   UNL d   1       8.947   6.508  -6.673  0.00  0.00     0.002 A 
ATOM     33  C   UNL d   1       8.692   6.102  -7.994  0.00  0.00     0.019 A 
BRANCH  29  34
ATOM     34  N   UNL d   1      11.175   8.355  -9.708  0.00  0.00    -0.112 N 
ATOM     35  O   UNL d   1      12.383   8.169  -9.719  0.00  0.00    -0.532 OA
ATOM     36  O   UNL d   1      10.575   9.143 -10.409  0.00  0.00    -0.532 OA
ENDBRANCH  29  34
ENDBRANCH  25  28
ENDBRANCH  21  22
ENDBRANCH  20  21
ENDBRANCH  19  20
ENDBRANCH   1  19
TORSDOF 9
