REMARK  8 active torsions:
REMARK  status: ('A' for Active; 'I' for Inactive)
REMARK    1  A    between atoms: C_2  and  C_3 
REMARK    2  A    between atoms: C_9  and  O_10 
REMARK    3  A    between atoms: O_10  and  C_11 
REMARK    4  A    between atoms: C_11  and  C_12 
REMARK    5  A    between atoms: C_12  and  C_13 
REMARK    6  A    between atoms: C_13  and  C_14 
REMARK    7  A    between atoms: C_14  and  N_15 
REMARK    8  A    between atoms: N_18  and  C_19 
ROOT
ATOM      1  C   UNL d   1       9.086   2.346 -14.455  0.00  0.00     0.038 C 
ENDROOT
BRANCH   1   2
ATOM      2  C   UNL d   1       7.611   1.926 -14.447  0.00  0.00     0.035 C 
BRANCH   2   3
ATOM      3  C   UNL d   1       7.457   0.401 -14.288  0.00  0.00     0.149 C 
BRANCH   3   4
ATOM      4  O   UNL d   1       6.097  -0.015 -14.355  0.00  0.00    -0.331 OA
BRANCH   4   5
ATOM      5  C   UNL d   1       5.577  -0.332 -15.589  0.00  0.00     0.097 A 
ATOM      6  C   UNL d   1       4.454  -1.193 -15.590  0.00  0.00     0.045 A 
ATOM      7  C   UNL d   1       3.882  -1.605 -16.771  0.00  0.00     0.102 A 
ATOM      8  N   UNL d   1       4.394  -1.158 -17.944  0.00  0.00    -0.228 N 
ATOM      9  N   UNL d   1       3.930  -1.488 -19.194  0.00  0.00    -0.164 NA
ATOM     10  C   UNL d   1       5.491  -0.278 -18.014  0.00  0.00     0.090 A 
ATOM     11  C   UNL d   1       4.719  -0.827 -20.010  0.00  0.00     0.125 A 
ATOM     12  C   UNL d   1       5.701  -0.053 -19.348  0.00  0.00     0.081 A 
ATOM     13  C   UNL d   1       6.092   0.128 -16.791  0.00  0.00     0.044 A 
BRANCH  12  14
ATOM     14  C   UNL d   1       6.729   0.796 -19.916  0.00  0.00     0.237 C 
ATOM     15  O   UNL d   1       7.451   1.573 -19.293  0.00  0.00    -0.283 OA
ENDBRANCH  12  14
ENDBRANCH   4   5
ENDBRANCH   3   4
ENDBRANCH   2   3
ENDBRANCH   1   2
BRANCH   1  16
ATOM     16  C   UNL d   1       9.249   3.878 -14.465  0.00  0.00     0.251 C 
BRANCH  16  17
ATOM     17  N   UNL d   1       8.766   4.498 -13.234  0.00  0.00     0.141 N 
ATOM     18  C   UNL d   1       9.631   4.125 -12.110  0.00  0.00     0.274 C 
ATOM     19  C   UNL d   1       9.153   4.777 -10.823  0.00  0.00     0.137 C 
ATOM     20  N   UNL d   1       9.128   6.223 -10.976  0.00  0.00    -0.344 N 
ATOM     21  C   UNL d   1       8.331   6.681 -12.106  0.00  0.00     0.137 C 
ATOM     22  C   UNL d   1       8.832   5.957 -13.364  0.00  0.00     0.274 C 
BRANCH  20  23
ATOM     23  C   UNL d   1       9.673   7.105 -10.041  0.00  0.00     0.068 A 
ATOM     24  C   UNL d   1       9.575   6.917  -8.633  0.00  0.00     0.084 A 
ATOM     25  C   UNL d   1      10.201   7.811  -7.740  0.00  0.00     0.070 A 
ATOM     26 CL   UNL d   1       8.628   5.615  -8.042  0.00  0.00    -0.080 Cl
ATOM     27  C   UNL d   1      10.923   8.908  -8.231  0.00  0.00     0.012 A 
ATOM     28 CL   UNL d   1      10.111   7.588  -6.035  0.00  0.00    -0.081 Cl
ATOM     29  C   UNL d   1      11.012   9.123  -9.617  0.00  0.00     0.002 A 
ATOM     30  C   UNL d   1      10.373   8.243 -10.502  0.00  0.00     0.018 A 
ENDBRANCH  20  23
ENDBRANCH  16  17
ENDBRANCH   1  16
TORSDOF 8
