REMARK  6 active torsions:
REMARK  status: ('A' for Active; 'I' for Inactive)
REMARK    1  A    between atoms: S_2  and  N_4 
REMARK    2  A    between atoms: S_2  and  C_23 
REMARK    3  A    between atoms: N_4  and  C_5 
REMARK    4  A    between atoms: C_5  and  C_6 
REMARK    5  A    between atoms: C_6  and  N_7 
REMARK    6  A    between atoms: C_10  and  C_11 
ROOT
ATOM      1  N   UNL d   1       9.449   4.880 -12.253  0.00  0.00     0.144 N 
ATOM      2  C   UNL d   1       9.792   3.484 -12.480  0.00  0.00     0.276 C 
ATOM      3  C   UNL d   1       9.921   3.010 -13.910  0.00  0.00     0.005 C 
ATOM      4  C   UNL d   1       9.457   3.765 -14.914  0.00  0.00    -0.021 C 
ATOM      5  C   UNL d   1       8.903   5.098 -14.540  0.00  0.00     0.061 C 
ATOM      6  C   UNL d   1       8.352   5.234 -13.129  0.00  0.00     0.255 C 
ENDROOT
BRANCH   1   7
ATOM      7  C   UNL d   1       9.096   5.104 -10.855  0.00  0.00     0.278 C 
BRANCH   7   8
ATOM      8  C   UNL d   1       8.907   6.607 -10.574  0.00  0.00     0.174 C 
BRANCH   8   9
ATOM      9  N   UNL d   1      10.189   7.257 -10.666  0.00  0.00    -0.183 NA
BRANCH   9  10
ATOM     10  S   UNL d   1      10.544   8.709  -9.867  0.00  0.00     0.281 S 
ATOM     11  O   UNL d   1      11.800   9.144 -10.442  0.00  0.00    -0.199 OA
ATOM     12  O   UNL d   1       9.342   9.572  -9.907  0.00  0.00    -0.199 OA
BRANCH  10  13
ATOM     13  C   UNL d   1      10.805   8.212  -8.180  0.00  0.00     0.105 A 
ATOM     14  C   UNL d   1      11.417   9.109  -7.291  0.00  0.00     0.013 A 
ATOM     15  C   UNL d   1      11.620   8.733  -5.949  0.00  0.00     0.001 A 
ATOM     16  C   UNL d   1      11.205   7.454  -5.510  0.00  0.00     0.000 A 
ATOM     17  C   UNL d   1      12.264   9.586  -5.069  0.00  0.00     0.000 A 
ATOM     18  C   UNL d   1      10.600   6.591  -6.413  0.00  0.00     0.001 A 
ATOM     19  C   UNL d   1      11.442   7.039  -4.190  0.00  0.00     0.000 A 
ATOM     20  C   UNL d   1      10.422   6.916  -7.753  0.00  0.00     0.013 A 
ATOM     21  C   UNL d   1      12.037   7.926  -3.281  0.00  0.00     0.000 A 
ATOM     22  C   UNL d   1      12.449   9.194  -3.719  0.00  0.00     0.000 A 
ENDBRANCH  10  13
ENDBRANCH   9  10
ENDBRANCH   8   9
ENDBRANCH   7   8
ENDBRANCH   1   7
BRANCH   4  23
ATOM     23  C   UNL d   1       9.556   3.366 -16.311  0.00  0.00     0.017 A 
ATOM     24  C   UNL d   1      10.017   4.217 -17.387  0.00  0.00     0.021 A 
ATOM     25  C   UNL d   1      10.003   3.383 -18.544  0.00  0.00     0.082 A 
ATOM     26  C   UNL d   1      10.448   5.553 -17.539  0.00  0.00     0.031 A 
ATOM     27  N   UNL d   1       9.552   2.139 -18.138  0.00  0.00    -0.244 NA
ATOM     28  C   UNL d   1      10.406   3.871 -19.803  0.00  0.00     0.021 A 
ATOM     29  C   UNL d   1       9.289   2.126 -16.781  0.00  0.00     0.099 A 
ATOM     30  C   UNL d   1      10.826   5.206 -19.926  0.00  0.00     0.031 A 
ATOM     31  C   UNL d   1      10.846   6.050 -18.801  0.00  0.00     0.140 A 
ATOM     32  F   UNL d   1      11.247   7.334 -18.927  0.00  0.00    -0.204 F 
ENDBRANCH   4  23
TORSDOF 6
