REMARK  4 active torsions:
REMARK  status: ('A' for Active; 'I' for Inactive)
REMARK    1  A    between atoms: O_2  and  C_3 
REMARK    2  A    between atoms: C_9  and  C_10 
REMARK    3  A    between atoms: N_18  and  S_19 
REMARK    4  A    between atoms: S_19  and  C_22 
ROOT
ATOM      1  C   UNL d   1       7.901   2.364 -21.079  0.00  0.00     0.094 A 
ATOM      2  C   UNL d   1       8.893   2.998 -20.284  0.00  0.00     0.026 A 
ATOM      3  C   UNL d   1       9.157   2.543 -18.984  0.00  0.00     0.020 A 
ATOM      4  C   UNL d   1       8.456   1.443 -18.473  0.00  0.00     0.075 A 
ATOM      5  C   UNL d   1       7.452   0.771 -19.234  0.00  0.00     0.022 A 
ATOM      6  C   UNL d   1       7.195   1.262 -20.544  0.00  0.00     0.026 A 
ATOM      7  C   UNL d   1       6.911  -0.288 -18.396  0.00  0.00     0.038 A 
ATOM      8  C   UNL d   1       7.596  -0.208 -17.210  0.00  0.00     0.093 A 
ATOM      9  N   UNL d   1       8.532   0.817 -17.246  0.00  0.00    -0.231 N 
ENDROOT
BRANCH   9  10
ATOM     10  S   UNL d   1       9.557   1.219 -15.907  0.00  0.00     0.271 S 
ATOM     11  O   UNL d   1       9.791  -0.040 -15.190  0.00  0.00    -0.200 OA
ATOM     12  O   UNL d   1      10.689   1.998 -16.441  0.00  0.00    -0.200 OA
BRANCH  10  13
ATOM     13  C   UNL d   1       8.532   2.284 -14.898  0.00  0.00     0.104 A 
ATOM     14  C   UNL d   1       9.033   3.518 -14.434  0.00  0.00     0.013 A 
ATOM     15  C   UNL d   1       8.211   4.345 -13.638  0.00  0.00     0.001 A 
ATOM     16  C   UNL d   1       6.888   3.937 -13.325  0.00  0.00     0.000 A 
ATOM     17  C   UNL d   1       8.693   5.575 -13.149  0.00  0.00     0.000 A 
ATOM     18  C   UNL d   1       6.395   2.712 -13.811  0.00  0.00     0.001 A 
ATOM     19  C   UNL d   1       6.064   4.751 -12.523  0.00  0.00     0.000 A 
ATOM     20  C   UNL d   1       7.216   1.882 -14.591  0.00  0.00     0.013 A 
ATOM     21  C   UNL d   1       6.553   5.978 -12.039  0.00  0.00     0.000 A 
ATOM     22  C   UNL d   1       7.862   6.389 -12.352  0.00  0.00     0.000 A 
ENDBRANCH  10  13
ENDBRANCH   9  10
BRANCH   7  23
ATOM     23  C   UNL d   1       5.835  -1.210 -18.770  0.00  0.00     0.087 A 
ATOM     24  C   UNL d   1       4.832  -1.724 -17.968  0.00  0.00     0.028 A 
ATOM     25  S   UNL d   1       3.802  -2.828 -18.835  0.00  0.00    -0.057 SA
ATOM     26  C   UNL d   1       4.559  -1.448 -16.526  0.00  0.00     0.040 C 
ATOM     27  C   UNL d   1       4.792  -2.580 -20.257  0.00  0.00     0.181 A 
ATOM     28  N   UNL d   1       5.782  -1.711 -20.081  0.00  0.00    -0.225 NA
ATOM     29  N   UNL d   1       4.554  -3.251 -21.441  0.00  0.00    -0.072 NA
ENDBRANCH   7  23
BRANCH   1  30
ATOM     30  O   UNL d   1       7.589   2.780 -22.358  0.00  0.00    -0.328 OA
ATOM     31  C   UNL d   1       8.283   3.908 -22.859  0.00  0.00     0.181 C 
ENDBRANCH   1  30
TORSDOF 4
