REMARK  2 active torsions:
REMARK  status: ('A' for Active; 'I' for Inactive)
REMARK    1  A    between atoms: N_5  and  C1*_6 
REMARK    2  A    between atoms: C4*_8  and  C5*_9 
ROOT
ATOM      1  C1* UNL d   1      10.510   7.049  -6.889  0.00  0.00     0.244 C 
ATOM      2  O4* UNL d   1      11.591   6.999  -7.753  0.00  0.00    -0.331 OA
ATOM      3  C4* UNL d   1      11.324   7.644  -9.011  0.00  0.00     0.183 C 
ATOM      4  C3* UNL d   1      10.140   8.540  -8.713  0.00  0.00     0.216 C 
ATOM      5  O3* UNL d   1       9.466   8.914  -9.884  0.00  0.00    -0.218 OA
ATOM      6  C2* UNL d   1       9.372   7.670  -7.698  0.00  0.00     0.234 C 
ATOM      7  O2* UNL d   1       8.675   6.638  -8.375  0.00  0.00    -0.216 OA
ENDROOT
BRANCH   1   8
ATOM      8  N   UNL d   1      10.910   7.851  -5.674  0.00  0.00    -0.236 N 
ATOM      9  C   UNL d   1      10.672   9.293  -5.564  0.00  0.00     0.203 C 
ATOM     10  N   UNL d   1      11.124   9.954  -4.560  0.00  0.00    -0.037 NA
ATOM     11  C   UNL d   1      11.776   9.185  -3.591  0.00  0.00     0.774 C 
ATOM     12  N   UNL d   1      12.022   9.905  -2.462  0.00  0.00     0.062 N 
ATOM     13  N   UNL d   1      12.116   7.938  -3.630  0.00  0.00    -0.000 NA
ATOM     14  C   UNL d   1      11.664   7.197  -4.687  0.00  0.00     0.368 C 
ATOM     15  O   UNL d   1      11.874   6.012  -4.774  0.00  0.00    -0.244 OA
ENDBRANCH   1   8
BRANCH   3  16
ATOM     16  C5* UNL d   1      12.551   8.459  -9.395  0.00  0.00     0.214 C 
ATOM     17  O5* UNL d   1      12.249   9.190 -10.566  0.00  0.00    -0.218 OA
ENDBRANCH   3  16
TORSDOF 2
