REMARK  9 active torsions:
REMARK  status: ('A' for Active; 'I' for Inactive)
REMARK    1  A    between atoms: O_2  and  C_3 
REMARK    2  A    between atoms: C_8  and  N_9 
REMARK    3  A    between atoms: N_12  and  C_13 
REMARK    4  A    between atoms: C_13  and  C_14 
REMARK    5  A    between atoms: C_14  and  C_15 
REMARK    6  A    between atoms: C_15  and  C_16 
REMARK    7  A    between atoms: C_16  and  N_17 
REMARK       I    between atoms: N_17  and  C_18 
REMARK    8  A    between atoms: C_18  and  C_20 
REMARK    9  A    between atoms: C_22  and  C_23 
ROOT
ATOM      1  C   UNL d   1       6.297   5.125 -12.381  0.00  0.00     0.251 C 
ENDROOT
BRANCH   1   2
ATOM      2  N   UNL d   1       7.711   5.261 -12.009  0.00  0.00     0.141 N 
ATOM      3  C   UNL d   1       8.145   6.644 -12.195  0.00  0.00     0.274 C 
ATOM      4  C   UNL d   1       9.616   6.840 -11.747  0.00  0.00     0.137 C 
ATOM      5  N   UNL d   1       9.841   6.331 -10.401  0.00  0.00    -0.343 N 
ATOM      6  C   UNL d   1       9.318   4.990 -10.150  0.00  0.00     0.137 C 
ATOM      7  C   UNL d   1       7.852   4.957 -10.586  0.00  0.00     0.274 C 
BRANCH   5   8
ATOM      8  C   UNL d   1      10.385   7.156  -9.388  0.00  0.00     0.079 A 
ATOM      9  C   UNL d   1       9.810   7.242  -8.096  0.00  0.00     0.110 A 
ATOM     10  C   UNL d   1      10.426   8.054  -7.099  0.00  0.00     0.026 A 
ATOM     11  C   UNL d   1      11.614   8.748  -7.373  0.00  0.00     0.002 A 
ATOM     12  C   UNL d   1      12.183   8.652  -8.647  0.00  0.00     0.002 A 
ATOM     13  C   UNL d   1      11.554   7.889  -9.643  0.00  0.00     0.019 A 
BRANCH   9  14
ATOM     14  O   UNL d   1       8.664   6.521  -7.874  0.00  0.00    -0.327 OA
ATOM     15  C   UNL d   1       8.074   6.627  -6.620  0.00  0.00     0.181 C 
ENDBRANCH   9  14
ENDBRANCH   5   8
ENDBRANCH   1   2
BRANCH   1  16
ATOM     16  C   UNL d   1       5.879   3.659 -12.597  0.00  0.00     0.037 C 
BRANCH  16  17
ATOM     17  C   UNL d   1       6.778   2.960 -13.629  0.00  0.00     0.029 C 
BRANCH  17  18
ATOM     18  C   UNL d   1       6.339   1.514 -13.943  0.00  0.00     0.129 C 
BRANCH  18  19
ATOM     19  N   UNL d   1       7.401   0.721 -14.559  0.00  0.00    -0.238 NA
ATOM     20  C   UNL d   1       8.086   1.056 -15.662  0.00  0.00     0.251 C 
ATOM     21  O   UNL d   1       7.799   2.028 -16.368  0.00  0.00    -0.271 OA
BRANCH  20  22
ATOM     22  C   UNL d   1       9.264   0.177 -15.934  0.00  0.00     0.085 A 
ATOM     23  C   UNL d   1      10.647   0.810 -16.015  0.00  0.00     0.032 A 
ATOM     24  C   UNL d   1       9.961   0.341 -17.275  0.00  0.00     0.015 A 
BRANCH  23  25
ATOM     25  C   UNL d   1      10.892   2.259 -15.741  0.00  0.00    -0.022 A 
ATOM     26  C   UNL d   1      11.323   3.128 -16.766  0.00  0.00    -0.004 A 
ATOM     27  C   UNL d   1      11.479   4.504 -16.512  0.00  0.00    -0.000 A 
ATOM     28  C   UNL d   1      11.214   5.012 -15.222  0.00  0.00    -0.000 A 
ATOM     29  C   UNL d   1      10.826   4.132 -14.184  0.00  0.00    -0.000 A 
ATOM     30  C   UNL d   1      10.668   2.767 -14.448  0.00  0.00    -0.004 A 
ENDBRANCH  23  25
ENDBRANCH  20  22
ENDBRANCH  18  19
ENDBRANCH  17  18
ENDBRANCH  16  17
ENDBRANCH   1  16
TORSDOF 9
