REMARK  6 active torsions:
REMARK  status: ('A' for Active; 'I' for Inactive)
REMARK    1  A    between atoms: C_5  and  C_6 
REMARK    2  A    between atoms: C_6  and  O_7 
REMARK    3  A    between atoms: C_6  and  C_25 
REMARK    4  A    between atoms: O_7  and  C_8 
REMARK    5  A    between atoms: N_15  and  C_16 
REMARK    6  A    between atoms: C_16  and  C_17 
ROOT
ATOM      1  C   UNL d   1      12.503   4.907 -16.562  0.00  0.00     0.120 C 
ATOM      2  C   UNL d   1      11.168   5.593 -16.917  0.00  0.00     0.063 C 
ATOM      3  C   UNL d   1       9.991   4.966 -16.131  0.00  0.00     0.222 C 
ATOM      4  C   UNL d   1       9.893   3.442 -16.302  0.00  0.00     0.035 C 
ATOM      5  C   UNL d   1      10.763   2.888 -15.172  0.00  0.00     0.035 C 
ATOM      6  C   UNL d   1      11.278   4.146 -14.447  0.00  0.00     0.222 C 
ATOM      7  C   UNL d   1      12.602   4.676 -15.043  0.00  0.00     0.063 C 
ATOM      8  N   UNL d   1      10.262   5.175 -14.704  0.00  0.00     0.138 N 
ENDROOT
BRANCH   1   9
ATOM      9  O   UNL d   1      13.588   5.727 -17.017  0.00  0.00    -0.350 OA
BRANCH   9  10
ATOM     10  C   UNL d   1      14.682   5.004 -17.575  0.00  0.00     0.160 C 
BRANCH  10  11
ATOM     11  C   UNL d   1      14.314   4.395 -18.928  0.00  0.00     0.009 A 
ATOM     12  C   UNL d   1      13.671   5.180 -19.912  0.00  0.00     0.001 A 
ATOM     13  C   UNL d   1      13.379   4.639 -21.177  0.00  0.00     0.029 A 
ATOM     14  C   UNL d   1      13.664   3.289 -21.450  0.00  0.00     0.140 A 
ATOM     15  F   UNL d   1      13.347   2.759 -22.656  0.00  0.00    -0.204 F 
ATOM     16  C   UNL d   1      14.259   2.484 -20.459  0.00  0.00     0.029 A 
ATOM     17  C   UNL d   1      14.594   3.039 -19.206  0.00  0.00     0.001 A 
ENDBRANCH  10  11
BRANCH  10  18
ATOM     18  C   UNL d   1      15.943   5.878 -17.660  0.00  0.00     0.009 A 
ATOM     19  C   UNL d   1      17.061   5.605 -16.834  0.00  0.00     0.001 A 
ATOM     20  C   UNL d   1      18.232   6.394 -16.917  0.00  0.00     0.029 A 
ATOM     21  C   UNL d   1      18.303   7.447 -17.847  0.00  0.00     0.140 A 
ATOM     22  C   UNL d   1      17.202   7.722 -18.680  0.00  0.00     0.029 A 
ATOM     23  F   UNL d   1      19.428   8.198 -17.937  0.00  0.00    -0.204 F 
ATOM     24  C   UNL d   1      16.026   6.956 -18.574  0.00  0.00     0.001 A 
ENDBRANCH  10  18
ENDBRANCH   9  10
ENDBRANCH   1   9
BRANCH   8  25
ATOM     25  C   UNL d   1       9.070   5.007 -13.874  0.00  0.00     0.277 C 
BRANCH  25  26
ATOM     26  C   UNL d   1       9.192   5.641 -12.502  0.00  0.00     0.012 A 
ATOM     27  C   UNL d   1       9.061   4.842 -11.358  0.00  0.00     0.010 A 
ATOM     28  C   UNL d   1       9.194   5.407 -10.075  0.00  0.00     0.068 A 
ATOM     29  C   UNL d   1       9.457   6.782  -9.916  0.00  0.00     0.068 A 
ATOM     30 CL   UNL d   1       9.049   4.391  -8.703  0.00  0.00    -0.082 Cl
ATOM     31  C   UNL d   1       9.558   7.593 -11.063  0.00  0.00     0.012 A 
ATOM     32 CL   UNL d   1       9.686   7.476  -8.343  0.00  0.00    -0.082 Cl
ATOM     33  C   UNL d   1       9.417   7.025 -12.342  0.00  0.00    -0.001 A 
ENDBRANCH  25  26
ENDBRANCH   8  25
TORSDOF 6
