REMARK  8 active torsions:
REMARK  status: ('A' for Active; 'I' for Inactive)
REMARK    1  A    between atoms: O_2  and  C_3 
REMARK    2  A    between atoms: C_8  and  N_9 
REMARK    3  A    between atoms: N_12  and  C_13 
REMARK    4  A    between atoms: C_13  and  C_14 
REMARK    5  A    between atoms: C_14  and  C_15 
REMARK    6  A    between atoms: C_15  and  C_16 
REMARK    7  A    between atoms: C_16  and  N_17 
REMARK       I    between atoms: N_17  and  C_18 
REMARK    8  A    between atoms: C_18  and  C_20 
ROOT
ATOM      1  C   UNL d   1       5.332   3.859 -12.262  0.00  0.00     0.251 C 
ENDROOT
BRANCH   1   2
ATOM      2  N   UNL d   1       6.153   2.878 -12.999  0.00  0.00     0.141 N 
ATOM      3  C   UNL d   1       5.529   1.548 -12.963  0.00  0.00     0.274 C 
ATOM      4  C   UNL d   1       6.416   0.489 -13.670  0.00  0.00     0.137 C 
ATOM      5  N   UNL d   1       6.755   0.937 -15.023  0.00  0.00    -0.343 N 
ATOM      6  C   UNL d   1       7.337   2.278 -15.085  0.00  0.00     0.137 C 
ATOM      7  C   UNL d   1       6.452   3.302 -14.361  0.00  0.00     0.274 C 
BRANCH   5   8
ATOM      8  C   UNL d   1       6.488   0.224 -16.178  0.00  0.00     0.079 A 
ATOM      9  C   UNL d   1       5.266  -0.498 -16.358  0.00  0.00     0.110 A 
ATOM     10  C   UNL d   1       5.068  -1.255 -17.541  0.00  0.00     0.026 A 
ATOM     11  C   UNL d   1       6.050  -1.279 -18.550  0.00  0.00     0.002 A 
ATOM     12  C   UNL d   1       7.239  -0.543 -18.398  0.00  0.00     0.002 A 
ATOM     13  C   UNL d   1       7.446   0.200 -17.223  0.00  0.00     0.019 A 
BRANCH   9  14
ATOM     14  O   UNL d   1       4.323  -0.386 -15.361  0.00  0.00    -0.327 OA
ATOM     15  C   UNL d   1       3.180  -1.204 -15.428  0.00  0.00     0.181 C 
ENDBRANCH   9  14
ENDBRANCH   5   8
ENDBRANCH   1   2
BRANCH   1  16
ATOM     16  C   UNL d   1       5.733   5.333 -12.454  0.00  0.00     0.037 C 
BRANCH  16  17
ATOM     17  C   UNL d   1       7.156   5.600 -11.958  0.00  0.00     0.029 C 
BRANCH  17  18
ATOM     18  C   UNL d   1       7.774   6.938 -12.412  0.00  0.00     0.129 C 
BRANCH  18  19
ATOM     19  N   UNL d   1       8.964   7.362 -11.643  0.00  0.00    -0.233 NA
ATOM     20  C   UNL d   1       9.721   6.569 -10.871  0.00  0.00     0.293 C 
ATOM     21  O   UNL d   1       9.840   5.354 -10.984  0.00  0.00    -0.264 OA
BRANCH  20  22
ATOM     22  C   UNL d   1      10.348   7.255  -9.703  0.00  0.00     0.140 A 
ATOM     23  N   UNL d   1       9.871   7.012  -8.455  0.00  0.00    -0.225 N 
ATOM     24  C   UNL d   1      10.457   7.596  -7.318  0.00  0.00     0.085 A 
ATOM     25  N   UNL d   1       8.809   6.213  -8.108  0.00  0.00    -0.164 NA
ATOM     26  C   UNL d   1      11.606   8.404  -7.466  0.00  0.00     0.019 A 
ATOM     27  C   UNL d   1       9.709   7.212  -6.256  0.00  0.00     0.042 C 
ATOM     28  C   UNL d   1      12.109   8.595  -8.726  0.00  0.00     0.003 A 
ATOM     29  C   UNL d   1      11.450   8.049  -9.855  0.00  0.00     0.024 A 
ATOM     30  C   UNL d   1       8.667   6.441  -6.825  0.00  0.00     0.122 C 
ENDBRANCH  20  22
ENDBRANCH  18  19
ENDBRANCH  17  18
ENDBRANCH  16  17
ENDBRANCH   1  16
TORSDOF 8
