REMARK  2 active torsions:
REMARK  status: ('A' for Active; 'I' for Inactive)
REMARK    1  A    between atoms: O_2  and  C_3 
REMARK    2  A    between atoms: C_7  and  O_8 
ROOT
ATOM      1  C   UNL d   1       8.987   4.979 -12.266  0.00  0.00     0.121 A 
ATOM      2  C   UNL d   1       9.761   4.044 -12.981  0.00  0.00     0.024 A 
ATOM      3  C   UNL d   1       9.152   3.140 -13.876  0.00  0.00     0.011 A 
ATOM      4  C   UNL d   1       7.757   3.180 -14.069  0.00  0.00     0.003 A 
ATOM      5  C   UNL d   1       6.982   4.134 -13.386  0.00  0.00     0.117 A 
ATOM      6  C   UNL d   1       7.594   5.044 -12.493  0.00  0.00     0.175 A 
ATOM      7  O   UNL d   1       6.821   5.995 -11.891  0.00  0.00    -0.186 OA
ATOM      8  C   UNL d   1       7.105   2.211 -15.046  0.00  0.00     0.066 C 
ATOM      9  C   UNL d   1       7.994   1.001 -15.416  0.00  0.00     0.246 C 
ATOM     10  C   UNL d   1       7.343   0.146 -16.513  0.00  0.00     0.007 A 
ATOM     11  C   UNL d   1       5.984  -0.247 -16.405  0.00  0.00     0.024 A 
ATOM     12  C   UNL d   1       5.442  -1.059 -17.414  0.00  0.00     0.119 A 
ATOM     13  C   UNL d   1       6.198  -1.490 -18.483  0.00  0.00     0.119 A 
ATOM     14  C   UNL d   1       7.550  -1.138 -18.615  0.00  0.00     0.022 A 
ATOM     15  C   UNL d   1       8.123  -0.318 -17.613  0.00  0.00    -0.020 A 
ATOM     16  C   UNL d   1       9.588   0.060 -17.699  0.00  0.00     0.061 C 
ATOM     17  C   UNL d   1      10.160   0.470 -16.334  0.00  0.00     0.256 C 
ATOM     18  N   UNL d   1       9.319   1.529 -15.784  0.00  0.00     0.144 N 
ATOM     19  C   UNL d   1       9.973   2.084 -14.596  0.00  0.00     0.277 C 
ATOM     20  O   UNL d   1       5.435  -2.262 -19.298  0.00  0.00    -0.300 OA
ATOM     21  C   UNL d   1       4.160  -2.301 -18.706  0.00  0.00     0.304 A 
ATOM     22  O   UNL d   1       4.179  -1.544 -17.524  0.00  0.00    -0.300 OA
ENDROOT
BRANCH   1  23
ATOM     23  O   UNL d   1       9.626   5.854 -11.424  0.00  0.00    -0.326 OA
ATOM     24  C   UNL d   1       9.304   5.721 -10.043  0.00  0.00     0.181 C 
ENDBRANCH   1  23
BRANCH   5  25
ATOM     25  O   UNL d   1       5.636   4.201 -13.625  0.00  0.00    -0.326 OA
ATOM     26  C   UNL d   1       4.878   3.556 -12.625  0.00  0.00     0.181 C 
ENDBRANCH   5  25
TORSDOF 2
