REMARK  8 active torsions:
REMARK  status: ('A' for Active; 'I' for Inactive)
REMARK       I    between atoms: N_2  and  C_3 
REMARK    1  A    between atoms: C_3  and  C_5 
REMARK    2  A    between atoms: C_9  and  O_10 
REMARK    3  A    between atoms: O_10  and  C_11 
REMARK    4  A    between atoms: C_11  and  C_12 
REMARK    5  A    between atoms: C_12  and  C_13 
REMARK    6  A    between atoms: C_13  and  C_14 
REMARK    7  A    between atoms: C_14  and  N_15 
REMARK    8  A    between atoms: N_18  and  C_19 
ROOT
ATOM      1  N   UNL d   1       8.711   4.503 -13.030  0.00  0.00     0.141 N 
ATOM      2  C   UNL d   1       9.760   4.251 -12.038  0.00  0.00     0.274 C 
ATOM      3  C   UNL d   1       9.416   4.909 -10.697  0.00  0.00     0.138 C 
ATOM      4  N   UNL d   1       9.188   6.334 -10.877  0.00  0.00    -0.329 N 
ATOM      5  C   UNL d   1       8.248   6.669 -11.936  0.00  0.00     0.138 C 
ATOM      6  C   UNL d   1       8.646   5.953 -13.230  0.00  0.00     0.274 C 
ENDROOT
BRANCH   1   7
ATOM      7  C   UNL d   1       9.041   3.865 -14.301  0.00  0.00     0.251 C 
BRANCH   7   8
ATOM      8  C   UNL d   1       8.976   2.333 -14.231  0.00  0.00     0.038 C 
BRANCH   8   9
ATOM      9  C   UNL d   1       7.532   1.854 -14.345  0.00  0.00     0.035 C 
BRANCH   9  10
ATOM     10  C   UNL d   1       7.451   0.316 -14.265  0.00  0.00     0.149 C 
BRANCH  10  11
ATOM     11  O   UNL d   1       6.123  -0.169 -14.373  0.00  0.00    -0.331 OA
BRANCH  11  12
ATOM     12  C   UNL d   1       5.591  -0.346 -15.628  0.00  0.00     0.094 A 
ATOM     13  C   UNL d   1       4.468  -1.186 -15.716  0.00  0.00     0.024 A 
ATOM     14  C   UNL d   1       3.874  -1.446 -16.961  0.00  0.00     0.002 A 
ATOM     15  C   UNL d   1       4.364  -0.826 -18.127  0.00  0.00     0.005 A 
ATOM     16  C   UNL d   1       5.478   0.043 -18.058  0.00  0.00     0.059 A 
ATOM     17  C   UNL d   1       6.105   0.247 -16.812  0.00  0.00     0.029 A 
BRANCH  16  18
ATOM     18  C   UNL d   1       6.032   0.741 -19.279  0.00  0.00     0.275 C 
ATOM     19  N   UNL d   1       5.472   0.393 -20.447  0.00  0.00    -0.232 NA
ATOM     20  C   UNL d   1       5.879   0.906 -21.743  0.00  0.00     0.155 C 
ATOM     21  O   UNL d   1       6.931   1.575 -19.193  0.00  0.00    -0.266 OA
ENDBRANCH  16  18
ENDBRANCH  11  12
ENDBRANCH  10  11
ENDBRANCH   9  10
ENDBRANCH   8   9
ENDBRANCH   7   8
ENDBRANCH   1   7
BRANCH   4  22
ATOM     22  C   UNL d   1       9.840   7.308 -10.133  0.00  0.00     0.148 C 
ATOM     23  C   UNL d   1       9.895   7.310  -8.682  0.00  0.00     0.042 A 
ATOM     24  C   UNL d   1      10.707   8.390  -8.233  0.00  0.00     0.050 A 
ATOM     25  C   UNL d   1       9.291   6.497  -7.698  0.00  0.00     0.004 A 
ATOM     26  S   UNL d   1      11.343   9.189  -9.640  0.00  0.00     0.015 SA
ATOM     27  C   UNL d   1      10.896   8.678  -6.878  0.00  0.00     0.008 A 
ATOM     28  N   UNL d   1      10.402   8.347 -10.731  0.00  0.00    -0.192 NA
ATOM     29  C   UNL d   1      10.281   7.862  -5.917  0.00  0.00     0.001 A 
ATOM     30  C   UNL d   1       9.468   6.787  -6.340  0.00  0.00     0.000 A 
ENDBRANCH   4  22
TORSDOF 8
