REMARK  7 active torsions:
REMARK  status: ('A' for Active; 'I' for Inactive)
REMARK    1  A    between atoms: N_2  and  S_4 
REMARK    2  A    between atoms: S_4  and  N_7 
REMARK    3  A    between atoms: N_7  and  C_8 
REMARK    4  A    between atoms: C_11  and  C_12 
REMARK    5  A    between atoms: C_12  and  C_13 
REMARK    6  A    between atoms: C_13  and  N_14 
REMARK    7  A    between atoms: C_17  and  C_18 
ROOT
ATOM      1  N   UNL d   1       8.799   5.753 -12.146  0.00  0.00     0.137 N 
ATOM      2  C   UNL d   1       7.457   5.617 -12.729  0.00  0.00     0.251 C 
ATOM      3  C   UNL d   1       7.524   4.748 -13.994  0.00  0.00     0.040 C 
ATOM      4  C   UNL d   1       8.105   3.369 -13.716  0.00  0.00     0.026 C 
ATOM      5  C   UNL d   1       9.423   3.531 -12.952  0.00  0.00     0.040 C 
ATOM      6  C   UNL d   1       9.264   4.425 -11.733  0.00  0.00     0.251 C 
ENDROOT
BRANCH   1   7
ATOM      7  C   UNL d   1       8.711   6.635 -10.988  0.00  0.00     0.250 C 
BRANCH   7   8
ATOM      8  C   UNL d   1      10.088   6.963 -10.371  0.00  0.00     0.035 C 
BRANCH   8   9
ATOM      9  C   UNL d   1      10.021   7.764  -9.073  0.00  0.00     0.002 C 
ATOM     10  C   UNL d   1       9.398   6.954  -7.911  0.00  0.00     0.002 C 
ATOM     11  C   UNL d   1       9.337   7.806  -6.638  0.00  0.00     0.025 C 
ATOM     12  C   UNL d   1      10.729   8.343  -6.306  0.00  0.00     0.117 C 
ATOM     13  C   UNL d   1      11.379   9.148  -7.436  0.00  0.00     0.025 C 
ATOM     14  C   UNL d   1      11.428   8.273  -8.695  0.00  0.00     0.002 C 
BRANCH  12  15
ATOM     15  N   UNL d   1      10.710   9.106  -5.065  0.00  0.00    -0.173 NA
BRANCH  15  16
ATOM     16  S   UNL d   1      12.053   9.238  -3.997  0.00  0.00     0.340 S 
ATOM     17  O   UNL d   1      11.678  10.065  -2.852  0.00  0.00    -0.181 OA
ATOM     18  O   UNL d   1      13.221   9.550  -4.803  0.00  0.00    -0.181 OA
BRANCH  16  19
ATOM     19  N   UNL d   1      12.183   7.613  -3.388  0.00  0.00    -0.257 N 
ATOM     20  C   UNL d   1      11.771   7.371  -2.008  0.00  0.00     0.140 C 
ATOM     21  C   UNL d   1      11.897   6.472  -4.236  0.00  0.00     0.140 C 
ENDBRANCH  16  19
ENDBRANCH  15  16
ENDBRANCH  12  15
ENDBRANCH   8   9
ENDBRANCH   7   8
ENDBRANCH   1   7
BRANCH   4  22
ATOM     22  C   UNL d   1       8.304   2.564 -14.981  0.00  0.00    -0.024 A 
ATOM     23  C   UNL d   1       7.487   1.462 -15.305  0.00  0.00    -0.001 A 
ATOM     24  C   UNL d   1       7.662   0.746 -16.480  0.00  0.00     0.090 A 
ATOM     25  C   UNL d   1       6.341   0.882 -14.543  0.00  0.00     0.061 A 
ATOM     26  C   UNL d   1       8.675   1.089 -17.388  0.00  0.00     0.024 A 
ATOM     27  O   UNL d   1       6.761  -0.271 -16.622  0.00  0.00    -0.331 OA
ATOM     28  C   UNL d   1       9.514   2.184 -17.089  0.00  0.00     0.002 A 
ATOM     29  C   UNL d   1       9.327   2.915 -15.899  0.00  0.00    -0.004 A 
ATOM     30  C   UNL d   1       5.942  -0.312 -15.442  0.00  0.00     0.154 A 
ENDBRANCH   4  22
TORSDOF 7
