REMARK  3 active torsions:
REMARK  status: ('A' for Active; 'I' for Inactive)
REMARK    1  A    between atoms: C_10  and  C_11 
REMARK    2  A    between atoms: C_11  and  C_12 
REMARK    3  A    between atoms: C_12  and  N_13 
ROOT
ATOM      1  C   UNL d   1       8.778   5.335 -12.262  0.00  0.00     0.043 C 
ENDROOT
BRANCH   1   2
ATOM      2  C   UNL d   1       8.516   6.347 -11.138  0.00  0.00     0.068 A 
ATOM      3  C   UNL d   1       9.445   7.559 -11.247  0.00  0.00     0.173 A 
ATOM      4  O   UNL d   1       9.457   8.312 -12.220  0.00  0.00    -0.291 OA
ATOM      5  C   UNL d   1      10.220   7.656 -10.016  0.00  0.00     0.031 A 
ATOM      6  C   UNL d   1       9.821   6.667  -9.128  0.00  0.00    -0.019 A 
ATOM      7  C   UNL d   1      11.217   8.585  -9.684  0.00  0.00     0.003 A 
ATOM      8  C   UNL d   1      10.389   6.566  -7.847  0.00  0.00    -0.004 A 
ATOM      9  C   UNL d   1       8.745   5.787  -9.700  0.00  0.00     0.034 A 
ATOM     10  C   UNL d   1      11.395   7.492  -7.492  0.00  0.00    -0.000 A 
ATOM     11  C   UNL d   1      11.809   8.487  -8.407  0.00  0.00     0.000 A 
ENDBRANCH   1   2
BRANCH   1  12
ATOM     12  C   UNL d   1       7.752   4.221 -12.198  0.00  0.00     0.251 C 
BRANCH  12  13
ATOM     13  N   UNL d   1       6.519   4.546 -12.913  0.00  0.00     0.142 N 
ATOM     14  C   UNL d   1       6.540   3.974 -14.254  0.00  0.00     0.276 C 
ATOM     15  C   UNL d   1       6.439   2.462 -14.350  0.00  0.00     0.007 A 
ATOM     16  C   UNL d   1       5.861   1.758 -13.280  0.00  0.00    -0.022 A 
ATOM     17  C   UNL d   1       6.905   1.768 -15.489  0.00  0.00    -0.003 A 
ATOM     18  C   UNL d   1       5.482   2.527 -12.038  0.00  0.00     0.061 C 
ATOM     19  C   UNL d   1       5.791   0.357 -13.319  0.00  0.00    -0.004 A 
ATOM     20  C   UNL d   1       5.317   4.038 -12.266  0.00  0.00     0.255 C 
ATOM     21  C   UNL d   1       6.261  -0.347 -14.444  0.00  0.00    -0.000 A 
ATOM     22  C   UNL d   1       6.804   0.359 -15.538  0.00  0.00    -0.000 A 
ENDBRANCH  12  13
ENDBRANCH   1  12
TORSDOF 3
