REMARK  3 active torsions:
REMARK  status: ('A' for Active; 'I' for Inactive)
REMARK    1  A    between atoms: C_2  and  C_3 
REMARK    2  A    between atoms: N_12  and  C_13 
REMARK    3  A    between atoms: C_13  and  C_14 
ROOT
ATOM      1  O   UNL d   1       8.718   8.604  -7.853  0.00  0.00    -0.221 OA
ATOM      2  C   UNL d   1       9.936   7.894  -7.977  0.00  0.00     0.149 C 
ATOM      3  C   UNL d   1       9.681   6.426  -8.415  0.00  0.00     0.070 C 
ATOM      4  C   UNL d   1       9.142   6.269  -9.815  0.00  0.00     0.254 C 
ATOM      5  N   UNL d   1       9.970   6.933 -10.802  0.00  0.00     0.142 N 
ATOM      6  C   UNL d   1      10.112   8.352 -10.481  0.00  0.00     0.254 C 
ATOM      7  C   UNL d   1      10.746   8.584  -9.098  0.00  0.00     0.070 C 
ENDROOT
BRANCH   5   8
ATOM      8  C   UNL d   1       9.320   6.851 -12.121  0.00  0.00     0.279 C 
BRANCH   8   9
ATOM      9  C   UNL d   1       8.970   5.503 -12.677  0.00  0.00     0.037 A 
ATOM     10  C   UNL d   1       9.689   4.628 -13.580  0.00  0.00     0.023 A 
ATOM     11  C   UNL d   1       8.865   3.470 -13.710  0.00  0.00     0.100 A 
ATOM     12  C   UNL d   1      10.909   4.610 -14.312  0.00  0.00     0.002 A 
ATOM     13  O   UNL d   1       7.693   3.647 -13.024  0.00  0.00    -0.305 OA
ATOM     14  C   UNL d   1       9.238   2.335 -14.467  0.00  0.00     0.025 A 
ATOM     15  C   UNL d   1       7.811   4.831 -12.350  0.00  0.00     0.120 A 
ATOM     16  C   UNL d   1      10.449   2.353 -15.168  0.00  0.00     0.002 A 
ATOM     17  C   UNL d   1      11.284   3.488 -15.095  0.00  0.00     0.000 A 
ENDBRANCH   8   9
ENDBRANCH   5   8
BRANCH   2  18
ATOM     18  C   UNL d   1      10.672   7.987  -6.623  0.00  0.00     0.005 A 
ATOM     19  C   UNL d   1      10.975   9.258  -6.080  0.00  0.00    -0.002 A 
ATOM     20  C   UNL d   1      11.604   9.373  -4.819  0.00  0.00     0.006 A 
ATOM     21  C   UNL d   1      11.909   8.229  -4.056  0.00  0.00     0.030 A 
ATOM     22  C   UNL d   1      11.635   6.948  -4.606  0.00  0.00     0.006 A 
ATOM     23  I   UNL d   1      12.693   8.479  -2.114  0.00  0.00    -0.043 I 
ATOM     24  C   UNL d   1      11.021   6.834  -5.869  0.00  0.00    -0.002 A 
ENDBRANCH   2  18
TORSDOF 3
