REMARK  7 active torsions:
REMARK  status: ('A' for Active; 'I' for Inactive)
REMARK       I    between atoms: C_2  and  N_3 
REMARK    1  A    between atoms: C_2  and  C_21 
REMARK    2  A    between atoms: N_3  and  C_4 
REMARK    3  A    between atoms: C_4  and  C_5 
REMARK    4  A    between atoms: C_5  and  C_6 
REMARK    5  A    between atoms: C_6  and  C_7 
REMARK    6  A    between atoms: C_7  and  N_8 
REMARK    7  A    between atoms: N_11  and  C_12 
ROOT
ATOM      1  C   UNL d   1       6.019   4.281 -12.374  0.00  0.00     0.029 C 
ENDROOT
BRANCH   1   2
ATOM      2  C   UNL d   1       5.516   2.839 -12.581  0.00  0.00     0.129 C 
BRANCH   2   3
ATOM      3  N   UNL d   1       6.261   2.172 -13.641  0.00  0.00    -0.234 NA
ATOM      4  C   UNL d   1       5.990   0.952 -14.127  0.00  0.00     0.275 C 
ATOM      5  O   UNL d   1       5.087   0.233 -13.699  0.00  0.00    -0.266 OA
BRANCH   4   6
ATOM      6  C   UNL d   1       6.820   0.561 -15.313  0.00  0.00     0.058 A 
ATOM      7  C   UNL d   1       8.217   0.768 -15.312  0.00  0.00     0.005 A 
ATOM      8  C   UNL d   1       8.995   0.400 -16.430  0.00  0.00     0.000 A 
ATOM      9  C   UNL d   1       8.377  -0.188 -17.562  0.00  0.00     0.000 A 
ATOM     10  C   UNL d   1      10.389   0.609 -16.426  0.00  0.00     0.000 A 
ATOM     11  C   UNL d   1       6.984  -0.398 -17.563  0.00  0.00     0.000 A 
ATOM     12  C   UNL d   1       9.159  -0.562 -18.677  0.00  0.00     0.000 A 
ATOM     13  C   UNL d   1       6.210  -0.031 -16.442  0.00  0.00     0.005 A 
ATOM     14  C   UNL d   1      10.551  -0.346 -18.668  0.00  0.00     0.000 A 
ATOM     15  C   UNL d   1      11.164   0.243 -17.546  0.00  0.00     0.000 A 
ENDBRANCH   4   6
ENDBRANCH   2   3
ENDBRANCH   1   2
BRANCH   1  16
ATOM     16  C   UNL d   1       7.415   4.352 -11.741  0.00  0.00     0.037 C 
BRANCH  16  17
ATOM     17  C   UNL d   1       7.898   5.793 -11.484  0.00  0.00     0.251 C 
BRANCH  17  18
ATOM     18  N   UNL d   1       9.091   5.831 -10.635  0.00  0.00     0.141 N 
ATOM     19  C   UNL d   1       9.707   7.169 -10.712  0.00  0.00     0.274 C 
ATOM     20  C   UNL d   1      10.964   7.264  -9.831  0.00  0.00     0.137 C 
ATOM     21  N   UNL d   1      10.646   6.883  -8.457  0.00  0.00    -0.344 N 
ATOM     22  C   UNL d   1       9.947   5.611  -8.327  0.00  0.00     0.137 C 
ATOM     23  C   UNL d   1       8.713   5.585  -9.233  0.00  0.00     0.274 C 
BRANCH  21  24
ATOM     24  C   UNL d   1      10.964   7.672  -7.329  0.00  0.00     0.058 A 
ATOM     25  C   UNL d   1      11.145   7.067  -6.062  0.00  0.00     0.044 A 
ATOM     26  C   UNL d   1      11.462   7.838  -4.930  0.00  0.00     0.132 A 
ATOM     27  C   UNL d   1      11.599   9.233  -5.042  0.00  0.00     0.028 A 
ATOM     28  O   UNL d   1      11.656   7.219  -3.730  0.00  0.00    -0.190 OA
ATOM     29  C   UNL d   1      11.432   9.849  -6.297  0.00  0.00     0.004 A 
ATOM     30  C   UNL d   1      11.114   9.077  -7.431  0.00  0.00     0.017 A 
ENDBRANCH  21  24
ENDBRANCH  17  18
ENDBRANCH  16  17
ENDBRANCH   1  16
TORSDOF 7
