REMARK  1 active torsions:
REMARK  status: ('A' for Active; 'I' for Inactive)
REMARK    1  A    between atoms: C_9  and  C_10 
ROOT
ATOM      1  O   UNL d   1       5.892  -0.266 -21.018  0.00  0.00    -0.188 OA
ATOM      2  C   UNL d   1       6.439   0.085 -19.815  0.00  0.00     0.156 A 
ATOM      3  C   UNL d   1       7.821   0.327 -19.739  0.00  0.00     0.025 A 
ATOM      4  C   UNL d   1       8.435   0.695 -18.520  0.00  0.00    -0.022 A 
ATOM      5  C   UNL d   1       7.654   0.835 -17.341  0.00  0.00    -0.018 A 
ATOM      6  C   UNL d   1       6.257   0.604 -17.443  0.00  0.00     0.025 A 
ATOM      7  C   UNL d   1       5.655   0.217 -18.651  0.00  0.00     0.156 A 
ATOM      8  O   UNL d   1       4.307  -0.016 -18.658  0.00  0.00    -0.188 OA
ATOM      9  C   UNL d   1       8.312   1.238 -16.005  0.00  0.00     0.068 C 
ATOM     10  C   UNL d   1       9.396   0.247 -15.522  0.00  0.00     0.129 C 
ATOM     11  N   UNL d   1      10.672   0.397 -16.208  0.00  0.00    -0.294 NA
ATOM     12  C   UNL d   1      10.688  -0.049 -17.592  0.00  0.00     0.124 C 
ATOM     13  C   UNL d   1       9.937   0.922 -18.514  0.00  0.00     0.052 C 
ENDROOT
BRANCH   9  14
ATOM     14  C   UNL d   1       7.321   1.517 -14.874  0.00  0.00    -0.017 A 
ATOM     15  C   UNL d   1       7.174   2.836 -14.397  0.00  0.00    -0.004 A 
ATOM     16  C   UNL d   1       6.242   3.140 -13.388  0.00  0.00    -0.000 A 
ATOM     17  C   UNL d   1       5.455   2.113 -12.840  0.00  0.00    -0.000 A 
ATOM     18  C   UNL d   1       5.616   0.783 -13.284  0.00  0.00    -0.000 A 
ATOM     19  C   UNL d   1       6.562   0.482 -14.282  0.00  0.00    -0.004 A 
ENDBRANCH   9  14
TORSDOF 1
