REMARK  6 active torsions:
REMARK  status: ('A' for Active; 'I' for Inactive)
REMARK    1  A    between atoms: C_2  and  O_4 
REMARK    2  A    between atoms: O_4  and  C_5 
REMARK    3  A    between atoms: C_10  and  N_11 
REMARK    4  A    between atoms: N_14  and  C_15 
REMARK    5  A    between atoms: C_18  and  N_19 
REMARK       I    between atoms: N_19  and  C_20 
REMARK       I    between atoms: C_20  and  N_22 
REMARK    6  A    between atoms: N_22  and  C_23 
ROOT
ATOM      1  C   UNL d   1       8.586   6.371 -11.442  0.00  0.00     0.220 C 
ATOM      2  C   UNL d   1       9.306   7.725 -11.671  0.00  0.00     0.035 C 
ATOM      3  C   UNL d   1       9.758   8.407 -10.366  0.00  0.00     0.026 C 
ATOM      4  C   UNL d   1      10.518   7.447  -9.449  0.00  0.00     0.108 C 
ATOM      5  C   UNL d   1       9.686   6.178  -9.171  0.00  0.00     0.026 C 
ATOM      6  C   UNL d   1       9.329   5.455 -10.462  0.00  0.00     0.035 C 
ENDROOT
BRANCH   1   7
ATOM      7  N   UNL d   1       8.273   5.699 -12.712  0.00  0.00     0.139 N 
ATOM      8  C   UNL d   1       7.472   4.463 -12.484  0.00  0.00     0.274 C 
ATOM      9  C   UNL d   1       7.085   3.767 -13.805  0.00  0.00     0.137 C 
ATOM     10  N   UNL d   1       8.336   3.568 -14.549  0.00  0.00    -0.343 N 
ATOM     11  C   UNL d   1       9.139   4.768 -14.780  0.00  0.00     0.137 C 
ATOM     12  C   UNL d   1       9.494   5.332 -13.458  0.00  0.00     0.274 C 
BRANCH  10  13
ATOM     13  C   UNL d   1       8.642   2.352 -15.179  0.00  0.00     0.079 A 
ATOM     14  C   UNL d   1       9.973   1.871 -15.334  0.00  0.00     0.109 A 
ATOM     15  C   UNL d   1      10.197   0.618 -15.950  0.00  0.00     0.026 A 
ATOM     16  C   UNL d   1       9.117  -0.147 -16.426  0.00  0.00     0.002 A 
ATOM     17  C   UNL d   1       7.807   0.330 -16.285  0.00  0.00     0.002 A 
ATOM     18  C   UNL d   1       7.574   1.578 -15.684  0.00  0.00     0.019 A 
BRANCH  14  19
ATOM     19  O   UNL d   1      11.050   2.593 -14.877  0.00  0.00    -0.332 OA
BRANCH  19  20
ATOM     20  C   UNL d   1      11.934   3.195 -15.808  0.00  0.00     0.122 C 
ATOM     21  C   UNL d   1      12.660   4.329 -15.054  0.00  0.00     0.033 C 
ATOM     22  C   UNL d   1      11.280   3.717 -17.124  0.00  0.00     0.033 C 
ENDBRANCH  19  20
ENDBRANCH  14  19
ENDBRANCH  10  13
ENDBRANCH   1   7
BRANCH   4  23
ATOM     23  N   UNL d   1      10.788   8.167  -8.219  0.00  0.00    -0.219 NA
ATOM     24  C   UNL d   1      11.385   7.659  -7.133  0.00  0.00     0.364 C 
ATOM     25  O   UNL d   1      11.832   6.518  -7.062  0.00  0.00    -0.243 OA
ATOM     26  N   UNL d   1      11.444   8.539  -6.125  0.00  0.00    -0.187 NA
BRANCH  26  27
ATOM     27  C   UNL d   1      11.819   8.185  -4.818  0.00  0.00     0.141 A 
ATOM     28  C   UNL d   1      11.257   7.055  -4.204  0.00  0.00     0.160 A 
ATOM     29  C   UNL d   1      11.534   6.775  -2.849  0.00  0.00     0.031 A 
ATOM     30  F   UNL d   1      10.249   6.402  -4.846  0.00  0.00    -0.203 F 
ATOM     31  C   UNL d   1      12.362   7.629  -2.115  0.00  0.00     0.005 A 
ATOM     32  C   UNL d   1      12.940   8.729  -2.756  0.00  0.00     0.031 A 
ATOM     33  C   UNL d   1      12.691   9.000  -4.116  0.00  0.00     0.160 A 
ATOM     34  F   UNL d   1      13.346   9.976  -4.779  0.00  0.00    -0.203 F 
ENDBRANCH  26  27
ENDBRANCH   4  23
TORSDOF 6
