REMARK  8 active torsions:
REMARK  status: ('A' for Active; 'I' for Inactive)
REMARK       I    between atoms: N_2  and  C_3 
REMARK    1  A    between atoms: C_3  and  C_5 
REMARK    2  A    between atoms: C_7  and  O_8 
REMARK    3  A    between atoms: O_8  and  C_9 
REMARK    4  A    between atoms: C_9  and  C_10 
REMARK    5  A    between atoms: C_10  and  C_11 
REMARK    6  A    between atoms: C_11  and  C_12 
REMARK    7  A    between atoms: C_12  and  N_13 
REMARK    8  A    between atoms: N_16  and  C_17 
ROOT
ATOM      1  C   UNL d   1       8.012   5.602 -10.987  0.00  0.00     0.038 C 
ENDROOT
BRANCH   1   2
ATOM      2  C   UNL d   1       7.564   4.236 -11.500  0.00  0.00     0.035 C 
BRANCH   2   3
ATOM      3  C   UNL d   1       6.385   4.385 -12.486  0.00  0.00     0.149 C 
BRANCH   3   4
ATOM      4  O   UNL d   1       5.953   3.151 -13.052  0.00  0.00    -0.331 OA
BRANCH   4   5
ATOM      5  C   UNL d   1       6.759   2.509 -13.972  0.00  0.00     0.094 A 
ATOM      6  C   UNL d   1       8.010   3.016 -14.412  0.00  0.00     0.031 A 
ATOM      7  C   UNL d   1       8.849   2.250 -15.251  0.00  0.00     0.087 A 
ATOM      8  C   UNL d   1       8.394   0.986 -15.722  0.00  0.00     0.145 A 
ATOM      9  C   UNL d   1       7.141   0.489 -15.303  0.00  0.00     0.032 A 
ATOM     10  F   UNL d   1       9.137   0.242 -16.581  0.00  0.00    -0.204 F 
ATOM     11  C   UNL d   1       6.340   1.237 -14.418  0.00  0.00     0.026 A 
BRANCH   7  12
ATOM     12  C   UNL d   1      10.185   2.805 -15.665  0.00  0.00     0.277 C 
ATOM     13  N   UNL d   1      10.888   3.431 -14.701  0.00  0.00    -0.232 NA
ATOM     14  C   UNL d   1      12.165   4.094 -14.943  0.00  0.00     0.155 C 
ATOM     15  O   UNL d   1      10.595   2.684 -16.816  0.00  0.00    -0.266 OA
ENDBRANCH   7  12
ENDBRANCH   4   5
ENDBRANCH   3   4
ENDBRANCH   2   3
ENDBRANCH   1   2
BRANCH   1  16
ATOM     16  C   UNL d   1       9.313   5.506 -10.187  0.00  0.00     0.251 C 
BRANCH  16  17
ATOM     17  N   UNL d   1       9.661   6.800  -9.604  0.00  0.00     0.141 N 
ATOM     18  C   UNL d   1       8.905   7.018  -8.374  0.00  0.00     0.274 C 
ATOM     19  C   UNL d   1       9.230   8.433  -7.842  0.00  0.00     0.137 C 
ATOM     20  N   UNL d   1      10.643   8.482  -7.500  0.00  0.00    -0.344 N 
ATOM     21  C   UNL d   1      11.564   8.027  -8.526  0.00  0.00     0.137 C 
ATOM     22  C   UNL d   1      11.041   6.725  -9.151  0.00  0.00     0.274 C 
BRANCH  20  23
ATOM     23  C   UNL d   1      11.026   8.662  -6.149  0.00  0.00     0.068 C 
ATOM     24  C   UNL d   1      11.545   7.651  -5.286  0.00  0.00     0.084 C 
ATOM     25  C   UNL d   1      11.945   7.942  -3.946  0.00  0.00     0.070 C 
ATOM     26 CL   UNL d   1      11.832   6.110  -5.937  0.00  0.00    -0.080 Cl
ATOM     27  C   UNL d   1      11.841   9.246  -3.497  0.00  0.00     0.012 C 
ATOM     28 CL   UNL d   1      12.617   6.796  -2.840  0.00  0.00    -0.081 Cl
ATOM     29  C   UNL d   1      11.255  10.185  -4.330  0.00  0.00     0.002 C 
ATOM     30  C   UNL d   1      10.907   9.963  -5.670  0.00  0.00     0.018 C 
ENDBRANCH  20  23
ENDBRANCH  16  17
ENDBRANCH   1  16
TORSDOF 8
