REMARK  4 active torsions:
REMARK  status: ('A' for Active; 'I' for Inactive)
REMARK    1  A    between atoms: C_2  and  O_3 
REMARK    2  A    between atoms: C_2  and  C_12 
REMARK    3  A    between atoms: O_3  and  C_4 
REMARK    4  A    between atoms: C_17  and  N_18 
ROOT
ATOM      1  C   UNL d   1       8.700   1.275 -16.608  0.00  0.00     0.203 A 
ATOM      2  N   UNL d   1       9.266   2.171 -17.420  0.00  0.00    -0.039 NA
ATOM      3  C   UNL d   1       8.602   2.299 -18.559  0.00  0.00     0.785 A 
ATOM      4  N   UNL d   1       9.091   3.211 -19.447  0.00  0.00     0.063 N 
ATOM      5  N   UNL d   1       7.493   1.674 -18.936  0.00  0.00     0.134 NA
ATOM      6  C   UNL d   1       7.053   0.788 -18.035  0.00  0.00     0.744 A 
ATOM      7  N   UNL d   1       7.607   0.543 -16.845  0.00  0.00    -0.043 NA
ENDROOT
BRANCH   1   8
ATOM      8  C   UNL d   1       9.388   1.033 -15.271  0.00  0.00     0.181 C 
ATOM      9  C   UNL d   1      10.630   0.161 -15.452  0.00  0.00     0.041 C 
BRANCH   8  10
ATOM     10  O   UNL d   1       9.799   2.236 -14.621  0.00  0.00    -0.326 OA
BRANCH  10  11
ATOM     11  C   UNL d   1       8.845   3.058 -14.059  0.00  0.00     0.095 A 
ATOM     12  C   UNL d   1       9.319   4.235 -13.446  0.00  0.00     0.036 A 
ATOM     13  C   UNL d   1       8.435   5.133 -12.822  0.00  0.00     0.070 A 
ATOM     14  C   UNL d   1       7.053   4.861 -12.807  0.00  0.00     0.068 A 
ATOM     15 CL   UNL d   1       9.058   6.560 -12.081  0.00  0.00    -0.081 Cl
ATOM     16  C   UNL d   1       6.562   3.692 -13.418  0.00  0.00     0.014 A 
ATOM     17 CL   UNL d   1       5.949   5.951 -12.057  0.00  0.00    -0.082 Cl
ATOM     18  C   UNL d   1       7.449   2.794 -14.043  0.00  0.00     0.025 A 
ENDBRANCH  10  11
ENDBRANCH   8  10
ENDBRANCH   1   8
BRANCH   6  19
ATOM     19  N   UNL d   1       5.902   0.068 -18.370  0.00  0.00    -0.178 N 
ATOM     20  C   UNL d   1       5.283   0.105 -19.700  0.00  0.00     0.155 C 
ATOM     21  C   UNL d   1       5.105  -1.320 -20.251  0.00  0.00     0.275 C 
ATOM     22  N   UNL d   1       4.291  -2.113 -19.331  0.00  0.00     0.143 N 
ATOM     23  C   UNL d   1       4.984  -2.210 -18.045  0.00  0.00     0.275 C 
ATOM     24  C   UNL d   1       4.102  -3.449 -19.876  0.00  0.00     0.286 C 
ATOM     25  C   UNL d   1       5.183  -0.808 -17.439  0.00  0.00     0.155 C 
ENDBRANCH   6  19
TORSDOF 4
