REMARK  3 active torsions:
REMARK  status: ('A' for Active; 'I' for Inactive)
REMARK    1  A    between atoms: C_9  and  C_10 
REMARK    2  A    between atoms: C_10  and  N_11 
REMARK    3  A    between atoms: N_14  and  C_15 
ROOT
ATOM      1  N   UNL d   1      10.660   0.894 -15.615  0.00  0.00    -0.191 NA
ATOM      2  C   UNL d   1       9.864   1.552 -15.097  0.00  0.00     0.101 C 
ATOM      3  C   UNL d   1       8.860   2.379 -14.445  0.00  0.00     0.068 A 
ATOM      4  C   UNL d   1       7.490   2.155 -14.702  0.00  0.00     0.012 A 
ATOM      5  C   UNL d   1       6.516   2.932 -14.046  0.00  0.00     0.020 A 
ATOM      6  C   UNL d   1       6.918   3.938 -13.157  0.00  0.00     0.081 A 
ATOM      7  N   UNL d   1       6.204   4.841 -12.403  0.00  0.00    -0.244 NA
ATOM      8  C   UNL d   1       7.061   5.619 -11.649  0.00  0.00     0.097 A 
ATOM      9  C   UNL d   1       8.355   5.245 -11.897  0.00  0.00     0.032 A 
ATOM     10  C   UNL d   1       8.293   4.187 -12.869  0.00  0.00     0.018 A 
ATOM     11  C   UNL d   1       9.252   3.385 -13.537  0.00  0.00     0.011 A 
ENDROOT
BRANCH   9  12
ATOM     12  C   UNL d   1       9.584   5.850 -11.293  0.00  0.00     0.279 C 
BRANCH  12  13
ATOM     13  N   UNL d   1       9.472   6.776 -10.170  0.00  0.00     0.145 N 
ATOM     14  C   UNL d   1       9.117   6.043  -8.943  0.00  0.00     0.275 C 
ATOM     15  C   UNL d   1       8.956   7.018  -7.761  0.00  0.00     0.137 C 
ATOM     16  N   UNL d   1      10.162   7.823  -7.602  0.00  0.00    -0.344 N 
ATOM     17  C   UNL d   1      10.595   8.510  -8.812  0.00  0.00     0.137 C 
ATOM     18  C   UNL d   1      10.733   7.494  -9.955  0.00  0.00     0.275 C 
BRANCH  16  19
ATOM     19  C   UNL d   1      10.832   7.939  -6.370  0.00  0.00     0.056 A 
ATOM     20  C   UNL d   1      10.800   6.880  -5.439  0.00  0.00     0.017 A 
ATOM     21  C   UNL d   1      11.471   6.955  -4.207  0.00  0.00     0.002 A 
ATOM     22  C   UNL d   1      12.212   8.103  -3.891  0.00  0.00     0.000 A 
ATOM     23  C   UNL d   1      12.270   9.151  -4.820  0.00  0.00     0.002 A 
ATOM     24  C   UNL d   1      11.577   9.099  -6.045  0.00  0.00     0.017 A 
ENDBRANCH  16  19
ENDBRANCH  12  13
ENDBRANCH   9  12
TORSDOF 3
