REMARK  6 active torsions:
REMARK  status: ('A' for Active; 'I' for Inactive)
REMARK    1  A    between atoms: C_2  and  C_3 
REMARK    2  A    between atoms: C_3  and  C_4 
REMARK    3  A    between atoms: C_4  and  O_5 
REMARK    4  A    between atoms: O_5  and  C_6 
REMARK    5  A    between atoms: C_11  and  O_12 
REMARK    6  A    between atoms: C_20  and  O_21 
ROOT
ATOM      1  C   UNL d   1       9.471   7.654  -8.921  0.00  0.00     0.116 C 
ATOM      2  C   UNL d   1       8.867   6.540  -8.316  0.00  0.00     0.026 C 
ATOM      3  C   UNL d   1       8.428   5.471  -9.107  0.00  0.00    -0.002 C 
ATOM      4  C   UNL d   1       8.543   5.536 -10.508  0.00  0.00    -0.020 C 
ATOM      5  C   UNL d   1       9.201   6.613 -11.128  0.00  0.00     0.031 C 
ATOM      6  C   UNL d   1       9.732   7.669 -10.325  0.00  0.00     0.114 C 
ATOM      7  C   UNL d   1       9.262   6.619 -12.657  0.00  0.00     0.279 C 
ATOM      8  N   UNL d   1       9.114   5.267 -13.229  0.00  0.00     0.144 N 
ATOM      9  C   UNL d   1       9.304   5.274 -14.662  0.00  0.00     0.256 C 
ATOM     10  C   UNL d   1       9.341   3.895 -15.255  0.00  0.00     0.061 C 
ATOM     11  C   UNL d   1       8.150   3.089 -14.809  0.00  0.00    -0.020 A 
ATOM     12  C   UNL d   1       7.792   1.960 -15.549  0.00  0.00     0.022 A 
ATOM     13  C   UNL d   1       6.678   1.199 -15.172  0.00  0.00     0.119 A 
ATOM     14  C   UNL d   1       5.965   1.560 -14.013  0.00  0.00     0.153 A 
ATOM     15  O   UNL d   1       5.005   0.728 -13.513  0.00  0.00    -0.188 OA
ATOM     16  C   UNL d   1       6.260   2.752 -13.312  0.00  0.00     0.027 A 
ATOM     17  C   UNL d   1       7.379   3.518 -13.687  0.00  0.00     0.007 A 
ATOM     18  C   UNL d   1       7.779   4.772 -12.892  0.00  0.00     0.246 C 
ATOM     19  C   UNL d   1       7.926   4.441 -11.386  0.00  0.00     0.064 C 
ENDROOT
BRANCH   1  20
ATOM     20  O   UNL d   1       9.905   8.761  -8.220  0.00  0.00    -0.329 OA
BRANCH  20  21
ATOM     21  C   UNL d   1      10.166   8.671  -6.827  0.00  0.00     0.149 C 
BRANCH  21  22
ATOM     22  C   UNL d   1      11.529   9.310  -6.536  0.00  0.00     0.033 C 
BRANCH  22  23
ATOM     23  C   UNL d   1      11.852   9.254  -5.044  0.00  0.00     0.003 C 
ATOM     24  C   UNL d   1      10.961  10.203  -4.223  0.00  0.00     0.000 C 
ENDBRANCH  22  23
ENDBRANCH  21  22
ENDBRANCH  20  21
ENDBRANCH   1  20
BRANCH   6  25
ATOM     25  O   UNL d   1      10.340   8.777 -10.878  0.00  0.00    -0.326 OA
ATOM     26  C   UNL d   1      11.655   9.063 -10.405  0.00  0.00     0.181 C 
ENDBRANCH   6  25
BRANCH  13  27
ATOM     27  O   UNL d   1       6.388   0.091 -15.924  0.00  0.00    -0.326 OA
ATOM     28  C   UNL d   1       5.110   0.067 -16.540  0.00  0.00     0.181 C 
ENDBRANCH  13  27
TORSDOF 6
