REMARK  5 active torsions:
REMARK  status: ('A' for Active; 'I' for Inactive)
REMARK    1  A    between atoms: O_2  and  C_3 
REMARK    2  A    between atoms: C_8  and  N_9 
REMARK    3  A    between atoms: N_12  and  C_13 
REMARK    4  A    between atoms: C_13  and  C_14 
REMARK    5  A    between atoms: C_21  and  N_22 
ROOT
ATOM      1  C   UNL d   1       9.028   6.278 -11.306  0.00  0.00     0.112 A 
ATOM      2  C   UNL d   1       7.859   5.702 -10.929  0.00  0.00     0.098 A 
ATOM      3  N   UNL d   1       7.493   4.821 -11.919  0.00  0.00    -0.287 N 
ATOM      4  C   UNL d   1       6.378   4.046 -12.044  0.00  0.00     0.077 A 
ATOM      5  C   UNL d   1       6.279   3.194 -13.107  0.00  0.00    -0.003 A 
ATOM      6  C   UNL d   1       5.131   2.228 -13.173  0.00  0.00     0.033 C 
ATOM      7  C   UNL d   1       7.302   3.147 -14.084  0.00  0.00     0.019 A 
ATOM      8  C   UNL d   1       8.427   3.950 -13.996  0.00  0.00     0.117 A 
ATOM      9  C   UNL d   1       8.551   4.829 -12.867  0.00  0.00     0.165 A 
ATOM     10  N   UNL d   1       9.476   5.711 -12.486  0.00  0.00    -0.227 NA
ENDROOT
BRANCH   1  11
ATOM     11  C   UNL d   1       9.769   7.375 -10.601  0.00  0.00     0.297 C 
BRANCH  11  12
ATOM     12  N   UNL d   1      10.640   7.023  -9.501  0.00  0.00     0.147 N 
ATOM     13  C   UNL d   1       9.840   6.443  -8.411  0.00  0.00     0.275 C 
ATOM     14  C   UNL d   1      10.743   6.026  -7.263  0.00  0.00     0.137 C 
ATOM     15  N   UNL d   1      11.443   7.198  -6.806  0.00  0.00    -0.343 N 
ATOM     16  C   UNL d   1      12.247   7.862  -7.841  0.00  0.00     0.137 C 
ATOM     17  C   UNL d   1      11.332   8.226  -9.020  0.00  0.00     0.275 C 
BRANCH  15  18
ATOM     18  C   UNL d   1      11.437   7.590  -5.471  0.00  0.00     0.079 A 
ATOM     19  C   UNL d   1      11.344   8.960  -5.117  0.00  0.00     0.110 A 
ATOM     20  C   UNL d   1      11.530   9.371  -3.782  0.00  0.00     0.026 A 
ATOM     21  C   UNL d   1      11.811   8.433  -2.776  0.00  0.00     0.002 A 
ATOM     22  C   UNL d   1      11.885   7.075  -3.112  0.00  0.00     0.002 A 
ATOM     23  C   UNL d   1      11.735   6.661  -4.443  0.00  0.00     0.019 A 
BRANCH  19  24
ATOM     24  O   UNL d   1      11.024   9.831  -6.121  0.00  0.00    -0.327 OA
ATOM     25  C   UNL d   1      11.770  11.014  -6.106  0.00  0.00     0.181 C 
ENDBRANCH  19  24
ENDBRANCH  15  18
ENDBRANCH  11  12
ENDBRANCH   1  11
BRANCH   8  26
ATOM     26  N   UNL d   1       9.444   3.889 -15.010  0.00  0.00    -0.225 N 
ATOM     27  N   UNL d   1      10.532   4.703 -14.984  0.00  0.00    -0.164 NA
ATOM     28  C   UNL d   1      11.237   4.413 -16.059  0.00  0.00     0.122 A 
ATOM     29  C   UNL d   1      10.636   3.387 -16.829  0.00  0.00     0.043 A 
ATOM     30  C   UNL d   1       9.502   3.075 -16.134  0.00  0.00     0.102 A 
ENDBRANCH   8  26
TORSDOF 5
