REMARK  4 active torsions:
REMARK  status: ('A' for Active; 'I' for Inactive)
REMARK    1  A    between atoms: C_4  and  C_5 
REMARK    2  A    between atoms: C_5  and  N_6 
REMARK    3  A    between atoms: C_9  and  C_10 
REMARK    4  A    between atoms: C_25  and  N_26 
ROOT
ATOM      1  N   UNL d   1       8.410   4.022 -13.487  0.00  0.00     0.137 N 
ATOM      2  C   UNL d   1       7.838   2.980 -14.345  0.00  0.00     0.251 C 
ATOM      3  C   UNL d   1       8.708   2.793 -15.605  0.00  0.00     0.041 C 
ATOM      4  C   UNL d   1      10.167   2.481 -15.243  0.00  0.00     0.047 C 
ATOM      5  C   UNL d   1      10.684   3.502 -14.223  0.00  0.00     0.041 C 
ATOM      6  C   UNL d   1       9.742   3.610 -13.028  0.00  0.00     0.251 C 
ENDROOT
BRANCH   1   7
ATOM      7  C   UNL d   1       7.505   4.309 -12.366  0.00  0.00     0.251 C 
BRANCH   7   8
ATOM      8  C   UNL d   1       7.965   5.499 -11.505  0.00  0.00     0.047 C 
ATOM      9  C   UNL d   1       8.697   6.581 -12.352  0.00  0.00     0.072 C 
ATOM     10  C   UNL d   1       9.280   7.698 -11.507  0.00  0.00     0.180 C 
ATOM     11  O   UNL d   1       9.396   8.797 -11.986  0.00  0.00    -0.291 OA
ATOM     12  C   UNL d   1       9.664   7.365 -10.149  0.00  0.00     0.080 A 
ATOM     13  C   UNL d   1       9.385   6.189  -9.528  0.00  0.00     0.070 A 
ATOM     14  S   UNL d   1      10.402   8.535  -9.096  0.00  0.00    -0.046 SA
ATOM     15  C   UNL d   1       8.687   5.045 -10.191  0.00  0.00     0.049 C 
ATOM     16  N   UNL d   1       9.788   6.167  -8.190  0.00  0.00    -0.227 NA
ATOM     17  C   UNL d   1      10.325   7.324  -7.816  0.00  0.00     0.171 A 
BRANCH  17  18
ATOM     18  N   UNL d   1      10.813   7.587  -6.531  0.00  0.00    -0.329 N 
ATOM     19  C   UNL d   1      10.800   6.630  -5.431  0.00  0.00     0.103 C 
ATOM     20  C   UNL d   1      11.639   7.197  -4.303  0.00  0.00     0.026 C 
ATOM     21  C   UNL d   1      11.572   8.698  -4.534  0.00  0.00     0.026 C 
ATOM     22  C   UNL d   1      11.430   8.812  -6.050  0.00  0.00     0.103 C 
ENDBRANCH  17  18
ENDBRANCH   7   8
ENDBRANCH   1   7
BRANCH   4  23
ATOM     23  C   UNL d   1      11.055   2.436 -16.465  0.00  0.00     0.087 A 
ATOM     24  C   UNL d   1      11.343   1.374 -17.344  0.00  0.00     0.041 A 
ATOM     25  C   UNL d   1      12.190   1.833 -18.355  0.00  0.00     0.129 A 
ATOM     26  C   UNL d   1      10.899   0.033 -17.361  0.00  0.00     0.006 A 
ATOM     27  O   UNL d   1      12.388   3.176 -18.089  0.00  0.00    -0.211 OA
ATOM     28  C   UNL d   1      12.658   1.022 -19.389  0.00  0.00     0.057 A 
ATOM     29  N   UNL d   1      11.644   3.539 -16.936  0.00  0.00    -0.131 NA
ATOM     30  C   UNL d   1      12.233  -0.321 -19.405  0.00  0.00     0.142 A 
ATOM     31  F   UNL d   1      12.684  -1.147 -20.376  0.00  0.00    -0.204 F 
ATOM     32  C   UNL d   1      11.348  -0.804 -18.406  0.00  0.00     0.030 A 
ENDBRANCH   4  23
TORSDOF 4
