REMARK  5 active torsions:
REMARK  status: ('A' for Active; 'I' for Inactive)
REMARK    1  A    between atoms: C_2  and  C_3 
REMARK    2  A    between atoms: C_3  and  N_4 
REMARK    3  A    between atoms: C_13  and  O_14 
REMARK    4  A    between atoms: O_14  and  S_15 
REMARK    5  A    between atoms: S_15  and  C_18 
ROOT
ATOM      1  N   UNL d   1       8.173   5.250 -11.968  0.00  0.00     0.135 N 
ATOM      2  C   UNL d   1       7.186   6.244 -12.374  0.00  0.00     0.250 C 
ATOM      3  C   UNL d   1       5.797   5.612 -12.440  0.00  0.00     0.036 C 
ATOM      4  C   UNL d   1       5.748   4.422 -13.395  0.00  0.00     0.008 C 
ATOM      5  C   UNL d   1       6.857   3.432 -13.041  0.00  0.00     0.053 C 
ATOM      6  C   UNL d   1       6.870   2.272 -14.041  0.00  0.00    -0.023 A 
ATOM      7  C   UNL d   1       5.864   1.286 -13.958  0.00  0.00    -0.004 A 
ATOM      8  C   UNL d   1       5.824   0.218 -14.873  0.00  0.00     0.002 A 
ATOM      9  C   UNL d   1       6.806   0.120 -15.873  0.00  0.00     0.025 A 
ATOM     10  C   UNL d   1       7.836   1.083 -15.947  0.00  0.00     0.109 A 
ATOM     11  C   UNL d   1       7.876   2.163 -15.038  0.00  0.00    -0.002 A 
ATOM     12  C   UNL d   1       9.029   3.162 -15.121  0.00  0.00     0.030 C 
ATOM     13  C   UNL d   1       8.850   4.441 -14.287  0.00  0.00     0.038 C 
ATOM     14  C   UNL d   1       8.250   4.114 -12.902  0.00  0.00     0.224 C 
ENDROOT
BRANCH  10  15
ATOM     15  O   UNL d   1       8.799   0.974 -16.911  0.00  0.00    -0.225 OA
BRANCH  15  16
ATOM     16  S   UNL d   1      10.126  -0.005 -16.541  0.00  0.00     0.374 S 
ATOM     17  O   UNL d   1      10.324   0.007 -15.085  0.00  0.00    -0.189 OA
ATOM     18  O   UNL d   1       9.953  -1.271 -17.267  0.00  0.00    -0.189 OA
BRANCH  16  19
ATOM     19  C   UNL d   1      11.462   0.986 -17.348  0.00  0.00     0.524 C 
ATOM     20  F   UNL d   1      12.198   1.586 -16.415  0.00  0.00    -0.155 F 
ATOM     21  F   UNL d   1      12.223   0.167 -18.073  0.00  0.00    -0.155 F 
ATOM     22  F   UNL d   1      10.913   1.902 -18.145  0.00  0.00    -0.155 F 
ENDBRANCH  16  19
ENDBRANCH  15  16
ENDBRANCH  10  15
BRANCH   1  23
ATOM     23  C   UNL d   1       9.455   5.907 -11.723  0.00  0.00     0.250 C 
BRANCH  23  24
ATOM     24  C   UNL d   1       9.560   6.393 -10.261  0.00  0.00     0.035 C 
ATOM     25  C   UNL d   1      10.774   7.309 -10.036  0.00  0.00     0.002 C 
ENDBRANCH  23  24
ENDBRANCH   1  23
TORSDOF 5
