REMARK  4 active torsions:
REMARK  status: ('A' for Active; 'I' for Inactive)
REMARK    1  A    between atoms: C_2  and  C_3 
REMARK    2  A    between atoms: C_3  and  N_4 
REMARK       I    between atoms: N_4  and  C_5 
REMARK       I    between atoms: C_5  and  N_7 
REMARK    3  A    between atoms: N_7  and  S_8 
REMARK    4  A    between atoms: S_8  and  C_11 
ROOT
ATOM      1  S   UNL d   1       7.128   5.687 -12.538  0.00  0.00     0.289 S 
ATOM      2  O   UNL d   1       5.856   6.434 -12.613  0.00  0.00    -0.198 OA
ATOM      3  O   UNL d   1       8.330   6.156 -13.237  0.00  0.00    -0.198 OA
ENDROOT
BRANCH   1   4
ATOM      4  N   UNL d   1       7.473   5.582 -10.879  0.00  0.00    -0.101 NA
ATOM      5  C   UNL d   1       8.689   5.215 -10.361  0.00  0.00     0.374 C 
ATOM      6  N   UNL d   1       8.949   5.754  -9.166  0.00  0.00    -0.217 NA
ATOM      7  O   UNL d   1       9.464   4.518 -11.003  0.00  0.00    -0.242 OA
BRANCH   6   8
ATOM      8  C   UNL d   1      10.255   5.751  -8.532  0.00  0.00     0.131 C 
BRANCH   8   9
ATOM      9  C   UNL d   1      10.208   6.444  -7.164  0.00  0.00     0.026 C 
ATOM     10  C   UNL d   1       9.993   7.961  -7.260  0.00  0.00     0.002 C 
ENDBRANCH   8   9
ENDBRANCH   6   8
ENDBRANCH   1   4
BRANCH   1  11
ATOM     11  C   UNL d   1       6.786   4.005 -13.037  0.00  0.00     0.105 A 
ATOM     12  C   UNL d   1       5.709   3.313 -12.455  0.00  0.00     0.014 A 
ATOM     13  C   UNL d   1       5.457   1.993 -12.861  0.00  0.00     0.012 A 
ATOM     14  C   UNL d   1       6.238   1.368 -13.844  0.00  0.00     0.058 A 
ATOM     15  C   UNL d   1       7.300   2.076 -14.448  0.00  0.00     0.012 A 
ATOM     16 CL   UNL d   1       5.946  -0.279 -14.258  0.00  0.00    -0.082 Cl
ATOM     17  C   UNL d   1       7.574   3.398 -14.039  0.00  0.00     0.014 A 
ENDBRANCH   1  11
TORSDOF 4
