REMARK  7 active torsions:
REMARK  status: ('A' for Active; 'I' for Inactive)
REMARK    1  A    between atoms: C_6  and  C_7 
REMARK    2  A    between atoms: C_10  and  S_11 
REMARK    3  A    between atoms: S_11  and  C_12 
REMARK    4  A    between atoms: C_12  and  C_13 
REMARK    5  A    between atoms: C_13  and  C_14 
REMARK    6  A    between atoms: C_14  and  N_15 
REMARK    7  A    between atoms: C_18  and  C_19 
ROOT
ATOM      1  C   UNL d   1       8.211   5.948 -11.248  0.00  0.00     0.047 C 
ENDROOT
BRANCH   1   2
ATOM      2  C   UNL d   1       8.013   4.843 -12.293  0.00  0.00     0.067 C 
BRANCH   2   3
ATOM      3  S   UNL d   1       9.445   4.659 -13.406  0.00  0.00    -0.075 SA
BRANCH   3   4
ATOM      4  C   UNL d   1       8.936   3.244 -14.338  0.00  0.00     0.193 A 
ATOM      5  N   UNL d   1       7.691   2.765 -14.352  0.00  0.00    -0.122 NA
ATOM      6  N   UNL d   1       7.715   1.692 -15.207  0.00  0.00    -0.126 NA
ATOM      7  C   UNL d   1       8.972   1.599 -15.652  0.00  0.00     0.191 A 
ATOM      8  N   UNL d   1       9.781   2.555 -15.136  0.00  0.00    -0.287 N 
ATOM      9  C   UNL d   1      11.193   2.796 -15.397  0.00  0.00     0.134 C 
BRANCH   7  10
ATOM     10  C   UNL d   1       9.361   0.567 -16.614  0.00  0.00     0.151 A 
ATOM     11  C   UNL d   1       8.632  -0.335 -17.356  0.00  0.00     0.087 A 
ATOM     12  C   UNL d   1       7.150  -0.559 -17.413  0.00  0.00     0.054 C 
ATOM     13  N   UNL d   1       9.508  -1.096 -18.117  0.00  0.00    -0.221 NA
ATOM     14  C   UNL d   1      10.710  -0.612 -17.818  0.00  0.00     0.225 A 
ATOM     15  O   UNL d   1      10.689   0.396 -16.910  0.00  0.00    -0.282 OA
ENDBRANCH   7  10
ENDBRANCH   3   4
ENDBRANCH   2   3
ENDBRANCH   1   2
BRANCH   1  16
ATOM     16  C   UNL d   1       9.541   5.829 -10.487  0.00  0.00     0.251 C 
BRANCH  16  17
ATOM     17  N   UNL d   1       9.605   6.737  -9.350  0.00  0.00     0.137 N 
ATOM     18  C   UNL d   1       8.912   6.133  -8.207  0.00  0.00     0.251 C 
ATOM     19  C   UNL d   1       9.055   6.963  -6.942  0.00  0.00     0.037 A 
ATOM     20  C   UNL d   1      10.198   7.966  -6.807  0.00  0.00     0.023 A 
ATOM     21  C   UNL d   1       8.761   8.427  -6.930  0.00  0.00     0.006 A 
ATOM     22  C   UNL d   1      11.117   8.164  -7.997  0.00  0.00     0.039 C 
ATOM     23  C   UNL d   1      10.992   6.994  -8.980  0.00  0.00     0.251 C 
BRANCH  20  24
ATOM     24  C   UNL d   1      10.925   8.100  -5.499  0.00  0.00    -0.023 A 
ATOM     25  C   UNL d   1      11.444   6.957  -4.854  0.00  0.00    -0.004 A 
ATOM     26  C   UNL d   1      12.115   7.069  -3.622  0.00  0.00    -0.000 A 
ATOM     27  C   UNL d   1      12.275   8.332  -3.024  0.00  0.00    -0.000 A 
ATOM     28  C   UNL d   1      11.755   9.477  -3.656  0.00  0.00    -0.000 A 
ATOM     29  C   UNL d   1      11.087   9.364  -4.892  0.00  0.00    -0.004 A 
ENDBRANCH  20  24
ENDBRANCH  16  17
ENDBRANCH   1  16
TORSDOF 7
