REMARK  4 active torsions:
REMARK  status: ('A' for Active; 'I' for Inactive)
REMARK    1  A    between atoms: C_11  and  C_12 
REMARK    2  A    between atoms: C_12  and  C_13 
REMARK    3  A    between atoms: C_13  and  N_14 
REMARK    4  A    between atoms: N_18  and  C_19 
ROOT
ATOM      1  N   UNL d   1       9.595   4.348 -13.819  0.00  0.00     0.139 N 
ATOM      2  C   UNL d   1      10.092   3.034 -13.407  0.00  0.00     0.252 C 
ATOM      3  C   UNL d   1      11.188   2.501 -14.338  0.00  0.00     0.059 C 
ATOM      4  C   UNL d   1      10.674   1.632 -15.491  0.00  0.00     0.105 C 
ATOM      5  N   UNL d   1       9.604   2.260 -16.262  0.00  0.00    -0.332 N 
ATOM      6  C   UNL d   1       9.458   3.714 -16.248  0.00  0.00     0.138 C 
ATOM      7  C   UNL d   1       8.725   4.209 -14.982  0.00  0.00     0.274 C 
ENDROOT
BRANCH   1   8
ATOM      8  C   UNL d   1       8.808   4.982 -12.752  0.00  0.00     0.251 C 
BRANCH   8   9
ATOM      9  C   UNL d   1       9.662   5.274 -11.510  0.00  0.00     0.043 C 
BRANCH   9  10
ATOM     10  C   UNL d   1       9.040   6.249 -10.492  0.00  0.00     0.068 A 
ATOM     11  C   UNL d   1       9.730   7.627 -10.494  0.00  0.00     0.173 A 
ATOM     12  O   UNL d   1       9.849   8.336 -11.493  0.00  0.00    -0.291 OA
ATOM     13  C   UNL d   1      10.161   7.938  -9.135  0.00  0.00     0.031 A 
ATOM     14  C   UNL d   1       9.821   6.897  -8.282  0.00  0.00    -0.017 A 
ATOM     15  C   UNL d   1      10.802   9.095  -8.662  0.00  0.00     0.005 A 
ATOM     16  C   UNL d   1      10.108   6.963  -6.907  0.00  0.00     0.025 A 
ATOM     17  C   UNL d   1       9.134   5.769  -9.011  0.00  0.00     0.034 A 
ATOM     18  C   UNL d   1      10.753   8.119  -6.411  0.00  0.00     0.140 A 
ATOM     19  C   UNL d   1      11.090   9.181  -7.282  0.00  0.00     0.030 A 
ATOM     20  F   UNL d   1      11.059   8.208  -5.097  0.00  0.00    -0.204 F 
ENDBRANCH   9  10
ENDBRANCH   8   9
ENDBRANCH   1   8
BRANCH   5  21
ATOM     21  C   UNL d   1       8.665   1.442 -16.930  0.00  0.00     0.140 A 
ATOM     22  N   UNL d   1       7.442   1.963 -17.197  0.00  0.00    -0.227 NA
ATOM     23  C   UNL d   1       6.528   1.188 -17.820  0.00  0.00     0.101 A 
ATOM     24  C   UNL d   1       6.786  -0.125 -18.243  0.00  0.00     0.021 A 
ATOM     25  C   UNL d   1       8.053  -0.668 -17.984  0.00  0.00     0.005 A 
ATOM     26  C   UNL d   1       9.004   0.120 -17.309  0.00  0.00     0.037 A 
ENDBRANCH   5  21
TORSDOF 4
