REMARK  7 active torsions:
REMARK  status: ('A' for Active; 'I' for Inactive)
REMARK    1  A    between atoms: C_2  and  C_3 
REMARK       I    between atoms: C_2  and  N_9 
REMARK    2  A    between atoms: C_3  and  C_4 
REMARK    3  A    between atoms: N_9  and  C_10 
REMARK    4  A    between atoms: C_13  and  C_14 
REMARK    5  A    between atoms: C_14  and  C_15 
REMARK    6  A    between atoms: C_15  and  N_16 
REMARK    7  A    between atoms: N_19  and  C_20 
ROOT
ATOM      1  C   UNL d   1       9.187   4.755 -10.768  0.00  0.00     0.035 C 
ENDROOT
BRANCH   1   2
ATOM      2  C   UNL d   1       9.118   6.008  -9.891  0.00  0.00     0.002 C 
ATOM      3  C   UNL d   1       9.351   5.657  -8.409  0.00  0.00     0.002 C 
ATOM      4  C   UNL d   1       9.243   6.906  -7.539  0.00  0.00     0.024 C 
ATOM      5  C   UNL d   1      10.232   7.995  -8.007  0.00  0.00     0.106 C 
ATOM      6  C   UNL d   1      10.012   8.375  -9.474  0.00  0.00     0.024 C 
ATOM      7  C   UNL d   1      10.094   7.120 -10.352  0.00  0.00     0.002 C 
BRANCH   5   8
ATOM      8  N   UNL d   1      10.104   9.184  -7.171  0.00  0.00    -0.240 NA
ATOM      9  C   UNL d   1      10.674   9.366  -5.976  0.00  0.00     0.254 C 
ATOM     10  O   UNL d   1      10.660  10.470  -5.445  0.00  0.00    -0.271 OA
BRANCH   9  11
ATOM     11  C   UNL d   1      11.381   8.198  -5.276  0.00  0.00     0.120 C 
BRANCH  11  12
ATOM     12  C   UNL d   1      12.336   8.647  -4.171  0.00  0.00     0.136 C 
ATOM     13  C   UNL d   1      12.857   7.509  -3.280  0.00  0.00     0.031 C 
ATOM     14  C   UNL d   1      12.714   8.424  -2.072  0.00  0.00     0.005 C 
ATOM     15  C   UNL d   1      11.733   9.251  -2.896  0.00  0.00     0.031 C 
ATOM     16  O   UNL d   1      13.321   9.451  -4.781  0.00  0.00    -0.226 OA
ENDBRANCH  11  12
ENDBRANCH   9  11
ENDBRANCH   5   8
ENDBRANCH   1   2
BRANCH   1  17
ATOM     17  C   UNL d   1       8.726   5.022 -12.206  0.00  0.00     0.250 C 
BRANCH  17  18
ATOM     18  N   UNL d   1       8.699   3.766 -12.965  0.00  0.00     0.141 N 
ATOM     19  C   UNL d   1       7.475   3.680 -13.755  0.00  0.00     0.274 C 
ATOM     20  C   UNL d   1       7.399   2.357 -14.542  0.00  0.00     0.137 C 
ATOM     21  N   UNL d   1       8.600   2.184 -15.364  0.00  0.00    -0.343 N 
ATOM     22  C   UNL d   1       9.851   2.326 -14.614  0.00  0.00     0.137 C 
ATOM     23  C   UNL d   1       9.864   3.666 -13.847  0.00  0.00     0.274 C 
BRANCH  21  24
ATOM     24  C   UNL d   1       8.559   1.951 -16.746  0.00  0.00     0.081 A 
ATOM     25  C   UNL d   1       7.485   1.277 -17.389  0.00  0.00     0.135 A 
ATOM     26  C   UNL d   1       7.476   1.040 -18.754  0.00  0.00     0.121 A 
ATOM     27  O   UNL d   1       6.349   0.745 -16.852  0.00  0.00    -0.298 OA
ATOM     28  C   UNL d   1       8.527   1.449 -19.590  0.00  0.00     0.026 A 
ATOM     29  O   UNL d   1       6.347   0.376 -19.106  0.00  0.00    -0.299 OA
ATOM     30  C   UNL d   1       9.609   2.124 -18.991  0.00  0.00     0.004 A 
ATOM     31  C   UNL d   1       9.616   2.382 -17.596  0.00  0.00     0.019 A 
ATOM     32  C   UNL d   1       5.628   0.184 -17.918  0.00  0.00     0.304 A 
ENDBRANCH  21  24
ENDBRANCH  17  18
ENDBRANCH   1  17
TORSDOF 7
