REMARK  3 active torsions:
REMARK  status: ('A' for Active; 'I' for Inactive)
REMARK    1  A    between atoms: C_7  and  C_8 
REMARK    2  A    between atoms: N_11  and  C_12 
REMARK    3  A    between atoms: C_12  and  C_13 
ROOT
ATOM      1  C   UNL d   1       9.579   6.733 -10.157  0.00  0.00     0.013 C 
ATOM      2  C   UNL d   1       9.661   8.067 -10.345  0.00  0.00     0.008 C 
ATOM      3  C   UNL d   1      10.236   9.003  -9.289  0.00  0.00     0.277 C 
ATOM      4  N   UNL d   1      10.448   8.350  -7.992  0.00  0.00     0.146 N 
ATOM      5  C   UNL d   1      11.111   7.072  -8.228  0.00  0.00     0.256 C 
ATOM      6  C   UNL d   1      10.104   6.143  -8.873  0.00  0.00     0.065 C 
ENDROOT
BRANCH   1   7
ATOM      7  C   UNL d   1       8.941   5.889 -11.154  0.00  0.00     0.158 A 
ATOM      8  N   UNL d   1       7.611   5.838 -11.328  0.00  0.00    -0.226 NA
ATOM      9  C   UNL d   1       7.369   4.890 -12.305  0.00  0.00     0.101 A 
ATOM     10  C   UNL d   1       6.223   4.381 -12.937  0.00  0.00     0.022 A 
ATOM     11  C   UNL d   1       8.674   4.417 -12.658  0.00  0.00     0.102 A 
ATOM     12  C   UNL d   1       6.372   3.401 -13.930  0.00  0.00     0.013 A 
ATOM     13  C   UNL d   1       7.652   2.921 -14.286  0.00  0.00     0.059 A 
ATOM     14 CL   UNL d   1       7.812   1.726 -15.512  0.00  0.00    -0.082 Cl
ATOM     15  C   UNL d   1       8.801   3.428 -13.649  0.00  0.00     0.032 A 
ATOM     16  N   UNL d   1       9.651   5.053 -11.922  0.00  0.00    -0.226 NA
ENDBRANCH   1   7
BRANCH   4  17
ATOM     17  C   UNL d   1      11.165   9.254  -7.083  0.00  0.00     0.277 C 
BRANCH  17  18
ATOM     18  C   UNL d   1      11.435   8.720  -5.691  0.00  0.00     0.011 C 
ATOM     19  C   UNL d   1      12.293   9.423  -4.808  0.00  0.00    -0.002 C 
ATOM     20  C   UNL d   1      12.615   8.895  -3.546  0.00  0.00    -0.000 C 
ATOM     21  C   UNL d   1      12.150   7.617  -3.152  0.00  0.00    -0.000 C 
ATOM     22  C   UNL d   1      11.307   6.919  -4.050  0.00  0.00    -0.000 C 
ATOM     23  C   UNL d   1      10.878   7.501  -5.221  0.00  0.00    -0.002 C 
ENDBRANCH  17  18
ENDBRANCH   4  17
TORSDOF 3
