REMARK  9 active torsions:
REMARK  status: ('A' for Active; 'I' for Inactive)
REMARK    1  A    between atoms: O_2  and  C_3 
REMARK    2  A    between atoms: C_8  and  N_9 
REMARK    3  A    between atoms: N_12  and  C_13 
REMARK    4  A    between atoms: C_13  and  C_14 
REMARK    5  A    between atoms: C_14  and  C_15 
REMARK    6  A    between atoms: C_15  and  C_16 
REMARK    7  A    between atoms: C_16  and  O_17 
REMARK    8  A    between atoms: O_17  and  C_18 
REMARK    9  A    between atoms: C_22  and  C_23 
ROOT
ATOM      1  C   UNL d   1       8.854   5.407  -8.944  0.00  0.00     0.251 C 
ENDROOT
BRANCH   1   2
ATOM      2  N   UNL d   1       9.618   6.516  -8.376  0.00  0.00     0.141 N 
ATOM      3  C   UNL d   1       8.849   7.272  -7.395  0.00  0.00     0.274 C 
ATOM      4  C   UNL d   1       9.729   8.382  -6.786  0.00  0.00     0.137 C 
ATOM      5  N   UNL d   1      10.959   7.821  -6.228  0.00  0.00    -0.343 N 
ATOM      6  C   UNL d   1      11.671   6.916  -7.090  0.00  0.00     0.137 C 
ATOM      7  C   UNL d   1      10.688   5.888  -7.642  0.00  0.00     0.274 C 
BRANCH   5   8
ATOM      8  C   UNL d   1      11.398   8.068  -4.918  0.00  0.00     0.079 A 
ATOM      9  C   UNL d   1      11.455   9.378  -4.409  0.00  0.00     0.110 A 
ATOM     10  C   UNL d   1      11.860   9.573  -3.076  0.00  0.00     0.026 A 
ATOM     11  C   UNL d   1      12.238   8.484  -2.270  0.00  0.00     0.002 A 
ATOM     12  C   UNL d   1      12.164   7.176  -2.779  0.00  0.00     0.002 A 
ATOM     13  C   UNL d   1      11.742   6.973  -4.106  0.00  0.00     0.019 A 
BRANCH   9  14
ATOM     14  O   UNL d   1      11.073  10.470  -5.152  0.00  0.00    -0.327 OA
ATOM     15  C   UNL d   1      11.882  10.742  -6.290  0.00  0.00     0.181 C 
ENDBRANCH   9  14
ENDBRANCH   5   8
ENDBRANCH   1   2
BRANCH   1  16
ATOM     16  C   UNL d   1       8.031   5.870 -10.124  0.00  0.00     0.038 C 
BRANCH  16  17
ATOM     17  C   UNL d   1       7.657   4.752 -11.071  0.00  0.00     0.035 C 
BRANCH  17  18
ATOM     18  C   UNL d   1       6.714   5.245 -12.191  0.00  0.00     0.149 C 
BRANCH  18  19
ATOM     19  O   UNL d   1       6.278   4.159 -12.995  0.00  0.00    -0.329 OA
BRANCH  19  20
ATOM     20  C   UNL d   1       7.192   3.482 -13.755  0.00  0.00     0.113 A 
ATOM     21  C   UNL d   1       8.525   3.854 -13.842  0.00  0.00     0.124 A 
ATOM     22  N   UNL d   1       9.373   3.095 -14.565  0.00  0.00    -0.226 N 
ATOM     23  C   UNL d   1       8.966   1.940 -15.291  0.00  0.00     0.088 A 
ATOM     24  N   UNL d   1      10.731   3.308 -14.701  0.00  0.00    -0.163 NA
ATOM     25  C   UNL d   1       7.588   1.573 -15.229  0.00  0.00     0.021 A 
ATOM     26  C   UNL d   1      10.092   1.479 -15.908  0.00  0.00     0.081 A 
ATOM     27  C   UNL d   1       6.744   2.330 -14.456  0.00  0.00     0.027 A 
ATOM     28  C   UNL d   1      11.136   2.353 -15.500  0.00  0.00     0.125 A 
BRANCH  26  29
ATOM     29  C   UNL d   1      10.146   0.345 -16.811  0.00  0.00     0.237 C 
ATOM     30  O   UNL d   1      11.137  -0.013 -17.444  0.00  0.00    -0.283 OA
ENDBRANCH  26  29
ENDBRANCH  19  20
ENDBRANCH  18  19
ENDBRANCH  17  18
ENDBRANCH  16  17
ENDBRANCH   1  16
TORSDOF 9
