REMARK  9 active torsions:
REMARK  status: ('A' for Active; 'I' for Inactive)
REMARK    1  A    between atoms: C_2  and  C_5 
REMARK    2  A    between atoms: C_9  and  N_10 
REMARK    3  A    between atoms: N_13  and  C_14 
REMARK    4  A    between atoms: C_14  and  C_15 
REMARK    5  A    between atoms: C_15  and  C_16 
REMARK    6  A    between atoms: C_16  and  C_17 
REMARK    7  A    between atoms: C_17  and  N_18 
REMARK    8  A    between atoms: N_18  and  C_19 
REMARK    9  A    between atoms: C_22  and  C_23 
ROOT
ATOM      1  C   UNL d   1       8.154   3.845 -13.743  0.00  0.00     0.251 C 
ENDROOT
BRANCH   1   2
ATOM      2  N   UNL d   1       8.423   2.507 -14.282  0.00  0.00     0.141 N 
ATOM      3  C   UNL d   1       7.762   2.364 -15.579  0.00  0.00     0.274 C 
ATOM      4  C   UNL d   1       7.990   0.973 -16.209  0.00  0.00     0.137 C 
ATOM      5  N   UNL d   1       9.431   0.701 -16.317  0.00  0.00    -0.344 N 
ATOM      6  C   UNL d   1      10.131   0.910 -15.051  0.00  0.00     0.137 C 
ATOM      7  C   UNL d   1       9.858   2.326 -14.519  0.00  0.00     0.274 C 
BRANCH   5   8
ATOM      8  C   UNL d   1      10.081   0.368 -17.522  0.00  0.00     0.056 A 
ATOM      9  C   UNL d   1      11.481   0.549 -17.681  0.00  0.00     0.017 A 
ATOM     10  C   UNL d   1      12.132   0.142 -18.873  0.00  0.00     0.001 A 
ATOM     11  C   UNL d   1      11.399  -0.406 -19.949  0.00  0.00     0.004 A 
ATOM     12  C   UNL d   1      10.005  -0.558 -19.828  0.00  0.00     0.073 A 
ATOM     13  C   UNL d   1       9.364  -0.189 -18.620  0.00  0.00     0.021 A 
BRANCH  12  14
ATOM     14  C   UNL d   1       9.167  -1.113 -20.977  0.00  0.00     0.419 C 
ATOM     15  F   UNL d   1       9.940  -1.601 -21.950  0.00  0.00    -0.166 F 
ATOM     16  F   UNL d   1       8.400  -0.146 -21.489  0.00  0.00    -0.166 F 
ATOM     17  F   UNL d   1       8.377  -2.093 -20.533  0.00  0.00    -0.166 F 
ENDBRANCH  12  14
ENDBRANCH   5   8
ENDBRANCH   1   2
BRANCH   1  18
ATOM     18  C   UNL d   1       8.629   3.999 -12.277  0.00  0.00     0.037 C 
BRANCH  18  19
ATOM     19  C   UNL d   1       9.070   5.423 -11.931  0.00  0.00     0.028 C 
BRANCH  19  20
ATOM     20  C   UNL d   1       9.447   5.560 -10.443  0.00  0.00     0.127 C 
BRANCH  20  21
ATOM     21  N   UNL d   1       9.822   6.930 -10.141  0.00  0.00    -0.253 NA
BRANCH  21  22
ATOM     22  C   UNL d   1      10.230   7.269  -8.850  0.00  0.00     0.158 A 
ATOM     23  N   UNL d   1      10.261   6.309  -7.904  0.00  0.00    -0.226 NA
ATOM     24  C   UNL d   1      10.641   6.656  -6.659  0.00  0.00     0.101 A 
ATOM     25  C   UNL d   1      11.047   7.946  -6.268  0.00  0.00     0.019 A 
ATOM     26  C   UNL d   1      11.035   8.934  -7.281  0.00  0.00     0.005 A 
ATOM     27  C   UNL d   1      10.619   8.593  -8.587  0.00  0.00     0.038 A 
BRANCH  25  28
ATOM     28  C   UNL d   1      11.461   8.203  -4.866  0.00  0.00     0.002 A 
ATOM     29  C   UNL d   1      11.873   7.164  -3.984  0.00  0.00     0.000 A 
ATOM     30  C   UNL d   1      12.275   7.437  -2.659  0.00  0.00     0.000 A 
ATOM     31  C   UNL d   1      12.275   8.755  -2.192  0.00  0.00     0.000 A 
ATOM     32  C   UNL d   1      11.848   9.787  -3.039  0.00  0.00     0.000 A 
ATOM     33  C   UNL d   1      11.433   9.523  -4.350  0.00  0.00     0.000 A 
ENDBRANCH  25  28
ENDBRANCH  21  22
ENDBRANCH  20  21
ENDBRANCH  19  20
ENDBRANCH  18  19
ENDBRANCH   1  18
TORSDOF 9
