REMARK  0 active torsions:
REMARK  status: ('A' for Active; 'I' for Inactive)
ROOT
ATOM      1  C   UNL d   1       9.059   9.143  -7.635  0.00  0.00     0.003 C 
ATOM      2  C   UNL d   1      10.564   8.770  -7.808  0.00  0.00     0.031 C 
ATOM      3  C   UNL d   1      11.045   9.115  -9.242  0.00  0.00     0.003 C 
ATOM      4  C   UNL d   1      10.179   8.423 -10.319  0.00  0.00     0.004 C 
ATOM      5  C   UNL d   1      10.102   6.905 -10.062  0.00  0.00     0.022 C 
ATOM      6  C   UNL d   1       9.236   6.137 -11.053  0.00  0.00    -0.026 A 
ATOM      7  C   UNL d   1       9.235   6.460 -12.426  0.00  0.00    -0.003 A 
ATOM      8  C   UNL d   1       8.496   5.688 -13.354  0.00  0.00     0.027 A 
ATOM      9  C   UNL d   1       7.687   4.643 -12.893  0.00  0.00     0.131 A 
ATOM     10  O   UNL d   1       6.990   3.879 -13.802  0.00  0.00    -0.190 OA
ATOM     11  C   UNL d   1       7.608   4.384 -11.514  0.00  0.00     0.023 A 
ATOM     12  C   UNL d   1       8.424   5.058 -10.594  0.00  0.00    -0.024 A 
ATOM     13  C   UNL d   1       8.437   4.656  -9.107  0.00  0.00     0.026 C 
ATOM     14  C   UNL d   1       9.643   5.184  -8.368  0.00  0.00     0.005 C 
ATOM     15  C   UNL d   1       9.706   6.634  -8.592  0.00  0.00     0.004 C 
ATOM     16  C   UNL d   1      10.664   7.298  -7.577  0.00  0.00     0.005 C 
ATOM     17  C   UNL d   1      10.430   7.168  -6.044  0.00  0.00     0.036 C 
ATOM     18  C   UNL d   1      11.063   8.451  -5.436  0.00  0.00     0.182 C 
ATOM     19  O   UNL d   1      12.175   8.188  -4.592  0.00  0.00    -0.221 OA
ATOM     20  C   UNL d   1      11.431   9.327  -6.661  0.00  0.00     0.182 C 
ATOM     21  O   UNL d   1      11.209  10.693  -6.363  0.00  0.00    -0.221 OA
ENDROOT
TORSDOF 0
