REMARK  4 active torsions:
REMARK  status: ('A' for Active; 'I' for Inactive)
REMARK    1  A    between atoms: O_2  and  C_3 
REMARK    2  A    between atoms: C_7  and  O_8 
REMARK    3  A    between atoms: C_10  and  C_11 
REMARK    4  A    between atoms: C_19  and  N_20 
ROOT
ATOM      1  C   UNL d   1       8.659   1.366 -16.074  0.00  0.00    -0.001 A 
ATOM      2  C   UNL d   1       9.862   1.004 -16.713  0.00  0.00    -0.000 A 
ATOM      3  C   UNL d   1      11.081   1.613 -16.364  0.00  0.00    -0.000 A 
ATOM      4  C   UNL d   1      11.108   2.601 -15.363  0.00  0.00    -0.004 A 
ATOM      5  C   UNL d   1       9.918   2.984 -14.709  0.00  0.00    -0.024 A 
ATOM      6  C   UNL d   1       8.688   2.361 -15.062  0.00  0.00    -0.026 A 
ATOM      7  C   UNL d   1       7.389   2.760 -14.370  0.00  0.00     0.028 C 
ATOM      8  C   UNL d   1       7.452   4.070 -13.625  0.00  0.00     0.038 C 
ATOM      9  C   UNL d   1       8.731   4.187 -12.778  0.00  0.00     0.224 C 
ATOM     10  C   UNL d   1       9.987   4.094 -13.662  0.00  0.00     0.059 C 
ENDROOT
BRANCH   1  11
ATOM     11  C   UNL d   1       7.402   0.697 -16.477  0.00  0.00     0.044 A 
ATOM     12  C   UNL d   1       6.684  -0.077 -15.528  0.00  0.00     0.096 A 
ATOM     13  C   UNL d   1       5.447  -0.659 -15.893  0.00  0.00     0.024 A 
ATOM     14  C   UNL d   1       4.949  -0.517 -17.197  0.00  0.00     0.004 A 
ATOM     15  C   UNL d   1       5.672   0.227 -18.147  0.00  0.00     0.024 A 
ATOM     16  C   UNL d   1       6.895   0.847 -17.794  0.00  0.00     0.096 A 
BRANCH  12  17
ATOM     17  O   UNL d   1       7.256  -0.237 -14.282  0.00  0.00    -0.328 OA
ATOM     18  C   UNL d   1       6.505  -0.867 -13.265  0.00  0.00     0.181 C 
ENDBRANCH  12  17
BRANCH  16  19
ATOM     19  O   UNL d   1       7.623   1.633 -18.672  0.00  0.00    -0.328 OA
ATOM     20  C   UNL d   1       7.300   1.589 -20.053  0.00  0.00     0.181 C 
ENDBRANCH  16  19
ENDBRANCH   1  11
BRANCH   9  21
ATOM     21  N   UNL d   1       8.767   5.400 -11.938  0.00  0.00     0.140 N 
ATOM     22  C   UNL d   1       8.036   5.214 -10.693  0.00  0.00     0.285 C 
ATOM     23  C   UNL d   1       8.211   6.578 -12.593  0.00  0.00     0.285 C 
ENDBRANCH   9  21
TORSDOF 4
