REMARK  7 active torsions:
REMARK  status: ('A' for Active; 'I' for Inactive)
REMARK       I    between atoms: C_2  and  N_3 
REMARK    1  A    between atoms: C_2  and  C_21 
REMARK    2  A    between atoms: N_3  and  C_4 
REMARK    3  A    between atoms: C_4  and  C_5 
REMARK    4  A    between atoms: C_5  and  C_6 
REMARK    5  A    between atoms: C_6  and  C_7 
REMARK    6  A    between atoms: C_7  and  N_8 
REMARK    7  A    between atoms: N_8  and  C_9 
ROOT
ATOM      1  C   UNL d   1       8.939   6.904 -11.949  0.00  0.00     0.040 C 
ENDROOT
BRANCH   1   2
ATOM      2  C   UNL d   1       9.319   6.511 -10.519  0.00  0.00     0.029 C 
BRANCH   2   3
ATOM      3  C   UNL d   1      10.545   7.263 -10.016  0.00  0.00     0.129 C 
BRANCH   3   4
ATOM      4  N   UNL d   1      10.637   7.161  -8.569  0.00  0.00    -0.233 NA
ATOM      5  C   UNL d   1      10.342   8.162  -7.743  0.00  0.00     0.293 C 
ATOM      6  O   UNL d   1       9.786   9.201  -8.098  0.00  0.00    -0.264 OA
BRANCH   5   7
ATOM      7  C   UNL d   1      10.836   8.019  -6.377  0.00  0.00     0.139 A 
ATOM      8  N   UNL d   1      11.017   9.158  -5.611  0.00  0.00    -0.241 NA
ATOM      9  C   UNL d   1      11.499   8.827  -4.368  0.00  0.00     0.082 A 
ATOM     10  C   UNL d   1      11.607   7.405  -4.367  0.00  0.00     0.019 A 
ATOM     11  C   UNL d   1      11.827   9.595  -3.240  0.00  0.00     0.019 A 
ATOM     12  C   UNL d   1      11.192   6.919  -5.640  0.00  0.00     0.025 A 
ATOM     13  C   UNL d   1      12.059   6.788  -3.186  0.00  0.00     0.002 A 
ATOM     14  C   UNL d   1      12.380   7.551  -2.058  0.00  0.00     0.000 A 
ATOM     15  C   UNL d   1      12.259   8.949  -2.077  0.00  0.00     0.002 A 
ENDBRANCH   5   7
ENDBRANCH   3   4
ENDBRANCH   2   3
ENDBRANCH   1   2
BRANCH   1  16
ATOM     16  C   UNL d   1       7.659   6.196 -12.393  0.00  0.00     0.291 C 
BRANCH  16  17
ATOM     17  N   UNL d   1       7.999   4.827 -12.746  0.00  0.00     0.347 N 
BRANCH  17  18
ATOM     18  C   UNL d   1       6.893   4.045 -13.315  0.00  0.00     0.347 C 
ATOM     19  C   UNL d   1       7.442   2.895 -14.196  0.00  0.00     0.211 C 
ATOM     20  C   UNL d   1       6.602   1.684 -14.282  0.00  0.00     0.061 A 
ATOM     21  O   UNL d   1       8.490   2.992 -14.835  0.00  0.00    -0.289 OA
ATOM     22  C   UNL d   1       5.463   1.550 -13.462  0.00  0.00     0.097 A 
ATOM     23  C   UNL d   1       6.861   0.721 -15.274  0.00  0.00     0.032 A 
ATOM     24  O   UNL d   1       5.029   2.558 -12.631  0.00  0.00    -0.328 OA
ATOM     25  C   UNL d   1       4.605   0.443 -13.672  0.00  0.00     0.026 A 
ATOM     26  C   UNL d   1       6.020   3.462 -12.176  0.00  0.00     0.193 C 
ATOM     27  C   UNL d   1       4.833  -0.494 -14.681  0.00  0.00     0.029 A 
ATOM     28  C   UNL d   1       5.965  -0.326 -15.483  0.00  0.00     0.131 A 
ATOM     29  O   UNL d   1       6.239  -1.185 -16.488  0.00  0.00    -0.190 OA
ENDBRANCH  17  18
ENDBRANCH  16  17
ENDBRANCH   1  16
TORSDOF 7
