REMARK  7 active torsions:
REMARK  status: ('A' for Active; 'I' for Inactive)
REMARK       I    between atoms: C_2  and  N_4 
REMARK    1  A    between atoms: N_4  and  C_5 
REMARK    2  A    between atoms: C_5  and  C_6 
REMARK    3  A    between atoms: C_12  and  C_13 
REMARK    4  A    between atoms: N_16  and  C_17 
REMARK    5  A    between atoms: C_17  and  C_18 
REMARK    6  A    between atoms: C_18  and  N_19 
REMARK    7  A    between atoms: N_28  and  C_29 
ROOT
ATOM      1  C   UNL d   1       6.066   2.586 -13.462  0.00  0.00     0.002 C 
ATOM      2  C   UNL d   1       6.596   2.267 -14.736  0.00  0.00    -0.001 C 
ATOM      3  C   UNL d   1       7.794   2.791 -15.169  0.00  0.00     0.017 C 
ATOM      4  C   UNL d   1       8.453   3.740 -14.381  0.00  0.00     0.064 A 
ATOM      5  C   UNL d   1       7.901   4.169 -13.128  0.00  0.00     0.013 A 
ATOM      6  C   UNL d   1       6.659   3.622 -12.711  0.00  0.00    -0.001 C 
ATOM      7  C   UNL d   1       8.779   5.172 -12.588  0.00  0.00    -0.003 A 
ATOM      8  C   UNL d   1       9.748   5.356 -13.545  0.00  0.00     0.076 A 
ATOM      9  N   UNL d   1       9.618   4.468 -14.604  0.00  0.00    -0.305 N 
ENDROOT
BRANCH   7  10
ATOM     10  C   UNL d   1       8.682   5.866 -11.257  0.00  0.00     0.028 C 
ATOM     11  C   UNL d   1       8.738   4.856 -10.092  0.00  0.00     0.040 C 
ATOM     12  C   UNL d   1       8.780   5.561  -8.740  0.00  0.00     0.251 C 
ATOM     13  N   UNL d   1       9.976   6.393  -8.626  0.00  0.00     0.139 N 
ATOM     14  C   UNL d   1       9.885   7.483  -9.610  0.00  0.00     0.251 C 
ATOM     15  C   UNL d   1       9.809   6.901 -11.028  0.00  0.00     0.040 C 
BRANCH  13  16
ATOM     16  C   UNL d   1       9.990   6.976  -7.293  0.00  0.00     0.274 C 
BRANCH  16  17
ATOM     17  C   UNL d   1      11.424   7.364  -6.921  0.00  0.00     0.141 C 
BRANCH  17  18
ATOM     18  N   UNL d   1      11.425   8.197  -5.714  0.00  0.00    -0.297 N 
ATOM     19  C   UNL d   1      11.264   9.521  -5.659  0.00  0.00     0.342 A 
ATOM     20  N   UNL d   1      11.333   9.912  -4.401  0.00  0.00    -0.217 NA
ATOM     21  O   UNL d   1      11.082  10.282  -6.613  0.00  0.00    -0.245 OA
ATOM     22  C   UNL d   1      11.624   8.841  -3.476  0.00  0.00     0.155 A 
ATOM     23  C   UNL d   1      11.667   7.610  -4.399  0.00  0.00     0.132 A 
ENDBRANCH  17  18
ENDBRANCH  16  17
ENDBRANCH  13  16
ENDBRANCH   7  10
BRANCH   9  24
ATOM     24  C   UNL d   1      10.488   4.407 -15.745  0.00  0.00     0.064 A 
ATOM     25  C   UNL d   1      10.676   3.208 -16.487  0.00  0.00     0.020 A 
ATOM     26  C   UNL d   1      11.446   3.208 -17.672  0.00  0.00     0.031 A 
ATOM     27  C   UNL d   1      12.147   4.364 -18.078  0.00  0.00     0.140 A 
ATOM     28  C   UNL d   1      12.033   5.543 -17.312  0.00  0.00     0.031 A 
ATOM     29  F   UNL d   1      12.953   4.327 -19.168  0.00  0.00    -0.204 F 
ATOM     30  C   UNL d   1      11.190   5.571 -16.177  0.00  0.00     0.020 A 
ENDBRANCH   9  24
BRANCH   1  31
ATOM     31  C   UNL d   1       4.902   1.829 -12.864  0.00  0.00     0.155 C 
BRANCH  31  32
ATOM     32  N   UNL d   1       4.449   0.660 -13.633  0.00  0.00    -0.233 NA
ATOM     33  C   UNL d   1       5.131  -0.436 -14.010  0.00  0.00     0.252 C 
ATOM     34  C   UNL d   1       4.421  -1.333 -15.001  0.00  0.00     0.100 C 
ATOM     35  O   UNL d   1       6.236  -0.740 -13.549  0.00  0.00    -0.271 OA
ENDBRANCH  31  32
ENDBRANCH   1  31
TORSDOF 7
