REMARK  3 active torsions:
REMARK  status: ('A' for Active; 'I' for Inactive)
REMARK    1  A    between atoms: C_2  and  C_3 
REMARK       I    between atoms: C_2  and  N_15 
REMARK    2  A    between atoms: C_6  and  C_7 
REMARK       I    between atoms: N_18  and  C_19 
REMARK    3  A    between atoms: C_19  and  C_21 
ROOT
ATOM      1  O   UNL d   1       9.671   3.330 -16.181  0.00  0.00    -0.267 OA
ATOM      2  C   UNL d   1       8.864   3.158 -15.269  0.00  0.00     0.257 C 
ATOM      3  N   UNL d   1       7.797   2.325 -15.378  0.00  0.00    -0.313 N 
ATOM      4  C   UNL d   1       7.439   1.662 -16.643  0.00  0.00     0.129 C 
ATOM      5  C   UNL d   1       7.398   0.139 -16.441  0.00  0.00     0.129 C 
ATOM      6  N   UNL d   1       6.401  -0.168 -15.393  0.00  0.00    -0.313 N 
ATOM      7  C   UNL d   1       5.337  -1.009 -15.490  0.00  0.00     0.257 C 
ATOM      8  O   UNL d   1       4.521  -1.150 -14.577  0.00  0.00    -0.267 OA
ATOM      9  C   UNL d   1       6.748   0.500 -14.125  0.00  0.00     0.129 C 
ATOM     10  C   UNL d   1       6.805   2.026 -14.331  0.00  0.00     0.129 C 
ENDROOT
BRANCH   2  11
ATOM     11  C   UNL d   1       8.987   3.977 -14.028  0.00  0.00     0.056 A 
ATOM     12  C   UNL d   1       9.479   3.413 -12.852  0.00  0.00     0.005 A 
ATOM     13  C   UNL d   1       9.566   4.176 -11.676  0.00  0.00     0.000 A 
ATOM     14  C   UNL d   1       9.244   5.546 -11.644  0.00  0.00     0.000 A 
ATOM     15  C   UNL d   1       8.759   6.118 -12.841  0.00  0.00     0.000 A 
ATOM     16  C   UNL d   1       8.628   5.333 -14.008  0.00  0.00     0.005 A 
BRANCH  14  17
ATOM     17  C   UNL d   1       9.447   6.342 -10.413  0.00  0.00     0.000 A 
ATOM     18  C   UNL d   1       9.176   5.783  -9.140  0.00  0.00     0.000 A 
ATOM     19  C   UNL d   1       9.341   6.542  -7.966  0.00  0.00     0.000 A 
ATOM     20  C   UNL d   1       9.787   7.875  -8.043  0.00  0.00     0.000 A 
ATOM     21  C   UNL d   1      10.081   8.442  -9.296  0.00  0.00     0.000 A 
ATOM     22  C   UNL d   1       9.910   7.680 -10.467  0.00  0.00     0.000 A 
ENDBRANCH  14  17
ENDBRANCH   2  11
BRANCH   7  23
ATOM     23  C   UNL d   1       5.210  -1.854 -16.725  0.00  0.00     0.057 A 
ATOM     24  C   UNL d   1       4.861  -1.290 -17.972  0.00  0.00     0.024 A 
ATOM     25  C   UNL d   1       4.767  -2.120 -19.103  0.00  0.00     0.082 A 
ATOM     26  C   UNL d   1       4.990  -3.529 -19.045  0.00  0.00     0.019 A 
ATOM     27  N   UNL d   1       4.471  -1.855 -20.418  0.00  0.00    -0.244 NA
ATOM     28  C   UNL d   1       5.333  -4.073 -17.787  0.00  0.00     0.002 A 
ATOM     29  C   UNL d   1       4.789  -4.072 -20.364  0.00  0.00     0.022 A 
ATOM     30  C   UNL d   1       5.441  -3.248 -16.649  0.00  0.00     0.005 A 
ATOM     31  C   UNL d   1       4.471  -3.014 -21.174  0.00  0.00     0.099 A 
ENDBRANCH   7  23
TORSDOF 3
