REMARK  6 active torsions:
REMARK  status: ('A' for Active; 'I' for Inactive)
REMARK    1  A    between atoms: O_2  and  C_3 
REMARK    2  A    between atoms: C_6  and  C_7 
REMARK    3  A    between atoms: N_12  and  C_13 
REMARK    4  A    between atoms: C_13  and  C_14 
REMARK    5  A    between atoms: C_14  and  N_15 
REMARK    6  A    between atoms: N_18  and  C_19 
ROOT
ATOM      1  C   UNL d   1       7.092   1.339 -15.466  0.00  0.00     0.083 A 
ATOM      2  C   UNL d   1       6.521   2.160 -14.518  0.00  0.00     0.027 A 
ATOM      3  C   UNL d   1       7.522   3.054 -14.041  0.00  0.00     0.094 A 
ATOM      4  C   UNL d   1       7.582   4.151 -13.052  0.00  0.00     0.267 A 
ATOM      5  O   UNL d   1       6.559   4.499 -12.456  0.00  0.00    -0.267 OA
ATOM      6  N   UNL d   1       8.812   4.709 -12.836  0.00  0.00    -0.245 N 
ATOM      7  C   UNL d   1       9.951   4.282 -13.485  0.00  0.00     0.354 A 
ATOM      8  O   UNL d   1      11.056   4.759 -13.293  0.00  0.00    -0.244 OA
ATOM      9  N   UNL d   1       9.841   3.290 -14.386  0.00  0.00    -0.173 NA
ATOM     10  C   UNL d   1       8.667   2.687 -14.656  0.00  0.00     0.172 A 
ATOM     11  N   UNL d   1       8.441   1.661 -15.528  0.00  0.00    -0.227 NA
ENDROOT
BRANCH   6  12
ATOM     12  C   UNL d   1       8.932   5.780 -11.824  0.00  0.00     0.149 C 
BRANCH  12  13
ATOM     13  C   UNL d   1       9.070   5.205 -10.398  0.00  0.00     0.275 C 
BRANCH  13  14
ATOM     14  N   UNL d   1       9.126   6.269  -9.413  0.00  0.00     0.143 N 
ATOM     15  C   UNL d   1       8.786   5.737  -8.087  0.00  0.00     0.274 C 
ATOM     16  C   UNL d   1       8.831   6.840  -7.005  0.00  0.00     0.137 C 
ATOM     17  N   UNL d   1      10.131   7.503  -6.996  0.00  0.00    -0.344 N 
ATOM     18  C   UNL d   1      10.567   7.974  -8.303  0.00  0.00     0.137 C 
ATOM     19  C   UNL d   1      10.467   6.846  -9.339  0.00  0.00     0.274 C 
BRANCH  17  20
ATOM     20  C   UNL d   1      10.876   7.721  -5.820  0.00  0.00     0.067 A 
ATOM     21  C   UNL d   1      11.483   8.964  -5.460  0.00  0.00     0.073 A 
ATOM     22  C   UNL d   1      12.263   9.063  -4.302  0.00  0.00     0.013 A 
ATOM     23 CL   UNL d   1      11.300  10.389  -6.392  0.00  0.00    -0.081 Cl
ATOM     24  C   UNL d   1      12.449   7.975  -3.435  0.00  0.00     0.001 A 
ATOM     25  C   UNL d   1      11.845   6.756  -3.754  0.00  0.00     0.002 A 
ATOM     26  C   UNL d   1      11.091   6.630  -4.929  0.00  0.00     0.018 A 
ENDBRANCH  17  20
ENDBRANCH  13  14
ENDBRANCH  12  13
ENDBRANCH   6  12
BRANCH   1  27
ATOM     27  C   UNL d   1       6.532   0.287 -16.310  0.00  0.00     0.018 A 
ATOM     28  C   UNL d   1       5.211  -0.163 -16.096  0.00  0.00     0.004 A 
ATOM     29  C   UNL d   1       4.649  -1.169 -16.905  0.00  0.00     0.024 A 
ATOM     30  C   UNL d   1       5.408  -1.752 -17.948  0.00  0.00     0.094 A 
ATOM     31  C   UNL d   1       6.728  -1.312 -18.151  0.00  0.00     0.024 A 
ATOM     32  C   UNL d   1       7.284  -0.297 -17.354  0.00  0.00     0.004 A 
BRANCH  30  33
ATOM     33  O   UNL d   1       4.948  -2.743 -18.786  0.00  0.00    -0.328 OA
ATOM     34  C   UNL d   1       3.544  -2.931 -18.873  0.00  0.00     0.181 C 
ENDBRANCH  30  33
ENDBRANCH   1  27
TORSDOF 6
