REMARK  11 active torsions:
REMARK  status: ('A' for Active; 'I' for Inactive)
REMARK    1  A    between atoms: C_6  and  C_7 
REMARK    2  A    between atoms: C_7  and  C_8 
REMARK    3  A    between atoms: C_8  and  O_9 
REMARK    4  A    between atoms: O_9  and  C_10 
REMARK       I    between atoms: C_10  and  N_12 
REMARK    5  A    between atoms: N_12  and  C_13 
REMARK    6  A    between atoms: N_16  and  C_17 
REMARK    7  A    between atoms: C_17  and  C_18 
REMARK    8  A    between atoms: C_18  and  C_19 
REMARK    9  A    between atoms: C_19  and  C_20 
REMARK   10  A    between atoms: C_20  and  C_21 
REMARK   11  A    between atoms: C_20  and  C_28 
ROOT
ATOM      1  N   UNL d   1      12.915   8.238  -2.316  0.00  0.00    -0.191 NA
ATOM      2  C   UNL d   1      12.322   8.233  -3.297  0.00  0.00     0.101 C 
ATOM      3  C   UNL d   1      11.574   8.248  -4.520  0.00  0.00     0.068 A 
ATOM      4  C   UNL d   1      11.388   9.479  -5.173  0.00  0.00     0.010 A 
ATOM      5  C   UNL d   1      10.611   9.538  -6.329  0.00  0.00    -0.004 A 
ATOM      6  C   UNL d   1       9.961   8.378  -6.789  0.00  0.00    -0.020 A 
ATOM      7  C   UNL d   1      10.137   7.142  -6.127  0.00  0.00    -0.004 A 
ATOM      8  C   UNL d   1      10.984   7.066  -5.012  0.00  0.00     0.010 A 
ENDROOT
BRANCH   6   9
ATOM      9  C   UNL d   1       9.049   8.454  -7.965  0.00  0.00     0.059 C 
BRANCH   9  10
ATOM     10  C   UNL d   1       9.402   7.403  -9.010  0.00  0.00     0.158 C 
BRANCH  10  11
ATOM     11  O   UNL d   1       9.821   8.084 -10.194  0.00  0.00    -0.283 OA
BRANCH  11  12
ATOM     12  C   UNL d   1       9.462   7.614 -11.411  0.00  0.00     0.384 C 
ATOM     13  O   UNL d   1       9.388   8.354 -12.372  0.00  0.00    -0.236 OA
ATOM     14  N   UNL d   1       9.267   6.232 -11.421  0.00  0.00    -0.214 NA
BRANCH  14  15
ATOM     15  C   UNL d   1       8.878   5.455 -12.576  0.00  0.00     0.113 C 
ATOM     16  C   UNL d   1       9.413   4.048 -12.339  0.00  0.00     0.060 C 
ATOM     17  C   UNL d   1       8.967   3.147 -13.466  0.00  0.00     0.252 C 
ATOM     18  N   UNL d   1       7.514   3.159 -13.645  0.00  0.00     0.137 N 
ATOM     19  C   UNL d   1       6.996   4.491 -13.837  0.00  0.00     0.252 C 
ATOM     20  C   UNL d   1       7.357   5.422 -12.696  0.00  0.00     0.060 C 
BRANCH  18  21
ATOM     21  C   UNL d   1       7.051   2.222 -14.670  0.00  0.00     0.250 C 
BRANCH  21  22
ATOM     22  C   UNL d   1       7.964   2.194 -15.915  0.00  0.00     0.036 C 
BRANCH  22  23
ATOM     23  C   UNL d   1       7.303   1.601 -17.129  0.00  0.00     0.011 C 
BRANCH  23  24
ATOM     24  C   UNL d   1       8.151   1.813 -18.412  0.00  0.00     0.045 C 
BRANCH  24  25
ATOM     25  C   UNL d   1       7.364   1.543 -19.689  0.00  0.00    -0.018 A 
ATOM     26  C   UNL d   1       6.199   0.740 -19.669  0.00  0.00    -0.002 A 
ATOM     27  C   UNL d   1       5.452   0.544 -20.839  0.00  0.00     0.029 A 
ATOM     28  C   UNL d   1       5.866   1.139 -22.042  0.00  0.00     0.140 A 
ATOM     29  C   UNL d   1       7.025   1.936 -22.074  0.00  0.00     0.029 A 
ATOM     30  F   UNL d   1       5.146   0.948 -23.169  0.00  0.00    -0.204 F 
ATOM     31  C   UNL d   1       7.775   2.142 -20.899  0.00  0.00    -0.002 A 
ENDBRANCH  24  25
BRANCH  24  32
ATOM     32  C   UNL d   1       9.465   1.043 -18.407  0.00  0.00    -0.018 A 
ATOM     33  C   UNL d   1      10.670   1.676 -18.799  0.00  0.00    -0.002 A 
ATOM     34  C   UNL d   1      11.882   0.952 -18.819  0.00  0.00     0.029 A 
ATOM     35  C   UNL d   1      11.889  -0.408 -18.450  0.00  0.00     0.140 A 
ATOM     36  C   UNL d   1      10.697  -1.027 -18.039  0.00  0.00     0.029 A 
ATOM     37  F   UNL d   1      13.043  -1.115 -18.487  0.00  0.00    -0.204 F 
ATOM     38  C   UNL d   1       9.491  -0.316 -18.032  0.00  0.00    -0.002 A 
ENDBRANCH  24  32
ENDBRANCH  23  24
ENDBRANCH  22  23
ENDBRANCH  21  22
ENDBRANCH  18  21
ENDBRANCH  14  15
ENDBRANCH  11  12
ENDBRANCH  10  11
ENDBRANCH   9  10
ENDBRANCH   6   9
TORSDOF 11
