REMARK  11 active torsions:
REMARK  status: ('A' for Active; 'I' for Inactive)
REMARK    1  A    between atoms: C_2  and  N_3 
REMARK    2  A    between atoms: N_3  and  C_4 
REMARK    3  A    between atoms: N_3  and  C_20 
REMARK    4  A    between atoms: C_4  and  C_5 
REMARK    5  A    between atoms: C_5  and  C_6 
REMARK    6  A    between atoms: C_6  and  S_7 
REMARK    7  A    between atoms: S_7  and  C_8 
REMARK    8  A    between atoms: C_11  and  C_12 
REMARK    9  A    between atoms: C_20  and  C_21 
REMARK   10  A    between atoms: C_23  and  C_24 
REMARK   11  A    between atoms: C_30  and  O_31 
ROOT
ATOM      1  N   UNL d   1      10.462   3.478 -13.933  0.00  0.00     0.137 N 
ENDROOT
BRANCH   1   2
ATOM      2  C   UNL d   1       9.309   2.707 -13.498  0.00  0.00     0.250 C 
ATOM      3  C   UNL d   1       9.193   1.362 -14.223  0.00  0.00     0.037 C 
ENDBRANCH   1   2
BRANCH   1   4
ATOM      4  C   UNL d   1      10.281   3.923 -15.332  0.00  0.00     0.251 C 
BRANCH   4   5
ATOM      5  C   UNL d   1      11.549   4.646 -15.854  0.00  0.00     0.047 C 
BRANCH   5   6
ATOM      6  C   UNL d   1      11.160   5.565 -17.021  0.00  0.00     0.067 C 
BRANCH   6   7
ATOM      7  S   UNL d   1      12.593   6.489 -17.634  0.00  0.00    -0.075 SA
BRANCH   7   8
ATOM      8  C   UNL d   1      12.999   5.387 -18.936  0.00  0.00     0.193 A 
ATOM      9  N   UNL d   1      13.871   4.371 -18.801  0.00  0.00    -0.289 N 
ATOM     10  C   UNL d   1      13.831   3.804 -20.027  0.00  0.00     0.167 A 
ATOM     11  C   UNL d   1      14.654   3.986 -17.641  0.00  0.00     0.134 C 
ATOM     12  N   UNL d   1      13.003   4.441 -20.865  0.00  0.00    -0.128 NA
ATOM     13  N   UNL d   1      12.451   5.474 -20.147  0.00  0.00    -0.122 NA
BRANCH  10  14
ATOM     14  C   UNL d   1      14.593   2.627 -20.440  0.00  0.00     0.036 A 
ATOM     15  C   UNL d   1      14.611   1.461 -19.644  0.00  0.00     0.003 A 
ATOM     16  C   UNL d   1      15.354   0.334 -20.050  0.00  0.00     0.000 A 
ATOM     17  C   UNL d   1      16.077   0.366 -21.256  0.00  0.00     0.000 A 
ATOM     18  C   UNL d   1      16.058   1.524 -22.058  0.00  0.00     0.000 A 
ATOM     19  C   UNL d   1      15.317   2.650 -21.651  0.00  0.00     0.003 A 
ENDBRANCH  10  14
ENDBRANCH   7   8
ENDBRANCH   6   7
ENDBRANCH   5   6
ENDBRANCH   4   5
ENDBRANCH   1   4
BRANCH   1  20
ATOM     20  C   UNL d   1      10.650   4.552 -12.926  0.00  0.00     0.251 C 
BRANCH  20  21
ATOM     21  C   UNL d   1       9.978   5.887 -13.334  0.00  0.00     0.038 A 
ATOM     22  C   UNL d   1       9.426   6.859 -12.344  0.00  0.00     0.026 A 
ATOM     23  C   UNL d   1       8.474   6.095 -13.227  0.00  0.00     0.007 A 
BRANCH  22  24
ATOM     24  C   UNL d   1       9.605   6.612 -10.881  0.00  0.00     0.001 A 
ATOM     25  C   UNL d   1      10.348   7.489 -10.043  0.00  0.00     0.090 A 
ATOM     26  C   UNL d   1      10.591   7.143  -8.676  0.00  0.00     0.025 A 
ATOM     27  C   UNL d   1      10.045   5.960  -8.165  0.00  0.00     0.013 A 
ATOM     28  C   UNL d   1       9.282   5.133  -9.009  0.00  0.00     0.058 A 
ATOM     29  C   UNL d   1       9.071   5.439 -10.327  0.00  0.00     0.009 A 
ATOM     30 CL   UNL d   1       8.562   3.676  -8.459  0.00  0.00    -0.082 Cl
BRANCH  25  31
ATOM     31  O   UNL d   1      10.885   8.619 -10.634  0.00  0.00    -0.328 OA
ATOM     32  C   UNL d   1      11.486   9.573  -9.799  0.00  0.00     0.181 C 
ENDBRANCH  25  31
ENDBRANCH  22  24
ENDBRANCH  20  21
ENDBRANCH   1  20
TORSDOF 11
