REMARK  7 active torsions:
REMARK  status: ('A' for Active; 'I' for Inactive)
REMARK       I    between atoms: C_2  and  N_3 
REMARK    1  A    between atoms: C_2  and  C_22 
REMARK    2  A    between atoms: N_3  and  C_4 
REMARK    3  A    between atoms: C_4  and  C_5 
REMARK    4  A    between atoms: C_5  and  C_6 
REMARK    5  A    between atoms: C_6  and  C_7 
REMARK    6  A    between atoms: C_7  and  N_8 
REMARK    7  A    between atoms: N_11  and  C_12 
ROOT
ATOM      1  O   UNL d   1       9.478  -0.109 -18.022  0.00  0.00    -0.266 OA
ATOM      2  C   UNL d   1       8.451   0.004 -17.362  0.00  0.00     0.275 C 
ATOM      3  N   UNL d   1       8.504   0.200 -16.044  0.00  0.00    -0.234 NA
ENDROOT
BRANCH   3   4
ATOM      4  C   UNL d   1       7.474   0.602 -15.071  0.00  0.00     0.129 C 
BRANCH   4   5
ATOM      5  C   UNL d   1       7.268   2.125 -15.047  0.00  0.00     0.029 C 
BRANCH   5   6
ATOM      6  C   UNL d   1       8.504   2.948 -14.655  0.00  0.00     0.037 C 
BRANCH   6   7
ATOM      7  C   UNL d   1       9.695   2.704 -15.604  0.00  0.00     0.251 C 
BRANCH   7   8
ATOM      8  N   UNL d   1      10.716   3.696 -15.532  0.00  0.00     0.141 N 
ATOM      9  C   UNL d   1      10.281   4.850 -16.332  0.00  0.00     0.274 C 
ATOM     10  C   UNL d   1      11.343   5.939 -16.246  0.00  0.00     0.137 C 
ATOM     11  N   UNL d   1      12.631   5.416 -16.670  0.00  0.00    -0.344 N 
ATOM     12  C   UNL d   1      13.066   4.178 -16.049  0.00  0.00     0.137 C 
ATOM     13  C   UNL d   1      11.943   3.137 -16.129  0.00  0.00     0.274 C 
BRANCH  11  14
ATOM     14  C   UNL d   1      13.388   6.082 -17.650  0.00  0.00     0.068 A 
ATOM     15  C   UNL d   1      13.650   7.474 -17.553  0.00  0.00     0.084 A 
ATOM     16  C   UNL d   1      14.403   8.109 -18.554  0.00  0.00     0.070 A 
ATOM     17 CL   UNL d   1      13.082   8.405 -16.202  0.00  0.00    -0.080 Cl
ATOM     18  C   UNL d   1      14.887   7.379 -19.656  0.00  0.00     0.012 A 
ATOM     19 CL   UNL d   1      14.775   9.795 -18.453  0.00  0.00    -0.081 Cl
ATOM     20  C   UNL d   1      14.621   6.001 -19.758  0.00  0.00     0.002 A 
ATOM     21  C   UNL d   1      13.881   5.354 -18.758  0.00  0.00     0.018 A 
ENDBRANCH  11  14
ENDBRANCH   7   8
ENDBRANCH   6   7
ENDBRANCH   5   6
ENDBRANCH   4   5
ENDBRANCH   3   4
BRANCH   2  22
ATOM     22  C   UNL d   1       7.061  -0.022 -17.978  0.00  0.00     0.053 C 
ATOM     23  C   UNL d   1       6.658   0.540 -19.206  0.00  0.00    -0.017 C 
ATOM     24  C   UNL d   1       5.302   0.677 -19.644  0.00  0.00    -0.004 C 
ATOM     25  C   UNL d   1       7.785   0.605 -20.260  0.00  0.00     0.031 C 
ATOM     26  C   UNL d   1       4.314  -0.019 -18.886  0.00  0.00    -0.005 C 
ATOM     27  C   UNL d   1       4.766  -0.775 -17.815  0.00  0.00    -0.022 C 
ATOM     28  C   UNL d   1       6.091  -0.757 -17.295  0.00  0.00     0.000 C 
ATOM     29  C   UNL d   1       4.082  -2.018 -17.248  0.00  0.00     0.031 C 
ATOM     30  C   UNL d   1       4.145  -3.240 -18.230  0.00  0.00     0.031 C 
ATOM     31  C   UNL d   1       5.327  -3.175 -19.203  0.00  0.00    -0.022 C 
ATOM     32  C   UNL d   1       6.606  -3.431 -18.668  0.00  0.00    -0.005 C 
ATOM     33  C   UNL d   1       5.061  -2.634 -20.479  0.00  0.00    -0.005 C 
ATOM     34  C   UNL d   1       7.684  -2.786 -19.314  0.00  0.00    -0.005 C 
ATOM     35  C   UNL d   1       7.360  -1.968 -20.420  0.00  0.00    -0.022 C 
ATOM     36  C   UNL d   1       8.311  -0.805 -20.739  0.00  0.00     0.031 C 
ATOM     37  C   UNL d   1       6.142  -1.994 -21.125  0.00  0.00    -0.005 C 
ENDBRANCH   2  22
TORSDOF 7
