REMARK  7 active torsions:
REMARK  status: ('A' for Active; 'I' for Inactive)
REMARK    1  A    between atoms: C_6  and  C_7 
REMARK    2  A    between atoms: C_10  and  S_11 
REMARK    3  A    between atoms: S_11  and  C_12 
REMARK    4  A    between atoms: C_12  and  C_13 
REMARK    5  A    between atoms: C_13  and  C_14 
REMARK    6  A    between atoms: C_14  and  N_15 
REMARK    7  A    between atoms: C_23  and  C_24 
ROOT
ATOM      1  N   UNL d   1       9.617   6.154  -9.992  0.00  0.00     0.138 N 
ATOM      2  C   UNL d   1      10.402   7.384 -10.169  0.00  0.00     0.257 C 
ATOM      3  C   UNL d   1       9.941   8.610  -9.365  0.00  0.00     0.082 C 
ATOM      4  C   UNL d   1      10.388   8.528  -7.953  0.00  0.00     0.075 A 
ATOM      5  N   UNL d   1      10.713   9.658  -7.241  0.00  0.00    -0.231 NA
ATOM      6  C   UNL d   1      11.064   9.245  -6.033  0.00  0.00     0.147 A 
ATOM      7  C   UNL d   1      11.437   9.985  -4.882  0.00  0.00     0.037 A 
ATOM      8  C   UNL d   1      11.845   9.342  -3.754  0.00  0.00     0.009 A 
ATOM      9  C   UNL d   1      11.853   7.926  -3.733  0.00  0.00     0.089 A 
ATOM     10  C   UNL d   1      11.431   7.194  -4.821  0.00  0.00     0.085 A 
ATOM     11  N   UNL d   1      11.047   7.841  -5.953  0.00  0.00    -0.293 N 
ATOM     12  C   UNL d   1      10.578   7.419  -7.192  0.00  0.00     0.058 A 
ATOM     13  C   UNL d   1      10.352   6.027  -7.565  0.00  0.00     0.081 C 
ATOM     14  C   UNL d   1       9.260   5.791  -8.617  0.00  0.00     0.257 C 
ENDROOT
BRANCH   1  15
ATOM     15  C   UNL d   1       8.402   6.175 -10.810  0.00  0.00     0.251 C 
BRANCH  15  16
ATOM     16  C   UNL d   1       8.206   4.834 -11.510  0.00  0.00     0.047 C 
BRANCH  16  17
ATOM     17  C   UNL d   1       7.097   4.946 -12.572  0.00  0.00     0.067 C 
BRANCH  17  18
ATOM     18  S   UNL d   1       6.976   3.479 -13.645  0.00  0.00    -0.075 SA
BRANCH  18  19
ATOM     19  C   UNL d   1       8.521   3.514 -14.492  0.00  0.00     0.193 A 
ATOM     20  N   UNL d   1       9.400   4.512 -14.334  0.00  0.00    -0.122 NA
ATOM     21  N   UNL d   1      10.495   4.119 -15.150  0.00  0.00    -0.126 NA
ATOM     22  C   UNL d   1      10.132   2.963 -15.722  0.00  0.00     0.191 A 
ATOM     23  N   UNL d   1       8.895   2.554 -15.372  0.00  0.00    -0.287 N 
ATOM     24  C   UNL d   1       8.137   1.415 -15.856  0.00  0.00     0.134 C 
BRANCH  22  25
ATOM     25  C   UNL d   1      11.029   2.313 -16.668  0.00  0.00     0.151 A 
ATOM     26  C   UNL d   1      12.221   2.709 -17.230  0.00  0.00     0.087 A 
ATOM     27  C   UNL d   1      13.027   3.963 -17.025  0.00  0.00     0.054 C 
ATOM     28  N   UNL d   1      12.647   1.717 -18.113  0.00  0.00    -0.221 NA
ATOM     29  C   UNL d   1      11.707   0.780 -18.024  0.00  0.00     0.225 A 
ATOM     30  O   UNL d   1      10.691   1.083 -17.173  0.00  0.00    -0.282 OA
ENDBRANCH  22  25
ENDBRANCH  18  19
ENDBRANCH  17  18
ENDBRANCH  16  17
ENDBRANCH  15  16
ENDBRANCH   1  15
BRANCH   9  31
ATOM     31  C   UNL d   1      12.201   7.216  -2.461  0.00  0.00     0.420 C 
ATOM     32  F   UNL d   1      12.726   8.058  -1.572  0.00  0.00    -0.166 F 
ATOM     33  F   UNL d   1      11.063   6.713  -1.983  0.00  0.00    -0.166 F 
ATOM     34  F   UNL d   1      13.065   6.219  -2.706  0.00  0.00    -0.166 F 
ENDBRANCH   9  31
TORSDOF 7
