REMARK  6 active torsions:
REMARK  status: ('A' for Active; 'I' for Inactive)
REMARK    1  A    between atoms: C_4  and  N_5 
REMARK    2  A    between atoms: N_5  and  C_6 
REMARK    3  A    between atoms: C_9  and  C_10 
REMARK    4  A    between atoms: C_10  and  C_11 
REMARK    5  A    between atoms: C_11  and  N_12 
REMARK    6  A    between atoms: N_15  and  C_16 
ROOT
ATOM      1  C   UNL d   1       8.904   6.414 -10.846  0.00  0.00     0.035 C 
ENDROOT
BRANCH   1   2
ATOM      2  C   UNL d   1       9.977   6.881  -9.842  0.00  0.00     0.002 C 
ATOM      3  C   UNL d   1      10.055   8.409  -9.771  0.00  0.00     0.002 C 
ATOM      4  C   UNL d   1      11.090   8.880  -8.741  0.00  0.00     0.025 C 
ATOM      5  C   UNL d   1      10.815   8.289  -7.345  0.00  0.00     0.122 C 
ATOM      6  C   UNL d   1      10.716   6.742  -7.434  0.00  0.00     0.025 C 
ATOM      7  C   UNL d   1       9.702   6.281  -8.463  0.00  0.00     0.002 C 
BRANCH   5   8
ATOM      8  N   UNL d   1      11.836   8.764  -6.406  0.00  0.00    -0.088 NA
BRANCH   8   9
ATOM      9  C   UNL d   1      11.826   8.491  -5.048  0.00  0.00     0.746 A 
ATOM     10  N   UNL d   1      12.270   9.454  -4.242  0.00  0.00    -0.058 NA
ATOM     11  C   UNL d   1      12.321   9.183  -2.916  0.00  0.00     0.120 A 
ATOM     12  C   UNL d   1      11.994   7.936  -2.405  0.00  0.00     0.043 A 
ATOM     13  C   UNL d   1      11.567   6.988  -3.347  0.00  0.00     0.120 A 
ATOM     14  N   UNL d   1      11.447   7.279  -4.660  0.00  0.00    -0.058 NA
ENDBRANCH   8   9
ENDBRANCH   5   8
ENDBRANCH   1   2
BRANCH   1  15
ATOM     15  C   UNL d   1       9.326   5.134 -11.567  0.00  0.00     0.250 C 
BRANCH  15  16
ATOM     16  N   UNL d   1       9.454   5.377 -13.006  0.00  0.00     0.141 N 
ATOM     17  C   UNL d   1      10.341   4.418 -13.678  0.00  0.00     0.274 C 
ATOM     18  C   UNL d   1       9.761   3.007 -13.536  0.00  0.00     0.138 C 
ATOM     19  N   UNL d   1       8.398   2.966 -14.080  0.00  0.00    -0.328 N 
ATOM     20  C   UNL d   1       7.454   3.984 -13.601  0.00  0.00     0.138 C 
ATOM     21  C   UNL d   1       8.141   5.370 -13.663  0.00  0.00     0.274 C 
BRANCH  19  22
ATOM     22  C   UNL d   1       8.009   1.974 -14.973  0.00  0.00     0.160 A 
ATOM     23  N   UNL d   1       8.966   1.412 -15.765  0.00  0.00    -0.224 NA
ATOM     24  C   UNL d   1       8.569   0.481 -16.650  0.00  0.00     0.121 A 
ATOM     25  C   UNL d   1       7.218   0.088 -16.767  0.00  0.00     0.120 A 
ATOM     26  N   UNL d   1       6.259   0.627 -15.980  0.00  0.00    -0.238 NA
ATOM     27  C   UNL d   1       6.662   1.552 -15.089  0.00  0.00     0.136 A 
ENDBRANCH  19  22
ENDBRANCH  15  16
ENDBRANCH   1  15
TORSDOF 6
