REMARK  9 active torsions:
REMARK  status: ('A' for Active; 'I' for Inactive)
REMARK    1  A    between atoms: C_2  and  C_3 
REMARK    2  A    between atoms: C_3  and  N_4 
REMARK    3  A    between atoms: N_4  and  C_5 
REMARK    4  A    between atoms: N_4  and  C_19 
REMARK    5  A    between atoms: C_5  and  C_6 
REMARK    6  A    between atoms: C_6  and  C_7 
REMARK    7  A    between atoms: C_7  and  C_8 
REMARK    8  A    between atoms: C_8  and  O_9 
REMARK    9  A    between atoms: O_9  and  C_10 
ROOT
ATOM      1  N   UNL d   1       7.760   4.539 -13.636  0.00  0.00     0.135 N 
ENDROOT
BRANCH   1   2
ATOM      2  C   UNL d   1       6.929   3.560 -12.948  0.00  0.00     0.250 C 
BRANCH   2   3
ATOM      3  C   UNL d   1       5.431   3.761 -13.069  0.00  0.00     0.035 C 
ATOM      4  C   UNL d   1       4.724   2.451 -12.694  0.00  0.00     0.002 C 
ENDBRANCH   2   3
ENDBRANCH   1   2
BRANCH   1   5
ATOM      5  C   UNL d   1       7.910   5.745 -12.811  0.00  0.00     0.250 C 
BRANCH   5   6
ATOM      6  C   UNL d   1       8.776   5.519 -11.566  0.00  0.00     0.038 C 
BRANCH   6   7
ATOM      7  C   UNL d   1       9.347   6.819 -11.003  0.00  0.00     0.035 C 
BRANCH   7   8
ATOM      8  C   UNL d   1       9.750   6.617  -9.542  0.00  0.00     0.149 C 
BRANCH   8   9
ATOM      9  O   UNL d   1       9.982   7.843  -8.897  0.00  0.00    -0.329 OA
BRANCH   9  10
ATOM     10  C   UNL d   1      10.459   7.813  -7.613  0.00  0.00     0.113 A 
ATOM     11  C   UNL d   1      10.485   8.965  -6.890  0.00  0.00     0.124 A 
ATOM     12  N   UNL d   1      10.960   8.970  -5.624  0.00  0.00    -0.226 N 
ATOM     13  C   UNL d   1      11.466   7.812  -5.005  0.00  0.00     0.085 A 
ATOM     14  N   UNL d   1      11.021  10.043  -4.759  0.00  0.00    -0.164 NA
ATOM     15  C   UNL d   1      11.456   6.605  -5.731  0.00  0.00     0.021 A 
ATOM     16  C   UNL d   1      11.874   8.162  -3.758  0.00  0.00     0.042 A 
ATOM     17  C   UNL d   1      10.954   6.592  -7.016  0.00  0.00     0.027 A 
ATOM     18  C   UNL d   1      11.587   9.543  -3.673  0.00  0.00     0.122 A 
ENDBRANCH   9  10
ENDBRANCH   8   9
ENDBRANCH   7   8
ENDBRANCH   6   7
ENDBRANCH   5   6
ENDBRANCH   1   5
BRANCH   1  19
ATOM     19  C   UNL d   1       9.030   3.990 -14.183  0.00  0.00     0.224 C 
ATOM     20  C   UNL d   1       9.786   5.091 -14.943  0.00  0.00     0.059 C 
ATOM     21  C   UNL d   1      10.995   4.641 -15.743  0.00  0.00    -0.022 A 
ATOM     22  C   UNL d   1      11.170   3.286 -16.061  0.00  0.00    -0.001 A 
ATOM     23  C   UNL d   1      11.912   5.617 -16.192  0.00  0.00    -0.004 A 
ATOM     24  C   UNL d   1      10.194   2.234 -15.567  0.00  0.00     0.030 C 
ATOM     25  C   UNL d   1      12.269   2.902 -16.850  0.00  0.00     0.127 A 
ATOM     26  C   UNL d   1       8.843   2.793 -15.148  0.00  0.00     0.038 C 
ATOM     27  O   UNL d   1      12.413   1.593 -17.221  0.00  0.00    -0.191 OA
ATOM     28  C   UNL d   1      13.214   3.863 -17.270  0.00  0.00     0.027 A 
ATOM     29  C   UNL d   1      13.033   5.222 -16.947  0.00  0.00     0.002 A 
ENDBRANCH   1  19
TORSDOF 9
