REMARK  6 active torsions:
REMARK  status: ('A' for Active; 'I' for Inactive)
REMARK    1  A    between atoms: C_4  and  C_5 
REMARK       I    between atoms: C_5  and  N_7 
REMARK    2  A    between atoms: N_7  and  C_8 
REMARK    3  A    between atoms: C_8  and  C_9 
REMARK    4  A    between atoms: C_9  and  N_10 
REMARK    5  A    between atoms: N_13  and  C_14 
REMARK    6  A    between atoms: N_26  and  C_27 
ROOT
ATOM      1  C   UNL d   1       9.752   4.874 -13.164  0.00  0.00     0.294 C 
ATOM      2  O   UNL d   1      10.597   5.487 -13.814  0.00  0.00    -0.264 OA
ATOM      3  N   UNL d   1       9.343   5.226 -11.931  0.00  0.00    -0.231 NA
ENDROOT
BRANCH   3   4
ATOM      4  C   UNL d   1       9.790   6.386 -11.158  0.00  0.00     0.164 C 
BRANCH   4   5
ATOM      5  C   UNL d   1       9.244   6.332  -9.719  0.00  0.00     0.277 C 
BRANCH   5   6
ATOM      6  N   UNL d   1       9.747   7.451  -8.919  0.00  0.00     0.143 N 
ATOM      7  C   UNL d   1       8.928   7.585  -7.721  0.00  0.00     0.274 C 
ATOM      8  C   UNL d   1       9.391   8.803  -6.915  0.00  0.00     0.137 C 
ATOM      9  N   UNL d   1      10.793   8.706  -6.552  0.00  0.00    -0.344 N 
ATOM     10  C   UNL d   1      11.677   8.396  -7.659  0.00  0.00     0.137 C 
ATOM     11  C   UNL d   1      11.134   7.207  -8.486  0.00  0.00     0.274 C 
BRANCH   9  12
ATOM     12  C   UNL d   1      11.241   8.762  -5.218  0.00  0.00     0.068 A 
ATOM     13  C   UNL d   1      11.759   7.632  -4.582  0.00  0.00     0.084 A 
ATOM     14  C   UNL d   1      12.188   7.671  -3.248  0.00  0.00     0.070 A 
ATOM     15 CL   UNL d   1      11.837   6.164  -5.446  0.00  0.00    -0.080 Cl
ATOM     16  C   UNL d   1      12.233   8.864  -2.538  0.00  0.00     0.012 A 
ATOM     17 CL   UNL d   1      12.629   6.246  -2.425  0.00  0.00    -0.081 Cl
ATOM     18  C   UNL d   1      11.727   9.993  -3.191  0.00  0.00     0.002 A 
ATOM     19  C   UNL d   1      11.199   9.957  -4.495  0.00  0.00     0.018 A 
ENDBRANCH   9  12
ENDBRANCH   5   6
ENDBRANCH   4   5
ENDBRANCH   3   4
BRANCH   1  20
ATOM     20  C   UNL d   1       9.135   3.642 -13.709  0.00  0.00     0.152 A 
ATOM     21  N   UNL d   1       9.878   2.685 -14.395  0.00  0.00    -0.226 NA
ATOM     22  C   UNL d   1       9.022   1.730 -14.734  0.00  0.00     0.125 A 
ATOM     23  C   UNL d   1       9.465   0.453 -15.411  0.00  0.00     0.072 C 
ATOM     24  N   UNL d   1       7.755   2.047 -14.352  0.00  0.00    -0.297 N 
ATOM     25  C   UNL d   1       7.803   3.276 -13.683  0.00  0.00     0.065 A 
ATOM     26  C   UNL d   1       6.631   4.000 -13.080  0.00  0.00     0.052 C 
BRANCH  24  27
ATOM     27  C   UNL d   1       6.660   1.171 -14.584  0.00  0.00     0.065 A 
ATOM     28  C   UNL d   1       6.430   0.649 -15.881  0.00  0.00     0.018 A 
ATOM     29  C   UNL d   1       5.374  -0.265 -16.086  0.00  0.00     0.002 A 
ATOM     30  C   UNL d   1       4.478  -0.591 -15.041  0.00  0.00     0.000 A 
ATOM     31  C   UNL d   1       4.662  -0.007 -13.772  0.00  0.00     0.002 A 
ATOM     32  C   UNL d   1       5.765   0.840 -13.531  0.00  0.00     0.018 A 
ENDBRANCH  24  27
ENDBRANCH   1  20
TORSDOF 6
