REMARK  4 active torsions:
REMARK  status: ('A' for Active; 'I' for Inactive)
REMARK    1  A    between atoms: C_5  and  N_6 
REMARK    2  A    between atoms: N_9  and  C_10 
REMARK    3  A    between atoms: C_10  and  C_11 
REMARK    4  A    between atoms: N_14  and  C_15 
ROOT
ATOM      1  N   UNL d   1      10.069   8.090  -6.766  0.00  0.00    -0.344 N 
ATOM      2  C   UNL d   1      10.076   9.163  -7.746  0.00  0.00     0.137 C 
ATOM      3  C   UNL d   1      10.569   8.630  -9.093  0.00  0.00     0.275 C 
ATOM      4  N   UNL d   1       9.735   7.495  -9.515  0.00  0.00     0.146 N 
ATOM      5  C   UNL d   1       9.854   6.408  -8.536  0.00  0.00     0.275 C 
ATOM      6  C   UNL d   1       9.340   6.889  -7.169  0.00  0.00     0.137 C 
ENDROOT
BRANCH   4   7
ATOM      7  C   UNL d   1      10.140   7.036 -10.837  0.00  0.00     0.280 C 
BRANCH   7   8
ATOM      8  C   UNL d   1       9.080   6.273 -11.595  0.00  0.00     0.051 A 
ATOM      9  C   UNL d   1       8.960   4.942 -11.887  0.00  0.00     0.100 A 
ATOM     10  N   UNL d   1       7.810   4.790 -12.647  0.00  0.00    -0.229 N 
ATOM     11  N   UNL d   1       7.179   5.960 -12.828  0.00  0.00    -0.164 NA
ATOM     12  C   UNL d   1       7.939   6.844 -12.226  0.00  0.00     0.120 A 
BRANCH  10  13
ATOM     13  C   UNL d   1       7.263   3.620 -13.184  0.00  0.00     0.083 A 
ATOM     14  C   UNL d   1       5.975   3.208 -12.781  0.00  0.00     0.019 A 
ATOM     15  C   UNL d   1       5.459   1.974 -13.234  0.00  0.00     0.002 A 
ATOM     16  C   UNL d   1       6.215   1.196 -14.139  0.00  0.00     0.000 A 
ATOM     17  C   UNL d   1       7.493   1.616 -14.548  0.00  0.00     0.002 A 
ATOM     18  C   UNL d   1       8.023   2.823 -14.057  0.00  0.00     0.019 A 
ENDBRANCH  10  13
ENDBRANCH   7   8
ENDBRANCH   4   7
BRANCH   1  19
ATOM     19  C   UNL d   1      10.786   8.200  -5.561  0.00  0.00     0.056 A 
ATOM     20  C   UNL d   1      11.003   9.476  -4.977  0.00  0.00     0.018 A 
ATOM     21  C   UNL d   1      11.653   9.581  -3.739  0.00  0.00     0.013 A 
ATOM     22  C   UNL d   1      12.090   8.428  -3.085  0.00  0.00     0.058 A 
ATOM     23 CL   UNL d   1      12.829   8.608  -1.572  0.00  0.00    -0.082 Cl
ATOM     24  C   UNL d   1      11.902   7.161  -3.645  0.00  0.00     0.013 A 
ATOM     25  C   UNL d   1      11.262   7.044  -4.889  0.00  0.00     0.018 A 
ENDBRANCH   1  19
TORSDOF 4
