REMARK  5 active torsions:
REMARK  status: ('A' for Active; 'I' for Inactive)
REMARK    1  A    between atoms: C_2  and  C_4 
REMARK    2  A    between atoms: C_4  and  S_5 
REMARK    3  A    between atoms: S_5  and  N_8 
REMARK    4  A    between atoms: C_12  and  C_13 
REMARK    5  A    between atoms: C_20  and  N_21 
ROOT
ATOM      1  N   UNL d   1       9.486  -0.209 -19.234  0.00  0.00    -0.218 N 
ATOM      2  C   UNL d   1       8.422  -1.067 -19.453  0.00  0.00     0.093 A 
ATOM      3  C   UNL d   1       7.541  -0.982 -18.409  0.00  0.00     0.023 A 
ATOM      4  C   UNL d   1       8.075  -0.003 -17.492  0.00  0.00     0.037 A 
ATOM      5  C   UNL d   1       7.693   0.558 -16.247  0.00  0.00     0.009 A 
ATOM      6  C   UNL d   1       8.566   1.493 -15.648  0.00  0.00     0.037 A 
ATOM      7  C   UNL d   1       9.769   1.878 -16.282  0.00  0.00     0.142 A 
ATOM      8  N   UNL d   1      10.153   1.371 -17.473  0.00  0.00    -0.211 NA
ATOM      9  C   UNL d   1       9.309   0.456 -18.031  0.00  0.00     0.158 A 
ENDROOT
BRANCH   1  10
ATOM     10  S   UNL d   1      10.783  -0.002 -20.320  0.00  0.00     0.252 S 
ATOM     11  O   UNL d   1      10.854   1.444 -20.571  0.00  0.00    -0.204 OA
ATOM     12  O   UNL d   1      10.527  -0.952 -21.414  0.00  0.00    -0.204 OA
BRANCH  10  13
ATOM     13  C   UNL d   1      12.217  -0.567 -19.279  0.00  0.00     0.145 C 
BRANCH  13  14
ATOM     14  C   UNL d   1      13.577  -0.557 -20.017  0.00  0.00     0.018 C 
ATOM     15  C   UNL d   1      13.940   0.842 -20.544  0.00  0.00     0.001 C 
ATOM     16  C   UNL d   1      13.658  -1.612 -21.134  0.00  0.00     0.001 C 
ENDBRANCH  13  14
ENDBRANCH  10  13
ENDBRANCH   1  10
BRANCH   5  17
ATOM     17  C   UNL d   1       6.440   0.186 -15.561  0.00  0.00     0.040 A 
ATOM     18  C   UNL d   1       5.335  -0.412 -16.087  0.00  0.00     0.097 A 
ATOM     19  N   UNL d   1       4.431  -0.528 -15.054  0.00  0.00    -0.248 N 
ATOM     20  N   UNL d   1       4.905  -0.020 -13.891  0.00  0.00    -0.168 NA
ATOM     21  C   UNL d   1       3.108  -1.101 -15.099  0.00  0.00     0.154 C 
ATOM     22  C   UNL d   1       6.119   0.410 -14.189  0.00  0.00     0.122 A 
ENDBRANCH   5  17
BRANCH   7  23
ATOM     23  N   UNL d   1      10.640   2.812 -15.686  0.00  0.00    -0.330 N 
ATOM     24  C   UNL d   1      12.050   2.927 -16.057  0.00  0.00     0.138 C 
ATOM     25  C   UNL d   1      12.399   4.382 -16.407  0.00  0.00     0.274 C 
ATOM     26  N   UNL d   1      12.052   5.274 -15.292  0.00  0.00     0.143 N 
ATOM     27  C   UNL d   1      10.607   5.185 -15.050  0.00  0.00     0.274 C 
ATOM     28  C   UNL d   1      12.391   6.645 -15.648  0.00  0.00     0.286 C 
ATOM     29  C   UNL d   1      10.207   3.756 -14.658  0.00  0.00     0.138 C 
ENDBRANCH   7  23
TORSDOF 5
