REMARK  6 active torsions:
REMARK  status: ('A' for Active; 'I' for Inactive)
REMARK    1  A    between atoms: C_2  and  C_4 
REMARK       I    between atoms: C_4  and  N_6 
REMARK    2  A    between atoms: N_6  and  C_7 
REMARK    3  A    between atoms: C_10  and  C_11 
REMARK    4  A    between atoms: C_11  and  C_12 
REMARK    5  A    between atoms: C_12  and  N_13 
REMARK    6  A    between atoms: C_16  and  C_17 
ROOT
ATOM      1  N   UNL d   1       8.742   5.244 -12.574  0.00  0.00     0.137 N 
ATOM      2  C   UNL d   1       7.627   4.301 -12.585  0.00  0.00     0.251 C 
ATOM      3  C   UNL d   1       7.670   3.461 -13.865  0.00  0.00     0.040 C 
ATOM      4  C   UNL d   1       9.008   2.721 -14.023  0.00  0.00     0.028 C 
ATOM      5  C   UNL d   1      10.183   3.680 -13.808  0.00  0.00     0.040 C 
ATOM      6  C   UNL d   1       9.996   4.476 -12.525  0.00  0.00     0.251 C 
ENDROOT
BRANCH   1   7
ATOM      7  C   UNL d   1       8.585   6.073 -11.381  0.00  0.00     0.250 C 
BRANCH   7   8
ATOM      8  C   UNL d   1       9.791   6.983 -11.084  0.00  0.00     0.035 C 
BRANCH   8   9
ATOM      9  C   UNL d   1       9.835   7.607  -9.677  0.00  0.00     0.002 C 
ATOM     10  C   UNL d   1       9.578   6.536  -8.592  0.00  0.00     0.002 C 
ATOM     11  C   UNL d   1       9.672   7.118  -7.184  0.00  0.00     0.024 C 
ATOM     12  C   UNL d   1      11.037   7.782  -6.963  0.00  0.00     0.106 C 
ATOM     13  C   UNL d   1      11.310   8.848  -8.024  0.00  0.00     0.024 C 
ATOM     14  C   UNL d   1      11.204   8.283  -9.445  0.00  0.00     0.002 C 
BRANCH  12  15
ATOM     15  N   UNL d   1      11.081   8.390  -5.644  0.00  0.00    -0.238 NA
ATOM     16  C   UNL d   1      11.482   7.766  -4.532  0.00  0.00     0.282 C 
ATOM     17  O   UNL d   1      11.771   6.572  -4.497  0.00  0.00    -0.268 OA
BRANCH  16  18
ATOM     18  C   UNL d   1      11.592   8.641  -3.283  0.00  0.00     0.232 C 
ATOM     19  C   UNL d   1      11.869   7.822  -2.014  0.00  0.00     0.046 C 
ATOM     20  O   UNL d   1      12.633   9.585  -3.471  0.00  0.00    -0.213 OA
ENDBRANCH  16  18
ENDBRANCH  12  15
ENDBRANCH   8   9
ENDBRANCH   7   8
ENDBRANCH   1   7
BRANCH   4  21
ATOM     21  C   UNL d   1       9.101   2.050 -15.393  0.00  0.00     0.002 A 
ATOM     22  C   UNL d   1       9.297   2.801 -16.568  0.00  0.00     0.115 A 
ATOM     23  C   UNL d   1       9.370   2.204 -17.815  0.00  0.00     0.119 A 
ATOM     24  O   UNL d   1       9.452   4.141 -16.704  0.00  0.00    -0.300 OA
ATOM     25  C   UNL d   1       9.269   0.811 -17.965  0.00  0.00     0.026 A 
ATOM     26  O   UNL d   1       9.547   3.160 -18.767  0.00  0.00    -0.300 OA
ATOM     27  C   UNL d   1       9.082   0.035 -16.799  0.00  0.00     0.002 A 
ATOM     28  C   UNL d   1       8.992   0.646 -15.521  0.00  0.00    -0.002 A 
ATOM     29  C   UNL d   1       9.586   4.386 -18.080  0.00  0.00     0.304 A 
ENDBRANCH   4  21
TORSDOF 6
