REMARK  6 active torsions:
REMARK  status: ('A' for Active; 'I' for Inactive)
REMARK    1  A    between atoms: O_2  and  C_3 
REMARK    2  A    between atoms: N_11  and  C_12 
REMARK    3  A    between atoms: C_12  and  C_13 
REMARK    4  A    between atoms: C_18  and  C_19 
REMARK    5  A    between atoms: C_19  and  N_20 
REMARK       I    between atoms: N_20  and  C_21 
REMARK    6  A    between atoms: C_21  and  C_23 
ROOT
ATOM      1  C   UNL d   1       7.958   5.974 -12.230  0.00  0.00     0.009 C 
ATOM      2  C   UNL d   1       6.806   6.524 -12.779  0.00  0.00    -0.003 C 
ATOM      3  C   UNL d   1       6.652   7.914 -12.859  0.00  0.00    -0.000 C 
ATOM      4  C   UNL d   1       7.719   8.749 -12.451  0.00  0.00    -0.000 C 
ATOM      5  C   UNL d   1       8.858   8.203 -11.813  0.00  0.00    -0.003 C 
ATOM      6  C   UNL d   1       8.951   6.796 -11.649  0.00  0.00     0.000 C 
ENDROOT
BRANCH   1   7
ATOM      7  C   UNL d   1       8.098   4.460 -12.304  0.00  0.00     0.277 C 
BRANCH   7   8
ATOM      8  N   UNL d   1       9.022   4.028 -13.359  0.00  0.00     0.146 N 
ATOM      9  C   UNL d   1       8.625   4.510 -14.663  0.00  0.00     0.277 C 
ATOM     10  C   UNL d   1       9.466   3.940 -15.803  0.00  0.00     0.009 A 
ATOM     11  C   UNL d   1      10.102   2.689 -15.666  0.00  0.00    -0.020 A 
ATOM     12  C   UNL d   1       9.480   4.606 -17.037  0.00  0.00     0.027 A 
ATOM     13  C   UNL d   1      10.783   2.115 -16.758  0.00  0.00     0.022 A 
ATOM     14  C   UNL d   1      10.048   1.985 -14.338  0.00  0.00     0.061 C 
ATOM     15  C   UNL d   1      10.822   2.803 -17.993  0.00  0.00     0.119 A 
ATOM     16  C   UNL d   1      10.159   4.041 -18.128  0.00  0.00     0.153 A 
ATOM     17  O   UNL d   1      10.098   4.681 -19.325  0.00  0.00    -0.188 OA
ATOM     18  C   UNL d   1       8.977   2.598 -13.458  0.00  0.00     0.256 C 
BRANCH  15  19
ATOM     19  O   UNL d   1      11.484   2.224 -19.052  0.00  0.00    -0.326 OA
ATOM     20  C   UNL d   1      12.647   2.919 -19.469  0.00  0.00     0.181 C 
ENDBRANCH  15  19
ENDBRANCH   7   8
ENDBRANCH   1   7
BRANCH   6  21
ATOM     21  C   UNL d   1      10.092   6.199 -10.851  0.00  0.00     0.155 C 
BRANCH  21  22
ATOM     22  N   UNL d   1      10.415   6.914  -9.636  0.00  0.00    -0.229 NA
ATOM     23  C   UNL d   1       9.675   6.753  -8.534  0.00  0.00     0.275 C 
ATOM     24  O   UNL d   1       8.672   6.042  -8.477  0.00  0.00    -0.266 OA
BRANCH  23  25
ATOM     25  C   UNL d   1      10.218   7.405  -7.314  0.00  0.00     0.058 A 
ATOM     26  C   UNL d   1       9.906   8.744  -7.000  0.00  0.00     0.005 A 
ATOM     27  C   UNL d   1      10.444   9.313  -5.825  0.00  0.00     0.007 A 
ATOM     28  C   UNL d   1      11.238   8.540  -4.962  0.00  0.00     0.035 A 
ATOM     29  C   UNL d   1      11.524   7.203  -5.274  0.00  0.00     0.007 A 
ATOM     30 BR   UNL d   1      11.930   9.294  -3.367  0.00  0.00    -0.049 Br
ATOM     31  C   UNL d   1      11.045   6.648  -6.469  0.00  0.00     0.005 A 
ENDBRANCH  23  25
ENDBRANCH  21  22
ENDBRANCH   6  21
TORSDOF 6
