REMARK  10 active torsions:
REMARK  status: ('A' for Active; 'I' for Inactive)
REMARK    1  A    between atoms: O_2  and  C_3 
REMARK    2  A    between atoms: C_8  and  C_9 
REMARK    3  A    between atoms: C_11  and  C_12 
REMARK    4  A    between atoms: C_12  and  N_13 
REMARK    5  A    between atoms: N_13  and  C_14 
REMARK    6  A    between atoms: C_14  and  C_15 
REMARK    7  A    between atoms: C_15  and  C_16 
REMARK    8  A    between atoms: C_16  and  C_17 
REMARK    9  A    between atoms: C_17  and  O_18 
REMARK   10  A    between atoms: O_18  and  C_19 
ROOT
ATOM      1  C   UNL d   1       8.928   7.113 -11.364  0.00  0.00     0.041 C 
ENDROOT
BRANCH   1   2
ATOM      2  C   UNL d   1       9.506   6.124 -12.364  0.00  0.00     0.290 C 
BRANCH   2   3
ATOM      3  N   UNL d   1       8.452   5.281 -12.902  0.00  0.00     0.339 N 
BRANCH   3   4
ATOM      4  C   UNL d   1       8.952   4.372 -13.922  0.00  0.00     0.290 C 
BRANCH   4   5
ATOM      5  C   UNL d   1      10.175   3.569 -13.484  0.00  0.00     0.041 A 
ATOM      6  C   UNL d   1      10.709   2.477 -14.382  0.00  0.00     0.026 A 
ATOM      7  C   UNL d   1      11.496   3.759 -14.198  0.00  0.00     0.007 A 
BRANCH   6   8
ATOM      8  C   UNL d   1       9.994   2.167 -15.662  0.00  0.00    -0.000 A 
ATOM      9  C   UNL d   1       8.797   1.406 -15.657  0.00  0.00     0.090 A 
ATOM     10  C   UNL d   1       8.117   1.192 -16.881  0.00  0.00     0.024 A 
ATOM     11  C   UNL d   1       8.622   1.728 -18.081  0.00  0.00     0.002 A 
ATOM     12  C   UNL d   1       9.810   2.475 -18.078  0.00  0.00    -0.000 A 
ATOM     13  C   UNL d   1      10.498   2.682 -16.874  0.00  0.00    -0.002 A 
BRANCH   9  14
ATOM     14  O   UNL d   1       8.339   0.936 -14.441  0.00  0.00    -0.328 OA
ATOM     15  C   UNL d   1       7.073   0.290 -14.399  0.00  0.00     0.181 C 
ENDBRANCH   9  14
ENDBRANCH   6   8
ENDBRANCH   4   5
ENDBRANCH   3   4
ENDBRANCH   2   3
ENDBRANCH   1   2
BRANCH   1  16
ATOM     16  C   UNL d   1      10.057   7.862 -10.623  0.00  0.00     0.035 C 
BRANCH  16  17
ATOM     17  C   UNL d   1       9.505   8.831  -9.553  0.00  0.00     0.149 C 
BRANCH  17  18
ATOM     18  O   UNL d   1      10.524   9.401  -8.755  0.00  0.00    -0.331 OA
BRANCH  18  19
ATOM     19  C   UNL d   1      10.838   8.744  -7.593  0.00  0.00     0.096 A 
ATOM     20  C   UNL d   1      11.140   9.489  -6.432  0.00  0.00     0.043 A 
ATOM     21  C   UNL d   1      11.438   8.800  -5.239  0.00  0.00     0.087 A 
ATOM     22  C   UNL d   1      11.465   7.393  -5.219  0.00  0.00     0.018 A 
ATOM     23  N   UNL d   1      11.726   9.489  -4.021  0.00  0.00    -0.208 NA
ATOM     24  C   UNL d   1      11.187   6.663  -6.380  0.00  0.00     0.004 A 
ATOM     25  C   UNL d   1      11.810   6.732  -3.974  0.00  0.00     0.006 A 
ATOM     26  C   UNL d   1      10.854   7.322  -7.570  0.00  0.00     0.024 A 
ATOM     27  C   UNL d   1      12.081   7.431  -2.854  0.00  0.00     0.063 A 
ATOM     28  C   UNL d   1      12.038   8.890  -2.845  0.00  0.00     0.279 A 
ATOM     29  O   UNL d   1      12.252   9.540  -1.836  0.00  0.00    -0.265 OA
ENDBRANCH  18  19
ENDBRANCH  17  18
ENDBRANCH  16  17
ENDBRANCH   1  16
TORSDOF 10
