REMARK  3 active torsions:
REMARK  status: ('A' for Active; 'I' for Inactive)
REMARK    1  A    between atoms: O_2  and  C_3 
REMARK    2  A    between atoms: N_15  and  C_16 
REMARK    3  A    between atoms: C_16  and  C_17 
ROOT
ATOM      1  C   UNL d   1       8.890   0.396 -16.259  0.00  0.00     0.096 A 
ATOM      2  C   UNL d   1       7.682   0.410 -15.522  0.00  0.00     0.024 A 
ATOM      3  C   UNL d   1       7.351   1.508 -14.694  0.00  0.00     0.004 A 
ATOM      4  C   UNL d   1       8.232   2.600 -14.591  0.00  0.00     0.019 A 
ATOM      5  C   UNL d   1       7.987   3.808 -13.794  0.00  0.00    -0.015 A 
ATOM      6  C   UNL d   1       8.902   4.790 -13.778  0.00  0.00     0.071 A 
ATOM      7  C   UNL d   1      10.182   4.702 -14.535  0.00  0.00     0.298 A 
ATOM      8  O   UNL d   1      11.058   5.560 -14.499  0.00  0.00    -0.259 OA
ATOM      9  O   UNL d   1      10.358   3.590 -15.257  0.00  0.00    -0.273 OA
ATOM     10  C   UNL d   1       9.445   2.572 -15.308  0.00  0.00     0.105 A 
ATOM     11  C   UNL d   1       9.767   1.488 -16.133  0.00  0.00     0.049 A 
ATOM     12  C   UNL d   1       8.748   6.037 -12.924  0.00  0.00     0.282 C 
ATOM     13  N   UNL d   1       7.777   5.885 -11.843  0.00  0.00     0.146 N 
ATOM     14  C   UNL d   1       6.524   5.338 -12.389  0.00  0.00     0.256 C 
ATOM     15  C   UNL d   1       6.701   3.919 -12.975  0.00  0.00     0.062 C 
ENDROOT
BRANCH  13  16
ATOM     16  C   UNL d   1       8.303   5.135 -10.701  0.00  0.00     0.277 C 
BRANCH  16  17
ATOM     17  C   UNL d   1       9.052   5.974  -9.658  0.00  0.00     0.011 A 
ATOM     18  C   UNL d   1       8.710   5.848  -8.291  0.00  0.00    -0.002 A 
ATOM     19  C   UNL d   1       9.364   6.619  -7.296  0.00  0.00     0.011 A 
ATOM     20  C   UNL d   1      10.372   7.527  -7.680  0.00  0.00     0.058 A 
ATOM     21  C   UNL d   1      10.715   7.659  -9.036  0.00  0.00     0.011 A 
ATOM     22 CL   UNL d   1      11.185   8.488  -6.486  0.00  0.00    -0.082 Cl
ATOM     23  C   UNL d   1      10.061   6.894 -10.021  0.00  0.00    -0.002 A 
ENDBRANCH  16  17
ENDBRANCH  13  16
BRANCH   1  24
ATOM     24  O   UNL d   1       9.160  -0.681 -17.071  0.00  0.00    -0.328 OA
ATOM     25  C   UNL d   1      10.341  -0.635 -17.858  0.00  0.00     0.181 C 
ENDBRANCH   1  24
TORSDOF 3
