REMARK  9 active torsions:
REMARK  status: ('A' for Active; 'I' for Inactive)
REMARK    1  A    between atoms: O_2  and  C_3 
REMARK    2  A    between atoms: C_9  and  N_10 
REMARK    3  A    between atoms: N_13  and  C_14 
REMARK    4  A    between atoms: C_14  and  C_15 
REMARK    5  A    between atoms: C_15  and  C_16 
REMARK    6  A    between atoms: C_16  and  C_17 
REMARK    7  A    between atoms: C_17  and  N_18 
REMARK       I    between atoms: N_18  and  C_19 
REMARK    8  A    between atoms: C_19  and  C_21 
REMARK    9  A    between atoms: C_27  and  O_28 
ROOT
ATOM      1  C   UNL d   1      10.130   3.842 -12.933  0.00  0.00     0.251 C 
ENDROOT
BRANCH   1   2
ATOM      2  N   UNL d   1       9.623   3.415 -14.234  0.00  0.00     0.141 N 
ATOM      3  C   UNL d   1       8.828   2.191 -14.073  0.00  0.00     0.274 C 
ATOM      4  C   UNL d   1       8.218   1.709 -15.379  0.00  0.00     0.138 C 
ATOM      5  N   UNL d   1       9.288   1.548 -16.338  0.00  0.00    -0.328 N 
ATOM      6  C   UNL d   1      10.231   2.636 -16.475  0.00  0.00     0.138 C 
ATOM      7  C   UNL d   1      10.757   3.073 -15.098  0.00  0.00     0.274 C 
BRANCH   5   8
ATOM      8  C   UNL d   1       9.440   0.358 -17.040  0.00  0.00     0.169 A 
ATOM      9  N   UNL d   1      10.600  -0.263 -17.226  0.00  0.00    -0.109 NA
ATOM     10  O   UNL d   1      10.287  -1.418 -17.994  0.00  0.00    -0.210 OA
ATOM     11  C   UNL d   1       8.932  -1.453 -18.289  0.00  0.00     0.128 A 
ATOM     12  C   UNL d   1       8.154  -2.358 -19.004  0.00  0.00     0.029 A 
ATOM     13  C   UNL d   1       8.390  -0.328 -17.696  0.00  0.00     0.063 A 
ATOM     14  C   UNL d   1       6.795  -2.134 -19.165  0.00  0.00     0.026 A 
ATOM     15  C   UNL d   1       6.208  -0.998 -18.607  0.00  0.00     0.094 A 
ATOM     16  C   UNL d   1       7.005  -0.069 -17.854  0.00  0.00     0.029 A 
BRANCH  15  17
ATOM     17  O   UNL d   1       4.872  -0.887 -18.866  0.00  0.00    -0.328 OA
ATOM     18  C   UNL d   1       4.302   0.286 -18.415  0.00  0.00     0.181 C 
ENDBRANCH  15  17
ENDBRANCH   5   8
ENDBRANCH   1   2
BRANCH   1  19
ATOM     19  C   UNL d   1       9.052   4.452 -12.007  0.00  0.00     0.037 C 
BRANCH  19  20
ATOM     20  C   UNL d   1       9.610   5.000 -10.688  0.00  0.00     0.029 C 
BRANCH  20  21
ATOM     21  C   UNL d   1       8.553   5.579  -9.758  0.00  0.00     0.129 C 
BRANCH  21  22
ATOM     22  N   UNL d   1       9.170   6.069  -8.543  0.00  0.00    -0.233 NA
ATOM     23  C   UNL d   1       9.709   7.281  -8.384  0.00  0.00     0.298 C 
ATOM     24  O   UNL d   1       9.767   8.167  -9.238  0.00  0.00    -0.263 OA
BRANCH  23  25
ATOM     25  C   UNL d   1      10.278   7.483  -7.067  0.00  0.00     0.157 A 
ATOM     26  O   UNL d   1      10.493   8.755  -6.679  0.00  0.00    -0.300 OA
ATOM     27  C   UNL d   1      11.142   8.697  -5.484  0.00  0.00     0.122 A 
ATOM     28  C   UNL d   1      11.297   7.367  -5.064  0.00  0.00     0.027 A 
ATOM     29  C   UNL d   1      11.514   9.796  -4.749  0.00  0.00     0.117 A 
ATOM     30  C   UNL d   1      10.743   6.603  -6.114  0.00  0.00     0.032 A 
ATOM     31  C   UNL d   1      11.899   7.163  -3.794  0.00  0.00     0.002 A 
ATOM     32  C   UNL d   1      12.349   8.255  -3.032  0.00  0.00     0.002 A 
ATOM     33  C   UNL d   1      12.172   9.578  -3.516  0.00  0.00     0.026 A 
BRANCH  29  34
ATOM     34  O   UNL d   1      11.157  11.032  -5.250  0.00  0.00    -0.326 OA
ATOM     35  C   UNL d   1      11.939  11.331  -6.435  0.00  0.00     0.181 C 
ENDBRANCH  29  34
ENDBRANCH  23  25
ENDBRANCH  21  22
ENDBRANCH  20  21
ENDBRANCH  19  20
ENDBRANCH   1  19
TORSDOF 9
