REMARK  5 active torsions:
REMARK  status: ('A' for Active; 'I' for Inactive)
REMARK    1  A    between atoms: C_2  and  N_3 
REMARK    2  A    between atoms: C_7  and  C_8 
REMARK    3  A    between atoms: C_8  and  N_9 
REMARK       I    between atoms: N_9  and  C_10 
REMARK    4  A    between atoms: C_10  and  C_12 
REMARK    5  A    between atoms: C_20  and  O_21 
ROOT
ATOM      1  C   UNL d   1       9.185   3.716 -13.585  0.00  0.00     0.093 A 
ATOM      2  C   UNL d   1       7.933   3.078 -13.791  0.00  0.00     0.071 A 
ATOM      3 CL   UNL d   1       6.450   3.696 -13.146  0.00  0.00    -0.082 Cl
ATOM      4  C   UNL d   1       7.877   1.865 -14.511  0.00  0.00     0.048 A 
ATOM      5 BR   UNL d   1       6.259   0.867 -14.683  0.00  0.00    -0.048 Br
ATOM      6  C   UNL d   1       9.039   1.339 -15.108  0.00  0.00     0.037 A 
ATOM      7  C   UNL d   1      10.262   2.006 -14.972  0.00  0.00     0.154 A 
ATOM      8  O   UNL d   1      11.358   1.477 -15.582  0.00  0.00    -0.188 OA
ATOM      9  C   UNL d   1      10.350   3.197 -14.212  0.00  0.00     0.125 A 
ENDROOT
BRANCH   1  10
ATOM     10  C   UNL d   1       9.284   4.971 -12.764  0.00  0.00     0.278 C 
ATOM     11  N   UNL d   1       8.742   4.898 -11.529  0.00  0.00    -0.232 NA
ATOM     12  O   UNL d   1       9.838   5.962 -13.211  0.00  0.00    -0.265 OA
BRANCH  11  13
ATOM     13  C   UNL d   1       8.580   6.052 -10.651  0.00  0.00     0.162 C 
BRANCH  13  14
ATOM     14  C   UNL d   1       9.814   6.236  -9.743  0.00  0.00     0.243 C 
ATOM     15  N   UNL d   1       9.870   7.528  -9.075  0.00  0.00     0.137 N 
ATOM     16  C   UNL d   1      10.790   7.358  -7.955  0.00  0.00     0.250 C 
ATOM     17  C   UNL d   1      10.453   5.991  -7.404  0.00  0.00     0.037 C 
ATOM     18  C   UNL d   1       9.828   5.236  -8.577  0.00  0.00     0.037 C 
BRANCH  15  19
ATOM     19  C   UNL d   1      10.181   8.650  -9.963  0.00  0.00     0.250 C 
ATOM     20  C   UNL d   1      11.688   8.891 -10.126  0.00  0.00     0.037 C 
ENDBRANCH  15  19
ENDBRANCH  13  14
ENDBRANCH  11  13
ENDBRANCH   1  10
BRANCH   9  21
ATOM     21  O   UNL d   1      11.572   3.811 -14.066  0.00  0.00    -0.326 OA
ATOM     22  C   UNL d   1      12.000   4.513 -15.224  0.00  0.00     0.181 C 
ENDBRANCH   9  21
TORSDOF 5
