REMARK  4 active torsions:
REMARK  status: ('A' for Active; 'I' for Inactive)
REMARK    1  A    between atoms: C_2  and  C_4 
REMARK    2  A    between atoms: C_4  and  N_5 
REMARK    3  A    between atoms: N_5  and  C_6 
REMARK    4  A    between atoms: C_6  and  P_7 
ROOT
ATOM      1  N   UNL d   1      10.833   7.666  -5.991  0.00  0.00     0.366 N 
ENDROOT
BRANCH   1   2
ATOM      2  C   UNL d   1      11.111   6.805  -4.848  0.00  0.00     0.387 C 
BRANCH   2   3
ATOM      3  C   UNL d   1      11.865   7.553  -3.740  0.00  0.00     0.223 C 
ATOM      4  O   UNL d   1      12.294   8.700  -3.851  0.00  0.00    -0.646 OA
ATOM      5  O   UNL d   1      12.011   6.776  -2.629  0.00  0.00    -0.646 OA
ENDBRANCH   2   3
ENDBRANCH   1   2
BRANCH   1   6
ATOM      6  C   UNL d   1       9.935   7.011  -6.935  0.00  0.00     0.418 C 
BRANCH   6   7
ATOM      7  P   UNL d   1       9.982   7.778  -8.617  0.00  0.00     0.310 P 
ATOM      8  O   UNL d   1      11.370   8.015  -9.101  0.00  0.00    -0.638 OA
ATOM      9  O   UNL d   1       9.059   6.791  -9.509  0.00  0.00    -0.638 OA
ATOM     10  O   UNL d   1       9.059   9.098  -8.463  0.00  0.00    -0.638 OA
ENDBRANCH   6   7
ENDBRANCH   1   6
TORSDOF 4
