REMARK  7 active torsions:
REMARK  status: ('A' for Active; 'I' for Inactive)
REMARK    1  A    between atoms: C_2  and  C_3 
REMARK       I    between atoms: C_2  and  N_8 
REMARK    2  A    between atoms: C_3  and  C_4 
REMARK    3  A    between atoms: N_8  and  C_9 
REMARK    4  A    between atoms: C_12  and  C_13 
REMARK    5  A    between atoms: C_13  and  C_14 
REMARK    6  A    between atoms: C_14  and  N_15 
REMARK    7  A    between atoms: N_18  and  C_19 
ROOT
ATOM      1  C   UNL d   1       9.249   5.816 -12.061  0.00  0.00     0.250 C 
ENDROOT
BRANCH   1   2
ATOM      2  C   UNL d   1       9.470   7.183 -11.399  0.00  0.00     0.035 C 
BRANCH   2   3
ATOM      3  C   UNL d   1      10.209   6.992 -10.055  0.00  0.00     0.002 C 
ATOM      4  C   UNL d   1      10.614   8.356  -9.504  0.00  0.00     0.002 C 
ATOM      5  C   UNL d   1      11.329   8.237  -8.151  0.00  0.00     0.024 C 
ATOM      6  C   UNL d   1      10.460   7.492  -7.113  0.00  0.00     0.106 C 
ATOM      7  C   UNL d   1      10.087   6.112  -7.653  0.00  0.00     0.024 C 
ATOM      8  C   UNL d   1       9.376   6.212  -9.002  0.00  0.00     0.002 C 
BRANCH   6   9
ATOM      9  N   UNL d   1      11.172   7.326  -5.854  0.00  0.00    -0.240 NA
ATOM     10  C   UNL d   1      11.464   8.319  -5.010  0.00  0.00     0.260 C 
ATOM     11  O   UNL d   1      11.026   9.465  -5.142  0.00  0.00    -0.270 OA
BRANCH  10  12
ATOM     12  C   UNL d   1      12.484   8.004  -3.914  0.00  0.00     0.193 C 
BRANCH  12  13
ATOM     13  C   UNL d   1      12.040   8.375  -2.488  0.00  0.00     0.407 C 
ATOM     14  F   UNL d   1      13.049   8.371  -1.639  0.00  0.00    -0.170 F 
ATOM     15  F   UNL d   1      11.511   9.599  -2.464  0.00  0.00    -0.170 F 
ATOM     16  F   UNL d   1      11.158   7.466  -2.073  0.00  0.00    -0.170 F 
ENDBRANCH  12  13
ENDBRANCH  10  12
ENDBRANCH   6   9
ENDBRANCH   2   3
ENDBRANCH   1   2
BRANCH   1  17
ATOM     17  N   UNL d   1       8.277   5.928 -13.134  0.00  0.00     0.141 N 
ATOM     18  C   UNL d   1       6.919   5.495 -12.729  0.00  0.00     0.274 C 
ATOM     19  C   UNL d   1       6.853   3.976 -12.474  0.00  0.00     0.137 C 
ATOM     20  N   UNL d   1       7.391   3.254 -13.642  0.00  0.00    -0.343 N 
ATOM     21  C   UNL d   1       8.756   3.691 -14.019  0.00  0.00     0.137 C 
ATOM     22  C   UNL d   1       8.746   5.204 -14.300  0.00  0.00     0.274 C 
BRANCH  20  23
ATOM     23  C   UNL d   1       6.819   2.079 -14.112  0.00  0.00     0.081 A 
ATOM     24  C   UNL d   1       7.126   1.521 -15.364  0.00  0.00     0.135 A 
ATOM     25  C   UNL d   1       6.520   0.384 -15.857  0.00  0.00     0.121 A 
ATOM     26  O   UNL d   1       8.004   1.985 -16.292  0.00  0.00    -0.298 OA
ATOM     27  C   UNL d   1       5.524  -0.292 -15.133  0.00  0.00     0.026 A 
ATOM     28  O   UNL d   1       6.999   0.092 -17.087  0.00  0.00    -0.299 OA
ATOM     29  C   UNL d   1       5.184   0.217 -13.864  0.00  0.00     0.004 A 
ATOM     30  C   UNL d   1       5.828   1.367 -13.350  0.00  0.00     0.019 A 
ATOM     31  C   UNL d   1       7.966   1.076 -17.361  0.00  0.00     0.304 A 
ENDBRANCH  20  23
ENDBRANCH   1  17
TORSDOF 7
