REMARK  4 active torsions:
REMARK  status: ('A' for Active; 'I' for Inactive)
REMARK    1  A    between atoms: C_6  and  N_7 
REMARK       I    between atoms: N_7  and  C_8 
REMARK    2  A    between atoms: C_8  and  C_10 
REMARK    3  A    between atoms: C_10  and  N_11 
REMARK    4  A    between atoms: N_14  and  C_15 
ROOT
ATOM      1  N   UNL d   1       9.641   7.325  -9.467  0.00  0.00     0.151 N 
ATOM      2  C   UNL d   1       9.606   6.345  -8.367  0.00  0.00     0.275 C 
ATOM      3  C   UNL d   1       9.169   7.000  -7.069  0.00  0.00     0.138 C 
ATOM      4  N   UNL d   1      10.035   8.117  -6.770  0.00  0.00    -0.330 N 
ATOM      5  C   UNL d   1      10.186   9.102  -7.821  0.00  0.00     0.138 C 
ATOM      6  C   UNL d   1      10.591   8.405  -9.142  0.00  0.00     0.275 C 
ENDROOT
BRANCH   1   7
ATOM      7  C   UNL d   1       9.972   6.755 -10.791  0.00  0.00     0.339 C 
BRANCH   7   8
ATOM      8  C   UNL d   1       9.168   5.547 -11.283  0.00  0.00     0.290 C 
ATOM      9  N   UNL d   1       9.033   5.394 -12.608  0.00  0.00    -0.210 NA
ATOM     10  O   UNL d   1       8.724   4.732 -10.473  0.00  0.00    -0.268 OA
BRANCH   9  11
ATOM     11  C   UNL d   1       8.270   4.359 -13.223  0.00  0.00     0.084 A 
ATOM     12  C   UNL d   1       8.794   3.659 -14.329  0.00  0.00     0.019 A 
ATOM     13  C   UNL d   1       8.034   2.635 -14.932  0.00  0.00     0.001 A 
ATOM     14  C   UNL d   1       6.752   2.315 -14.439  0.00  0.00    -0.004 A 
ATOM     15  C   UNL d   1       6.240   2.996 -13.323  0.00  0.00    -0.020 A 
ATOM     16  C   UNL d   1       4.883   2.647 -12.755  0.00  0.00     0.031 C 
ATOM     17  C   UNL d   1       7.000   3.995 -12.714  0.00  0.00     0.015 A 
ENDBRANCH   9  11
ENDBRANCH   7   8
ENDBRANCH   1   7
BRANCH   4  18
ATOM     18  C   UNL d   1      10.730   8.211  -5.554  0.00  0.00     0.140 A 
ATOM     19  N   UNL d   1      10.867   9.458  -5.064  0.00  0.00    -0.226 NA
ATOM     20  C   UNL d   1      11.472   9.586  -3.874  0.00  0.00     0.112 A 
ATOM     21  C   UNL d   1      11.992   8.502  -3.139  0.00  0.00     0.077 A 
ATOM     22  C   UNL d   1      11.858   7.203  -3.671  0.00  0.00     0.016 A 
ATOM     23 CL   UNL d   1      12.719   8.761  -1.630  0.00  0.00    -0.081 Cl
ATOM     24  C   UNL d   1      11.200   7.049  -4.898  0.00  0.00     0.038 A 
ENDBRANCH   4  18
TORSDOF 4
