REMARK  11 active torsions:
REMARK  status: ('A' for Active; 'I' for Inactive)
REMARK    1  A    between atoms: C_2  and  C_3 
REMARK    2  A    between atoms: C_3  and  N_4 
REMARK    3  A    between atoms: N_4  and  C_5 
REMARK    4  A    between atoms: N_4  and  C_8 
REMARK    5  A    between atoms: C_5  and  C_6 
REMARK    6  A    between atoms: C_8  and  C_9 
REMARK    7  A    between atoms: C_9  and  C_10 
REMARK    8  A    between atoms: C_10  and  C_11 
REMARK    9  A    between atoms: C_11  and  N_12 
REMARK       I    between atoms: N_12  and  C_13 
REMARK   10  A    between atoms: C_13  and  C_15 
REMARK   11  A    between atoms: C_18  and  C_19 
ROOT
ATOM      1  N   UNL d   1       8.047   5.446 -10.657  0.00  0.00    -0.234 NA
ATOM      2  C   UNL d   1       8.308   5.337 -11.962  0.00  0.00     0.275 C 
ATOM      3  O   UNL d   1       9.170   5.985 -12.563  0.00  0.00    -0.266 OA
ENDROOT
BRANCH   2   4
ATOM      4  C   UNL d   1       7.545   4.252 -12.663  0.00  0.00     0.058 A 
ATOM      5  C   UNL d   1       8.191   3.543 -13.693  0.00  0.00     0.005 A 
ATOM      6  C   UNL d   1       7.564   2.435 -14.292  0.00  0.00     0.000 A 
ATOM      7  C   UNL d   1       6.270   2.013 -13.885  0.00  0.00     0.000 A 
ATOM      8  C   UNL d   1       5.621   2.768 -12.872  0.00  0.00     0.000 A 
ATOM      9  C   UNL d   1       6.250   3.881 -12.266  0.00  0.00     0.005 A 
BRANCH   7  10
ATOM     10  C   UNL d   1       5.655   0.799 -14.507  0.00  0.00     0.000 A 
ATOM     11  C   UNL d   1       4.616   0.098 -13.845  0.00  0.00     0.000 A 
ATOM     12  C   UNL d   1       3.889  -0.917 -14.505  0.00  0.00     0.000 A 
ATOM     13  C   UNL d   1       4.265  -1.342 -15.793  0.00  0.00     0.000 A 
ATOM     14  C   UNL d   1       5.348  -0.712 -16.436  0.00  0.00     0.000 A 
ATOM     15  C   UNL d   1       6.019   0.367 -15.807  0.00  0.00     0.000 A 
ENDBRANCH   7  10
ENDBRANCH   2   4
BRANCH   1  16
ATOM     16  C   UNL d   1       8.706   6.377  -9.759  0.00  0.00     0.129 C 
BRANCH  16  17
ATOM     17  C   UNL d   1      10.160   6.035  -9.501  0.00  0.00     0.029 C 
BRANCH  17  18
ATOM     18  C   UNL d   1      10.769   7.026  -8.520  0.00  0.00     0.037 C 
BRANCH  18  19
ATOM     19  C   UNL d   1      10.373   6.742  -7.063  0.00  0.00     0.250 C 
BRANCH  19  20
ATOM     20  N   UNL d   1      11.429   7.151  -6.159  0.00  0.00     0.137 N 
BRANCH  20  21
ATOM     21  C   UNL d   1      11.133   6.684  -4.798  0.00  0.00     0.250 C 
BRANCH  21  22
ATOM     22  C   UNL d   1      12.046   7.262  -3.668  0.00  0.00     0.035 C 
ATOM     23  C   UNL d   1      11.640   6.889  -2.253  0.00  0.00     0.002 C 
ENDBRANCH  21  22
ENDBRANCH  20  21
BRANCH  20  24
ATOM     24  C   UNL d   1      11.672   8.602  -6.266  0.00  0.00     0.250 C 
BRANCH  24  25
ATOM     25  C   UNL d   1      10.451   9.392  -5.813  0.00  0.00     0.035 C 
ATOM     26  C   UNL d   1      10.870  10.756  -5.438  0.00  0.00     0.002 C 
ENDBRANCH  24  25
ENDBRANCH  20  24
ENDBRANCH  19  20
ENDBRANCH  18  19
ENDBRANCH  17  18
ENDBRANCH  16  17
ENDBRANCH   1  16
TORSDOF 11
