REMARK  0 active torsions:
REMARK  status: ('A' for Active; 'I' for Inactive)
ROOT
ATOM      1  O   UNL d   1       9.813   5.429  -9.367  0.00  0.00    -0.269 OA
ATOM      2  C   UNL d   1      10.252   6.355  -8.684  0.00  0.00     0.271 C 
ATOM      3  N   UNL d   1      10.279   6.247  -7.342  0.00  0.00    -0.211 NA
ATOM      4  C   UNL d   1      10.641   7.261  -6.426  0.00  0.00     0.080 A 
ATOM      5  C   UNL d   1      11.445   6.924  -5.317  0.00  0.00     0.019 A 
ATOM      6  C   UNL d   1      11.860   7.915  -4.409  0.00  0.00     0.002 A 
ATOM      7  C   UNL d   1      11.467   9.252  -4.613  0.00  0.00    -0.000 A 
ATOM      8  C   UNL d   1      10.660   9.588  -5.720  0.00  0.00    -0.003 A 
ATOM      9  C   UNL d   1      10.226   8.604  -6.617  0.00  0.00    -0.004 A 
ATOM     10  C   UNL d   1       9.298   8.966  -7.777  0.00  0.00     0.030 C 
ATOM     11  C   UNL d   1       9.905   8.794  -9.192  0.00  0.00     0.031 C 
ATOM     12  C   UNL d   1      10.824   7.595  -9.382  0.00  0.00     0.161 C 
ATOM     13 CL   UNL d   1      12.502   8.011  -8.865  0.00  0.00    -0.105 Cl
ENDROOT
TORSDOF 0
