REMARK  4 active torsions:
REMARK  status: ('A' for Active; 'I' for Inactive)
REMARK    1  A    between atoms: C_2  and  N_5 
REMARK    2  A    between atoms: N_5  and  C_6 
REMARK    3  A    between atoms: C_6  and  C_7 
REMARK    4  A    between atoms: C_7  and  C_9 
ROOT
ATOM      1  C   UNL d   1      10.774   8.382  -7.320  0.00  0.00     0.014 A 
ATOM      2  C   UNL d   1       9.686   7.609  -7.786  0.00  0.00     0.026 A 
ATOM      3  C   UNL d   1       9.707   7.096  -9.097  0.00  0.00     0.133 A 
ATOM      4  O   UNL d   1       8.662   6.380  -9.567  0.00  0.00    -0.190 OA
ATOM      5  C   UNL d   1      10.791   7.373  -9.947  0.00  0.00     0.055 A 
ATOM      6  C   UNL d   1      11.895   8.126  -9.478  0.00  0.00     0.133 A 
ATOM      7  O   UNL d   1      12.998   8.387 -10.247  0.00  0.00    -0.190 OA
ATOM      8  C   UNL d   1      11.879   8.616  -8.168  0.00  0.00     0.026 A 
ENDROOT
BRANCH   1   9
ATOM      9  C   UNL d   1      10.770   8.941  -5.912  0.00  0.00     0.198 C 
ATOM     10  O   UNL d   1      11.579  10.101  -5.814  0.00  0.00    -0.216 OA
BRANCH   9  11
ATOM     11  C   UNL d   1      11.283   7.881  -4.924  0.00  0.00     0.157 C 
BRANCH  11  12
ATOM     12  N   UNL d   1      11.500   8.427  -3.579  0.00  0.00    -0.296 NA
BRANCH  12  13
ATOM     13  C   UNL d   1      11.973   7.503  -2.533  0.00  0.00     0.080 C 
ATOM     14  C   UNL d   1      13.058   6.584  -3.061  0.00  0.00     0.024 C 
ATOM     15  C   UNL d   1      10.844   6.603  -2.006  0.00  0.00     0.024 C 
ATOM     16  C   UNL d   1      12.599   8.339  -1.415  0.00  0.00     0.024 C 
ENDBRANCH  12  13
ENDBRANCH  11  12
ENDBRANCH   9  11
ENDBRANCH   1   9
TORSDOF 4
