REMARK  6 active torsions:
REMARK  status: ('A' for Active; 'I' for Inactive)
REMARK    1  A    between atoms: C_2  and  C_3 
REMARK    2  A    between atoms: N_13  and  C_14 
REMARK    3  A    between atoms: C_14  and  C_15 
REMARK    4  A    between atoms: C_15  and  C_17 
REMARK    5  A    between atoms: C_17  and  N_18 
REMARK    6  A    between atoms: N_21  and  C_22 
ROOT
ATOM      1  C   UNL d   1      10.299   7.776  -8.631  0.00  0.00     0.066 A 
ATOM      2  C   UNL d   1       9.379   7.999  -7.587  0.00  0.00     0.018 A 
ATOM      3  C   UNL d   1       9.767   8.711  -6.432  0.00  0.00     0.002 A 
ATOM      4  C   UNL d   1      11.082   9.180  -6.290  0.00  0.00     0.001 A 
ATOM      5  C   UNL d   1      12.002   8.954  -7.317  0.00  0.00     0.012 A 
ATOM      6  C   UNL d   1      11.617   8.295  -8.492  0.00  0.00     0.084 A 
ATOM      7  C   UNL d   1      12.701   8.119  -9.435  0.00  0.00     0.102 C 
ATOM      8  N   UNL d   1      13.599   8.007 -10.152  0.00  0.00    -0.191 NA
ENDROOT
BRANCH   1   9
ATOM      9  N   UNL d   1       9.864   7.054  -9.745  0.00  0.00    -0.344 N 
ATOM     10  C   UNL d   1       9.996   7.585 -11.096  0.00  0.00     0.137 C 
ATOM     11  C   UNL d   1       8.684   7.507 -11.890  0.00  0.00     0.274 C 
ATOM     12  N   UNL d   1       8.101   6.150 -11.817  0.00  0.00     0.144 N 
ATOM     13  C   UNL d   1       7.942   5.723 -10.405  0.00  0.00     0.274 C 
ATOM     14  C   UNL d   1       9.255   5.734  -9.621  0.00  0.00     0.137 C 
BRANCH  12  15
ATOM     15  C   UNL d   1       6.830   6.111 -12.519  0.00  0.00     0.285 C 
BRANCH  15  16
ATOM     16  C   UNL d   1       6.555   4.762 -13.256  0.00  0.00     0.208 C 
ATOM     17  O   UNL d   1       5.186   4.464 -13.144  0.00  0.00    -0.219 OA
BRANCH  16  18
ATOM     18  C   UNL d   1       7.361   3.542 -12.823  0.00  0.00     0.148 C 
BRANCH  18  19
ATOM     19  N   UNL d   1       8.293   3.099 -13.865  0.00  0.00    -0.247 N 
ATOM     20  C   UNL d   1       8.073   2.025 -14.635  0.00  0.00     0.348 A 
ATOM     21  N   UNL d   1       9.137   1.856 -15.423  0.00  0.00    -0.209 NA
ATOM     22  O   UNL d   1       7.085   1.295 -14.613  0.00  0.00    -0.245 OA
ATOM     23  C   UNL d   1      10.161   2.868 -15.224  0.00  0.00     0.179 A 
ATOM     24  C   UNL d   1      11.462   2.194 -14.765  0.00  0.00     0.039 C 
ATOM     25  C   UNL d   1       9.506   3.632 -14.089  0.00  0.00     0.265 A 
ATOM     26  O   UNL d   1      10.059   4.560 -13.495  0.00  0.00    -0.269 OA
BRANCH  23  27
ATOM     27  C   UNL d   1      10.353   3.809 -16.423  0.00  0.00     0.006 A 
ATOM     28  C   UNL d   1      11.480   4.663 -16.495  0.00  0.00     0.000 A 
ATOM     29  C   UNL d   1      11.659   5.527 -17.589  0.00  0.00     0.029 A 
ATOM     30  C   UNL d   1      10.702   5.574 -18.617  0.00  0.00     0.140 A 
ATOM     31  C   UNL d   1       9.568   4.747 -18.552  0.00  0.00     0.029 A 
ATOM     32  F   UNL d   1      10.874   6.411 -19.666  0.00  0.00    -0.204 F 
ATOM     33  C   UNL d   1       9.403   3.863 -17.469  0.00  0.00     0.000 A 
ENDBRANCH  23  27
ENDBRANCH  18  19
ENDBRANCH  16  18
ENDBRANCH  15  16
ENDBRANCH  12  15
ENDBRANCH   1   9
TORSDOF 6
