REMARK  2 active torsions:
REMARK  status: ('A' for Active; 'I' for Inactive)
REMARK    1  A    between atoms: C_17  and  N_18 
REMARK       I    between atoms: N_18  and  C_19 
REMARK    2  A    between atoms: C_19  and  C_21 
ROOT
ATOM      1  C   UNL d   1       5.134   4.433 -11.988  0.00  0.00     0.285 C 
ATOM      2  N   UNL d   1       5.855   4.809 -13.175  0.00  0.00     0.138 N 
ATOM      3  C   UNL d   1       6.007   3.656 -14.053  0.00  0.00     0.255 C 
ATOM      4  C   UNL d   1       6.890   2.563 -13.578  0.00  0.00     0.061 C 
ATOM      5  C   UNL d   1       8.368   2.886 -13.697  0.00  0.00    -0.023 A 
ATOM      6  C   UNL d   1       9.169   2.048 -14.489  0.00  0.00     0.009 A 
ATOM      7  C   UNL d   1      10.517   2.338 -14.700  0.00  0.00     0.083 A 
ATOM      8 CL   UNL d   1      11.383   1.360 -15.815  0.00  0.00    -0.080 Cl
ATOM      9  C   UNL d   1      11.089   3.467 -14.091  0.00  0.00     0.141 A 
ATOM     10  O   UNL d   1      12.374   3.817 -14.323  0.00  0.00    -0.189 OA
ATOM     11  C   UNL d   1      10.312   4.282 -13.255  0.00  0.00     0.024 A 
ATOM     12  C   UNL d   1       8.950   3.991 -13.027  0.00  0.00    -0.018 A 
ATOM     13  C   UNL d   1       8.102   4.874 -12.106  0.00  0.00     0.075 C 
ATOM     14  C   UNL d   1       8.929   5.818 -11.242  0.00  0.00    -0.020 A 
ATOM     15  C   UNL d   1       9.629   5.232 -10.181  0.00  0.00    -0.003 A 
ATOM     16  C   UNL d   1      10.389   6.015  -9.300  0.00  0.00     0.019 A 
ATOM     17  C   UNL d   1      10.462   7.415  -9.505  0.00  0.00     0.084 A 
ATOM     18  C   UNL d   1       9.739   8.034 -10.556  0.00  0.00     0.015 A 
ATOM     19  C   UNL d   1       8.945   7.215 -11.401  0.00  0.00    -0.024 A 
ATOM     20  C   UNL d   1       7.981   7.859 -12.338  0.00  0.00     0.028 C 
ATOM     21  C   UNL d   1       6.705   7.022 -12.503  0.00  0.00     0.039 C 
ATOM     22  C   UNL d   1       7.065   5.599 -12.956  0.00  0.00     0.228 C 
ENDROOT
BRANCH  17  23
ATOM     23  N   UNL d   1      11.294   8.262  -8.698  0.00  0.00    -0.212 NA
ATOM     24  C   UNL d   1      11.528   8.204  -7.373  0.00  0.00     0.255 C 
ATOM     25  O   UNL d   1      12.118   9.132  -6.824  0.00  0.00    -0.270 OA
BRANCH  24  26
ATOM     26  C   UNL d   1      10.996   7.016  -6.594  0.00  0.00     0.081 A 
ATOM     27  C   UNL d   1      10.905   7.073  -5.083  0.00  0.00     0.010 A 
ATOM     28  C   UNL d   1       9.648   7.210  -5.921  0.00  0.00     0.010 A 
ENDBRANCH  24  26
ENDBRANCH  17  23
TORSDOF 2
