REMARK  10 active torsions:
REMARK  status: ('A' for Active; 'I' for Inactive)
REMARK    1  A    between atoms: C_2  and  C_3 
REMARK       I    between atoms: C_2  and  N_16 
REMARK    2  A    between atoms: C_4  and  C_5 
REMARK    3  A    between atoms: N_16  and  C_17 
REMARK    4  A    between atoms: C_17  and  C_18 
REMARK    5  A    between atoms: C_18  and  C_19 
REMARK    6  A    between atoms: C_19  and  C_20 
REMARK    7  A    between atoms: C_20  and  N_21 
REMARK    8  A    between atoms: C_27  and  O_28 
REMARK    9  A    between atoms: O_28  and  S_29 
REMARK   10  A    between atoms: S_29  and  C_32 
ROOT
ATOM      1  C   UNL d   1       9.354   1.708 -15.716  0.00  0.00     0.037 C 
ENDROOT
BRANCH   1   2
ATOM      2  C   UNL d   1       9.337   2.317 -14.322  0.00  0.00     0.029 C 
BRANCH   2   3
ATOM      3  C   UNL d   1       8.599   3.660 -14.332  0.00  0.00     0.129 C 
BRANCH   3   4
ATOM      4  N   UNL d   1       8.777   4.357 -13.067  0.00  0.00    -0.234 NA
ATOM      5  C   UNL d   1       7.830   4.570 -12.138  0.00  0.00     0.275 C 
ATOM      6  O   UNL d   1       6.670   4.198 -12.261  0.00  0.00    -0.266 OA
BRANCH   5   7
ATOM      7  C   UNL d   1       8.358   5.262 -10.971  0.00  0.00     0.062 C 
ATOM      8  C   UNL d   1       9.288   6.229 -11.079  0.00  0.00     0.005 C 
BRANCH   8   9
ATOM      9  C   UNL d   1       9.923   6.964  -9.974  0.00  0.00     0.000 A 
ATOM     10  C   UNL d   1       9.851   6.549  -8.628  0.00  0.00     0.002 A 
ATOM     11  C   UNL d   1      10.479   7.312  -7.623  0.00  0.00     0.018 A 
ATOM     12  C   UNL d   1      11.190   8.504  -7.933  0.00  0.00     0.084 A 
ATOM     13  C   UNL d   1      10.414   6.896  -6.280  0.00  0.00     0.005 A 
ATOM     14  C   UNL d   1      11.246   8.903  -9.282  0.00  0.00     0.019 A 
ATOM     15  N   UNL d   1      11.795   9.242  -6.979  0.00  0.00    -0.220 NA
ATOM     16  C   UNL d   1      10.610   8.150 -10.281  0.00  0.00     0.002 A 
ATOM     17  C   UNL d   1      11.727   8.835  -5.696  0.00  0.00     0.213 A 
ATOM     18  O   UNL d   1      12.371   9.575  -4.758  0.00  0.00    -0.169 OA
ATOM     19  C   UNL d   1      11.059   7.665  -5.299  0.00  0.00     0.047 A 
ENDBRANCH   8   9
ENDBRANCH   5   7
ENDBRANCH   3   4
ENDBRANCH   2   3
ENDBRANCH   1   2
BRANCH   1  20
ATOM     20  C   UNL d   1       9.896   0.259 -15.751  0.00  0.00     0.251 C 
BRANCH  20  21
ATOM     21  N   UNL d   1      10.182  -0.227 -17.107  0.00  0.00     0.142 N 
ATOM     22  C   UNL d   1      11.392   0.408 -17.619  0.00  0.00     0.277 C 
ATOM     23  C   UNL d   1      11.703   0.034 -19.049  0.00  0.00     0.009 A 
ATOM     24  C   UNL d   1      10.701  -0.433 -19.923  0.00  0.00    -0.022 A 
ATOM     25  C   UNL d   1      13.009   0.255 -19.522  0.00  0.00     0.023 A 
ATOM     26  C   UNL d   1       9.311  -0.694 -19.376  0.00  0.00     0.061 C 
ATOM     27  C   UNL d   1      11.009  -0.693 -21.273  0.00  0.00    -0.002 A 
ATOM     28  C   UNL d   1       9.069   0.013 -18.026  0.00  0.00     0.255 C 
ATOM     29  C   UNL d   1      12.324  -0.474 -21.741  0.00  0.00     0.025 A 
ATOM     30  C   UNL d   1      13.328   0.015 -20.874  0.00  0.00     0.113 A 
BRANCH  30  31
ATOM     31  O   UNL d   1      14.588   0.271 -21.363  0.00  0.00    -0.224 OA
BRANCH  31  32
ATOM     32  S   UNL d   1      15.796   0.772 -20.287  0.00  0.00     0.374 S 
ATOM     33  O   UNL d   1      15.358   1.992 -19.635  0.00  0.00    -0.189 OA
ATOM     34  O   UNL d   1      16.218  -0.400 -19.499  0.00  0.00    -0.189 OA
BRANCH  32  35
ATOM     35  C   UNL d   1      17.150   1.188 -21.471  0.00  0.00     0.524 C 
ATOM     36  F   UNL d   1      17.063   2.481 -21.772  0.00  0.00    -0.155 F 
ATOM     37  F   UNL d   1      18.314   0.948 -20.867  0.00  0.00    -0.155 F 
ATOM     38  F   UNL d   1      17.043   0.442 -22.566  0.00  0.00    -0.155 F 
ENDBRANCH  32  35
ENDBRANCH  31  32
ENDBRANCH  30  31
ENDBRANCH  20  21
ENDBRANCH   1  20
TORSDOF 10
