REMARK  3 active torsions:
REMARK  status: ('A' for Active; 'I' for Inactive)
REMARK    1  A    between atoms: C_2  and  C_3 
REMARK    2  A    between atoms: N_12  and  C_13 
REMARK    3  A    between atoms: C_13  and  C_14 
ROOT
ATOM      1  O   UNL d   1      12.511   8.017  -8.920  0.00  0.00    -0.221 OA
ATOM      2  C   UNL d   1      11.266   7.849  -8.229  0.00  0.00     0.149 C 
ATOM      3  C   UNL d   1      10.404   8.957  -8.836  0.00  0.00     0.070 C 
ATOM      4  C   UNL d   1      10.108   8.752 -10.319  0.00  0.00     0.254 C 
ATOM      5  N   UNL d   1       9.460   7.478 -10.593  0.00  0.00     0.144 N 
ATOM      6  C   UNL d   1      10.263   6.383 -10.098  0.00  0.00     0.254 C 
ATOM      7  C   UNL d   1      10.529   6.532  -8.613  0.00  0.00     0.070 C 
ENDROOT
BRANCH   5   8
ATOM      8  C   UNL d   1       9.053   7.355 -11.976  0.00  0.00     0.301 C 
BRANCH   8   9
ATOM      9  C   UNL d   1       8.263   6.122 -12.262  0.00  0.00     0.111 A 
ATOM     10  O   UNL d   1       8.732   5.318 -13.265  0.00  0.00    -0.309 OA
ATOM     11  C   UNL d   1       7.852   4.260 -13.370  0.00  0.00     0.100 A 
ATOM     12  C   UNL d   1       6.831   4.404 -12.404  0.00  0.00     0.025 A 
ATOM     13  C   UNL d   1       7.904   3.185 -14.273  0.00  0.00     0.025 A 
ATOM     14  C   UNL d   1       7.139   5.599 -11.684  0.00  0.00     0.024 A 
ATOM     15  C   UNL d   1       5.833   3.407 -12.370  0.00  0.00     0.002 A 
ATOM     16  C   UNL d   1       5.841   2.330 -13.284  0.00  0.00     0.000 A 
ATOM     17  C   UNL d   1       6.877   2.217 -14.233  0.00  0.00     0.002 A 
ENDBRANCH   8   9
ENDBRANCH   5   8
BRANCH   2  18
ATOM     18  C   UNL d   1      11.420   7.976  -6.699  0.00  0.00     0.005 A 
ATOM     19  C   UNL d   1      11.640   9.243  -6.108  0.00  0.00    -0.001 A 
ATOM     20  C   UNL d   1      11.810   9.354  -4.729  0.00  0.00     0.006 A 
ATOM     21  C   UNL d   1      11.863   8.203  -3.923  0.00  0.00     0.035 A 
ATOM     22  C   UNL d   1      11.614   6.941  -4.479  0.00  0.00     0.006 A 
ATOM     23 BR   UNL d   1      12.320   8.326  -2.095  0.00  0.00    -0.049 Br
ATOM     24  C   UNL d   1      11.420   6.830  -5.850  0.00  0.00    -0.001 A 
ENDBRANCH   2  18
TORSDOF 3
