REMARK  3 active torsions:
REMARK  status: ('A' for Active; 'I' for Inactive)
REMARK    1  A    between atoms: N_3  and  C_4 
REMARK    2  A    between atoms: C_4  and  C_5 
REMARK    3  A    between atoms: N_13  and  C_14 
ROOT
ATOM      1  O   UNL d   1       9.787   5.711 -11.122  0.00  0.00    -0.247 OA
ATOM      2  C   UNL d   1       9.116   6.669 -11.533  0.00  0.00     0.328 C 
ATOM      3  N   UNL d   1       9.406   7.975 -11.379  0.00  0.00    -0.300 N 
ATOM      4  C   UNL d   1       8.416   8.846 -12.043  0.00  0.00     0.131 C 
ATOM      5  C   UNL d   1       7.311   7.827 -12.504  0.00  0.00     0.135 C 
ATOM      6  N   UNL d   1       7.958   6.567 -12.191  0.00  0.00    -0.280 N 
ENDROOT
BRANCH   3   7
ATOM      7  C   UNL d   1      10.468   8.531 -10.501  0.00  0.00     0.108 C 
BRANCH   7   8
ATOM      8  C   UNL d   1      10.593   7.884  -9.089  0.00  0.00     0.059 C 
ATOM      9  C   UNL d   1       9.243   7.753  -8.343  0.00  0.00     0.292 C 
ATOM     10  N   UNL d   1       9.414   7.115  -7.042  0.00  0.00     0.339 N 
ATOM     11  C   UNL d   1      10.238   7.958  -6.190  0.00  0.00     0.290 C 
ATOM     12  C   UNL d   1      11.639   8.120  -6.827  0.00  0.00     0.038 C 
ATOM     13  C   UNL d   1      11.559   8.724  -8.219  0.00  0.00     0.006 C 
ENDBRANCH   7   8
ENDBRANCH   3   7
BRANCH   6  14
ATOM     14  C   UNL d   1       7.403   5.345 -12.583  0.00  0.00     0.065 A 
ATOM     15  C   UNL d   1       8.111   4.478 -13.446  0.00  0.00     0.029 A 
ATOM     16  C   UNL d   1       7.563   3.234 -13.854  0.00  0.00     0.059 A 
ATOM     17  C   UNL d   1       6.289   2.862 -13.380  0.00  0.00     0.011 A 
ATOM     18 CL   UNL d   1       8.476   2.175 -14.858  0.00  0.00    -0.082 Cl
ATOM     19  C   UNL d   1       5.586   3.708 -12.502  0.00  0.00     0.002 A 
ATOM     20  C   UNL d   1       6.137   4.957 -12.112  0.00  0.00     0.017 A 
ENDBRANCH   6  14
TORSDOF 3
