REMARK  2 active torsions:
REMARK  status: ('A' for Active; 'I' for Inactive)
REMARK    1  A    between atoms: C_8  and  N_9 
REMARK       I    between atoms: N_9  and  C_10 
REMARK    2  A    between atoms: C_10  and  C_12 
ROOT
ATOM      1  N   UNL d   1       8.967   6.634  -8.681  0.00  0.00    -0.236 NA
ATOM      2  C   UNL d   1       8.763   5.444  -9.255  0.00  0.00     0.278 C 
ATOM      3  O   UNL d   1       8.503   4.409  -8.640  0.00  0.00    -0.265 OA
ENDROOT
BRANCH   2   4
ATOM      4  C   UNL d   1       8.880   5.507 -10.733  0.00  0.00     0.096 A 
ATOM      5  C   UNL d   1       8.078   4.841 -11.615  0.00  0.00     0.089 A 
ATOM      6  N   UNL d   1       8.573   5.142 -12.895  0.00  0.00    -0.228 N 
ATOM      7  C   UNL d   1       6.964   3.988 -11.544  0.00  0.00     0.019 A 
ATOM      8  N   UNL d   1       9.651   5.980 -12.831  0.00  0.00    -0.163 NA
ATOM      9  C   UNL d   1       8.046   4.632 -14.040  0.00  0.00     0.101 A 
ATOM     10  C   UNL d   1       9.802   6.204 -11.543  0.00  0.00     0.127 A 
ATOM     11  C   UNL d   1       6.934   3.826 -13.951  0.00  0.00     0.021 A 
ATOM     12  C   UNL d   1       6.362   3.525 -12.695  0.00  0.00     0.003 A 
ENDBRANCH   2   4
BRANCH   1  13
ATOM     13  C   UNL d   1       8.914   7.008  -7.274  0.00  0.00     0.111 C 
ATOM     14  C   UNL d   1       8.836   8.546  -7.120  0.00  0.00     0.058 C 
ATOM     15  C   UNL d   1      10.215   9.238  -7.258  0.00  0.00     0.221 C 
ATOM     16  N   UNL d   1      11.071   8.703  -6.202  0.00  0.00     0.135 N 
ATOM     17  C   UNL d   1      10.918   8.915  -8.585  0.00  0.00     0.035 C 
ATOM     18  C   UNL d   1      12.239   9.541  -5.973  0.00  0.00     0.285 C 
ATOM     19  C   UNL d   1      11.416   7.400  -6.756  0.00  0.00     0.221 C 
ATOM     20  C   UNL d   1      10.175   6.517  -6.547  0.00  0.00     0.058 C 
ATOM     21  C   UNL d   1      11.741   7.667  -8.244  0.00  0.00     0.035 C 
ENDBRANCH   1  13
TORSDOF 2
