REMARK  5 active torsions:
REMARK  status: ('A' for Active; 'I' for Inactive)
REMARK    1  A    between atoms: C_2  and  C_3 
REMARK    2  A    between atoms: C_3  and  C_4 
REMARK    3  A    between atoms: C_4  and  C_5 
REMARK    4  A    between atoms: C_5  and  C_7 
REMARK    5  A    between atoms: C_7  and  C_8 
ROOT
ATOM      1  C   UNL d   1      10.742   7.607  -7.710  0.00  0.00     0.150 C 
ATOM      2  C   UNL d   1       9.637   8.217  -6.819  0.00  0.00     0.268 C 
ATOM      3  O   UNL d   1       8.549   7.674  -6.759  0.00  0.00    -0.270 OA
ATOM      4  N   UNL d   1       9.931   9.180  -5.992  0.00  0.00    -0.155 NA
ATOM      5  C   UNL d   1      11.060   9.880  -5.924  0.00  0.00     0.373 C 
ATOM      6  O   UNL d   1      11.064  10.834  -5.165  0.00  0.00    -0.242 OA
ATOM      7  N   UNL d   1      12.091   9.525  -6.727  0.00  0.00    -0.155 NA
ATOM      8  C   UNL d   1      12.035   8.493  -7.605  0.00  0.00     0.268 C 
ATOM      9  O   UNL d   1      12.971   8.275  -8.337  0.00  0.00    -0.270 OA
ENDROOT
BRANCH   1  10
ATOM     10  C   UNL d   1      11.027   6.249  -7.027  0.00  0.00     0.044 C 
BRANCH  10  11
ATOM     11  C   UNL d   1      10.973   6.168  -5.508  0.00  0.00    -0.025 C 
ATOM     12  C   UNL d   1      12.016   6.165  -4.730  0.00  0.00    -0.005 C 
ENDBRANCH  10  11
ENDBRANCH   1  10
BRANCH   1  13
ATOM     13  C   UNL d   1      10.283   7.608  -9.195  0.00  0.00     0.017 C 
ATOM     14  C   UNL d   1       9.848   9.033  -9.657  0.00  0.00     0.001 C 
BRANCH  13  15
ATOM     15  C   UNL d   1       9.193   6.565  -9.558  0.00  0.00     0.001 C 
BRANCH  15  16
ATOM     16  C   UNL d   1       8.940   6.418 -11.056  0.00  0.00     0.000 C 
ATOM     17  C   UNL d   1       7.864   5.372 -11.340  0.00  0.00     0.000 C 
ENDBRANCH  15  16
ENDBRANCH  13  15
ENDBRANCH   1  13
TORSDOF 5
