REMARK  4 active torsions:
REMARK  status: ('A' for Active; 'I' for Inactive)
REMARK    1  A    between atoms: C_8  and  C_9 
REMARK    2  A    between atoms: C_9  and  C_10 
REMARK    3  A    between atoms: C_10  and  N_11 
REMARK    4  A    between atoms: N_14  and  C_15 
ROOT
ATOM      1  C   UNL d   1       9.046   6.245  -9.964  0.00  0.00     0.255 C 
ENDROOT
BRANCH   1   2
ATOM      2  C   UNL d   1      10.338   7.100 -10.027  0.00  0.00     0.068 C 
BRANCH   2   3
ATOM      3  C   UNL d   1      10.788   7.714  -8.680  0.00  0.00     0.050 C 
ATOM      4  C   UNL d   1      11.134   9.011  -8.534  0.00  0.00     0.061 C 
ATOM      5  C   UNL d   1      11.090   9.906  -9.715  0.00  0.00     0.052 C 
ATOM      6  N   UNL d   1      11.498   9.563  -7.295  0.00  0.00    -0.234 NA
ATOM      7  C   UNL d   1      11.657   8.773  -6.297  0.00  0.00     0.153 C 
ATOM      8  C   UNL d   1      12.147   9.309  -4.968  0.00  0.00     0.208 C 
ATOM      9  N   UNL d   1      11.390   7.380  -6.374  0.00  0.00    -0.283 N 
ATOM     10  C   UNL d   1      12.737   8.302  -3.959  0.00  0.00     0.043 C 
ATOM     11  O   UNL d   1      11.071  10.012  -4.382  0.00  0.00    -0.215 OA
ATOM     12  C   UNL d   1      11.907   7.044  -3.893  0.00  0.00     0.028 C 
ATOM     13  C   UNL d   1      11.720   6.436  -5.269  0.00  0.00     0.111 C 
ATOM     14  C   UNL d   1      10.917   6.856  -7.530  0.00  0.00     0.259 C 
ATOM     15  O   UNL d   1      10.660   5.696  -7.643  0.00  0.00    -0.267 OA
ENDBRANCH   2   3
ENDBRANCH   1   2
BRANCH   1  16
ATOM     16  N   UNL d   1       8.539   5.944 -11.294  0.00  0.00     0.141 N 
ATOM     17  C   UNL d   1       9.349   4.905 -11.917  0.00  0.00     0.274 C 
ATOM     18  C   UNL d   1       8.817   4.576 -13.298  0.00  0.00     0.137 C 
ATOM     19  N   UNL d   1       7.429   4.155 -13.252  0.00  0.00    -0.344 N 
ATOM     20  C   UNL d   1       6.563   5.056 -12.512  0.00  0.00     0.137 C 
ATOM     21  C   UNL d   1       7.186   5.390 -11.154  0.00  0.00     0.274 C 
BRANCH  19  22
ATOM     22  C   UNL d   1       6.976   2.903 -13.783  0.00  0.00     0.069 A 
ATOM     23  C   UNL d   1       7.533   2.166 -14.804  0.00  0.00     0.051 A 
ATOM     24  C   UNL d   1       6.882   1.036 -15.027  0.00  0.00     0.037 A 
ATOM     25  S   UNL d   1       8.896   2.454 -15.836  0.00  0.00    -0.084 SA
ATOM     26  S   UNL d   1       5.536   0.608 -14.056  0.00  0.00    -0.084 SA
ATOM     27  C   UNL d   1       7.420   0.290 -16.110  0.00  0.00     0.014 A 
ATOM     28  C   UNL d   1       5.863   2.188 -13.295  0.00  0.00     0.053 A 
ATOM     29  C   UNL d   1       8.537   0.919 -16.624  0.00  0.00     0.036 A 
ENDBRANCH  19  22
ENDBRANCH   1  16
TORSDOF 4
