REMARK  7 active torsions:
REMARK  status: ('A' for Active; 'I' for Inactive)
REMARK    1  A    between atoms: C_2  and  C_3 
REMARK       I    between atoms: C_2  and  N_10 
REMARK    2  A    between atoms: C_3  and  C_4 
REMARK    3  A    between atoms: N_10  and  C_11 
REMARK    4  A    between atoms: C_14  and  C_15 
REMARK    5  A    between atoms: C_15  and  C_16 
REMARK    6  A    between atoms: C_16  and  N_17 
REMARK    7  A    between atoms: C_20  and  C_21 
ROOT
ATOM      1  C   UNL d   1       9.278   5.782 -11.611  0.00  0.00     0.035 C 
ENDROOT
BRANCH   1   2
ATOM      2  C   UNL d   1       9.364   4.570 -12.550  0.00  0.00     0.002 C 
ATOM      3  C   UNL d   1       8.054   4.393 -13.334  0.00  0.00     0.002 C 
ATOM      4  C   UNL d   1       8.132   3.177 -14.268  0.00  0.00     0.024 C 
ATOM      5  C   UNL d   1       9.324   3.324 -15.230  0.00  0.00     0.106 C 
ATOM      6  C   UNL d   1      10.650   3.499 -14.453  0.00  0.00     0.024 C 
ATOM      7  C   UNL d   1      10.556   4.691 -13.514  0.00  0.00     0.002 C 
BRANCH   5   8
ATOM      8  N   UNL d   1       9.411   2.176 -16.125  0.00  0.00    -0.240 NA
ATOM      9  C   UNL d   1      10.099   2.105 -17.270  0.00  0.00     0.254 C 
ATOM     10  O   UNL d   1      10.106   1.063 -17.926  0.00  0.00    -0.271 OA
BRANCH   9  11
ATOM     11  C   UNL d   1      10.899   3.327 -17.741  0.00  0.00     0.122 C 
BRANCH  11  12
ATOM     12  C   UNL d   1      10.734   3.691 -19.233  0.00  0.00     0.154 C 
ATOM     13  O   UNL d   1      11.694   4.699 -19.577  0.00  0.00    -0.351 OA
ATOM     14  C   UNL d   1      11.469   5.972 -18.957  0.00  0.00     0.174 C 
ATOM     15  C   UNL d   1      10.060   6.457 -19.339  0.00  0.00     0.174 C 
ATOM     16  O   UNL d   1       9.101   5.479 -18.945  0.00  0.00    -0.349 OA
ATOM     17  C   UNL d   1       9.326   4.229 -19.595  0.00  0.00     0.172 C 
ENDBRANCH  11  12
ENDBRANCH   9  11
ENDBRANCH   5   8
ENDBRANCH   1   2
BRANCH   1  18
ATOM     18  C   UNL d   1       8.673   5.441 -10.229  0.00  0.00     0.250 C 
BRANCH  18  19
ATOM     19  N   UNL d   1       9.142   6.314  -9.152  0.00  0.00     0.137 N 
ATOM     20  C   UNL d   1       8.617   5.813  -7.877  0.00  0.00     0.251 C 
ATOM     21  C   UNL d   1       9.010   6.748  -6.718  0.00  0.00     0.040 C 
ATOM     22  C   UNL d   1      10.533   6.935  -6.640  0.00  0.00     0.028 C 
ATOM     23  C   UNL d   1      11.075   7.323  -8.014  0.00  0.00     0.040 C 
ATOM     24  C   UNL d   1      10.601   6.360  -9.085  0.00  0.00     0.251 C 
BRANCH  22  25
ATOM     25  C   UNL d   1      10.922   7.972  -5.599  0.00  0.00     0.002 A 
ATOM     26  C   UNL d   1      11.539   7.618  -4.394  0.00  0.00     0.115 A 
ATOM     27  C   UNL d   1      11.875   8.570  -3.442  0.00  0.00     0.119 A 
ATOM     28  O   UNL d   1      11.863   6.399  -3.916  0.00  0.00    -0.300 OA
ATOM     29  C   UNL d   1      11.595   9.928  -3.641  0.00  0.00     0.026 A 
ATOM     30  O   UNL d   1      12.427   7.967  -2.357  0.00  0.00    -0.300 OA
ATOM     31  C   UNL d   1      11.013  10.308  -4.870  0.00  0.00     0.002 A 
ATOM     32  C   UNL d   1      10.662   9.345  -5.835  0.00  0.00    -0.002 A 
ATOM     33  C   UNL d   1      12.418   6.594  -2.643  0.00  0.00     0.304 A 
ENDBRANCH  22  25
ENDBRANCH  18  19
ENDBRANCH   1  18
TORSDOF 7
