REMARK  7 active torsions:
REMARK  status: ('A' for Active; 'I' for Inactive)
REMARK    1  A    between atoms: C_4  and  C_5 
REMARK    2  A    between atoms: C_5  and  C_6 
REMARK    3  A    between atoms: C_11  and  O_12 
REMARK    4  A    between atoms: O_12  and  C_13 
REMARK    5  A    between atoms: C_13  and  C_14 
REMARK    6  A    between atoms: C_14  and  N_15 
REMARK    7  A    between atoms: N_18  and  C_19 
ROOT
ATOM      1  O   UNL d   1       9.487   5.933 -11.902  0.00  0.00    -0.329 OA
ENDROOT
BRANCH   1   2
ATOM      2  C   UNL d   1       8.465   5.191 -12.459  0.00  0.00     0.090 A 
ATOM      3  C   UNL d   1       8.817   4.126 -13.323  0.00  0.00     0.004 A 
ATOM      4  C   UNL d   1       7.806   3.325 -13.903  0.00  0.00    -0.002 A 
ATOM      5  C   UNL d   1       6.454   3.582 -13.639  0.00  0.00    -0.000 A 
ATOM      6  C   UNL d   1       6.100   4.641 -12.787  0.00  0.00     0.002 A 
ATOM      7  C   UNL d   1       7.094   5.442 -12.201  0.00  0.00     0.024 A 
BRANCH   3   8
ATOM      8  C   UNL d   1      10.287   3.822 -13.597  0.00  0.00     0.055 C 
BRANCH   8   9
ATOM      9  C   UNL d   1      10.542   3.281 -14.989  0.00  0.00    -0.018 A 
ATOM     10  C   UNL d   1      10.674   1.891 -15.196  0.00  0.00    -0.004 A 
ATOM     11  C   UNL d   1      10.876   1.389 -16.496  0.00  0.00    -0.000 A 
ATOM     12  C   UNL d   1      10.945   2.274 -17.590  0.00  0.00    -0.000 A 
ATOM     13  C   UNL d   1      10.814   3.662 -17.384  0.00  0.00    -0.000 A 
ATOM     14  C   UNL d   1      10.610   4.165 -16.086  0.00  0.00    -0.004 A 
ENDBRANCH   8   9
ENDBRANCH   3   8
ENDBRANCH   1   2
BRANCH   1  15
ATOM     15  C   UNL d   1       9.169   6.844 -10.858  0.00  0.00     0.184 C 
BRANCH  15  16
ATOM     16  C   UNL d   1      10.473   7.266 -10.147  0.00  0.00     0.283 C 
BRANCH  16  17
ATOM     17  N   UNL d   1      10.252   7.965  -8.877  0.00  0.00     0.144 N 
ATOM     18  C   UNL d   1      11.519   8.534  -8.403  0.00  0.00     0.274 C 
ATOM     19  C   UNL d   1      11.313   9.323  -7.086  0.00  0.00     0.137 C 
ATOM     20  N   UNL d   1      10.667   8.473  -6.104  0.00  0.00    -0.344 N 
ATOM     21  C   UNL d   1       9.472   7.771  -6.543  0.00  0.00     0.137 C 
ATOM     22  C   UNL d   1       9.741   7.032  -7.861  0.00  0.00     0.274 C 
BRANCH  20  23
ATOM     23  C   UNL d   1      11.232   8.269  -4.846  0.00  0.00     0.056 A 
ATOM     24  C   UNL d   1      11.465   6.963  -4.369  0.00  0.00     0.017 A 
ATOM     25  C   UNL d   1      12.004   6.771  -3.083  0.00  0.00     0.002 A 
ATOM     26  C   UNL d   1      12.287   7.876  -2.264  0.00  0.00     0.000 A 
ATOM     27  C   UNL d   1      12.053   9.177  -2.735  0.00  0.00     0.002 A 
ATOM     28  C   UNL d   1      11.528   9.376  -4.026  0.00  0.00     0.017 A 
ENDBRANCH  20  23
ENDBRANCH  16  17
ENDBRANCH  15  16
ENDBRANCH   1  15
TORSDOF 7
