REMARK  2 active torsions:
REMARK  status: ('A' for Active; 'I' for Inactive)
REMARK    1  A    between atoms: O_2  and  C_3 
REMARK    2  A    between atoms: C_7  and  O_8 
ROOT
ATOM      1  C   UNL d   1       9.686   7.394  -9.522  0.00  0.00     0.121 A 
ATOM      2  C   UNL d   1       9.793   7.396 -10.929  0.00  0.00     0.024 A 
ATOM      3  C   UNL d   1       9.305   6.308 -11.705  0.00  0.00     0.011 A 
ATOM      4  C   UNL d   1       8.708   5.213 -11.063  0.00  0.00     0.003 A 
ATOM      5  C   UNL d   1       8.637   5.182  -9.662  0.00  0.00     0.117 A 
ATOM      6  C   UNL d   1       9.089   6.284  -8.886  0.00  0.00     0.175 A 
ATOM      7  O   UNL d   1       8.867   6.340  -7.546  0.00  0.00    -0.186 OA
ATOM      8  C   UNL d   1       8.220   4.052 -11.927  0.00  0.00     0.066 C 
ATOM      9  C   UNL d   1       8.066   4.344 -13.436  0.00  0.00     0.246 C 
ATOM     10  C   UNL d   1       7.739   3.090 -14.254  0.00  0.00     0.007 A 
ATOM     11  C   UNL d   1       6.662   2.241 -13.875  0.00  0.00     0.024 A 
ATOM     12  C   UNL d   1       6.394   1.104 -14.648  0.00  0.00     0.119 A 
ATOM     13  C   UNL d   1       7.108   0.822 -15.790  0.00  0.00     0.119 A 
ATOM     14  C   UNL d   1       8.155   1.661 -16.224  0.00  0.00     0.022 A 
ATOM     15  C   UNL d   1       8.460   2.793 -15.455  0.00  0.00    -0.020 A 
ATOM     16  C   UNL d   1       9.548   3.748 -15.916  0.00  0.00     0.061 C 
ATOM     17  C   UNL d   1       9.411   5.122 -15.272  0.00  0.00     0.256 C 
ATOM     18  N   UNL d   1       9.331   4.976 -13.828  0.00  0.00     0.144 N 
ATOM     19  C   UNL d   1       9.343   6.304 -13.174  0.00  0.00     0.277 C 
ATOM     20  O   UNL d   1       6.621  -0.310 -16.359  0.00  0.00    -0.300 OA
ATOM     21  C   UNL d   1       5.606  -0.767 -15.502  0.00  0.00     0.304 A 
ATOM     22  O   UNL d   1       5.475   0.129 -14.427  0.00  0.00    -0.300 OA
ENDROOT
BRANCH   1  23
ATOM     23  O   UNL d   1      10.045   8.463  -8.739  0.00  0.00    -0.326 OA
ATOM     24  C   UNL d   1      11.254   9.102  -9.089  0.00  0.00     0.181 C 
ENDBRANCH   1  23
BRANCH   5  25
ATOM     25  O   UNL d   1       8.076   4.079  -9.110  0.00  0.00    -0.326 OA
ATOM     26  C   UNL d   1       8.986   3.301  -8.439  0.00  0.00     0.181 C 
ENDBRANCH   5  25
TORSDOF 2
