REMARK  8 active torsions:
REMARK  status: ('A' for Active; 'I' for Inactive)
REMARK    1  A    between atoms: O_2  and  C_3 
REMARK    2  A    between atoms: C_8  and  N_9 
REMARK    3  A    between atoms: N_15  and  C_16 
REMARK    4  A    between atoms: C_16  and  C_17 
REMARK    5  A    between atoms: C_17  and  C_18 
REMARK    6  A    between atoms: C_18  and  S_19 
REMARK    7  A    between atoms: S_19  and  C_20 
REMARK    8  A    between atoms: C_23  and  C_24 
ROOT
ATOM      1  N   UNL d   1       7.870  -1.267 -18.496  0.00  0.00    -0.347 N 
ATOM      2  C   UNL d   1       7.157  -0.557 -17.449  0.00  0.00     0.102 C 
ATOM      3  C   UNL d   1       7.660   0.882 -17.364  0.00  0.00     0.024 C 
ATOM      4  C   UNL d   1       9.212   0.941 -17.209  0.00  0.00     0.008 C 
ATOM      5  C   UNL d   1       9.691   0.345 -15.858  0.00  0.00     0.035 C 
ATOM      6  C   UNL d   1       9.182   1.166 -14.665  0.00  0.00     0.250 C 
ATOM      7  N   UNL d   1       9.682   2.545 -14.765  0.00  0.00     0.137 N 
ATOM      8  C   UNL d   1       9.167   3.165 -15.993  0.00  0.00     0.250 C 
ATOM      9  C   UNL d   1       9.666   2.414 -17.232  0.00  0.00     0.035 C 
ATOM     10  C   UNL d   1       9.852   0.176 -18.402  0.00  0.00     0.024 C 
ATOM     11  C   UNL d   1       9.323  -1.271 -18.514  0.00  0.00     0.102 C 
ENDROOT
BRANCH   7  12
ATOM     12  C   UNL d   1       9.199   3.284 -13.604  0.00  0.00     0.251 C 
BRANCH  12  13
ATOM     13  C   UNL d   1       9.841   4.682 -13.489  0.00  0.00     0.047 C 
BRANCH  13  14
ATOM     14  C   UNL d   1       8.869   5.712 -12.916  0.00  0.00     0.067 C 
BRANCH  14  15
ATOM     15  S   UNL d   1       8.391   5.312 -11.209  0.00  0.00    -0.077 SA
BRANCH  15  16
ATOM     16  C   UNL d   1       9.325   6.500 -10.303  0.00  0.00     0.171 A 
ATOM     17  N   UNL d   1       9.518   6.391  -8.972  0.00  0.00    -0.305 N 
ATOM     18  C   UNL d   1      10.276   7.517  -8.604  0.00  0.00     0.081 A 
ATOM     19  C   UNL d   1       8.998   5.324  -8.132  0.00  0.00     0.133 C 
ATOM     20  C   UNL d   1      10.463   8.246  -9.752  0.00  0.00     0.118 A 
ATOM     21  N   UNL d   1       9.854   7.601 -10.812  0.00  0.00    -0.220 NA
BRANCH  18  22
ATOM     22  C   UNL d   1      10.702   7.837  -7.238  0.00  0.00     0.017 A 
ATOM     23  C   UNL d   1      11.181   6.856  -6.343  0.00  0.00     0.002 A 
ATOM     24  C   UNL d   1      11.470   7.182  -5.009  0.00  0.00     0.000 A 
ATOM     25  C   UNL d   1      11.455   8.526  -4.570  0.00  0.00     0.000 A 
ATOM     26  C   UNL d   1      11.065   9.534  -5.474  0.00  0.00     0.000 A 
ATOM     27  C   UNL d   1      10.668   9.189  -6.787  0.00  0.00     0.002 A 
ENDBRANCH  18  22
ENDBRANCH  15  16
ENDBRANCH  14  15
ENDBRANCH  13  14
ENDBRANCH  12  13
ENDBRANCH   7  12
BRANCH   1  28
ATOM     28  C   UNL d   1       7.133  -1.882 -19.542  0.00  0.00     0.079 A 
ATOM     29  C   UNL d   1       6.131  -1.176 -20.232  0.00  0.00     0.110 A 
ATOM     30  C   UNL d   1       5.429  -1.847 -21.274  0.00  0.00     0.026 A 
ATOM     31  C   UNL d   1       5.721  -3.185 -21.597  0.00  0.00     0.002 A 
ATOM     32  C   UNL d   1       6.718  -3.874 -20.896  0.00  0.00     0.002 A 
ATOM     33  C   UNL d   1       7.426  -3.215 -19.864  0.00  0.00     0.019 A 
BRANCH  29  34
ATOM     34  O   UNL d   1       5.882   0.144 -19.906  0.00  0.00    -0.327 OA
ATOM     35  C   UNL d   1       4.793   0.815 -20.514  0.00  0.00     0.181 C 
ENDBRANCH  29  34
ENDBRANCH   1  28
TORSDOF 8
