REMARK  7 active torsions:
REMARK  status: ('A' for Active; 'I' for Inactive)
REMARK    1  A    between atoms: S_2  and  C_4 
REMARK    2  A    between atoms: S_2  and  C_23 
REMARK    3  A    between atoms: C_4  and  C_5 
REMARK    4  A    between atoms: N_8  and  C_9 
REMARK    5  A    between atoms: C_9  and  C_10 
REMARK    6  A    between atoms: C_10  and  C_11 
REMARK    7  A    between atoms: C_11  and  C_12 
ROOT
ATOM      1  C   UNL d   1       7.503   5.382 -11.836  0.00  0.00     0.052 C 
ATOM      2  C   UNL d   1       7.780   6.399 -12.927  0.00  0.00     0.038 C 
ATOM      3  C   UNL d   1       9.078   7.066 -12.517  0.00  0.00     0.250 C 
ATOM      4  N   UNL d   1       9.126   6.903 -11.078  0.00  0.00     0.137 N 
ATOM      5  C   UNL d   1       8.677   5.532 -10.845  0.00  0.00     0.251 C 
ENDROOT
BRANCH   4   6
ATOM      6  C   UNL d   1      10.395   7.263 -10.488  0.00  0.00     0.251 C 
BRANCH   6   7
ATOM      7  C   UNL d   1      10.207   7.728  -9.057  0.00  0.00     0.042 C 
BRANCH   7   8
ATOM      8  C   UNL d   1      11.543   8.008  -8.379  0.00  0.00     0.050 C 
BRANCH   8   9
ATOM      9  C   UNL d   1      11.379   8.714  -7.078  0.00  0.00     0.088 A 
ATOM     10  C   UNL d   1      11.437   8.206  -5.752  0.00  0.00     0.041 A 
ATOM     11  C   UNL d   1      11.393   9.290  -4.875  0.00  0.00     0.129 A 
ATOM     12  C   UNL d   1      11.661   6.898  -5.261  0.00  0.00     0.006 A 
ATOM     13  O   UNL d   1      11.242  10.408  -5.660  0.00  0.00    -0.211 OA
ATOM     14  C   UNL d   1      11.560   9.155  -3.486  0.00  0.00     0.057 A 
ATOM     15  N   UNL d   1      11.262  10.021  -7.029  0.00  0.00    -0.131 NA
ATOM     16  C   UNL d   1      11.812   7.868  -2.979  0.00  0.00     0.142 A 
ATOM     17  F   UNL d   1      11.916   7.668  -1.641  0.00  0.00    -0.204 F 
ATOM     18  C   UNL d   1      11.859   6.760  -3.863  0.00  0.00     0.030 A 
ENDBRANCH   8   9
ENDBRANCH   7   8
ENDBRANCH   6   7
ENDBRANCH   4   6
BRANCH   1  19
ATOM     19  C   UNL d   1       7.441   3.978 -12.382  0.00  0.00     0.129 C 
BRANCH  19  20
ATOM     20  S   UNL d   1       5.886   3.363 -13.110  0.00  0.00     0.190 S 
ATOM     21  O   UNL d   1       5.200   2.688 -12.021  0.00  0.00    -0.222 OA
ATOM     22  O   UNL d   1       5.198   4.420 -13.861  0.00  0.00    -0.222 OA
BRANCH  20  23
ATOM     23  C   UNL d   1       6.396   2.090 -14.261  0.00  0.00     0.085 A 
ATOM     24  C   UNL d   1       7.421   2.324 -15.193  0.00  0.00     0.022 A 
ATOM     25  C   UNL d   1       7.767   1.333 -16.124  0.00  0.00     0.058 A 
ATOM     26  C   UNL d   1       7.090   0.090 -16.119  0.00  0.00     0.011 A 
ATOM     27 CL   UNL d   1       9.024   1.643 -17.276  0.00  0.00    -0.082 Cl
ATOM     28  C   UNL d   1       6.071  -0.153 -15.176  0.00  0.00     0.002 A 
ATOM     29  C   UNL d   1       5.725   0.845 -14.246  0.00  0.00     0.011 A 
ENDBRANCH  20  23
ENDBRANCH  19  20
ENDBRANCH   1  19
TORSDOF 7
