REMARK  9 active torsions:
REMARK  status: ('A' for Active; 'I' for Inactive)
REMARK    1  A    between atoms: C_2  and  O_3 
REMARK    2  A    between atoms: O_3  and  C_4 
REMARK    3  A    between atoms: C_9  and  N_10 
REMARK    4  A    between atoms: N_13  and  C_14 
REMARK    5  A    between atoms: C_14  and  C_15 
REMARK    6  A    between atoms: C_15  and  C_16 
REMARK    7  A    between atoms: C_16  and  C_17 
REMARK    8  A    between atoms: C_17  and  O_18 
REMARK    9  A    between atoms: O_18  and  C_19 
ROOT
ATOM      1  C   UNL d   1       9.410   6.680 -12.532  0.00  0.00     0.251 C 
ENDROOT
BRANCH   1   2
ATOM      2  N   UNL d   1       9.756   5.348 -12.020  0.00  0.00     0.141 N 
ATOM      3  C   UNL d   1      10.510   4.606 -13.026  0.00  0.00     0.274 C 
ATOM      4  C   UNL d   1       9.664   4.420 -14.296  0.00  0.00     0.137 C 
ATOM      5  N   UNL d   1       8.415   3.731 -13.940  0.00  0.00    -0.343 N 
ATOM      6  C   UNL d   1       7.648   4.280 -12.821  0.00  0.00     0.137 C 
ATOM      7  C   UNL d   1       8.603   4.519 -11.609  0.00  0.00     0.274 C 
BRANCH   5   8
ATOM      8  C   UNL d   1       7.992   2.527 -14.545  0.00  0.00     0.079 A 
ATOM      9  C   UNL d   1       8.908   1.510 -14.911  0.00  0.00     0.109 A 
ATOM     10  C   UNL d   1       8.489   0.347 -15.588  0.00  0.00     0.026 A 
ATOM     11  C   UNL d   1       7.147   0.181 -15.902  0.00  0.00     0.002 A 
ATOM     12  C   UNL d   1       6.227   1.148 -15.498  0.00  0.00     0.002 A 
ATOM     13  C   UNL d   1       6.652   2.317 -14.834  0.00  0.00     0.019 A 
BRANCH   9  14
ATOM     14  O   UNL d   1      10.199   1.728 -14.591  0.00  0.00    -0.329 OA
BRANCH  14  15
ATOM     15  C   UNL d   1      11.183   0.878 -15.114  0.00  0.00     0.149 C 
ATOM     16  C   UNL d   1      11.393   0.903 -16.658  0.00  0.00     0.035 C 
ENDBRANCH  14  15
ENDBRANCH   9  14
ENDBRANCH   5   8
ENDBRANCH   1   2
BRANCH   1  17
ATOM     17  C   UNL d   1       8.954   7.578 -11.417  0.00  0.00     0.038 C 
BRANCH  17  18
ATOM     18  C   UNL d   1      10.036   8.076 -10.457  0.00  0.00     0.035 C 
BRANCH  18  19
ATOM     19  C   UNL d   1       9.514   9.159  -9.475  0.00  0.00     0.149 C 
BRANCH  19  20
ATOM     20  O   UNL d   1      10.616   9.463  -8.607  0.00  0.00    -0.331 OA
BRANCH  20  21
ATOM     21  C   UNL d   1      10.690   8.726  -7.431  0.00  0.00     0.096 A 
ATOM     22  C   UNL d   1      11.567   9.192  -6.414  0.00  0.00     0.043 A 
ATOM     23  C   UNL d   1      11.709   8.447  -5.209  0.00  0.00     0.082 A 
ATOM     24  C   UNL d   1      10.964   7.264  -5.025  0.00  0.00    -0.004 A 
ATOM     25  N   UNL d   1      12.584   8.902  -4.162  0.00  0.00    -0.212 NA
ATOM     26  C   UNL d   1      10.052   6.846  -6.004  0.00  0.00    -0.001 A 
ATOM     27  C   UNL d   1      11.139   6.456  -3.762  0.00  0.00     0.038 C 
ATOM     28  C   UNL d   1       9.926   7.545  -7.203  0.00  0.00     0.024 A 
ATOM     29  C   UNL d   1      11.516   7.317  -2.562  0.00  0.00     0.095 C 
ATOM     30  C   UNL d   1      12.547   8.396  -2.907  0.00  0.00     0.256 C 
ATOM     31  O   UNL d   1      13.286   8.785  -2.005  0.00  0.00    -0.270 OA
ENDBRANCH  20  21
ENDBRANCH  19  20
ENDBRANCH  18  19
ENDBRANCH  17  18
ENDBRANCH   1  17
TORSDOF 9
