REMARK  4 active torsions:
REMARK  status: ('A' for Active; 'I' for Inactive)
REMARK       I    between atoms: N_10  and  C_11 
REMARK    1  A    between atoms: C_11  and  C_13 
REMARK    2  A    between atoms: C_13  and  C_14 
REMARK    3  A    between atoms: N_17  and  C_18 
REMARK    4  A    between atoms: C_18  and  C_19 
ROOT
ATOM      1  C   UNL d   1       9.276   5.121 -10.968  0.00  0.00     0.013 C 
ATOM      2  C   UNL d   1       8.027   5.074 -10.079  0.00  0.00     0.036 C 
ATOM      3  C   UNL d   1       8.378   5.181  -8.584  0.00  0.00     0.251 C 
ATOM      4  N   UNL d   1       9.127   6.423  -8.347  0.00  0.00     0.141 N 
ATOM      5  C   UNL d   1      10.385   6.338  -9.082  0.00  0.00     0.251 C 
ATOM      6  C   UNL d   1      10.060   6.372 -10.567  0.00  0.00     0.036 C 
ENDROOT
BRANCH   1   7
ATOM      7  C   UNL d   1       8.948   5.210 -12.461  0.00  0.00     0.088 C 
BRANCH   7   8
ATOM      8  C   UNL d   1       9.907   4.401 -13.351  0.00  0.00     0.237 C 
ATOM      9  N   UNL d   1       9.470   3.308 -14.045  0.00  0.00    -0.301 N 
ATOM     10  C   UNL d   1      10.449   2.472 -14.803  0.00  0.00     0.093 C 
ATOM     11  C   UNL d   1       8.179   2.686 -14.096  0.00  0.00     0.058 C 
ATOM     12  C   UNL d   1      10.913   3.181 -16.098  0.00  0.00     0.025 C 
ATOM     13  C   UNL d   1       9.727   1.139 -15.112  0.00  0.00     0.051 C 
ATOM     14  C   UNL d   1       8.309   1.404 -14.650  0.00  0.00    -0.004 C 
ATOM     15  C   UNL d   1       7.223   0.522 -14.793  0.00  0.00    -0.003 C 
ATOM     16  C   UNL d   1       5.962   0.926 -14.290  0.00  0.00    -0.000 C 
ATOM     17  C   UNL d   1       5.839   2.220 -13.709  0.00  0.00     0.002 C 
ATOM     18  C   UNL d   1       6.894   3.137 -13.693  0.00  0.00     0.017 C 
ATOM     19  O   UNL d   1      11.087   4.801 -13.453  0.00  0.00    -0.272 OA
ENDBRANCH   7   8
ENDBRANCH   1   7
BRANCH   4  20
ATOM     20  C   UNL d   1       9.339   6.559  -6.907  0.00  0.00     0.277 C 
BRANCH  20  21
ATOM     21  C   UNL d   1      10.211   7.717  -6.480  0.00  0.00     0.013 A 
ATOM     22  C   UNL d   1      10.947   7.675  -5.275  0.00  0.00     0.027 A 
ATOM     23  C   UNL d   1      11.831   8.720  -4.927  0.00  0.00     0.140 A 
ATOM     24  C   UNL d   1      12.023   9.790  -5.811  0.00  0.00     0.030 A 
ATOM     25  F   UNL d   1      12.502   8.703  -3.749  0.00  0.00    -0.204 F 
ATOM     26  C   UNL d   1      11.278   9.841  -7.000  0.00  0.00     0.002 A 
ATOM     27  C   UNL d   1      10.344   8.828  -7.328  0.00  0.00    -0.002 A 
ENDBRANCH  20  21
ENDBRANCH   4  20
TORSDOF 4
