REMARK  9 active torsions:
REMARK  status: ('A' for Active; 'I' for Inactive)
REMARK    1  A    between atoms: O_2  and  C_3 
REMARK    2  A    between atoms: C_9  and  N_10 
REMARK    3  A    between atoms: N_13  and  C_14 
REMARK    4  A    between atoms: C_14  and  C_15 
REMARK    5  A    between atoms: C_15  and  C_16 
REMARK    6  A    between atoms: C_16  and  C_17 
REMARK    7  A    between atoms: C_17  and  N_18 
REMARK       I    between atoms: N_18  and  C_19 
REMARK    8  A    between atoms: C_19  and  C_21 
REMARK    9  A    between atoms: C_25  and  C_26 
ROOT
ATOM      1  C   UNL d   1       9.873   6.365 -11.150  0.00  0.00     0.251 C 
ENDROOT
BRANCH   1   2
ATOM      2  N   UNL d   1       9.485   6.752  -9.803  0.00  0.00     0.141 N 
ATOM      3  C   UNL d   1       9.495   8.218  -9.716  0.00  0.00     0.274 C 
ATOM      4  C   UNL d   1       9.078   8.629  -8.289  0.00  0.00     0.138 C 
ATOM      5  N   UNL d   1       9.964   8.021  -7.306  0.00  0.00    -0.328 N 
ATOM      6  C   UNL d   1      10.153   6.590  -7.433  0.00  0.00     0.138 C 
ATOM      7  C   UNL d   1      10.503   6.270  -8.874  0.00  0.00     0.274 C 
BRANCH   5   8
ATOM      8  C   UNL d   1      10.636   8.790  -6.367  0.00  0.00     0.169 A 
ATOM      9  N   UNL d   1      10.798  10.092  -6.548  0.00  0.00    -0.109 NA
ATOM     10  O   UNL d   1      11.409  10.614  -5.391  0.00  0.00    -0.210 OA
ATOM     11  C   UNL d   1      11.658   9.576  -4.515  0.00  0.00     0.128 A 
ATOM     12  C   UNL d   1      12.248   9.589  -3.266  0.00  0.00     0.029 A 
ATOM     13  C   UNL d   1      11.182   8.410  -5.123  0.00  0.00     0.063 A 
ATOM     14  C   UNL d   1      12.358   8.386  -2.564  0.00  0.00     0.026 A 
ATOM     15  C   UNL d   1      11.854   7.189  -3.134  0.00  0.00     0.094 A 
ATOM     16  C   UNL d   1      11.276   7.185  -4.420  0.00  0.00     0.029 A 
BRANCH  15  17
ATOM     17  O   UNL d   1      11.873   6.021  -2.436  0.00  0.00    -0.328 OA
ATOM     18  C   UNL d   1      13.058   5.765  -1.732  0.00  0.00     0.181 C 
ENDBRANCH  15  17
ENDBRANCH   5   8
ENDBRANCH   1   2
BRANCH   1  19
ATOM     19  C   UNL d   1       9.410   4.946 -11.514  0.00  0.00     0.037 C 
BRANCH  19  20
ATOM     20  C   UNL d   1       9.781   4.550 -12.953  0.00  0.00     0.029 C 
BRANCH  20  21
ATOM     21  C   UNL d   1       9.162   3.209 -13.378  0.00  0.00     0.129 C 
BRANCH  21  22
ATOM     22  N   UNL d   1       9.629   2.817 -14.697  0.00  0.00    -0.234 NA
ATOM     23  C   UNL d   1       9.280   1.688 -15.331  0.00  0.00     0.275 C 
ATOM     24  O   UNL d   1       8.384   0.943 -14.931  0.00  0.00    -0.266 OA
BRANCH  23  25
ATOM     25  C   UNL d   1      10.053   1.385 -16.593  0.00  0.00     0.058 A 
ATOM     26  C   UNL d   1      11.224   2.110 -16.933  0.00  0.00     0.008 A 
ATOM     27  C   UNL d   1      11.969   1.827 -18.100  0.00  0.00     0.038 A 
ATOM     28  C   UNL d   1      11.537   0.765 -18.924  0.00  0.00     0.003 A 
ATOM     29  C   UNL d   1      10.391   0.017 -18.596  0.00  0.00     0.000 A 
ATOM     30  C   UNL d   1       9.656   0.318 -17.433  0.00  0.00     0.005 A 
BRANCH  27  31
ATOM     31  C   UNL d   1      13.165   2.629 -18.436  0.00  0.00     0.191 A 
ATOM     32  N   UNL d   1      13.361   3.873 -17.914  0.00  0.00    -0.203 NA
ATOM     33  C   UNL d   1      14.523   4.191 -18.480  0.00  0.00     0.185 A 
ATOM     34  O   UNL d   1      15.027   3.226 -19.289  0.00  0.00    -0.195 OA
ATOM     35  C   UNL d   1      15.293   5.456 -18.312  0.00  0.00     0.083 C 
ATOM     36  N   UNL d   1      14.103   2.172 -19.256  0.00  0.00    -0.105 NA
ENDBRANCH  27  31
ENDBRANCH  23  25
ENDBRANCH  21  22
ENDBRANCH  20  21
ENDBRANCH  19  20
ENDBRANCH   1  19
TORSDOF 9
