REMARK  5 active torsions:
REMARK  status: ('A' for Active; 'I' for Inactive)
REMARK    1  A    between atoms: C_8  and  O_9 
REMARK    2  A    between atoms: O_9  and  C_10 
REMARK    3  A    between atoms: C_14  and  C_15 
REMARK    4  A    between atoms: C_15  and  N_16 
REMARK    5  A    between atoms: N_19  and  C_20 
ROOT
ATOM      1  C   UNL d   1       7.241   1.243 -14.458  0.00  0.00     0.100 A 
ATOM      2  C   UNL d   1       6.247   0.335 -14.043  0.00  0.00     0.025 A 
ATOM      3  C   UNL d   1       5.176   0.785 -13.242  0.00  0.00     0.002 A 
ATOM      4  C   UNL d   1       5.097   2.136 -12.838  0.00  0.00    -0.002 A 
ATOM      5  C   UNL d   1       6.072   3.057 -13.265  0.00  0.00     0.013 A 
ATOM      6  C   UNL d   1       7.134   2.603 -14.080  0.00  0.00     0.022 A 
ENDROOT
BRANCH   5   7
ATOM      7  C   UNL d   1       6.012   4.521 -12.844  0.00  0.00     0.277 C 
BRANCH   7   8
ATOM      8  N   UNL d   1       7.321   5.167 -12.710  0.00  0.00     0.145 N 
ATOM      9  C   UNL d   1       8.055   4.529 -11.619  0.00  0.00     0.275 C 
ATOM     10  C   UNL d   1       9.455   5.111 -11.445  0.00  0.00     0.137 C 
ATOM     11  N   UNL d   1       9.373   6.533 -11.212  0.00  0.00    -0.344 N 
ATOM     12  C   UNL d   1       8.544   7.257 -12.167  0.00  0.00     0.137 C 
ATOM     13  C   UNL d   1       7.160   6.571 -12.338  0.00  0.00     0.275 C 
BRANCH  11  14
ATOM     14  C   UNL d   1       9.898   7.143 -10.052  0.00  0.00     0.068 A 
ATOM     15  C   UNL d   1       9.631   6.701  -8.729  0.00  0.00     0.084 A 
ATOM     16  C   UNL d   1      10.254   7.342  -7.637  0.00  0.00     0.070 A 
ATOM     17 CL   UNL d   1       8.572   5.375  -8.413  0.00  0.00    -0.080 Cl
ATOM     18  C   UNL d   1      11.173   8.379  -7.837  0.00  0.00     0.012 A 
ATOM     19 CL   UNL d   1       9.936   6.864  -6.024  0.00  0.00    -0.081 Cl
ATOM     20  C   UNL d   1      11.451   8.805  -9.144  0.00  0.00     0.002 A 
ATOM     21  C   UNL d   1      10.792   8.218 -10.235  0.00  0.00     0.018 A 
ENDBRANCH  11  14
ENDBRANCH   7   8
ENDBRANCH   5   7
BRANCH   1  22
ATOM     22  O   UNL d   1       8.310   0.768 -15.191  0.00  0.00    -0.307 OA
BRANCH  22  23
ATOM     23  C   UNL d   1       8.989   1.655 -15.986  0.00  0.00     0.102 A 
ATOM     24  C   UNL d   1       8.531   1.919 -17.294  0.00  0.00     0.025 A 
ATOM     25  C   UNL d   1       9.192   2.872 -18.093  0.00  0.00    -0.001 A 
ATOM     26  C   UNL d   1      10.315   3.556 -17.587  0.00  0.00    -0.004 A 
ATOM     27  C   UNL d   1      11.030   4.613 -18.409  0.00  0.00     0.038 C 
ATOM     28  C   UNL d   1      10.782   3.283 -16.281  0.00  0.00     0.082 A 
ATOM     29  C   UNL d   1      12.525   4.701 -18.039  0.00  0.00     0.095 C 
ATOM     30  C   UNL d   1      12.751   4.705 -16.520  0.00  0.00     0.256 C 
ATOM     31  O   UNL d   1      13.691   5.325 -16.034  0.00  0.00    -0.270 OA
ATOM     32  N   UNL d   1      11.905   3.982 -15.768  0.00  0.00    -0.212 NA
ATOM     33  C   UNL d   1      10.118   2.334 -15.481  0.00  0.00     0.044 A 
ENDBRANCH  22  23
ENDBRANCH   1  22
TORSDOF 5
