REMARK  6 active torsions:
REMARK  status: ('A' for Active; 'I' for Inactive)
REMARK    1  A    between atoms: C_2  and  C_4 
REMARK    2  A    between atoms: C_4  and  C_5 
REMARK    3  A    between atoms: C_9  and  C_10 
REMARK    4  A    between atoms: C_10  and  C_11 
REMARK    5  A    between atoms: C_20  and  N_22 
REMARK       I    between atoms: N_22  and  C_23 
REMARK    6  A    between atoms: C_23  and  C_25 
ROOT
ATOM      1  C   UNL d   1      11.142   1.270 -16.860  0.00  0.00     0.169 C 
ATOM      2  C   UNL d   1      10.142   0.566 -15.939  0.00  0.00     0.272 C 
ATOM      3  O   UNL d   1      10.513   0.189 -14.836  0.00  0.00    -0.269 OA
ATOM      4  N   UNL d   1       8.886   0.380 -16.361  0.00  0.00    -0.231 NA
ATOM      5  C   UNL d   1       8.315   0.786 -17.649  0.00  0.00     0.186 C 
ATOM      6  C   UNL d   1       9.227   1.736 -18.457  0.00  0.00     0.319 C 
ATOM      7  O   UNL d   1       8.985   3.097 -18.152  0.00  0.00    -0.169 OA
ATOM      8  O   UNL d   1       9.029   1.488 -19.825  0.00  0.00    -0.290 OA
ATOM      9  C   UNL d   1      10.239   1.653 -20.503  0.00  0.00     0.255 C 
ATOM     10  C   UNL d   1      10.380   0.665 -21.666  0.00  0.00     0.066 C 
ATOM     11  C   UNL d   1      11.225   1.207 -19.415  0.00  0.00     0.284 C 
ATOM     12  O   UNL d   1      12.406   0.927 -19.592  0.00  0.00    -0.267 OA
ATOM     13  N   UNL d   1      10.589   1.375 -18.234  0.00  0.00    -0.265 N 
ENDROOT
BRANCH   9  14
ATOM     14  N   UNL d   1      10.412   3.035 -20.929  0.00  0.00    -0.205 NA
ATOM     15  C   UNL d   1       9.557   3.700 -21.735  0.00  0.00     0.259 C 
ATOM     16  O   UNL d   1       8.579   3.193 -22.260  0.00  0.00    -0.270 OA
BRANCH  15  17
ATOM     17  C   UNL d   1       9.841   5.197 -21.989  0.00  0.00     0.119 C 
ATOM     18  C   UNL d   1       9.257   6.097 -20.863  0.00  0.00     0.090 C 
ATOM     19  N   UNL d   1      10.050   5.915 -19.646  0.00  0.00    -0.253 NA
ATOM     20  C   UNL d   1      11.444   6.364 -19.812  0.00  0.00     0.018 C 
ATOM     21  C   UNL d   1       9.364   6.378 -18.445  0.00  0.00     0.094 C 
ATOM     22  C   UNL d   1      12.043   6.074 -21.190  0.00  0.00     0.003 C 
ATOM     23  C   UNL d   1      11.864   7.713 -19.198  0.00  0.00     0.066 C 
ATOM     24  C   UNL d   1      11.307   5.537 -22.189  0.00  0.00    -0.015 C 
ATOM     25  C   UNL d   1      13.473   6.371 -21.301  0.00  0.00     0.002 A 
ATOM     26  C   UNL d   1      13.976   7.283 -20.355  0.00  0.00     0.016 A 
ATOM     27  C   UNL d   1      14.380   5.861 -22.259  0.00  0.00     0.000 A 
ATOM     28  C   UNL d   1      15.295   7.693 -20.344  0.00  0.00     0.081 A 
ATOM     29  C   UNL d   1      13.354   7.997 -19.299  0.00  0.00     0.004 A 
ATOM     30  C   UNL d   1      16.170   7.204 -21.298  0.00  0.00     0.019 A 
ATOM     31  N   UNL d   1      15.463   8.580 -19.316  0.00  0.00    -0.244 NA
ATOM     32  C   UNL d   1      15.723   6.283 -22.265  0.00  0.00     0.002 A 
ATOM     33  C   UNL d   1      14.268   8.768 -18.637  0.00  0.00     0.095 A 
ENDBRANCH  15  17
ENDBRANCH   9  14
BRANCH   5  34
ATOM     34  C   UNL d   1       6.867   1.301 -17.518  0.00  0.00     0.058 C 
BRANCH  34  35
ATOM     35  C   UNL d   1       5.932   0.284 -16.885  0.00  0.00    -0.020 A 
ATOM     36  C   UNL d   1       5.062  -0.479 -17.692  0.00  0.00    -0.004 A 
ATOM     37  C   UNL d   1       4.173  -1.396 -17.101  0.00  0.00    -0.000 A 
ATOM     38  C   UNL d   1       4.152  -1.556 -15.702  0.00  0.00    -0.000 A 
ATOM     39  C   UNL d   1       5.027  -0.808 -14.894  0.00  0.00    -0.000 A 
ATOM     40  C   UNL d   1       5.913   0.111 -15.483  0.00  0.00    -0.004 A 
ENDBRANCH  34  35
ENDBRANCH   5  34
BRANCH   1  41
ATOM     41  C   UNL d   1      11.624   2.628 -16.247  0.00  0.00     0.032 C 
BRANCH  41  42
ATOM     42  C   UNL d   1      12.754   3.385 -16.986  0.00  0.00     0.002 C 
ATOM     43  C   UNL d   1      13.221   4.656 -16.224  0.00  0.00     0.000 C 
ATOM     44  C   UNL d   1      12.271   3.872 -18.309  0.00  0.00     0.000 C 
ENDBRANCH  41  42
ENDBRANCH   1  41
TORSDOF 6
