REMARK  8 active torsions:
REMARK  status: ('A' for Active; 'I' for Inactive)
REMARK    1  A    between atoms: C_2  and  C_3 
REMARK       I    between atoms: C_2  and  N_21 
REMARK    2  A    between atoms: C_3  and  C_4 
REMARK    3  A    between atoms: C_4  and  C_5 
REMARK    4  A    between atoms: C_5  and  C_6 
REMARK    5  A    between atoms: C_6  and  C_7 
REMARK    6  A    between atoms: C_7  and  N_8 
REMARK    7  A    between atoms: N_11  and  C_12 
REMARK    8  A    between atoms: N_21  and  C_22 
ROOT
ATOM      1  C   UNL d   1       7.824   4.957 -11.416  0.00  0.00     0.003 C 
ENDROOT
BRANCH   1   2
ATOM      2  C   UNL d   1       8.085   4.779 -12.924  0.00  0.00     0.010 C 
BRANCH   2   3
ATOM      3  C   UNL d   1       9.490   4.231 -13.242  0.00  0.00     0.090 C 
BRANCH   3   4
ATOM      4  C   UNL d   1       9.546   3.448 -14.547  0.00  0.00     0.252 C 
ATOM      5  O   UNL d   1       9.382   4.032 -15.617  0.00  0.00    -0.271 OA
ATOM      6  N   UNL d   1       9.802   2.136 -14.441  0.00  0.00    -0.235 NA
BRANCH   6   7
ATOM      7  C   UNL d   1       9.963   1.169 -15.524  0.00  0.00     0.128 C 
ATOM      8  C   UNL d   1       8.668   0.819 -16.268  0.00  0.00    -0.004 A 
ATOM      9  C   UNL d   1       8.679   0.512 -17.654  0.00  0.00    -0.024 A 
ATOM     10  C   UNL d   1       7.442   0.746 -15.559  0.00  0.00    -0.003 A 
ATOM     11  C   UNL d   1       9.962   0.576 -18.476  0.00  0.00     0.026 C 
ATOM     12  C   UNL d   1       7.479   0.162 -18.307  0.00  0.00    -0.004 A 
ATOM     13  C   UNL d   1      11.244   0.582 -17.630  0.00  0.00     0.007 C 
ATOM     14  C   UNL d   1      11.129   1.555 -16.459  0.00  0.00     0.029 C 
ATOM     15  C   UNL d   1       6.269   0.099 -17.597  0.00  0.00    -0.000 A 
ATOM     16  C   UNL d   1       6.253   0.391 -16.223  0.00  0.00    -0.000 A 
ENDBRANCH   6   7
ENDBRANCH   3   4
ENDBRANCH   2   3
ENDBRANCH   1   2
BRANCH   1  17
ATOM     17  C   UNL d   1       8.954   5.684 -10.665  0.00  0.00     0.035 C 
BRANCH  17  18
ATOM     18  C   UNL d   1       8.624   5.898  -9.190  0.00  0.00     0.250 C 
BRANCH  18  19
ATOM     19  N   UNL d   1       9.635   6.750  -8.571  0.00  0.00     0.141 N 
ATOM     20  C   UNL d   1      10.585   5.918  -7.842  0.00  0.00     0.274 C 
ATOM     21  C   UNL d   1      11.674   6.765  -7.164  0.00  0.00     0.137 C 
ATOM     22  N   UNL d   1      11.065   7.768  -6.295  0.00  0.00    -0.343 N 
ATOM     23  C   UNL d   1      10.014   8.552  -6.936  0.00  0.00     0.137 C 
ATOM     24  C   UNL d   1       8.988   7.634  -7.599  0.00  0.00     0.274 C 
BRANCH  22  25
ATOM     25  C   UNL d   1      11.461   7.941  -4.949  0.00  0.00     0.082 A 
ATOM     26  C   UNL d   1      11.481   9.218  -4.327  0.00  0.00     0.146 A 
ATOM     27  C   UNL d   1      11.868   9.358  -2.985  0.00  0.00     0.029 A 
ATOM     28  O   UNL d   1      11.120  10.347  -5.003  0.00  0.00    -0.189 OA
ATOM     29  C   UNL d   1      12.260   8.238  -2.238  0.00  0.00     0.002 A 
ATOM     30  C   UNL d   1      12.249   6.967  -2.832  0.00  0.00     0.002 A 
ATOM     31  C   UNL d   1      11.851   6.821  -4.173  0.00  0.00     0.019 A 
ENDBRANCH  22  25
ENDBRANCH  18  19
ENDBRANCH  17  18
ENDBRANCH   1  17
TORSDOF 8
