REMARK  8 active torsions:
REMARK  status: ('A' for Active; 'I' for Inactive)
REMARK    1  A    between atoms: O_2  and  C_3 
REMARK    2  A    between atoms: C_8  and  N_9 
REMARK    3  A    between atoms: N_12  and  C_13 
REMARK    4  A    between atoms: C_13  and  C_14 
REMARK    5  A    between atoms: C_14  and  C_15 
REMARK    6  A    between atoms: C_15  and  C_16 
REMARK    7  A    between atoms: C_16  and  N_17 
REMARK       I    between atoms: N_17  and  C_18 
REMARK    8  A    between atoms: C_18  and  C_20 
ROOT
ATOM      1  C   UNL d   1       8.409   6.147 -10.357  0.00  0.00     0.037 C 
ENDROOT
BRANCH   1   2
ATOM      2  C   UNL d   1       8.929   4.860 -10.958  0.00  0.00     0.251 C 
BRANCH   2   3
ATOM      3  N   UNL d   1       8.268   4.630 -12.235  0.00  0.00     0.141 N 
ATOM      4  C   UNL d   1       6.897   4.138 -12.015  0.00  0.00     0.274 C 
ATOM      5  C   UNL d   1       6.200   3.813 -13.344  0.00  0.00     0.137 C 
ATOM      6  N   UNL d   1       7.020   2.906 -14.142  0.00  0.00    -0.343 N 
ATOM      7  C   UNL d   1       8.398   3.338 -14.351  0.00  0.00     0.137 C 
ATOM      8  C   UNL d   1       9.063   3.672 -13.008  0.00  0.00     0.274 C 
BRANCH   6   9
ATOM      9  C   UNL d   1       6.519   1.671 -14.649  0.00  0.00     0.079 A 
ATOM     10  C   UNL d   1       6.854   1.198 -15.950  0.00  0.00     0.110 A 
ATOM     11  C   UNL d   1       6.263  -0.012 -16.422  0.00  0.00     0.026 A 
ATOM     12  C   UNL d   1       5.353  -0.726 -15.628  0.00  0.00     0.002 A 
ATOM     13  C   UNL d   1       5.022  -0.262 -14.354  0.00  0.00     0.002 A 
ATOM     14  C   UNL d   1       5.615   0.919 -13.859  0.00  0.00     0.019 A 
BRANCH  10  15
ATOM     15  O   UNL d   1       7.661   1.971 -16.767  0.00  0.00    -0.327 OA
ATOM     16  C   UNL d   1       8.354   1.336 -17.833  0.00  0.00     0.181 C 
ENDBRANCH  10  15
ENDBRANCH   6   9
ENDBRANCH   2   3
ENDBRANCH   1   2
BRANCH   1  17
ATOM     17  C   UNL d   1       9.044   6.540  -9.020  0.00  0.00     0.029 C 
BRANCH  17  18
ATOM     18  C   UNL d   1      10.372   7.285  -9.214  0.00  0.00     0.129 C 
BRANCH  18  19
ATOM     19  N   UNL d   1      10.706   8.033  -8.014  0.00  0.00    -0.233 NA
ATOM     20  C   UNL d   1      11.310   7.494  -6.949  0.00  0.00     0.293 C 
ATOM     21  O   UNL d   1      11.759   6.363  -6.978  0.00  0.00    -0.264 OA
BRANCH  20  22
ATOM     22  C   UNL d   1      11.381   8.373  -5.725  0.00  0.00     0.139 A 
ATOM     23  C   UNL d   1      11.784   7.910  -4.426  0.00  0.00     0.022 A 
ATOM     24  C   UNL d   1      11.856   8.858  -3.381  0.00  0.00     0.003 A 
ATOM     25  C   UNL d   1      12.138   6.599  -4.080  0.00  0.00     0.002 A 
ATOM     26  C   UNL d   1      11.452  10.132  -3.622  0.00  0.00     0.021 A 
ATOM     27  C   UNL d   1      12.258   8.552  -2.060  0.00  0.00     0.000 A 
ATOM     28  C   UNL d   1      11.028  10.489  -4.897  0.00  0.00     0.099 A 
ATOM     29  N   UNL d   1      11.015   9.657  -5.933  0.00  0.00    -0.239 NA
ATOM     30  C   UNL d   1      12.651   7.260  -1.791  0.00  0.00     0.000 A 
ATOM     31  C   UNL d   1      12.600   6.302  -2.798  0.00  0.00     0.000 A 
ENDBRANCH  20  22
ENDBRANCH  18  19
ENDBRANCH  17  18
ENDBRANCH   1  17
TORSDOF 8
