REMARK  9 active torsions:
REMARK  status: ('A' for Active; 'I' for Inactive)
REMARK    1  A    between atoms: C_2  and  C_3 
REMARK    2  A    between atoms: C_3  and  N_4 
REMARK    3  A    between atoms: N_4  and  C_5 
REMARK    4  A    between atoms: N_4  and  C_21 
REMARK    5  A    between atoms: C_5  and  C_6 
REMARK    6  A    between atoms: C_6  and  C_7 
REMARK    7  A    between atoms: C_7  and  C_8 
REMARK    8  A    between atoms: C_8  and  N_9 
REMARK       I    between atoms: N_9  and  C_10 
REMARK       I    between atoms: C_10  and  N_12 
REMARK    9  A    between atoms: N_13  and  C_14 
ROOT
ATOM      1  C   UNL d   1       8.412   5.573  -8.716  0.00  0.00     0.037 C 
ENDROOT
BRANCH   1   2
ATOM      2  C   UNL d   1       9.834   6.149  -8.663  0.00  0.00     0.250 C 
BRANCH   2   3
ATOM      3  N   UNL d   1       9.951   7.350  -7.774  0.00  0.00     0.136 N 
BRANCH   3   4
ATOM      4  C   UNL d   1       9.301   8.530  -8.384  0.00  0.00     0.250 C 
BRANCH   4   5
ATOM      5  C   UNL d   1       9.828   8.878  -9.813  0.00  0.00     0.035 C 
ATOM      6  C   UNL d   1      11.386   8.939 -10.001  0.00  0.00     0.002 C 
ENDBRANCH   4   5
ENDBRANCH   3   4
BRANCH   3   7
ATOM      7  C   UNL d   1      11.298   7.519  -7.274  0.00  0.00     0.228 C 
ATOM      8  C   UNL d   1      11.537   8.905  -6.594  0.00  0.00     0.060 C 
ATOM      9  C   UNL d   1      11.653   8.558  -5.156  0.00  0.00    -0.024 A 
ATOM     10  C   UNL d   1      11.721   7.181  -4.944  0.00  0.00    -0.024 A 
ATOM     11  C   UNL d   1      11.631   9.466  -4.083  0.00  0.00    -0.004 A 
ATOM     12  C   UNL d   1      11.665   6.424  -6.238  0.00  0.00     0.060 C 
ATOM     13  C   UNL d   1      11.835   6.657  -3.644  0.00  0.00    -0.004 A 
ATOM     14  C   UNL d   1      11.902   7.555  -2.574  0.00  0.00    -0.000 A 
ATOM     15  C   UNL d   1      11.785   8.944  -2.782  0.00  0.00    -0.000 A 
ENDBRANCH   3   7
ENDBRANCH   2   3
ENDBRANCH   1   2
BRANCH   1  16
ATOM     16  C   UNL d   1       8.243   4.592  -9.888  0.00  0.00     0.029 C 
BRANCH  16  17
ATOM     17  C   UNL d   1       7.797   5.274 -11.203  0.00  0.00     0.131 C 
BRANCH  17  18
ATOM     18  N   UNL d   1       8.034   4.407 -12.354  0.00  0.00    -0.216 NA
ATOM     19  C   UNL d   1       9.199   4.360 -13.024  0.00  0.00     0.382 C 
ATOM     20  O   UNL d   1      10.155   5.112 -12.808  0.00  0.00    -0.241 OA
ATOM     21  N   UNL d   1       9.239   3.275 -14.051  0.00  0.00    -0.088 NA
ATOM     22  N   UNL d   1      10.350   3.096 -14.616  0.00  0.00    -0.144 NA
BRANCH  22  23
ATOM     23  C   UNL d   1      10.389   2.019 -15.534  0.00  0.00     0.103 A 
ATOM     24  C   UNL d   1       9.414   0.988 -15.531  0.00  0.00     0.023 A 
ATOM     25  C   UNL d   1       9.458  -0.030 -16.491  0.00  0.00     0.031 A 
ATOM     26  C   UNL d   1      10.476  -0.059 -17.453  0.00  0.00     0.140 A 
ATOM     27  C   UNL d   1      11.463   0.946 -17.456  0.00  0.00     0.031 A 
ATOM     28  F   UNL d   1      10.532  -1.052 -18.374  0.00  0.00    -0.204 F 
ATOM     29  C   UNL d   1      11.422   1.983 -16.490  0.00  0.00     0.023 A 
ENDBRANCH  22  23
ENDBRANCH  17  18
ENDBRANCH  16  17
ENDBRANCH   1  16
TORSDOF 9
