REMARK  6 active torsions:
REMARK  status: ('A' for Active; 'I' for Inactive)
REMARK    1  A    between atoms: C_2  and  C_3 
REMARK       I    between atoms: C_3  and  N_5 
REMARK    2  A    between atoms: N_5  and  C_6 
REMARK    3  A    between atoms: C_9  and  C_10 
REMARK    4  A    between atoms: C_10  and  C_11 
REMARK    5  A    between atoms: C_11  and  N_12 
REMARK    6  A    between atoms: C_15  and  C_16 
ROOT
ATOM      1  N   UNL d   1       8.691   5.715 -12.099  0.00  0.00     0.137 N 
ATOM      2  C   UNL d   1       7.313   5.641 -12.590  0.00  0.00     0.251 C 
ATOM      3  C   UNL d   1       7.259   4.738 -13.831  0.00  0.00     0.040 C 
ATOM      4  C   UNL d   1       7.777   3.335 -13.540  0.00  0.00     0.026 C 
ATOM      5  C   UNL d   1       9.144   3.442 -12.845  0.00  0.00     0.040 C 
ATOM      6  C   UNL d   1       9.083   4.380 -11.644  0.00  0.00     0.251 C 
ENDROOT
BRANCH   1   7
ATOM      7  C   UNL d   1       8.697   6.659 -10.992  0.00  0.00     0.250 C 
BRANCH   7   8
ATOM      8  C   UNL d   1      10.104   6.974 -10.463  0.00  0.00     0.035 C 
BRANCH   8   9
ATOM      9  C   UNL d   1      10.127   7.779  -9.163  0.00  0.00     0.002 C 
ATOM     10  C   UNL d   1       9.660   6.904  -7.978  0.00  0.00     0.002 C 
ATOM     11  C   UNL d   1       9.752   7.654  -6.650  0.00  0.00     0.024 C 
ATOM     12  C   UNL d   1      11.183   8.160  -6.414  0.00  0.00     0.106 C 
ATOM     13  C   UNL d   1      11.661   9.043  -7.576  0.00  0.00     0.024 C 
ATOM     14  C   UNL d   1      11.556   8.309  -8.913  0.00  0.00     0.002 C 
BRANCH  12  15
ATOM     15  N   UNL d   1      11.257   8.927  -5.180  0.00  0.00    -0.240 NA
ATOM     16  C   UNL d   1      11.857   8.533  -4.052  0.00  0.00     0.251 C 
ATOM     17  O   UNL d   1      12.323   7.406  -3.891  0.00  0.00    -0.271 OA
BRANCH  16  18
ATOM     18  C   UNL d   1      11.909   9.571  -2.937  0.00  0.00     0.090 C 
ATOM     19  C   UNL d   1      12.427   9.005  -1.607  0.00  0.00     0.010 C 
ENDBRANCH  16  18
ENDBRANCH  12  15
ENDBRANCH   8   9
ENDBRANCH   7   8
ENDBRANCH   1   7
BRANCH   4  20
ATOM     20  C   UNL d   1       7.861   2.470 -14.793  0.00  0.00    -0.020 A 
ATOM     21  C   UNL d   1       6.977   1.380 -14.972  0.00  0.00     0.021 A 
ATOM     22  C   UNL d   1       7.112   0.634 -16.177  0.00  0.00     0.100 A 
ATOM     23  C   UNL d   1       5.894   0.763 -14.251  0.00  0.00     0.028 A 
ATOM     24  C   UNL d   1       8.073   0.922 -17.164  0.00  0.00     0.025 A 
ATOM     25  O   UNL d   1       6.164  -0.368 -16.204  0.00  0.00    -0.305 OA
ATOM     26  C   UNL d   1       8.945   2.006 -16.952  0.00  0.00     0.002 A 
ATOM     27  C   UNL d   1       8.835   2.774 -15.777  0.00  0.00    -0.004 A 
ATOM     28  C   UNL d   1       5.457  -0.279 -15.037  0.00  0.00     0.123 A 
ENDBRANCH   4  20
TORSDOF 6
