REMARK  7 active torsions:
REMARK  status: ('A' for Active; 'I' for Inactive)
REMARK    1  A    between atoms: C_6  and  C_7 
REMARK    2  A    between atoms: C_10  and  S_11 
REMARK    3  A    between atoms: S_11  and  C_12 
REMARK    4  A    between atoms: C_12  and  C_13 
REMARK    5  A    between atoms: C_13  and  C_14 
REMARK    6  A    between atoms: C_14  and  C_15 
REMARK    7  A    between atoms: C_15  and  N_16 
ROOT
ATOM      1  C   UNL d   1      17.054   0.971 -22.434  0.00  0.00     0.065 C 
ENDROOT
BRANCH   1   2
ATOM      2  S   UNL d   1      18.179   1.891 -23.532  0.00  0.00    -0.076 SA
BRANCH   2   3
ATOM      3  C   UNL d   1      18.008   3.494 -22.814  0.00  0.00     0.193 A 
ATOM      4  N   UNL d   1      17.102   4.387 -23.216  0.00  0.00    -0.122 NA
ATOM      5  N   UNL d   1      17.254   5.465 -22.375  0.00  0.00    -0.128 NA
ATOM      6  C   UNL d   1      18.262   5.154 -21.556  0.00  0.00     0.167 A 
ATOM      7  N   UNL d   1      18.760   3.914 -21.780  0.00  0.00    -0.289 N 
ATOM      8  C   UNL d   1      19.839   3.216 -21.102  0.00  0.00     0.134 C 
BRANCH   6   9
ATOM      9  C   UNL d   1      18.735   6.084 -20.530  0.00  0.00     0.037 A 
ATOM     10  C   UNL d   1      20.016   6.690 -20.600  0.00  0.00     0.021 A 
ATOM     11  C   UNL d   1      20.909   6.414 -21.660  0.00  0.00     0.003 A 
ATOM     12  C   UNL d   1      20.444   7.605 -19.596  0.00  0.00     0.081 A 
ATOM     13  C   UNL d   1      22.175   7.020 -21.675  0.00  0.00     0.015 A 
ATOM     14  C   UNL d   1      22.505   7.910 -20.641  0.00  0.00     0.059 A 
ATOM     15  C   UNL d   1      23.857   8.587 -20.596  0.00  0.00     0.052 C 
ATOM     16  N   UNL d   1      21.655   8.204 -19.634  0.00  0.00    -0.250 NA
ATOM     17  C   UNL d   1      19.566   7.886 -18.529  0.00  0.00     0.019 A 
ATOM     18  C   UNL d   1      18.292   7.296 -18.456  0.00  0.00     0.002 A 
ATOM     19  C   UNL d   1      17.873   6.406 -19.462  0.00  0.00     0.003 A 
ENDBRANCH   6   9
ENDBRANCH   2   3
ENDBRANCH   1   2
BRANCH   1  20
ATOM     20  C   UNL d   1      15.603   1.475 -22.495  0.00  0.00     0.014 C 
BRANCH  20  21
ATOM     21  C   UNL d   1      14.688   0.712 -21.538  0.00  0.00     0.036 C 
BRANCH  21  22
ATOM     22  C   UNL d   1      13.259   1.289 -21.520  0.00  0.00     0.250 C 
BRANCH  22  23
ATOM     23  N   UNL d   1      12.311   0.469 -20.760  0.00  0.00     0.138 N 
ATOM     24  C   UNL d   1      10.963   0.986 -21.021  0.00  0.00     0.255 C 
ATOM     25  C   UNL d   1       9.839   0.049 -20.540  0.00  0.00     0.062 C 
ATOM     26  C   UNL d   1       9.516   0.188 -19.055  0.00  0.00    -0.016 A 
ATOM     27  C   UNL d   1      10.509  -0.125 -18.089  0.00  0.00    -0.022 A 
ATOM     28  C   UNL d   1       8.241   0.635 -18.617  0.00  0.00     0.055 A 
ATOM     29  C   UNL d   1      11.887  -0.577 -18.524  0.00  0.00     0.061 C 
ATOM     30  C   UNL d   1      10.237  -0.003 -16.706  0.00  0.00     0.017 A 
ATOM     31  C   UNL d   1      12.649   0.477 -19.334  0.00  0.00     0.255 C 
ATOM     32  C   UNL d   1       8.972   0.428 -16.263  0.00  0.00     0.106 A 
ATOM     33  C   UNL d   1       8.003   0.741 -17.238  0.00  0.00     0.125 A 
ATOM     34  N   UNL d   1       8.447   0.634 -15.004  0.00  0.00    -0.224 NA
ATOM     35  O   UNL d   1       6.857   1.155 -16.582  0.00  0.00    -0.291 OA
ATOM     36  C   UNL d   1       7.201   1.051 -15.262  0.00  0.00     0.159 A 
ATOM     37  C   UNL d   1       6.179   1.417 -14.248  0.00  0.00     0.080 C 
ATOM     38 BR   UNL d   1       6.841   1.109 -19.826  0.00  0.00    -0.047 Br
ENDBRANCH  22  23
ENDBRANCH  21  22
ENDBRANCH  20  21
ENDBRANCH   1  20
TORSDOF 7
