REMARK  12 active torsions:
REMARK  status: ('A' for Active; 'I' for Inactive)
REMARK    1  A    between atoms: C_2  and  C_3 
REMARK    2  A    between atoms: C_3  and  N_4 
REMARK    3  A    between atoms: N_4  and  C_5 
REMARK    4  A    between atoms: N_4  and  C_24 
REMARK    5  A    between atoms: C_5  and  C_6 
REMARK    6  A    between atoms: C_6  and  C_7 
REMARK    7  A    between atoms: C_7  and  C_8 
REMARK    8  A    between atoms: C_8  and  N_9 
REMARK       I    between atoms: N_9  and  C_10 
REMARK    9  A    between atoms: C_10  and  C_12 
REMARK   10  A    between atoms: C_15  and  C_16 
REMARK   11  A    between atoms: C_24  and  C_25 
REMARK   12  A    between atoms: C_27  and  C_28 
ROOT
ATOM      1  C   UNL d   1       8.798   4.780 -14.361  0.00  0.00     0.037 C 
ENDROOT
BRANCH   1   2
ATOM      2  C   UNL d   1       9.803   4.202 -15.382  0.00  0.00     0.250 C 
BRANCH   2   3
ATOM      3  N   UNL d   1      10.396   2.908 -15.000  0.00  0.00     0.137 N 
BRANCH   3   4
ATOM      4  C   UNL d   1       9.359   1.945 -14.631  0.00  0.00     0.250 C 
BRANCH   4   5
ATOM      5  C   UNL d   1       9.852   0.489 -14.488  0.00  0.00     0.035 C 
ATOM      6  C   UNL d   1       9.853  -0.313 -15.800  0.00  0.00     0.002 C 
ENDBRANCH   4   5
ENDBRANCH   3   4
BRANCH   3   7
ATOM      7  C   UNL d   1      11.170   2.375 -16.111  0.00  0.00     0.251 C 
BRANCH   7   8
ATOM      8  C   UNL d   1      12.304   3.247 -16.578  0.00  0.00     0.038 A 
ATOM      9  C   UNL d   1      12.236   3.951 -17.914  0.00  0.00     0.024 A 
ATOM     10  C   UNL d   1      13.126   2.738 -17.749  0.00  0.00     0.007 A 
BRANCH   9  11
ATOM     11  C   UNL d   1      12.802   5.326 -18.022  0.00  0.00    -0.022 A 
ATOM     12  C   UNL d   1      12.150   6.317 -18.788  0.00  0.00    -0.003 A 
ATOM     13  C   UNL d   1      12.723   7.604 -18.889  0.00  0.00     0.011 A 
ATOM     14  C   UNL d   1      13.928   7.893 -18.229  0.00  0.00     0.058 A 
ATOM     15  C   UNL d   1      14.561   6.909 -17.440  0.00  0.00     0.011 A 
ATOM     16 CL   UNL d   1      14.668   9.445 -18.389  0.00  0.00    -0.082 Cl
ATOM     17  C   UNL d   1      13.995   5.635 -17.339  0.00  0.00    -0.003 A 
ENDBRANCH   9  11
ENDBRANCH   7   8
ENDBRANCH   3   7
ENDBRANCH   2   3
ENDBRANCH   1   2
BRANCH   1  18
ATOM     18  C   UNL d   1       9.505   5.163 -13.056  0.00  0.00     0.029 C 
BRANCH  18  19
ATOM     19  C   UNL d   1       8.529   5.682 -12.003  0.00  0.00     0.129 C 
BRANCH  19  20
ATOM     20  N   UNL d   1       9.221   5.992 -10.760  0.00  0.00    -0.234 NA
ATOM     21  C   UNL d   1       9.726   7.199 -10.448  0.00  0.00     0.275 C 
ATOM     22  O   UNL d   1       9.825   8.126 -11.251  0.00  0.00    -0.266 OA
BRANCH  21  23
ATOM     23  C   UNL d   1      10.194   7.360  -9.034  0.00  0.00     0.058 A 
ATOM     24  C   UNL d   1      11.248   8.256  -8.748  0.00  0.00     0.005 A 
ATOM     25  C   UNL d   1      11.655   8.465  -7.419  0.00  0.00     0.002 A 
ATOM     26  C   UNL d   1      11.025   7.790  -6.349  0.00  0.00     0.018 A 
ATOM     27  C   UNL d   1       9.960   6.904  -6.646  0.00  0.00     0.002 A 
ATOM     28  C   UNL d   1       9.540   6.703  -7.973  0.00  0.00     0.005 A 
BRANCH  26  29
ATOM     29  C   UNL d   1      11.489   7.993  -4.966  0.00  0.00     0.081 A 
ATOM     30  N   UNL d   1      11.509   9.273  -4.523  0.00  0.00    -0.244 NA
ATOM     31  C   UNL d   1      11.894   9.509  -3.260  0.00  0.00     0.099 A 
ATOM     32  C   UNL d   1      12.260   8.487  -2.359  0.00  0.00     0.021 A 
ATOM     33  C   UNL d   1      12.258   7.158  -2.822  0.00  0.00     0.003 A 
ATOM     34  C   UNL d   1      11.851   6.905  -4.138  0.00  0.00     0.019 A 
ENDBRANCH  26  29
ENDBRANCH  21  23
ENDBRANCH  19  20
ENDBRANCH  18  19
ENDBRANCH   1  18
TORSDOF 12
