REMARK  6 active torsions:
REMARK  status: ('A' for Active; 'I' for Inactive)
REMARK    1  A    between atoms: C_2  and  C_3 
REMARK    2  A    between atoms: N_16  and  C_17 
REMARK    3  A    between atoms: C_17  and  C_18 
REMARK    4  A    between atoms: C_18  and  C_19 
REMARK    5  A    between atoms: C_19  and  S_20 
REMARK    6  A    between atoms: S_20  and  C_21 
ROOT
ATOM      1  O   UNL d   1      11.645   7.237 -10.005  0.00  0.00    -0.221 OA
ATOM      2  C   UNL d   1      10.425   7.056  -9.390  0.00  0.00     0.149 C 
ATOM      3  C   UNL d   1       9.466   8.102  -9.966  0.00  0.00     0.068 C 
ATOM      4  C   UNL d   1       8.713   7.591 -11.238  0.00  0.00     0.222 C 
ATOM      5  C   UNL d   1       9.655   7.305 -12.332  0.00  0.00     0.035 C 
ATOM      6  C   UNL d   1       9.949   5.798 -12.270  0.00  0.00     0.035 C 
ATOM      7  C   UNL d   1       9.222   5.355 -11.039  0.00  0.00     0.222 C 
ATOM      8  C   UNL d   1       9.883   5.621  -9.668  0.00  0.00     0.068 C 
ATOM      9  N   UNL d   1       8.103   6.284 -11.082  0.00  0.00     0.133 N 
ENDROOT
BRANCH   9  10
ATOM     10  C   UNL d   1       7.015   6.014 -12.032  0.00  0.00     0.251 C 
BRANCH  10  11
ATOM     11  C   UNL d   1       6.347   4.643 -11.796  0.00  0.00     0.047 C 
BRANCH  11  12
ATOM     12  C   UNL d   1       6.042   3.968 -13.119  0.00  0.00     0.064 C 
BRANCH  12  13
ATOM     13  S   UNL d   1       5.457   2.263 -12.853  0.00  0.00    -0.111 SA
BRANCH  13  14
ATOM     14  C   UNL d   1       5.987   1.294 -14.240  0.00  0.00     0.053 A 
ATOM     15  C   UNL d   1       5.288   0.131 -14.596  0.00  0.00     0.146 A 
ATOM     16  C   UNL d   1       5.666  -0.599 -15.740  0.00  0.00     0.030 A 
ATOM     17  F   UNL d   1       4.225  -0.297 -13.852  0.00  0.00    -0.204 F 
ATOM     18  C   UNL d   1       6.760  -0.158 -16.529  0.00  0.00     0.002 A 
ATOM     19  C   UNL d   1       7.471   0.987 -16.161  0.00  0.00     0.001 A 
ATOM     20  C   UNL d   1       7.106   1.708 -15.022  0.00  0.00     0.008 A 
ENDBRANCH  13  14
ENDBRANCH  12  13
ENDBRANCH  11  12
ENDBRANCH  10  11
ENDBRANCH   9  10
BRANCH   2  21
ATOM     21  C   UNL d   1      10.761   7.368  -7.949  0.00  0.00     0.005 A 
ATOM     22  C   UNL d   1      10.510   6.414  -6.937  0.00  0.00    -0.001 A 
ATOM     23  C   UNL d   1      10.859   6.715  -5.626  0.00  0.00     0.011 A 
ATOM     24  C   UNL d   1      11.468   7.914  -5.290  0.00  0.00     0.058 A 
ATOM     25  C   UNL d   1      11.787   8.853  -6.309  0.00  0.00     0.011 A 
ATOM     26 CL   UNL d   1      11.954   8.196  -3.666  0.00  0.00    -0.082 Cl
ATOM     27  C   UNL d   1      11.424   8.557  -7.638  0.00  0.00    -0.001 A 
ENDBRANCH   2  21
TORSDOF 6
