REMARK  8 active torsions:
REMARK  status: ('A' for Active; 'I' for Inactive)
REMARK    1  A    between atoms: S_2  and  N_4 
REMARK    2  A    between atoms: S_2  and  C_25 
REMARK    3  A    between atoms: N_4  and  C_5 
REMARK    4  A    between atoms: C_5  and  C_6 
REMARK    5  A    between atoms: C_6  and  C_7 
REMARK    6  A    between atoms: C_7  and  C_8 
REMARK    7  A    between atoms: C_8  and  N_9 
REMARK    8  A    between atoms: C_12  and  C_13 
ROOT
ATOM      1  C   UNL d   1       6.426   2.174 -14.237  0.00  0.00     0.250 C 
ENDROOT
BRANCH   1   2
ATOM      2  C   UNL d   1       6.725   1.937 -15.730  0.00  0.00     0.037 C 
BRANCH   2   3
ATOM      3  C   UNL d   1       6.110   0.642 -16.304  0.00  0.00     0.029 C 
BRANCH   3   4
ATOM      4  C   UNL d   1       6.394   0.460 -17.805  0.00  0.00     0.139 C 
BRANCH   4   5
ATOM      5  N   UNL d   1       7.786   0.043 -18.058  0.00  0.00    -0.184 NA
BRANCH   5   6
ATOM      6  S   UNL d   1       9.071   1.201 -18.005  0.00  0.00     0.287 S 
ATOM      7  O   UNL d   1       8.589   2.469 -18.563  0.00  0.00    -0.198 OA
ATOM      8  O   UNL d   1       9.707   1.130 -16.680  0.00  0.00    -0.198 OA
BRANCH   6   9
ATOM      9  C   UNL d   1      10.287   0.570 -19.107  0.00  0.00     0.134 A 
ATOM     10  S   UNL d   1      10.170   0.800 -20.822  0.00  0.00    -0.074 SA
ATOM     11  C   UNL d   1      11.699  -0.027 -21.029  0.00  0.00     0.030 A 
ATOM     12  C   UNL d   1      12.253  -0.442 -19.776  0.00  0.00     0.007 A 
ATOM     13  C   UNL d   1      12.347  -0.287 -22.241  0.00  0.00     0.006 A 
ATOM     14  C   UNL d   1      11.411  -0.080 -18.673  0.00  0.00     0.020 A 
ATOM     15  C   UNL d   1      13.483  -1.133 -19.807  0.00  0.00     0.001 A 
ATOM     16  C   UNL d   1      14.134  -1.400 -21.023  0.00  0.00     0.000 A 
ATOM     17  C   UNL d   1      13.567  -0.978 -22.239  0.00  0.00     0.001 A 
ENDBRANCH   6   9
ENDBRANCH   5   6
ENDBRANCH   4   5
ENDBRANCH   3   4
ENDBRANCH   2   3
ENDBRANCH   1   2
BRANCH   1  18
ATOM     18  N   UNL d   1       7.021   3.432 -13.786  0.00  0.00     0.137 N 
ATOM     19  C   UNL d   1       6.428   3.790 -12.499  0.00  0.00     0.251 C 
ATOM     20  C   UNL d   1       6.963   5.138 -12.001  0.00  0.00     0.041 C 
ATOM     21  C   UNL d   1       8.492   5.123 -11.893  0.00  0.00     0.047 C 
ATOM     22  C   UNL d   1       9.102   4.669 -13.224  0.00  0.00     0.041 C 
ATOM     23  C   UNL d   1       8.495   3.347 -13.693  0.00  0.00     0.251 C 
BRANCH  21  24
ATOM     24  C   UNL d   1       9.024   6.472 -11.480  0.00  0.00     0.087 A 
ATOM     25  C   UNL d   1       9.661   6.893 -10.299  0.00  0.00     0.041 A 
ATOM     26  C   UNL d   1       9.946   8.258 -10.401  0.00  0.00     0.129 A 
ATOM     27  C   UNL d   1      10.008   6.207  -9.113  0.00  0.00     0.006 A 
ATOM     28  O   UNL d   1       9.456   8.639 -11.638  0.00  0.00    -0.211 OA
ATOM     29  C   UNL d   1      10.594   8.982  -9.402  0.00  0.00     0.057 A 
ATOM     30  N   UNL d   1       8.898   7.513 -12.300  0.00  0.00    -0.131 NA
ATOM     31  C   UNL d   1      10.949   8.301  -8.218  0.00  0.00     0.142 A 
ATOM     32  F   UNL d   1      11.583   8.967  -7.224  0.00  0.00    -0.204 F 
ATOM     33  C   UNL d   1      10.653   6.921  -8.078  0.00  0.00     0.030 A 
ENDBRANCH  21  24
ENDBRANCH   1  18
TORSDOF 8
