REMARK  7 active torsions:
REMARK  status: ('A' for Active; 'I' for Inactive)
REMARK    1  A    between atoms: C_3  and  S_4 
REMARK    2  A    between atoms: S_4  and  C_5 
REMARK    3  A    between atoms: C_5  and  C_6 
REMARK    4  A    between atoms: C_6  and  C_7 
REMARK    5  A    between atoms: C_7  and  N_8 
REMARK    6  A    between atoms: N_13  and  C_14 
REMARK    7  A    between atoms: C_27  and  C_28 
ROOT
ATOM      1  C   UNL d   1       7.998   3.479 -14.089  0.00  0.00     0.251 C 
ENDROOT
BRANCH   1   2
ATOM      2  C   UNL d   1       8.781   4.790 -14.113  0.00  0.00     0.047 C 
BRANCH   2   3
ATOM      3  C   UNL d   1       8.316   5.786 -13.048  0.00  0.00     0.067 C 
BRANCH   3   4
ATOM      4  S   UNL d   1       8.393   5.052 -11.379  0.00  0.00    -0.075 SA
BRANCH   4   5
ATOM      5  C   UNL d   1       9.226   6.291 -10.448  0.00  0.00     0.193 A 
ATOM      6  N   UNL d   1       9.320   6.247  -9.108  0.00  0.00    -0.289 N 
ATOM      7  C   UNL d   1       8.718   5.268  -8.223  0.00  0.00     0.134 C 
ATOM      8  C   UNL d   1      10.080   7.342  -8.851  0.00  0.00     0.167 A 
ATOM      9  N   UNL d   1      10.410   8.020  -9.951  0.00  0.00    -0.128 NA
ATOM     10  N   UNL d   1       9.845   7.338 -10.995  0.00  0.00    -0.122 NA
BRANCH   8  11
ATOM     11  C   UNL d   1      10.566   7.811  -7.542  0.00  0.00     0.042 A 
ATOM     12  C   UNL d   1      11.009   9.081  -7.405  0.00  0.00     0.064 A 
ATOM     13  C   UNL d   1      11.483   9.628  -6.139  0.00  0.00     0.261 A 
ATOM     14  N   UNL d   1      11.463   8.777  -5.075  0.00  0.00    -0.292 N 
ATOM     15  O   UNL d   1      11.859  10.792  -6.040  0.00  0.00    -0.267 OA
ATOM     16  C   UNL d   1      11.062   7.441  -5.207  0.00  0.00     0.079 A 
ATOM     17  C   UNL d   1      11.905   9.237  -3.761  0.00  0.00     0.134 C 
ATOM     18  C   UNL d   1      10.626   6.948  -6.378  0.00  0.00     0.022 A 
ENDBRANCH   8  11
ENDBRANCH   4   5
ENDBRANCH   3   4
ENDBRANCH   2   3
ENDBRANCH   1   2
BRANCH   1  19
ATOM     19  N   UNL d   1       8.256   2.691 -15.281  0.00  0.00     0.139 N 
ATOM     20  C   UNL d   1       7.271   1.610 -15.380  0.00  0.00     0.272 C 
ATOM     21  C   UNL d   1       7.910   0.594 -16.332  0.00  0.00     0.117 C 
ATOM     22  C   UNL d   1       9.395   0.987 -16.394  0.00  0.00     0.058 C 
ATOM     23  N   UNL d   1       7.361   0.629 -17.685  0.00  0.00    -0.344 N 
ATOM     24  C   UNL d   1       9.574   2.064 -15.320  0.00  0.00     0.252 C 
ATOM     25  C   UNL d   1       9.610   1.452 -17.834  0.00  0.00     0.028 C 
ATOM     26  C   UNL d   1       8.507   0.712 -18.594  0.00  0.00     0.102 C 
BRANCH  23  27
ATOM     27  C   UNL d   1       6.271  -0.237 -17.999  0.00  0.00     0.112 A 
ATOM     28  C   UNL d   1       5.321  -0.618 -17.001  0.00  0.00     0.160 A 
ATOM     29  C   UNL d   1       4.262  -1.503 -17.308  0.00  0.00     0.061 A 
ATOM     30  F   UNL d   1       5.389  -0.147 -15.728  0.00  0.00    -0.203 F 
ATOM     31  C   UNL d   1       4.114  -2.024 -18.601  0.00  0.00     0.145 A 
ATOM     32  C   UNL d   1       5.027  -1.650 -19.600  0.00  0.00     0.061 A 
ATOM     33  F   UNL d   1       3.105  -2.883 -18.888  0.00  0.00    -0.204 F 
ATOM     34  C   UNL d   1       6.085  -0.763 -19.311  0.00  0.00     0.160 A 
ATOM     35  F   UNL d   1       6.915  -0.443 -20.334  0.00  0.00    -0.203 F 
ENDBRANCH  23  27
ENDBRANCH   1  19
TORSDOF 7
