REMARK  7 active torsions:
REMARK  status: ('A' for Active; 'I' for Inactive)
REMARK    1  A    between atoms: C_4  and  C_5 
REMARK    2  A    between atoms: N_13  and  C_14 
REMARK    3  A    between atoms: C_14  and  C_15 
REMARK    4  A    between atoms: C_15  and  C_16 
REMARK    5  A    between atoms: C_16  and  S_17 
REMARK    6  A    between atoms: S_17  and  C_18 
REMARK    7  A    between atoms: C_21  and  C_22 
ROOT
ATOM      1  C   UNL d   1      12.170   0.790 -19.174  0.00  0.00     0.020 A 
ATOM      2  C   UNL d   1      12.893   1.998 -19.165  0.00  0.00     0.001 A 
ATOM      3  C   UNL d   1      12.883   2.818 -18.024  0.00  0.00    -0.004 A 
ATOM      4  C   UNL d   1      12.161   2.435 -16.874  0.00  0.00    -0.024 A 
ATOM      5  C   UNL d   1      11.442   1.217 -16.870  0.00  0.00    -0.024 A 
ATOM      6  C   UNL d   1      11.449   0.405 -18.026  0.00  0.00    -0.003 A 
ATOM      7  C   UNL d   1      10.667   0.762 -15.646  0.00  0.00     0.061 C 
ATOM      8  C   UNL d   1       9.552   1.730 -15.228  0.00  0.00     0.255 C 
ATOM      9  N   UNL d   1      10.036   2.864 -14.438  0.00  0.00     0.138 N 
ATOM     10  C   UNL d   1      10.781   3.838 -15.246  0.00  0.00     0.255 C 
ATOM     11  C   UNL d   1      12.172   3.340 -15.655  0.00  0.00     0.061 C 
ENDROOT
BRANCH   9  12
ATOM     12  C   UNL d   1       8.867   3.522 -13.852  0.00  0.00     0.251 C 
BRANCH  12  13
ATOM     13  C   UNL d   1       9.233   4.370 -12.622  0.00  0.00     0.047 C 
BRANCH  13  14
ATOM     14  C   UNL d   1       8.206   5.495 -12.367  0.00  0.00     0.067 C 
BRANCH  14  15
ATOM     15  S   UNL d   1       9.053   7.050 -11.979  0.00  0.00    -0.075 SA
BRANCH  15  16
ATOM     16  C   UNL d   1       9.460   6.757 -10.286  0.00  0.00     0.193 A 
ATOM     17  N   UNL d   1       9.970   7.716  -9.490  0.00  0.00    -0.289 N 
ATOM     18  C   UNL d   1      10.027   7.096  -8.288  0.00  0.00     0.167 A 
ATOM     19  C   UNL d   1      10.312   9.084  -9.857  0.00  0.00     0.134 C 
ATOM     20  N   UNL d   1       9.637   5.814  -8.351  0.00  0.00    -0.128 NA
ATOM     21  N   UNL d   1       9.281   5.589  -9.676  0.00  0.00    -0.122 NA
BRANCH  18  22
ATOM     22  C   UNL d   1      10.479   7.657  -7.014  0.00  0.00     0.036 A 
ATOM     23  C   UNL d   1      10.340   9.035  -6.713  0.00  0.00     0.003 A 
ATOM     24  C   UNL d   1      10.872   9.565  -5.519  0.00  0.00     0.000 A 
ATOM     25  C   UNL d   1      11.467   8.714  -4.567  0.00  0.00     0.000 A 
ATOM     26  C   UNL d   1      11.544   7.328  -4.829  0.00  0.00     0.000 A 
ATOM     27  C   UNL d   1      11.084   6.808  -6.057  0.00  0.00     0.003 A 
ENDBRANCH  18  22
ENDBRANCH  15  16
ENDBRANCH  14  15
ENDBRANCH  13  14
ENDBRANCH  12  13
ENDBRANCH   9  12
BRANCH   1  28
ATOM     28  C   UNL d   1      12.168  -0.059 -20.361  0.00  0.00     0.110 A 
ATOM     29  C   UNL d   1      13.276  -0.624 -21.052  0.00  0.00     0.044 A 
ATOM     30  C   UNL d   1      12.701  -1.317 -22.079  0.00  0.00     0.105 A 
ATOM     31  C   UNL d   1      13.249  -2.175 -23.166  0.00  0.00     0.061 C 
ATOM     32  O   UNL d   1      11.352  -1.188 -22.031  0.00  0.00    -0.215 OA
ATOM     33  N   UNL d   1      11.023  -0.399 -20.928  0.00  0.00    -0.127 NA
ENDBRANCH   1  28
TORSDOF 7
