REMARK  9 active torsions:
REMARK  status: ('A' for Active; 'I' for Inactive)
REMARK    1  A    between atoms: O_2  and  C_3 
REMARK    2  A    between atoms: C_8  and  C_9 
REMARK    3  A    between atoms: C_11  and  C_12 
REMARK    4  A    between atoms: C_12  and  N_13 
REMARK    5  A    between atoms: N_13  and  C_14 
REMARK    6  A    between atoms: C_14  and  C_15 
REMARK    7  A    between atoms: C_15  and  C_16 
REMARK    8  A    between atoms: C_16  and  O_17 
REMARK    9  A    between atoms: O_17  and  C_18 
ROOT
ATOM      1  C   UNL d   1       8.599   4.575 -12.153  0.00  0.00     0.293 C 
ENDROOT
BRANCH   1   2
ATOM      2  N   UNL d   1       7.434   4.075 -12.862  0.00  0.00     0.339 N 
BRANCH   2   3
ATOM      3  C   UNL d   1       7.904   3.293 -13.987  0.00  0.00     0.290 C 
BRANCH   3   4
ATOM      4  C   UNL d   1       6.753   2.639 -14.732  0.00  0.00     0.041 A 
ATOM      5  C   UNL d   1       7.056   1.706 -15.897  0.00  0.00     0.026 A 
ATOM      6  C   UNL d   1       6.437   1.159 -14.632  0.00  0.00     0.007 A 
BRANCH   5   7
ATOM      7  C   UNL d   1       8.471   1.394 -16.323  0.00  0.00    -0.000 A 
ATOM      8  C   UNL d   1       8.917   1.586 -17.655  0.00  0.00     0.090 A 
ATOM      9  C   UNL d   1      10.282   1.349 -17.983  0.00  0.00     0.024 A 
ATOM     10  C   UNL d   1      11.202   0.963 -16.992  0.00  0.00     0.002 A 
ATOM     11  C   UNL d   1      10.748   0.771 -15.670  0.00  0.00    -0.000 A 
ATOM     12  C   UNL d   1       9.414   0.931 -15.350  0.00  0.00    -0.002 A 
BRANCH   8  13
ATOM     13  O   UNL d   1       7.983   2.002 -18.595  0.00  0.00    -0.328 OA
ATOM     14  C   UNL d   1       8.406   2.151 -19.945  0.00  0.00     0.181 C 
ENDBRANCH   8  13
ENDBRANCH   5   7
ENDBRANCH   3   4
ENDBRANCH   2   3
ENDBRANCH   1   2
BRANCH   1  15
ATOM     15  C   UNL d   1       8.140   5.197 -10.835  0.00  0.00     0.071 C 
BRANCH  15  16
ATOM     16  C   UNL d   1       9.274   5.921 -10.100  0.00  0.00     0.151 C 
BRANCH  16  17
ATOM     17  O   UNL d   1       8.879   6.230  -8.765  0.00  0.00    -0.331 OA
BRANCH  17  18
ATOM     18  C   UNL d   1       9.683   7.122  -8.098  0.00  0.00     0.096 A 
ATOM     19  C   UNL d   1       9.958   6.833  -6.737  0.00  0.00     0.043 A 
ATOM     20  C   UNL d   1      10.843   7.641  -6.001  0.00  0.00     0.087 A 
ATOM     21  C   UNL d   1      11.383   8.792  -6.583  0.00  0.00     0.018 A 
ATOM     22  N   UNL d   1      11.201   7.300  -4.664  0.00  0.00    -0.208 NA
ATOM     23  C   UNL d   1      11.061   9.120  -7.916  0.00  0.00     0.004 A 
ATOM     24  C   UNL d   1      12.252   9.607  -5.745  0.00  0.00     0.006 A 
ATOM     25  C   UNL d   1      10.211   8.291  -8.667  0.00  0.00     0.024 A 
ATOM     26  C   UNL d   1      12.540   9.254  -4.471  0.00  0.00     0.063 A 
ATOM     27  C   UNL d   1      11.997   8.043  -3.862  0.00  0.00     0.279 A 
ATOM     28  O   UNL d   1      12.221   7.702  -2.700  0.00  0.00    -0.265 OA
ENDBRANCH  17  18
ENDBRANCH  16  17
ENDBRANCH  15  16
ENDBRANCH   1  15
TORSDOF 9
