REMARK  5 active torsions:
REMARK  status: ('A' for Active; 'I' for Inactive)
REMARK    1  A    between atoms: C_2  and  N_3 
REMARK    2  A    between atoms: C_6  and  C_7 
REMARK    3  A    between atoms: C_6  and  N_9 
REMARK    4  A    between atoms: N_12  and  C_13 
REMARK    5  A    between atoms: C_13  and  C_14 
ROOT
ATOM      1  N   UNL d   1      10.008   1.310 -17.342  0.00  0.00    -0.298 N 
ATOM      2  C   UNL d   1      10.544   1.654 -16.155  0.00  0.00     0.270 A 
ATOM      3  O   UNL d   1      10.949   0.840 -15.320  0.00  0.00    -0.270 OA
ATOM      4  C   UNL d   1      10.619   3.209 -15.976  0.00  0.00     0.282 A 
ATOM      5  C   UNL d   1       9.993   3.581 -17.320  0.00  0.00     0.031 A 
ATOM      6  C   UNL d   1       9.754   4.869 -17.826  0.00  0.00    -0.001 A 
ATOM      7  C   UNL d   1       9.116   4.993 -19.082  0.00  0.00    -0.000 A 
ATOM      8  C   UNL d   1       8.777   3.840 -19.834  0.00  0.00     0.002 A 
ATOM      9  C   UNL d   1       9.046   2.549 -19.330  0.00  0.00     0.017 A 
ATOM     10  C   UNL d   1       9.656   2.458 -18.061  0.00  0.00     0.060 A 
ENDROOT
BRANCH   4  11
ATOM     11  C   UNL d   1      12.096   3.711 -15.904  0.00  0.00     0.045 C 
ATOM     12  C   UNL d   1      13.004   3.371 -17.099  0.00  0.00     0.003 C 
ENDBRANCH   4  11
BRANCH   4  13
ATOM     13  N   UNL d   1       9.788   3.658 -14.823  0.00  0.00     0.150 N 
ATOM     14  C   UNL d   1       9.584   5.119 -14.770  0.00  0.00     0.286 C 
ATOM     15  C   UNL d   1       8.705   5.550 -13.586  0.00  0.00     0.286 C 
ATOM     16  N   UNL d   1       9.267   5.122 -12.314  0.00  0.00     0.146 N 
ATOM     17  C   UNL d   1       9.415   3.670 -12.340  0.00  0.00     0.286 C 
ATOM     18  C   UNL d   1      10.293   3.206 -13.504  0.00  0.00     0.286 C 
BRANCH  16  19
ATOM     19  C   UNL d   1       8.437   5.569 -11.196  0.00  0.00     0.277 C 
BRANCH  19  20
ATOM     20  C   UNL d   1       9.242   6.266 -10.118  0.00  0.00     0.011 A 
ATOM     21  C   UNL d   1       9.274   5.744  -8.810  0.00  0.00    -0.003 A 
ATOM     22  C   UNL d   1       9.990   6.419  -7.802  0.00  0.00    -0.004 A 
ATOM     23  C   UNL d   1      10.679   7.614  -8.098  0.00  0.00    -0.022 A 
ATOM     24  C   UNL d   1      10.647   8.136  -9.407  0.00  0.00    -0.004 A 
ATOM     25  C   UNL d   1      11.452   8.337  -7.017  0.00  0.00     0.031 C 
ATOM     26  C   UNL d   1       9.928   7.465 -10.413  0.00  0.00    -0.003 A 
ENDBRANCH  19  20
ENDBRANCH  16  19
ENDBRANCH   4  13
BRANCH   1  27
ATOM     27  C   UNL d   1       9.818  -0.063 -17.821  0.00  0.00     0.109 C 
ATOM     28  C   UNL d   1       8.339  -0.466 -17.760  0.00  0.00     0.027 C 
ENDBRANCH   1  27
TORSDOF 5
