REMARK  9 active torsions:
REMARK  status: ('A' for Active; 'I' for Inactive)
REMARK    1  A    between atoms: C_6  and  C_7 
REMARK    2  A    between atoms: C_10  and  S_11 
REMARK    3  A    between atoms: S_11  and  C_12 
REMARK    4  A    between atoms: C_12  and  C_13 
REMARK    5  A    between atoms: C_13  and  C_14 
REMARK    6  A    between atoms: C_14  and  N_15 
REMARK    7  A    between atoms: N_20  and  C_21 
REMARK    8  A    between atoms: C_26  and  O_27 
REMARK    9  A    between atoms: O_27  and  C_28 
ROOT
ATOM      1  N   UNL d   1      10.593   5.309 -17.967  0.00  0.00     0.138 N 
ATOM      2  C   UNL d   1      11.826   5.232 -17.185  0.00  0.00     0.252 C 
ATOM      3  C   UNL d   1      11.332   5.142 -15.733  0.00  0.00     0.052 C 
ATOM      4  C   UNL d   1      12.039   4.122 -14.827  0.00  0.00     0.021 C 
ATOM      5  C   UNL d   1      10.885   3.477 -14.055  0.00  0.00     0.077 C 
ATOM      6  N   UNL d   1       9.784   3.455 -15.003  0.00  0.00    -0.250 NA
ATOM      7  C   UNL d   1       9.899   4.635 -15.850  0.00  0.00     0.097 C 
ATOM      8  C   UNL d   1       9.720   4.330 -17.335  0.00  0.00     0.266 C 
ENDROOT
BRANCH   1   9
ATOM      9  C   UNL d   1      10.793   5.008 -19.383  0.00  0.00     0.251 C 
BRANCH   9  10
ATOM     10  C   UNL d   1      10.723   6.288 -20.223  0.00  0.00     0.047 C 
BRANCH  10  11
ATOM     11  C   UNL d   1       9.300   6.862 -20.269  0.00  0.00     0.067 C 
BRANCH  11  12
ATOM     12  S   UNL d   1       9.205   8.289 -21.368  0.00  0.00    -0.075 SA
BRANCH  12  13
ATOM     13  C   UNL d   1       7.488   8.691 -21.223  0.00  0.00     0.193 A 
ATOM     14  N   UNL d   1       6.664   8.198 -20.299  0.00  0.00    -0.122 NA
ATOM     15  N   UNL d   1       5.457   8.844 -20.505  0.00  0.00    -0.126 NA
ATOM     16  C   UNL d   1       5.636   9.650 -21.548  0.00  0.00     0.191 A 
ATOM     17  N   UNL d   1       6.899   9.591 -22.039  0.00  0.00    -0.287 N 
ATOM     18  C   UNL d   1       7.506  10.296 -23.146  0.00  0.00     0.134 C 
BRANCH  16  19
ATOM     19  C   UNL d   1       4.525  10.467 -22.058  0.00  0.00     0.151 A 
ATOM     20  C   UNL d   1       4.427  11.639 -22.770  0.00  0.00     0.087 A 
ATOM     21  C   UNL d   1       5.479  12.561 -23.293  0.00  0.00     0.054 C 
ATOM     22  N   UNL d   1       3.084  11.946 -22.948  0.00  0.00    -0.221 NA
ATOM     23  C   UNL d   1       2.428  10.941 -22.376  0.00  0.00     0.225 A 
ATOM     24  O   UNL d   1       3.248  10.015 -21.810  0.00  0.00    -0.282 OA
ENDBRANCH  16  19
ENDBRANCH  12  13
ENDBRANCH  11  12
ENDBRANCH  10  11
ENDBRANCH   9  10
ENDBRANCH   1   9
BRANCH   6  25
ATOM     25  C   UNL d   1       8.512   3.163 -14.484  0.00  0.00     0.059 A 
ATOM     26  C   UNL d   1       7.815   4.025 -13.592  0.00  0.00     0.112 A 
ATOM     27  C   UNL d   1       6.533   3.639 -13.135  0.00  0.00     0.025 A 
ATOM     28  C   UNL d   1       5.949   2.433 -13.556  0.00  0.00     0.002 A 
ATOM     29  C   UNL d   1       6.642   1.584 -14.440  0.00  0.00     0.001 A 
ATOM     30  C   UNL d   1       7.917   1.951 -14.899  0.00  0.00     0.013 A 
BRANCH  26  31
ATOM     31  O   UNL d   1       8.421   5.222 -13.236  0.00  0.00    -0.253 OA
BRANCH  31  32
ATOM     32  C   UNL d   1       7.942   5.976 -12.204  0.00  0.00     0.530 C 
ATOM     33  F   UNL d   1       7.981   5.303 -11.042  0.00  0.00    -0.144 F 
ATOM     34  F   UNL d   1       8.739   7.077 -12.053  0.00  0.00    -0.144 F 
ATOM     35  F   UNL d   1       6.680   6.414 -12.430  0.00  0.00    -0.144 F 
ENDBRANCH  31  32
ENDBRANCH  26  31
ENDBRANCH   6  25
TORSDOF 9
