REMARK  1 active torsions:
REMARK  status: ('A' for Active; 'I' for Inactive)
REMARK    1  A    between atoms: C_4  and  C_5 
ROOT
ATOM      1  O   UNL d   1      10.932   0.766 -17.384  0.00  0.00    -0.289 OA
ATOM      2  C   UNL d   1       9.889   0.941 -16.750  0.00  0.00     0.202 C 
ATOM      3  C   UNL d   1       8.681   0.171 -16.842  0.00  0.00     0.064 C 
ATOM      4  C   UNL d   1       7.866   0.591 -15.866  0.00  0.00     0.097 C 
ATOM      5  O   UNL d   1       8.405   1.600 -15.100  0.00  0.00    -0.326 OA
ATOM      6  C   UNL d   1       9.668   1.997 -15.659  0.00  0.00     0.184 C 
ATOM      7  C   UNL d   1      10.809   2.000 -14.599  0.00  0.00     0.285 C 
ATOM      8  N   UNL d   1      11.411   3.333 -14.433  0.00  0.00     0.140 N 
ATOM      9  C   UNL d   1      10.363   4.258 -13.982  0.00  0.00     0.251 C 
ATOM     10  C   UNL d   1       9.234   4.370 -15.036  0.00  0.00     0.038 C 
ATOM     11  C   UNL d   1       9.525   3.432 -16.226  0.00  0.00     0.039 C 
ATOM     12  C   UNL d   1      10.880   3.885 -16.813  0.00  0.00     0.038 C 
ATOM     13  C   UNL d   1      11.970   3.807 -15.711  0.00  0.00     0.251 C 
ENDROOT
BRANCH   4  14
ATOM     14  C   UNL d   1       6.504   0.101 -15.603  0.00  0.00     0.022 A 
ATOM     15  C   UNL d   1       5.849   0.483 -14.415  0.00  0.00     0.002 A 
ATOM     16  C   UNL d   1       4.559  -0.009 -14.137  0.00  0.00     0.000 A 
ATOM     17  C   UNL d   1       3.918  -0.875 -15.037  0.00  0.00     0.000 A 
ATOM     18  C   UNL d   1       4.564  -1.259 -16.227  0.00  0.00     0.000 A 
ATOM     19  C   UNL d   1       5.856  -0.767 -16.512  0.00  0.00     0.002 A 
ENDBRANCH   4  14
TORSDOF 1
