REMARK  8 active torsions:
REMARK  status: ('A' for Active; 'I' for Inactive)
REMARK    1  A    between atoms: C_3  and  S_4 
REMARK    2  A    between atoms: S_4  and  C_5 
REMARK    3  A    between atoms: C_5  and  C_6 
REMARK    4  A    between atoms: C_6  and  C_7 
REMARK    5  A    between atoms: C_7  and  N_8 
REMARK    6  A    between atoms: N_13  and  C_14 
REMARK    7  A    between atoms: C_20  and  C_21 
REMARK    8  A    between atoms: C_29  and  C_30 
ROOT
ATOM      1  N   UNL d   1      10.248   4.126 -17.227  0.00  0.00     0.138 N 
ATOM      2  C   UNL d   1      11.508   4.003 -16.482  0.00  0.00     0.252 C 
ATOM      3  C   UNL d   1      11.107   3.277 -15.194  0.00  0.00     0.052 C 
ATOM      4  C   UNL d   1      10.710   4.165 -14.009  0.00  0.00     0.021 C 
ATOM      5  C   UNL d   1       9.476   3.469 -13.451  0.00  0.00     0.077 C 
ATOM      6  N   UNL d   1       8.793   2.967 -14.648  0.00  0.00    -0.252 NA
ATOM      7  C   UNL d   1       9.840   2.518 -15.559  0.00  0.00     0.097 C 
ATOM      8  C   UNL d   1       9.559   2.859 -17.029  0.00  0.00     0.266 C 
ENDROOT
BRANCH   1   9
ATOM      9  C   UNL d   1      10.421   4.432 -18.642  0.00  0.00     0.251 C 
BRANCH   9  10
ATOM     10  C   UNL d   1      10.973   5.859 -18.797  0.00  0.00     0.047 C 
BRANCH  10  11
ATOM     11  C   UNL d   1      11.205   6.207 -20.279  0.00  0.00     0.067 C 
BRANCH  11  12
ATOM     12  S   UNL d   1      12.069   7.793 -20.476  0.00  0.00    -0.075 SA
BRANCH  12  13
ATOM     13  C   UNL d   1      13.632   7.430 -19.746  0.00  0.00     0.193 A 
ATOM     14  N   UNL d   1      14.610   8.358 -19.649  0.00  0.00    -0.287 N 
ATOM     15  C   UNL d   1      14.607   9.721 -20.176  0.00  0.00     0.134 C 
ATOM     16  C   UNL d   1      15.583   7.673 -18.977  0.00  0.00     0.186 A 
ATOM     17  N   UNL d   1      15.202   6.422 -18.692  0.00  0.00    -0.127 NA
ATOM     18  N   UNL d   1      13.964   6.255 -19.215  0.00  0.00    -0.122 NA
BRANCH  16  19
ATOM     19  C   UNL d   1      16.916   8.175 -18.585  0.00  0.00     0.136 A 
ATOM     20  N   UNL d   1      17.886   7.237 -18.386  0.00  0.00    -0.238 NA
ATOM     21  C   UNL d   1      19.115   7.678 -18.022  0.00  0.00     0.120 A 
ATOM     22  C   UNL d   1      19.383   9.056 -17.879  0.00  0.00     0.120 A 
ATOM     23  N   UNL d   1      18.435   9.993 -18.069  0.00  0.00    -0.239 NA
ATOM     24  C   UNL d   1      17.202   9.555 -18.414  0.00  0.00     0.121 A 
ENDBRANCH  16  19
ENDBRANCH  12  13
ENDBRANCH  11  12
ENDBRANCH  10  11
ENDBRANCH   9  10
ENDBRANCH   1   9
BRANCH   6  25
ATOM     25  C   UNL d   1       7.649   2.167 -14.443  0.00  0.00     0.041 A 
ATOM     26  C   UNL d   1       6.537   2.624 -13.661  0.00  0.00     0.084 A 
ATOM     27  C   UNL d   1       5.474   1.733 -13.380  0.00  0.00     0.035 A 
ATOM     28  C   UNL d   1       5.450   0.428 -13.903  0.00  0.00     0.140 A 
ATOM     29  C   UNL d   1       6.515  -0.006 -14.711  0.00  0.00     0.031 A 
ATOM     30  F   UNL d   1       4.396  -0.386 -13.655  0.00  0.00    -0.204 F 
ATOM     31  C   UNL d   1       7.595   0.850 -14.981  0.00  0.00     0.013 A 
BRANCH  26  32
ATOM     32  C   UNL d   1       6.452   4.021 -13.037  0.00  0.00     0.420 C 
ATOM     33  F   UNL d   1       6.822   3.958 -11.771  0.00  0.00    -0.166 F 
ATOM     34  F   UNL d   1       7.237   4.921 -13.623  0.00  0.00    -0.166 F 
ATOM     35  F   UNL d   1       5.172   4.440 -13.076  0.00  0.00    -0.166 F 
ENDBRANCH  26  32
ENDBRANCH   6  25
TORSDOF 8
