REMARK  6 active torsions:
REMARK  status: ('A' for Active; 'I' for Inactive)
REMARK    1  A    between atoms: C_2  and  C_3 
REMARK    2  A    between atoms: C_3  and  N_4 
REMARK    3  A    between atoms: C_8  and  C_9 
REMARK    4  A    between atoms: C_14  and  O_15 
REMARK    5  A    between atoms: O_15  and  S_16 
REMARK    6  A    between atoms: S_16  and  C_19 
ROOT
ATOM      1  C   UNL d   1       7.391   2.409 -14.435  0.00  0.00     0.003 A 
ATOM      2  C   UNL d   1       6.232   2.128 -13.663  0.00  0.00    -0.002 A 
ATOM      3  C   UNL d   1       5.537   0.917 -13.795  0.00  0.00    -0.000 A 
ATOM      4  C   UNL d   1       5.981  -0.027 -14.721  0.00  0.00     0.002 A 
ATOM      5  C   UNL d   1       7.102   0.242 -15.517  0.00  0.00     0.025 A 
ATOM      6  C   UNL d   1       7.838   1.458 -15.397  0.00  0.00     0.110 A 
ENDROOT
BRANCH   1   7
ATOM      7  C   UNL d   1       8.194   3.714 -14.186  0.00  0.00     0.058 C 
ATOM      8  C   UNL d   1       9.605   3.453 -13.640  0.00  0.00     0.009 C 
ATOM      9  C   UNL d   1      10.298   4.785 -13.323  0.00  0.00     0.036 C 
ATOM     10  C   UNL d   1       9.444   5.639 -12.366  0.00  0.00     0.250 C 
ATOM     11  N   UNL d   1       8.161   5.951 -12.991  0.00  0.00     0.137 N 
ATOM     12  C   UNL d   1       7.459   4.687 -13.222  0.00  0.00     0.255 C 
BRANCH  11  13
ATOM     13  C   UNL d   1       7.344   6.783 -12.099  0.00  0.00     0.250 C 
BRANCH  13  14
ATOM     14  C   UNL d   1       6.155   7.422 -12.845  0.00  0.00     0.035 C 
ATOM     15  C   UNL d   1       5.284   8.348 -12.035  0.00  0.00     0.002 C 
ENDBRANCH  13  14
ENDBRANCH  11  13
ENDBRANCH   1   7
BRANCH   6  16
ATOM     16  O   UNL d   1       8.916   1.751 -16.215  0.00  0.00    -0.225 OA
BRANCH  16  17
ATOM     17  S   UNL d   1       9.716   0.485 -17.018  0.00  0.00     0.374 S 
ATOM     18  O   UNL d   1      10.260  -0.430 -15.990  0.00  0.00    -0.189 OA
ATOM     19  O   UNL d   1       8.837  -0.011 -18.081  0.00  0.00    -0.189 OA
BRANCH  17  20
ATOM     20  C   UNL d   1      11.112   1.376 -17.825  0.00  0.00     0.524 C 
ATOM     21  F   UNL d   1      11.065   2.671 -17.524  0.00  0.00    -0.155 F 
ATOM     22  F   UNL d   1      12.267   0.851 -17.416  0.00  0.00    -0.155 F 
ATOM     23  F   UNL d   1      10.997   1.217 -19.145  0.00  0.00    -0.155 F 
ENDBRANCH  17  20
ENDBRANCH  16  17
ENDBRANCH   6  16
TORSDOF 6
