REMARK  3 active torsions:
REMARK  status: ('A' for Active; 'I' for Inactive)
REMARK    1  A    between atoms: C_5  and  C_6 
REMARK    2  A    between atoms: C_6  and  N_7 
REMARK    3  A    between atoms: N_10  and  C_11 
ROOT
ATOM      1  C   UNL d   1      10.624   1.465 -15.642  0.00  0.00     0.297 C 
ATOM      2  C   UNL d   1       9.816   0.184 -15.416  0.00  0.00     0.048 C 
ATOM      3  C   UNL d   1       8.374   0.346 -15.869  0.00  0.00     0.030 C 
ATOM      4  C   UNL d   1       8.123   0.136 -17.343  0.00  0.00    -0.006 A 
ATOM      5  C   UNL d   1       7.003  -0.586 -17.816  0.00  0.00    -0.003 A 
ATOM      6  C   UNL d   1       6.736  -0.718 -19.192  0.00  0.00    -0.001 A 
ATOM      7  C   UNL d   1       7.582  -0.109 -20.134  0.00  0.00    -0.003 A 
ATOM      8  C   UNL d   1       8.698   0.615 -19.683  0.00  0.00    -0.005 A 
ATOM      9  C   UNL d   1       8.984   0.733 -18.311  0.00  0.00     0.054 A 
ATOM     10  N   UNL d   1      10.213   1.476 -18.153  0.00  0.00    -0.300 N 
ATOM     11  C   UNL d   1      11.070   1.585 -17.103  0.00  0.00     0.269 C 
ATOM     12  O   UNL d   1      12.264   1.833 -17.276  0.00  0.00    -0.270 OA
ATOM     13  C   UNL d   1      10.697   1.946 -19.464  0.00  0.00     0.093 A 
ATOM     14  C   UNL d   1      10.752   3.485 -19.552  0.00  0.00     0.025 C 
ATOM     15  C   UNL d   1       9.735   1.349 -20.481  0.00  0.00     0.050 A 
ENDROOT
BRANCH   1  16
ATOM     16  N   UNL d   1      10.023   2.717 -15.122  0.00  0.00     0.148 N 
ATOM     17  C   UNL d   1       9.742   2.615 -13.699  0.00  0.00     0.286 C 
ATOM     18  C   UNL d   1       9.113   3.864 -13.104  0.00  0.00     0.286 C 
ATOM     19  N   UNL d   1       9.946   5.058 -13.290  0.00  0.00     0.146 N 
ATOM     20  C   UNL d   1      10.200   5.178 -14.726  0.00  0.00     0.286 C 
ATOM     21  C   UNL d   1      10.854   3.921 -15.317  0.00  0.00     0.286 C 
BRANCH  19  22
ATOM     22  C   UNL d   1       9.325   6.269 -12.730  0.00  0.00     0.277 C 
BRANCH  22  23
ATOM     23  C   UNL d   1       9.342   6.365 -11.205  0.00  0.00     0.011 A 
ATOM     24  C   UNL d   1       8.581   5.481 -10.401  0.00  0.00    -0.003 A 
ATOM     25  C   UNL d   1       8.689   5.523  -8.999  0.00  0.00    -0.004 A 
ATOM     26  C   UNL d   1       9.467   6.520  -8.379  0.00  0.00    -0.022 A 
ATOM     27  C   UNL d   1       9.496   6.609  -6.873  0.00  0.00     0.031 C 
ATOM     28  C   UNL d   1      10.169   7.453  -9.164  0.00  0.00    -0.004 A 
ATOM     29  C   UNL d   1      10.107   7.370 -10.563  0.00  0.00    -0.003 A 
ENDBRANCH  22  23
ENDBRANCH  19  22
ENDBRANCH   1  16
TORSDOF 3
