REMARK  8 active torsions:
REMARK  status: ('A' for Active; 'I' for Inactive)
REMARK    1  A    between atoms: S_2  and  C_4 
REMARK    2  A    between atoms: S_2  and  N_10 
REMARK    3  A    between atoms: N_10  and  C_11 
REMARK    4  A    between atoms: N_10  and  C_30 
REMARK    5  A    between atoms: C_11  and  C_12 
REMARK    6  A    between atoms: C_12  and  C_13 
REMARK    7  A    between atoms: C_13  and  N_14 
REMARK    8  A    between atoms: C_17  and  C_18 
ROOT
ATOM      1  C   UNL d   1      12.169   6.294 -17.913  0.00  0.00     0.252 C 
ENDROOT
BRANCH   1   2
ATOM      2  C   UNL d   1      11.751   5.025 -17.176  0.00  0.00     0.060 C 
BRANCH   2   3
ATOM      3  C   UNL d   1      10.241   4.920 -16.914  0.00  0.00     0.115 C 
BRANCH   3   4
ATOM      4  N   UNL d   1       9.976   3.738 -16.077  0.00  0.00    -0.271 N 
BRANCH   4   5
ATOM      5  S   UNL d   1      10.246   3.835 -14.352  0.00  0.00     0.264 S 
ATOM      6  O   UNL d   1      10.996   5.102 -14.072  0.00  0.00    -0.200 OA
ATOM      7  O   UNL d   1      10.772   2.566 -13.901  0.00  0.00    -0.200 OA
BRANCH   5   8
ATOM      8  C   UNL d   1       8.624   4.044 -13.647  0.00  0.00     0.103 A 
ATOM      9  C   UNL d   1       7.558   3.205 -14.041  0.00  0.00     0.013 A 
ATOM     10  C   UNL d   1       6.288   3.388 -13.449  0.00  0.00     0.001 A 
ATOM     11  C   UNL d   1       6.101   4.389 -12.476  0.00  0.00     0.000 A 
ATOM     12  C   UNL d   1       7.175   5.217 -12.086  0.00  0.00     0.001 A 
ATOM     13  C   UNL d   1       8.440   5.041 -12.675  0.00  0.00     0.013 A 
ENDBRANCH   5   8
ENDBRANCH   4   5
BRANCH   4  14
ATOM     14  C   UNL d   1       9.724   2.469 -16.805  0.00  0.00     0.151 C 
ATOM     15  C   UNL d   1      10.757   1.921 -17.804  0.00  0.00     0.168 C 
ATOM     16  O   UNL d   1      10.344   0.567 -17.518  0.00  0.00    -0.350 OA
ATOM     17  C   UNL d   1       9.859   1.054 -16.226  0.00  0.00     0.168 C 
ENDBRANCH   4  14
ENDBRANCH   3   4
ENDBRANCH   2   3
ENDBRANCH   1   2
BRANCH   1  18
ATOM     18  N   UNL d   1      13.587   6.233 -18.273  0.00  0.00     0.137 N 
ATOM     19  C   UNL d   1      13.868   7.312 -19.220  0.00  0.00     0.251 C 
ATOM     20  C   UNL d   1      15.330   7.254 -19.691  0.00  0.00     0.041 C 
ATOM     21  C   UNL d   1      16.301   7.325 -18.504  0.00  0.00     0.047 C 
ATOM     22  C   UNL d   1      15.916   6.277 -17.453  0.00  0.00     0.041 C 
ATOM     23  C   UNL d   1      14.434   6.381 -17.083  0.00  0.00     0.251 C 
BRANCH  21  24
ATOM     24  C   UNL d   1      17.737   7.170 -18.940  0.00  0.00     0.087 A 
ATOM     25  C   UNL d   1      18.803   8.094 -18.959  0.00  0.00     0.041 A 
ATOM     26  C   UNL d   1      19.941   7.465 -19.470  0.00  0.00     0.129 A 
ATOM     27  C   UNL d   1      18.867   9.453 -18.581  0.00  0.00     0.006 A 
ATOM     28  O   UNL d   1      19.550   6.166 -19.743  0.00  0.00    -0.211 OA
ATOM     29  C   UNL d   1      21.169   8.121 -19.628  0.00  0.00     0.057 A 
ATOM     30  N   UNL d   1      18.177   6.002 -19.420  0.00  0.00    -0.131 NA
ATOM     31  C   UNL d   1      21.239   9.477 -19.243  0.00  0.00     0.142 A 
ATOM     32  F   UNL d   1      22.409  10.149 -19.361  0.00  0.00    -0.204 F 
ATOM     33  C   UNL d   1      20.096  10.137 -18.727  0.00  0.00     0.030 A 
ENDBRANCH  21  24
ENDBRANCH   1  18
TORSDOF 8
