REMARK  1 active torsions:
REMARK  status: ('A' for Active; 'I' for Inactive)
REMARK    1  A    between atoms: N_2  and  C_4 
ROOT
ATOM      1  C   UNL d   1      11.699   8.111  -4.446  0.00  0.00     0.224 C 
ATOM      2  C   UNL d   1      11.305   9.552  -4.818  0.00  0.00     0.038 C 
ATOM      3  C   UNL d   1      11.526   9.847  -6.308  0.00  0.00     0.028 C 
ATOM      4  C   UNL d   1      11.014   8.760  -7.232  0.00  0.00    -0.026 A 
ATOM      5  C   UNL d   1      10.859   9.043  -8.609  0.00  0.00    -0.003 A 
ATOM      6  C   UNL d   1      10.370   8.073  -9.493  0.00  0.00     0.027 A 
ATOM      7  C   UNL d   1      10.060   6.786  -9.012  0.00  0.00     0.131 A 
ATOM      8  O   UNL d   1       9.580   5.830  -9.855  0.00  0.00    -0.190 OA
ATOM      9  C   UNL d   1      10.241   6.487  -7.649  0.00  0.00     0.023 A 
ATOM     10  C   UNL d   1      10.711   7.472  -6.754  0.00  0.00    -0.022 A 
ATOM     11  C   UNL d   1      10.870   7.101  -5.284  0.00  0.00     0.059 C 
ENDROOT
BRANCH   1  12
ATOM     12  N   UNL d   1      11.615   7.839  -2.995  0.00  0.00     0.140 N 
ATOM     13  C   UNL d   1      12.020   6.481  -2.650  0.00  0.00     0.285 C 
ATOM     14  C   UNL d   1      12.405   8.741  -2.163  0.00  0.00     0.285 C 
ENDBRANCH   1  12
TORSDOF 1
