REMARK  8 active torsions:
REMARK  status: ('A' for Active; 'I' for Inactive)
REMARK    1  A    between atoms: N_12  and  C_13 
REMARK    2  A    between atoms: C_13  and  C_14 
REMARK    3  A    between atoms: C_14  and  C_15 
REMARK    4  A    between atoms: C_15  and  C_16 
REMARK    5  A    between atoms: C_16  and  C_17 
REMARK    6  A    between atoms: C_17  and  C_18 
REMARK    7  A    between atoms: C_18  and  N_19 
REMARK    8  A    between atoms: N_22  and  C_23 
ROOT
ATOM      1  C   UNL d   1       8.993   3.287 -13.934  0.00  0.00     0.002 C 
ENDROOT
BRANCH   1   2
ATOM      2  C   UNL d   1      10.024   3.079 -15.040  0.00  0.00     0.025 C 
BRANCH   2   3
ATOM      3  C   UNL d   1       9.777   1.831 -15.906  0.00  0.00     0.122 C 
BRANCH   3   4
ATOM      4  N   UNL d   1      10.855   1.633 -16.899  0.00  0.00    -0.221 N 
ATOM      5  C   UNL d   1      11.065   0.403 -17.551  0.00  0.00     0.271 A 
ATOM      6  O   UNL d   1      10.438  -0.636 -17.354  0.00  0.00    -0.266 OA
ATOM      7  C   UNL d   1      12.222   0.553 -18.494  0.00  0.00     0.069 A 
ATOM      8  C   UNL d   1      12.727   1.848 -18.581  0.00  0.00     0.108 A 
ATOM      9  C   UNL d   1      12.825  -0.480 -19.244  0.00  0.00     0.005 A 
ATOM     10  C   UNL d   1      13.836   2.191 -19.369  0.00  0.00     0.013 A 
ATOM     11  S   UNL d   1      11.829   2.923 -17.522  0.00  0.00     0.270 S 
ATOM     12  C   UNL d   1      14.444   1.161 -20.117  0.00  0.00     0.001 A 
ATOM     13  C   UNL d   1      13.942  -0.163 -20.055  0.00  0.00     0.000 A 
ATOM     14  O   UNL d   1      12.706   3.426 -16.458  0.00  0.00    -0.200 OA
ATOM     15  O   UNL d   1      10.980   3.819 -18.323  0.00  0.00    -0.200 OA
ENDBRANCH   3   4
ENDBRANCH   2   3
ENDBRANCH   1   2
BRANCH   1  16
ATOM     16  C   UNL d   1       9.230   4.606 -13.174  0.00  0.00     0.002 C 
BRANCH  16  17
ATOM     17  C   UNL d   1       8.197   4.825 -12.062  0.00  0.00     0.035 C 
BRANCH  17  18
ATOM     18  C   UNL d   1       8.299   6.204 -11.403  0.00  0.00     0.250 C 
BRANCH  18  19
ATOM     19  N   UNL d   1       9.461   6.278 -10.522  0.00  0.00     0.141 N 
ATOM     20  C   UNL d   1       9.951   7.661 -10.471  0.00  0.00     0.275 C 
ATOM     21  C   UNL d   1      11.186   7.758  -9.558  0.00  0.00     0.155 C 
ATOM     22  N   UNL d   1      10.866   7.277  -8.212  0.00  0.00    -0.179 N 
ATOM     23  C   UNL d   1      10.256   5.947  -8.202  0.00  0.00     0.155 C 
ATOM     24  C   UNL d   1       9.055   5.897  -9.161  0.00  0.00     0.275 C 
BRANCH  22  25
ATOM     25  C   UNL d   1      11.105   8.008  -7.052  0.00  0.00     0.727 A 
ATOM     26  N   UNL d   1      11.203   7.326  -5.908  0.00  0.00    -0.060 NA
ATOM     27  C   UNL d   1      11.458   8.023  -4.787  0.00  0.00     0.120 A 
ATOM     28  C   UNL d   1      11.573   9.424  -4.794  0.00  0.00     0.043 A 
ATOM     29  C   UNL d   1      11.457  10.040  -6.049  0.00  0.00     0.120 A 
ATOM     30  N   UNL d   1      11.226   9.334  -7.171  0.00  0.00    -0.060 NA
ENDBRANCH  22  25
ENDBRANCH  18  19
ENDBRANCH  17  18
ENDBRANCH  16  17
ENDBRANCH   1  16
TORSDOF 8
