REMARK  2 active torsions:
REMARK  status: ('A' for Active; 'I' for Inactive)
REMARK    1  A    between atoms: C_7  and  C_8 
REMARK       I    between atoms: C_8  and  N_10 
REMARK    2  A    between atoms: C_19  and  N_20 
ROOT
ATOM      1  C   UNL d   1      11.044   1.057 -16.810  0.00  0.00     0.264 C 
ATOM      2  O   UNL d   1      11.202   0.536 -15.704  0.00  0.00    -0.267 OA
ATOM      3  N   UNL d   1       9.949   1.790 -17.095  0.00  0.00    -0.273 N 
ATOM      4  C   UNL d   1       9.361   1.972 -18.390  0.00  0.00     0.085 A 
ATOM      5  C   UNL d   1      10.060   2.708 -19.389  0.00  0.00     0.020 A 
ATOM      6  C   UNL d   1       9.494   2.987 -20.616  0.00  0.00     0.013 A 
ATOM      7  C   UNL d   1       8.228   2.507 -20.928  0.00  0.00     0.059 A 
ATOM      8 CL   UNL d   1       7.571   2.851 -22.503  0.00  0.00    -0.082 Cl
ATOM      9  C   UNL d   1       7.515   1.738 -19.968  0.00  0.00     0.032 A 
ATOM     10  C   UNL d   1       8.063   1.484 -18.680  0.00  0.00     0.100 A 
ATOM     11  N   UNL d   1       7.279   0.678 -17.815  0.00  0.00    -0.227 NA
ATOM     12  C   UNL d   1       7.164   0.884 -16.538  0.00  0.00     0.141 C 
ATOM     13  C   UNL d   1       7.838   2.030 -15.816  0.00  0.00     0.050 A 
ATOM     14  C   UNL d   1       7.116   2.749 -14.819  0.00  0.00     0.004 A 
ATOM     15  C   UNL d   1       7.714   3.736 -14.042  0.00  0.00     0.000 A 
ATOM     16  C   UNL d   1       9.061   4.058 -14.241  0.00  0.00     0.002 A 
ATOM     17  C   UNL d   1       9.798   3.375 -15.233  0.00  0.00     0.018 A 
ATOM     18  C   UNL d   1       9.188   2.380 -16.040  0.00  0.00     0.070 A 
ENDROOT
BRANCH   1  19
ATOM     19  C   UNL d   1      12.029   0.785 -17.914  0.00  0.00     0.053 A 
ATOM     20  C   UNL d   1      12.878   1.820 -18.407  0.00  0.00    -0.017 A 
ATOM     21  C   UNL d   1      12.906   3.233 -17.783  0.00  0.00     0.031 C 
ATOM     22  C   UNL d   1      13.742   1.521 -19.489  0.00  0.00    -0.004 A 
ATOM     23  C   UNL d   1      13.823   0.221 -20.034  0.00  0.00    -0.000 A 
ATOM     24  C   UNL d   1      13.024  -0.810 -19.504  0.00  0.00     0.000 A 
ATOM     25  C   UNL d   1      12.122  -0.527 -18.455  0.00  0.00     0.004 A 
ENDBRANCH   1  19
BRANCH  12  26
ATOM     26  N   UNL d   1       6.421   0.022 -15.723  0.00  0.00    -0.330 N 
ATOM     27  C   UNL d   1       5.386  -0.862 -16.253  0.00  0.00     0.138 C 
ATOM     28  C   UNL d   1       4.088  -0.654 -15.456  0.00  0.00     0.274 C 
ATOM     29  N   UNL d   1       4.297  -0.857 -14.034  0.00  0.00     0.143 N 
ATOM     30  C   UNL d   1       5.300   0.089 -13.540  0.00  0.00     0.274 C 
ATOM     31  C   UNL d   1       3.038  -0.654 -13.331  0.00  0.00     0.286 C 
ATOM     32  C   UNL d   1       6.623  -0.179 -14.284  0.00  0.00     0.138 C 
ENDBRANCH  12  26
TORSDOF 2
