REMARK  5 active torsions:
REMARK  status: ('A' for Active; 'I' for Inactive)
REMARK    1  A    between atoms: C_5  and  N_6 
REMARK    2  A    between atoms: N_9  and  C_10 
REMARK    3  A    between atoms: C_10  and  C_11 
REMARK    4  A    between atoms: C_11  and  C_12 
REMARK    5  A    between atoms: C_12  and  C_13 
ROOT
ATOM      1  N   UNL d   1       9.798   3.752 -14.577  0.00  0.00    -0.344 N 
ATOM      2  C   UNL d   1      10.494   3.465 -13.332  0.00  0.00     0.137 C 
ATOM      3  C   UNL d   1       9.681   3.997 -12.136  0.00  0.00     0.274 C 
ATOM      4  N   UNL d   1       9.420   5.433 -12.283  0.00  0.00     0.141 N 
ATOM      5  C   UNL d   1       8.628   5.619 -13.498  0.00  0.00     0.274 C 
ATOM      6  C   UNL d   1       9.422   5.145 -14.739  0.00  0.00     0.137 C 
ENDROOT
BRANCH   4   7
ATOM      7  C   UNL d   1       8.658   5.901 -11.125  0.00  0.00     0.251 C 
BRANCH   7   8
ATOM      8  C   UNL d   1       9.597   6.374 -10.005  0.00  0.00     0.042 C 
BRANCH   8   9
ATOM      9  C   UNL d   1       8.977   6.186  -8.614  0.00  0.00     0.055 C 
BRANCH   9  10
ATOM     10  C   UNL d   1       9.683   6.984  -7.563  0.00  0.00     0.088 A 
ATOM     11  S   UNL d   1       9.550   8.743  -7.462  0.00  0.00    -0.071 SA
ATOM     12  C   UNL d   1      10.588   8.708  -6.037  0.00  0.00     0.048 A 
ATOM     13  C   UNL d   1      10.952   7.362  -5.751  0.00  0.00     0.087 A 
ATOM     14  C   UNL d   1      11.021   9.774  -5.226  0.00  0.00     0.008 A 
ATOM     15  N   UNL d   1      10.484   6.414  -6.655  0.00  0.00    -0.243 NA
ATOM     16  C   UNL d   1      11.740   7.124  -4.600  0.00  0.00     0.020 A 
ATOM     17  C   UNL d   1      12.177   8.185  -3.782  0.00  0.00     0.002 A 
ATOM     18  C   UNL d   1      11.810   9.508  -4.089  0.00  0.00     0.001 A 
ENDBRANCH   9  10
ENDBRANCH   8   9
ENDBRANCH   7   8
ENDBRANCH   4   7
BRANCH   1  19
ATOM     19  C   UNL d   1       9.511   2.768 -15.542  0.00  0.00     0.056 A 
ATOM     20  C   UNL d   1       9.404   3.104 -16.914  0.00  0.00     0.018 A 
ATOM     21  C   UNL d   1       9.098   2.118 -17.875  0.00  0.00     0.013 A 
ATOM     22  C   UNL d   1       8.909   0.781 -17.478  0.00  0.00     0.058 A 
ATOM     23 CL   UNL d   1       8.541  -0.430 -18.645  0.00  0.00    -0.082 Cl
ATOM     24  C   UNL d   1       9.019   0.436 -16.122  0.00  0.00     0.013 A 
ATOM     25  C   UNL d   1       9.310   1.418 -15.161  0.00  0.00     0.018 A 
ENDBRANCH   1  19
TORSDOF 5
