REMARK  5 active torsions:
REMARK  status: ('A' for Active; 'I' for Inactive)
REMARK    1  A    between atoms: C_2  and  C_3 
REMARK    2  A    between atoms: C_3  and  C_4 
REMARK    3  A    between atoms: C_4  and  N_5 
REMARK    4  A    between atoms: N_11  and  C_12 
REMARK    5  A    between atoms: C_17  and  O_18 
ROOT
ATOM      1  N   UNL d   1      10.254   6.500 -10.038  0.00  0.00     0.137 N 
ATOM      2  C   UNL d   1       9.808   7.597 -10.890  0.00  0.00     0.250 C 
ATOM      3  C   UNL d   1       9.155   6.886 -12.081  0.00  0.00     0.039 C 
ATOM      4  C   UNL d   1       8.753   5.484 -11.547  0.00  0.00     0.056 C 
ATOM      5  C   UNL d   1       7.250   5.191 -11.594  0.00  0.00     0.028 C 
ATOM      6  C   UNL d   1       7.007   4.458 -12.899  0.00  0.00     0.102 C 
ATOM      7  N   UNL d   1       8.261   3.892 -13.237  0.00  0.00    -0.346 N 
ATOM      8  C   UNL d   1       9.362   4.355 -12.375  0.00  0.00     0.103 C 
ATOM      9  C   UNL d   1       9.239   5.461 -10.100  0.00  0.00     0.252 C 
ENDROOT
BRANCH   7  10
ATOM     10  C   UNL d   1       8.467   3.011 -14.335  0.00  0.00     0.079 A 
ATOM     11  C   UNL d   1       9.458   3.292 -15.305  0.00  0.00     0.110 A 
ATOM     12  C   UNL d   1       9.618   2.374 -16.384  0.00  0.00     0.026 A 
ATOM     13  C   UNL d   1       8.791   1.238 -16.477  0.00  0.00     0.002 A 
ATOM     14  C   UNL d   1       7.795   0.991 -15.517  0.00  0.00     0.002 A 
ATOM     15  C   UNL d   1       7.636   1.907 -14.435  0.00  0.00     0.019 A 
BRANCH  11  16
ATOM     16  O   UNL d   1      10.170   4.461 -15.207  0.00  0.00    -0.327 OA
ATOM     17  C   UNL d   1      11.221   4.711 -16.122  0.00  0.00     0.181 C 
ENDBRANCH  11  16
ENDBRANCH   7  10
BRANCH   1  18
ATOM     18  C   UNL d   1      10.579   6.860  -8.662  0.00  0.00     0.250 C 
BRANCH  18  19
ATOM     19  C   UNL d   1       9.432   7.587  -7.913  0.00  0.00     0.035 C 
BRANCH  19  20
ATOM     20  C   UNL d   1       9.878   8.194  -6.593  0.00  0.00     0.002 C 
ATOM     21  C   UNL d   1      10.407   7.147  -5.607  0.00  0.00     0.000 C 
ENDBRANCH  19  20
ENDBRANCH  18  19
ENDBRANCH   1  18
TORSDOF 5
