REMARK  5 active torsions:
REMARK  status: ('A' for Active; 'I' for Inactive)
REMARK    1  A    between atoms: C_2  and  N_3 
REMARK    2  A    between atoms: N_3  and  C_4 
REMARK    3  A    between atoms: N_3  and  S_17 
REMARK    4  A    between atoms: C_8  and  N_9 
REMARK    5  A    between atoms: S_17  and  C_20 
ROOT
ATOM      1  N   UNL d   1       7.799  -0.022 -17.280  0.00  0.00    -0.254 N 
ENDROOT
BRANCH   1   2
ATOM      2  C   UNL d   1       6.880  -0.603 -18.270  0.00  0.00     0.118 C 
ATOM      3  C   UNL d   1       6.076   0.470 -19.018  0.00  0.00     0.027 C 
ENDBRANCH   1   2
BRANCH   1   4
ATOM      4  C   UNL d   1       7.169   0.461 -16.112  0.00  0.00     0.072 A 
ATOM      5  C   UNL d   1       7.485   1.750 -15.615  0.00  0.00     0.035 A 
ATOM      6  C   UNL d   1       6.908   2.238 -14.418  0.00  0.00     0.058 A 
ATOM      7  C   UNL d   1       5.976   1.425 -13.733  0.00  0.00     0.017 A 
ATOM      8  C   UNL d   1       5.632   0.159 -14.231  0.00  0.00     0.003 A 
ATOM      9  C   UNL d   1       6.233  -0.326 -15.402  0.00  0.00     0.018 A 
BRANCH   6  10
ATOM     10  N   UNL d   1       7.257   3.512 -13.920  0.00  0.00    -0.344 N 
ATOM     11  C   UNL d   1       6.348   4.294 -13.089  0.00  0.00     0.137 C 
ATOM     12  C   UNL d   1       7.020   4.663 -11.759  0.00  0.00     0.274 C 
ATOM     13  N   UNL d   1       8.289   5.357 -11.998  0.00  0.00     0.143 N 
ATOM     14  C   UNL d   1       9.197   4.471 -12.730  0.00  0.00     0.274 C 
ATOM     15  C   UNL d   1       8.883   5.729 -10.719  0.00  0.00     0.286 C 
ATOM     16  C   UNL d   1       8.588   4.093 -14.096  0.00  0.00     0.137 C 
ENDBRANCH   6  10
ENDBRANCH   1   4
BRANCH   1  17
ATOM     17  S   UNL d   1       9.538  -0.152 -17.505  0.00  0.00     0.268 S 
ATOM     18  O   UNL d   1      10.066  -0.672 -16.234  0.00  0.00    -0.200 OA
ATOM     19  O   UNL d   1       9.781  -0.865 -18.768  0.00  0.00    -0.200 OA
BRANCH  17  20
ATOM     20  C   UNL d   1      10.070   1.542 -17.695  0.00  0.00     0.104 A 
ATOM     21  C   UNL d   1      10.948   2.107 -16.749  0.00  0.00     0.013 A 
ATOM     22  C   UNL d   1      11.287   3.471 -16.846  0.00  0.00     0.001 A 
ATOM     23  C   UNL d   1      10.754   4.260 -17.899  0.00  0.00     0.000 A 
ATOM     24  C   UNL d   1      12.139   4.058 -15.889  0.00  0.00     0.000 A 
ATOM     25  C   UNL d   1       9.899   3.675 -18.856  0.00  0.00     0.001 A 
ATOM     26  C   UNL d   1      11.079   5.630 -17.980  0.00  0.00     0.000 A 
ATOM     27  C   UNL d   1       9.557   2.313 -18.756  0.00  0.00     0.013 A 
ATOM     28  C   UNL d   1      11.926   6.211 -17.017  0.00  0.00     0.000 A 
ATOM     29  C   UNL d   1      12.453   5.427 -15.974  0.00  0.00     0.000 A 
ENDBRANCH  17  20
ENDBRANCH   1  17
TORSDOF 5
