REMARK  11 active torsions:
REMARK  status: ('A' for Active; 'I' for Inactive)
REMARK    1  A    between atoms: C_2  and  C_3 
REMARK    2  A    between atoms: C_3  and  N_4 
REMARK    3  A    between atoms: N_4  and  C_5 
REMARK    4  A    between atoms: N_4  and  C_21 
REMARK    5  A    between atoms: C_5  and  C_6 
REMARK    6  A    between atoms: C_6  and  C_7 
REMARK    7  A    between atoms: C_7  and  C_8 
REMARK    8  A    between atoms: C_8  and  N_9 
REMARK       I    between atoms: N_9  and  C_10 
REMARK    9  A    between atoms: C_10  and  C_12 
REMARK   10  A    between atoms: C_21  and  C_22 
REMARK   11  A    between atoms: C_24  and  C_25 
ROOT
ATOM      1  C   UNL d   1       9.901   4.985 -13.142  0.00  0.00     0.250 C 
ENDROOT
BRANCH   1   2
ATOM      2  N   UNL d   1       9.767   4.725 -14.563  0.00  0.00     0.137 N 
BRANCH   2   3
ATOM      3  C   UNL d   1      10.883   5.351 -15.305  0.00  0.00     0.250 C 
BRANCH   3   4
ATOM      4  C   UNL d   1      10.618   5.477 -16.834  0.00  0.00     0.035 C 
ATOM      5  C   UNL d   1      10.746   4.186 -17.652  0.00  0.00     0.002 C 
ENDBRANCH   3   4
ENDBRANCH   2   3
BRANCH   2   6
ATOM      6  C   UNL d   1       9.795   3.300 -14.773  0.00  0.00     0.251 C 
BRANCH   6   7
ATOM      7  C   UNL d   1       8.869   2.463 -13.950  0.00  0.00     0.038 A 
ATOM      8  C   UNL d   1       8.402   1.122 -14.475  0.00  0.00     0.024 A 
ATOM      9  C   UNL d   1       7.416   2.259 -14.403  0.00  0.00     0.007 A 
BRANCH   8  10
ATOM     10  C   UNL d   1       8.897   0.611 -15.791  0.00  0.00    -0.020 A 
ATOM     11  C   UNL d   1       7.983   0.376 -16.838  0.00  0.00     0.025 A 
ATOM     12  C   UNL d   1       8.434  -0.045 -18.102  0.00  0.00     0.140 A 
ATOM     13  C   UNL d   1       9.808  -0.243 -18.328  0.00  0.00     0.030 A 
ATOM     14  F   UNL d   1       7.540  -0.256 -19.092  0.00  0.00    -0.204 F 
ATOM     15  C   UNL d   1      10.733  -0.013 -17.294  0.00  0.00     0.002 A 
ATOM     16  C   UNL d   1      10.279   0.399 -16.024  0.00  0.00    -0.004 A 
ENDBRANCH   8  10
ENDBRANCH   6   7
ENDBRANCH   2   6
ENDBRANCH   1   2
BRANCH   1  17
ATOM     17  C   UNL d   1       9.457   6.425 -12.782  0.00  0.00     0.037 C 
BRANCH  17  18
ATOM     18  C   UNL d   1       9.542   6.588 -11.291  0.00  0.00     0.029 C 
BRANCH  18  19
ATOM     19  C   UNL d   1       9.631   8.038 -10.816  0.00  0.00     0.129 C 
BRANCH  19  20
ATOM     20  N   UNL d   1       9.872   8.177  -9.384  0.00  0.00    -0.233 NA
ATOM     21  C   UNL d   1      10.212   7.242  -8.483  0.00  0.00     0.293 C 
ATOM     22  O   UNL d   1      10.235   6.027  -8.681  0.00  0.00    -0.264 OA
BRANCH  21  23
ATOM     23  C   UNL d   1      10.626   7.733  -7.167  0.00  0.00     0.139 A 
ATOM     24  N   UNL d   1      11.077   6.794  -6.263  0.00  0.00    -0.241 NA
ATOM     25  C   UNL d   1      11.403   7.377  -5.070  0.00  0.00     0.082 A 
ATOM     26  C   UNL d   1      11.162   8.765  -5.258  0.00  0.00     0.019 A 
ATOM     27  C   UNL d   1      11.845   6.844  -3.859  0.00  0.00     0.019 A 
ATOM     28  C   UNL d   1      10.687   8.978  -6.593  0.00  0.00     0.025 A 
ATOM     29  C   UNL d   1      11.414   9.611  -4.166  0.00  0.00     0.002 A 
ATOM     30  C   UNL d   1      11.881   9.097  -2.949  0.00  0.00     0.000 A 
ATOM     31  C   UNL d   1      12.109   7.717  -2.792  0.00  0.00     0.002 A 
ENDBRANCH  21  23
ENDBRANCH  19  20
ENDBRANCH  18  19
ENDBRANCH  17  18
ENDBRANCH   1  17
TORSDOF 11
