REMARK  6 active torsions:
REMARK  status: ('A' for Active; 'I' for Inactive)
REMARK    1  A    between atoms: C_6  and  C_7 
REMARK    2  A    between atoms: C_10  and  S_11 
REMARK    3  A    between atoms: S_11  and  C_12 
REMARK    4  A    between atoms: C_12  and  C_13 
REMARK    5  A    between atoms: C_13  and  C_14 
REMARK    6  A    between atoms: C_14  and  N_15 
ROOT
ATOM      1  C   UNL d   1       5.037  -0.942 -15.984  0.00  0.00     0.047 C 
ENDROOT
BRANCH   1   2
ATOM      2  C   UNL d   1       5.014  -1.082 -14.454  0.00  0.00     0.067 C 
BRANCH   2   3
ATOM      3  S   UNL d   1       5.175   0.511 -13.633  0.00  0.00    -0.075 SA
BRANCH   3   4
ATOM      4  C   UNL d   1       6.784   0.969 -14.197  0.00  0.00     0.193 A 
ATOM      5  N   UNL d   1       7.676   0.124 -14.710  0.00  0.00    -0.122 NA
ATOM      6  N   UNL d   1       8.766   0.887 -15.020  0.00  0.00    -0.126 NA
ATOM      7  C   UNL d   1       8.490   2.123 -14.593  0.00  0.00     0.191 A 
ATOM      8  N   UNL d   1       7.232   2.236 -14.089  0.00  0.00    -0.287 N 
ATOM      9  C   UNL d   1       6.557   3.380 -13.482  0.00  0.00     0.134 C 
BRANCH   7  10
ATOM     10  C   UNL d   1       9.499   3.173 -14.700  0.00  0.00     0.151 A 
ATOM     11  C   UNL d   1       9.992   4.142 -13.849  0.00  0.00     0.087 A 
ATOM     12  C   UNL d   1       9.652   4.500 -12.428  0.00  0.00     0.054 C 
ATOM     13  N   UNL d   1      10.979   4.840 -14.525  0.00  0.00    -0.221 NA
ATOM     14  C   UNL d   1      11.045   4.276 -15.726  0.00  0.00     0.225 A 
ATOM     15  O   UNL d   1      10.174   3.249 -15.897  0.00  0.00    -0.282 OA
ENDBRANCH   7  10
ENDBRANCH   3   4
ENDBRANCH   2   3
ENDBRANCH   1   2
BRANCH   1  16
ATOM     16  C   UNL d   1       4.301  -2.091 -16.667  0.00  0.00     0.251 C 
BRANCH  16  17
ATOM     17  N   UNL d   1       4.500  -2.050 -18.110  0.00  0.00     0.137 N 
ATOM     18  C   UNL d   1       5.791  -2.613 -18.495  0.00  0.00     0.254 C 
ATOM     19  C   UNL d   1       5.624  -2.847 -20.000  0.00  0.00     0.052 C 
ATOM     20  C   UNL d   1       4.122  -3.121 -20.183  0.00  0.00     0.041 C 
ATOM     21  C   UNL d   1       6.508  -3.979 -20.519  0.00  0.00    -0.024 A 
ATOM     22  C   UNL d   1       6.066  -1.610 -20.849  0.00  0.00     0.011 C 
ATOM     23  C   UNL d   1       3.540  -2.916 -18.785  0.00  0.00     0.251 C 
ATOM     24  C   UNL d   1       7.186  -3.571 -21.690  0.00  0.00    -0.020 A 
ATOM     25  C   UNL d   1       6.698  -5.253 -20.010  0.00  0.00    -0.004 A 
ATOM     26  C   UNL d   1       6.855  -2.148 -22.060  0.00  0.00     0.027 C 
ATOM     27  C   UNL d   1       8.031  -4.437 -22.370  0.00  0.00     0.030 A 
ATOM     28 BR   UNL d   1       8.944  -3.878 -23.964  0.00  0.00    -0.050 Br
ATOM     29  C   UNL d   1       8.226  -5.742 -21.872  0.00  0.00     0.006 A 
ATOM     30  C   UNL d   1       7.574  -6.163 -20.692  0.00  0.00     0.000 A 
ENDBRANCH  16  17
ENDBRANCH   1  16
TORSDOF 6
