REMARK  7 active torsions:
REMARK  status: ('A' for Active; 'I' for Inactive)
REMARK    1  A    between atoms: S_2  and  N_4 
REMARK    2  A    between atoms: S_2  and  C_22 
REMARK    3  A    between atoms: N_4  and  C_5 
REMARK    4  A    between atoms: N_8  and  C_9 
REMARK    5  A    between atoms: C_9  and  C_10 
REMARK    6  A    between atoms: C_10  and  C_11 
REMARK    7  A    between atoms: C_11  and  C_12 
ROOT
ATOM      1  C   UNL d   1       8.830   4.761 -10.745  0.00  0.00     0.151 C 
ATOM      2  C   UNL d   1       8.766   4.725  -9.227  0.00  0.00     0.063 C 
ATOM      3  C   UNL d   1       9.038   6.128  -8.795  0.00  0.00     0.252 C 
ATOM      4  N   UNL d   1       9.932   6.641  -9.820  0.00  0.00     0.139 N 
ATOM      5  C   UNL d   1       9.249   6.210 -11.025  0.00  0.00     0.275 C 
ENDROOT
BRANCH   1   6
ATOM      6  N   UNL d   1       7.496   4.454 -11.280  0.00  0.00    -0.184 NA
BRANCH   6   7
ATOM      7  S   UNL d   1       7.090   4.754 -12.905  0.00  0.00     0.287 S 
ATOM      8  O   UNL d   1       5.654   4.529 -13.075  0.00  0.00    -0.198 OA
ATOM      9  O   UNL d   1       7.774   6.017 -13.246  0.00  0.00    -0.198 OA
BRANCH   7  10
ATOM     10  C   UNL d   1       7.973   3.523 -13.820  0.00  0.00     0.134 A 
ATOM     11  S   UNL d   1       7.098   2.161 -14.446  0.00  0.00    -0.074 SA
ATOM     12  C   UNL d   1       8.561   1.531 -15.170  0.00  0.00     0.032 A 
ATOM     13  C   UNL d   1       9.679   2.392 -14.925  0.00  0.00     0.007 A 
ATOM     14  C   UNL d   1       8.688   0.340 -15.908  0.00  0.00     0.036 A 
ATOM     15  C   UNL d   1       9.312   3.550 -14.145  0.00  0.00     0.020 A 
ATOM     16  C   UNL d   1      10.922   1.987 -15.471  0.00  0.00     0.003 A 
ATOM     17  C   UNL d   1      11.055   0.799 -16.211  0.00  0.00     0.030 A 
ATOM     18  C   UNL d   1       9.931  -0.031 -16.429  0.00  0.00     0.141 A 
ATOM     19  F   UNL d   1      10.074  -1.185 -17.122  0.00  0.00    -0.204 F 
ENDBRANCH   7  10
ENDBRANCH   6   7
ENDBRANCH   1   6
BRANCH   4  20
ATOM     20  C   UNL d   1      10.082   8.107  -9.888  0.00  0.00     0.251 C 
BRANCH  20  21
ATOM     21  C   UNL d   1      10.182   8.717  -8.488  0.00  0.00     0.042 C 
BRANCH  21  22
ATOM     22  C   UNL d   1      11.237   8.059  -7.548  0.00  0.00     0.050 C 
BRANCH  22  23
ATOM     23  C   UNL d   1      11.358   8.777  -6.255  0.00  0.00     0.088 A 
ATOM     24  C   UNL d   1      11.609   8.231  -4.972  0.00  0.00     0.041 A 
ATOM     25  C   UNL d   1      11.697   9.281  -4.064  0.00  0.00     0.126 A 
ATOM     26  C   UNL d   1      11.821   6.901  -4.524  0.00  0.00     0.003 A 
ATOM     27  O   UNL d   1      11.412  10.407  -4.779  0.00  0.00    -0.211 OA
ATOM     28  C   UNL d   1      12.041   9.093  -2.720  0.00  0.00     0.027 A 
ATOM     29  N   UNL d   1      11.257  10.111  -6.153  0.00  0.00    -0.131 NA
ATOM     30  C   UNL d   1      12.259   7.791  -2.268  0.00  0.00     0.002 A 
ATOM     31  C   UNL d   1      12.158   6.696  -3.162  0.00  0.00     0.000 A 
ENDBRANCH  22  23
ENDBRANCH  21  22
ENDBRANCH  20  21
ENDBRANCH   4  20
TORSDOF 7
