REMARK  12 active torsions:
REMARK  status: ('A' for Active; 'I' for Inactive)
REMARK    1  A    between atoms: C_2  and  C_3 
REMARK    2  A    between atoms: C_3  and  N_4 
REMARK    3  A    between atoms: N_4  and  C_5 
REMARK    4  A    between atoms: N_4  and  C_22 
REMARK    5  A    between atoms: C_5  and  C_6 
REMARK    6  A    between atoms: C_6  and  C_7 
REMARK    7  A    between atoms: C_7  and  C_8 
REMARK    8  A    between atoms: C_8  and  N_9 
REMARK       I    between atoms: N_9  and  C_10 
REMARK    9  A    between atoms: C_10  and  C_12 
REMARK   10  A    between atoms: C_22  and  C_23 
REMARK   11  A    between atoms: C_25  and  C_26 
REMARK   12  A    between atoms: C_29  and  C_30 
ROOT
ATOM      1  N   UNL d   1       9.063   3.860 -14.537  0.00  0.00     0.137 N 
ENDROOT
BRANCH   1   2
ATOM      2  C   UNL d   1       9.009   2.393 -14.547  0.00  0.00     0.250 C 
BRANCH   2   3
ATOM      3  C   UNL d   1      10.384   1.702 -14.718  0.00  0.00     0.035 C 
ATOM      4  C   UNL d   1      10.251   0.205 -14.901  0.00  0.00     0.002 C 
ENDBRANCH   2   3
ENDBRANCH   1   2
BRANCH   1   5
ATOM      5  C   UNL d   1       9.616   4.331 -13.265  0.00  0.00     0.250 C 
BRANCH   5   6
ATOM      6  C   UNL d   1       9.492   5.859 -13.134  0.00  0.00     0.037 C 
BRANCH   6   7
ATOM      7  C   UNL d   1       9.766   6.414 -11.744  0.00  0.00     0.029 C 
BRANCH   7   8
ATOM      8  C   UNL d   1       8.693   6.092 -10.720  0.00  0.00     0.129 C 
BRANCH   8   9
ATOM      9  N   UNL d   1       9.072   6.752  -9.480  0.00  0.00    -0.234 NA
ATOM     10  C   UNL d   1       9.850   6.273  -8.540  0.00  0.00     0.275 C 
ATOM     11  O   UNL d   1      10.262   5.113  -8.556  0.00  0.00    -0.266 OA
BRANCH  10  12
ATOM     12  C   UNL d   1      10.263   7.195  -7.425  0.00  0.00     0.058 A 
ATOM     13  C   UNL d   1      10.888   6.683  -6.273  0.00  0.00     0.005 A 
ATOM     14  C   UNL d   1      11.281   7.511  -5.216  0.00  0.00     0.000 A 
ATOM     15  C   UNL d   1      11.090   8.905  -5.342  0.00  0.00     0.000 A 
ATOM     16  C   UNL d   1      11.857   6.988  -4.042  0.00  0.00     0.000 A 
ATOM     17  C   UNL d   1      10.529   9.431  -6.513  0.00  0.00     0.000 A 
ATOM     18  C   UNL d   1      11.452   9.749  -4.286  0.00  0.00     0.000 A 
ATOM     19  C   UNL d   1      10.091   8.589  -7.546  0.00  0.00     0.005 A 
ATOM     20  C   UNL d   1      12.033   9.232  -3.119  0.00  0.00     0.000 A 
ATOM     21  C   UNL d   1      12.250   7.847  -2.994  0.00  0.00     0.000 A 
ENDBRANCH  10  12
ENDBRANCH   8   9
ENDBRANCH   7   8
ENDBRANCH   6   7
ENDBRANCH   5   6
ENDBRANCH   1   5
BRANCH   1  22
ATOM     22  C   UNL d   1       9.761   4.449 -15.683  0.00  0.00     0.251 C 
BRANCH  22  23
ATOM     23  C   UNL d   1       9.257   4.036 -17.065  0.00  0.00     0.038 A 
ATOM     24  C   UNL d   1      10.171   4.175 -18.258  0.00  0.00     0.024 A 
ATOM     25  C   UNL d   1       8.992   5.097 -18.104  0.00  0.00     0.007 A 
BRANCH  24  26
ATOM     26  C   UNL d   1      11.560   4.653 -18.107  0.00  0.00    -0.022 A 
ATOM     27  C   UNL d   1      12.580   3.792 -17.654  0.00  0.00    -0.004 A 
ATOM     28  C   UNL d   1      13.874   4.296 -17.433  0.00  0.00     0.004 A 
ATOM     29  C   UNL d   1      14.157   5.663 -17.648  0.00  0.00     0.071 A 
ATOM     30  C   UNL d   1      13.124   6.520 -18.084  0.00  0.00     0.004 A 
ATOM     31  C   UNL d   1      11.847   6.022 -18.319  0.00  0.00    -0.004 A 
BRANCH  29  32
ATOM     32  C   UNL d   1      15.557   6.198 -17.437  0.00  0.00     0.419 C 
ATOM     33  F   UNL d   1      15.921   5.990 -16.173  0.00  0.00    -0.166 F 
ATOM     34  F   UNL d   1      16.413   5.580 -18.243  0.00  0.00    -0.166 F 
ATOM     35  F   UNL d   1      15.628   7.498 -17.712  0.00  0.00    -0.166 F 
ENDBRANCH  29  32
ENDBRANCH  24  26
ENDBRANCH  22  23
ENDBRANCH   1  22
TORSDOF 12
