REMARK  9 active torsions:
REMARK  status: ('A' for Active; 'I' for Inactive)
REMARK    1  A    between atoms: C_2  and  N_3 
REMARK    2  A    between atoms: N_3  and  C_4 
REMARK    3  A    between atoms: N_3  and  C_17 
REMARK    4  A    between atoms: C_4  and  C_5 
REMARK    5  A    between atoms: C_5  and  C_6 
REMARK    6  A    between atoms: C_11  and  O_12 
REMARK    7  A    between atoms: O_12  and  C_13 
REMARK    8  A    between atoms: C_17  and  C_18 
REMARK    9  A    between atoms: C_18  and  N_19 
ROOT
ATOM      1  C   UNL d   1       8.313   4.539 -13.405  0.00  0.00     0.255 C 
ENDROOT
BRANCH   1   2
ATOM      2  N   UNL d   1       7.497   4.742 -12.205  0.00  0.00     0.139 N 
BRANCH   2   3
ATOM      3  C   UNL d   1       6.118   5.098 -12.559  0.00  0.00     0.250 C 
ATOM      4  C   UNL d   1       5.310   4.012 -13.305  0.00  0.00     0.037 C 
ENDBRANCH   2   3
BRANCH   2   5
ATOM      5  C   UNL d   1       8.045   5.763 -11.310  0.00  0.00     0.285 C 
BRANCH   5   6
ATOM      6  C   UNL d   1       9.400   5.410 -10.638  0.00  0.00     0.285 C 
BRANCH   6   7
ATOM      7  N   UNL d   1       9.793   6.190  -9.478  0.00  0.00     0.139 N 
ATOM      8  C   UNL d   1       8.848   6.028  -8.381  0.00  0.00     0.250 C 
ATOM      9  C   UNL d   1       9.314   6.787  -7.138  0.00  0.00     0.035 C 
ATOM     10  C   UNL d   1       9.552   8.274  -7.483  0.00  0.00     0.004 C 
ATOM     11  C   UNL d   1      10.515   8.413  -8.674  0.00  0.00     0.035 C 
ATOM     12  C   UNL d   1       9.996   7.587  -9.851  0.00  0.00     0.250 C 
ENDBRANCH   6   7
ENDBRANCH   5   6
ENDBRANCH   2   5
ENDBRANCH   1   2
BRANCH   1  13
ATOM     13  C   UNL d   1       9.697   3.924 -13.155  0.00  0.00     0.064 C 
BRANCH  13  14
ATOM     14  C   UNL d   1      10.196   3.158 -14.356  0.00  0.00     0.002 A 
ATOM     15  C   UNL d   1      11.025   3.770 -15.317  0.00  0.00     0.098 A 
ATOM     16  C   UNL d   1      11.480   2.989 -16.409  0.00  0.00     0.024 A 
ATOM     17  C   UNL d   1      11.096   1.634 -16.526  0.00  0.00     0.002 A 
ATOM     18  C   UNL d   1      10.259   1.041 -15.562  0.00  0.00    -0.000 A 
ATOM     19  C   UNL d   1       9.806   1.806 -14.478  0.00  0.00    -0.002 A 
BRANCH  15  20
ATOM     20  O   UNL d   1      11.352   5.104 -15.129  0.00  0.00    -0.254 OA
BRANCH  20  21
ATOM     21  C   UNL d   1      12.120   5.784 -16.020  0.00  0.00     0.530 C 
ATOM     22  F   UNL d   1      11.553   5.805 -17.247  0.00  0.00    -0.144 F 
ATOM     23  F   UNL d   1      12.251   7.077 -15.631  0.00  0.00    -0.144 F 
ATOM     24  F   UNL d   1      13.366   5.261 -16.130  0.00  0.00    -0.144 F 
ENDBRANCH  20  21
ENDBRANCH  15  20
ENDBRANCH  13  14
ENDBRANCH   1  13
TORSDOF 9
