REMARK  7 active torsions:
REMARK  status: ('A' for Active; 'I' for Inactive)
REMARK    1  A    between atoms: S_2  and  C_4 
REMARK    2  A    between atoms: S_2  and  C_23 
REMARK    3  A    between atoms: C_4  and  C_5 
REMARK    4  A    between atoms: N_8  and  C_9 
REMARK    5  A    between atoms: C_9  and  C_10 
REMARK    6  A    between atoms: C_10  and  C_11 
REMARK    7  A    between atoms: C_11  and  C_12 
ROOT
ATOM      1  C   UNL d   1       7.000   5.248 -12.710  0.00  0.00     0.052 C 
ATOM      2  C   UNL d   1       5.488   5.102 -12.642  0.00  0.00     0.038 C 
ATOM      3  C   UNL d   1       5.209   3.675 -13.114  0.00  0.00     0.250 C 
ATOM      4  N   UNL d   1       6.322   3.379 -14.004  0.00  0.00     0.137 N 
ATOM      5  C   UNL d   1       7.468   3.936 -13.298  0.00  0.00     0.251 C 
ENDROOT
BRANCH   4   6
ATOM      6  C   UNL d   1       6.454   1.942 -14.256  0.00  0.00     0.251 C 
BRANCH   6   7
ATOM      7  C   UNL d   1       7.615   1.633 -15.217  0.00  0.00     0.042 C 
BRANCH   7   8
ATOM      8  C   UNL d   1       9.008   1.517 -14.538  0.00  0.00     0.050 C 
BRANCH   8   9
ATOM      9  C   UNL d   1      10.127   1.734 -15.511  0.00  0.00     0.088 A 
ATOM     10  C   UNL d   1      10.538   0.960 -16.605  0.00  0.00     0.041 A 
ATOM     11  C   UNL d   1      11.641   1.563 -17.212  0.00  0.00     0.129 A 
ATOM     12  C   UNL d   1      10.025  -0.245 -17.121  0.00  0.00     0.006 A 
ATOM     13  O   UNL d   1      11.869   2.716 -16.483  0.00  0.00    -0.211 OA
ATOM     14  C   UNL d   1      12.298   1.008 -18.322  0.00  0.00     0.057 A 
ATOM     15  N   UNL d   1      10.901   2.817 -15.443  0.00  0.00    -0.131 NA
ATOM     16  C   UNL d   1      11.796  -0.210 -18.828  0.00  0.00     0.142 A 
ATOM     17  F   UNL d   1      12.405  -0.803 -19.880  0.00  0.00    -0.204 F 
ATOM     18  C   UNL d   1      10.663  -0.824 -18.239  0.00  0.00     0.030 A 
ENDBRANCH   8   9
ENDBRANCH   7   8
ENDBRANCH   6   7
ENDBRANCH   4   6
BRANCH   1  19
ATOM     19  C   UNL d   1       7.618   5.577 -11.365  0.00  0.00     0.129 C 
BRANCH  19  20
ATOM     20  S   UNL d   1       9.198   6.478 -11.545  0.00  0.00     0.190 S 
ATOM     21  O   UNL d   1      10.117   5.548 -12.223  0.00  0.00    -0.222 OA
ATOM     22  O   UNL d   1       8.941   7.790 -12.174  0.00  0.00    -0.222 OA
BRANCH  20  23
ATOM     23  C   UNL d   1       9.747   6.767  -9.852  0.00  0.00     0.085 A 
ATOM     24  C   UNL d   1      10.876   7.556  -9.604  0.00  0.00     0.025 A 
ATOM     25  C   UNL d   1      11.244   7.829  -8.273  0.00  0.00     0.086 A 
ATOM     26  C   UNL d   1      10.509   7.306  -7.190  0.00  0.00     0.151 A 
ATOM     27 CL   UNL d   1      12.642   8.790  -7.975  0.00  0.00    -0.080 Cl
ATOM     28  C   UNL d   1       9.376   6.529  -7.439  0.00  0.00     0.031 A 
ATOM     29  F   UNL d   1      10.864   7.571  -5.910  0.00  0.00    -0.203 F 
ATOM     30  C   UNL d   1       9.000   6.244  -8.763  0.00  0.00     0.013 A 
ENDBRANCH  20  23
ENDBRANCH  19  20
ENDBRANCH   1  19
TORSDOF 7
