REMARK  7 active torsions:
REMARK  status: ('A' for Active; 'I' for Inactive)
REMARK    1  A    between atoms: S_2  and  N_4 
REMARK    2  A    between atoms: S_2  and  C_24 
REMARK    3  A    between atoms: N_4  and  C_5 
REMARK    4  A    between atoms: C_5  and  C_6 
REMARK    5  A    between atoms: C_6  and  C_7 
REMARK    6  A    between atoms: C_7  and  N_8 
REMARK    7  A    between atoms: C_11  and  C_12 
ROOT
ATOM      1  C   UNL d   1       8.612   6.361 -11.037  0.00  0.00     0.253 C 
ENDROOT
BRANCH   1   2
ATOM      2  C   UNL d   1       9.799   6.474 -10.072  0.00  0.00     0.062 C 
BRANCH   2   3
ATOM      3  C   UNL d   1       9.839   7.820  -9.347  0.00  0.00     0.141 C 
BRANCH   3   4
ATOM      4  N   UNL d   1      10.934   7.822  -8.380  0.00  0.00    -0.185 NA
BRANCH   4   5
ATOM      5  S   UNL d   1      10.748   6.946  -6.908  0.00  0.00     0.281 S 
ATOM      6  O   UNL d   1       9.347   6.504  -6.809  0.00  0.00    -0.199 OA
ATOM      7  O   UNL d   1      11.865   5.994  -6.843  0.00  0.00    -0.199 OA
BRANCH   5   8
ATOM      8  C   UNL d   1      11.004   8.187  -5.657  0.00  0.00     0.105 A 
ATOM      9  C   UNL d   1      11.548   7.887  -4.378  0.00  0.00     0.012 A 
ATOM     10  C   UNL d   1      11.727   8.923  -3.434  0.00  0.00     0.001 A 
ATOM     11  C   UNL d   1      11.904   6.593  -3.969  0.00  0.00     0.001 A 
ATOM     12  C   UNL d   1      11.320  10.198  -3.747  0.00  0.00     0.000 A 
ATOM     13  C   UNL d   1      12.267   8.726  -2.158  0.00  0.00     0.000 A 
ATOM     14  C   UNL d   1      10.785  10.499  -5.002  0.00  0.00     0.001 A 
ATOM     15  C   UNL d   1      10.645   9.506  -5.973  0.00  0.00     0.013 A 
ATOM     16  C   UNL d   1      12.659   7.439  -1.813  0.00  0.00     0.000 A 
ATOM     17  C   UNL d   1      12.485   6.390  -2.714  0.00  0.00     0.000 A 
ENDBRANCH   5   8
ENDBRANCH   4   5
ENDBRANCH   3   4
ENDBRANCH   2   3
ENDBRANCH   1   2
BRANCH   1  18
ATOM     18  N   UNL d   1       8.662   5.104 -11.774  0.00  0.00     0.142 N 
ATOM     19  C   UNL d   1       9.560   5.243 -12.905  0.00  0.00     0.255 C 
ATOM     20  C   UNL d   1       9.752   3.905 -13.604  0.00  0.00     0.061 C 
ATOM     21  C   UNL d   1       8.436   3.216 -13.930  0.00  0.00    -0.021 C 
ATOM     22  C   UNL d   1       7.325   3.616 -13.271  0.00  0.00     0.005 C 
ATOM     23  C   UNL d   1       7.320   4.737 -12.238  0.00  0.00     0.276 C 
BRANCH  21  24
ATOM     24  C   UNL d   1       8.405   2.082 -14.874  0.00  0.00     0.017 A 
ATOM     25  C   UNL d   1       9.366   1.801 -15.921  0.00  0.00     0.020 A 
ATOM     26  C   UNL d   1       8.889   0.631 -16.596  0.00  0.00     0.082 A 
ATOM     27  C   UNL d   1      10.576   2.368 -16.415  0.00  0.00     0.013 A 
ATOM     28  N   UNL d   1       7.715   0.257 -15.955  0.00  0.00    -0.244 NA
ATOM     29  C   UNL d   1       9.573   0.062 -17.694  0.00  0.00     0.020 A 
ATOM     30  C   UNL d   1       7.422   1.123 -14.916  0.00  0.00     0.099 A 
ATOM     31  C   UNL d   1      10.767   0.660 -18.156  0.00  0.00     0.013 A 
ATOM     32  C   UNL d   1      11.260   1.810 -17.511  0.00  0.00     0.058 A 
ATOM     33 CL   UNL d   1      12.707   2.564 -18.062  0.00  0.00    -0.082 Cl
ENDBRANCH  21  24
ENDBRANCH   1  18
TORSDOF 7
