REMARK  7 active torsions:
REMARK  status: ('A' for Active; 'I' for Inactive)
REMARK    1  A    between atoms: O_2  and  C_3 
REMARK    2  A    between atoms: C_9  and  C_10 
REMARK    3  A    between atoms: C_10  and  C_11 
REMARK    4  A    between atoms: C_11  and  N_12 
REMARK    5  A    between atoms: N_12  and  C_13 
REMARK    6  A    between atoms: C_13  and  C_14 
REMARK    7  A    between atoms: C_17  and  C_18 
ROOT
ATOM      1  N   UNL d   1       8.628   5.977 -10.555  0.00  0.00     0.346 N 
ENDROOT
BRANCH   1   2
ATOM      2  C   UNL d   1       8.343   4.749 -11.289  0.00  0.00     0.295 C 
BRANCH   2   3
ATOM      3  C   UNL d   1       7.846   5.086 -12.706  0.00  0.00     0.066 C 
BRANCH   3   4
ATOM      4  C   UNL d   1       8.213   4.024 -13.699  0.00  0.00     0.001 A 
ATOM      5  C   UNL d   1       9.366   4.037 -14.451  0.00  0.00     0.095 A 
ATOM      6  N   UNL d   1       9.410   2.906 -15.236  0.00  0.00    -0.244 NA
ATOM      7  C   UNL d   1       8.294   2.133 -15.022  0.00  0.00     0.081 A 
ATOM      8  C   UNL d   1       7.920   0.910 -15.579  0.00  0.00     0.021 A 
ATOM      9  C   UNL d   1       7.493   2.817 -14.062  0.00  0.00     0.017 A 
ATOM     10  C   UNL d   1       6.717   0.310 -15.178  0.00  0.00     0.026 A 
ATOM     11  C   UNL d   1       5.878   0.940 -14.215  0.00  0.00     0.094 A 
ATOM     12  C   UNL d   1       6.264   2.202 -13.694  0.00  0.00     0.025 A 
BRANCH  11  13
ATOM     13  O   UNL d   1       4.701   0.398 -13.745  0.00  0.00    -0.328 OA
ATOM     14  C   UNL d   1       4.232  -0.789 -14.380  0.00  0.00     0.181 C 
ENDBRANCH  11  13
ENDBRANCH   3   4
ENDBRANCH   2   3
ENDBRANCH   1   2
BRANCH   1  15
ATOM     15  C   UNL d   1       9.115   5.681  -9.220  0.00  0.00     0.341 C 
BRANCH  15  16
ATOM     16  C   UNL d   1       9.707   6.894  -8.580  0.00  0.00     0.114 A 
ATOM     17  O   UNL d   1      10.134   6.752  -7.294  0.00  0.00    -0.309 OA
ATOM     18  C   UNL d   1      10.650   7.954  -6.911  0.00  0.00     0.100 A 
ATOM     19  C   UNL d   1      10.568   8.846  -7.943  0.00  0.00     0.026 A 
ATOM     20  C   UNL d   1       9.950   8.164  -9.024  0.00  0.00     0.024 A 
BRANCH  18  21
ATOM     21  C   UNL d   1      11.166   8.067  -5.551  0.00  0.00     0.023 A 
ATOM     22  C   UNL d   1      11.434   6.907  -4.794  0.00  0.00     0.004 A 
ATOM     23  C   UNL d   1      11.932   6.997  -3.478  0.00  0.00     0.028 A 
ATOM     24  C   UNL d   1      12.180   8.261  -2.912  0.00  0.00     0.131 A 
ATOM     25  C   UNL d   1      11.922   9.426  -3.656  0.00  0.00     0.028 A 
ATOM     26  O   UNL d   1      12.660   8.371  -1.638  0.00  0.00    -0.190 OA
ATOM     27  C   UNL d   1      11.428   9.330  -4.974  0.00  0.00     0.004 A 
ENDBRANCH  18  21
ENDBRANCH  15  16
ENDBRANCH   1  15
TORSDOF 7
