REMARK  4 active torsions:
REMARK  status: ('A' for Active; 'I' for Inactive)
REMARK    1  A    between atoms: C_12  and  C_13 
REMARK    2  A    between atoms: N_16  and  C_17 
REMARK    3  A    between atoms: C_17  and  C_18 
REMARK    4  A    between atoms: C_18  and  C_19 
ROOT
ATOM      1  C   UNL d   1       8.175   5.759 -11.733  0.00  0.00     0.011 C 
ATOM      2  C   UNL d   1       9.212   6.878 -12.019  0.00  0.00     0.036 C 
ATOM      3  C   UNL d   1       9.598   7.657 -10.768  0.00  0.00     0.250 C 
ATOM      4  N   UNL d   1      10.011   6.739  -9.693  0.00  0.00     0.137 N 
ATOM      5  C   UNL d   1       8.896   5.854  -9.329  0.00  0.00     0.250 C 
ATOM      6  C   UNL d   1       8.552   4.960 -10.477  0.00  0.00     0.036 C 
ENDROOT
BRANCH   1   7
ATOM      7  C   UNL d   1       7.920   4.836 -12.956  0.00  0.00     0.062 C 
ATOM      8  C   UNL d   1       9.109   3.930 -13.351  0.00  0.00     0.172 C 
ATOM      9  O   UNL d   1      10.275   4.222 -13.047  0.00  0.00    -0.291 OA
ATOM     10  C   UNL d   1       8.823   2.721 -14.128  0.00  0.00     0.033 A 
ATOM     11  C   UNL d   1       7.500   2.340 -14.464  0.00  0.00     0.008 A 
ATOM     12  C   UNL d   1       9.924   1.915 -14.503  0.00  0.00     0.003 A 
ATOM     13  C   UNL d   1       7.304   1.156 -15.195  0.00  0.00     0.136 A 
ATOM     14  C   UNL d   1       6.300   3.173 -14.019  0.00  0.00     0.029 C 
ATOM     15  C   UNL d   1       8.408   0.376 -15.589  0.00  0.00     0.029 A 
ATOM     16  F   UNL d   1       6.043   0.758 -15.529  0.00  0.00    -0.204 F 
ATOM     17  C   UNL d   1       9.716   0.742 -15.231  0.00  0.00     0.002 A 
ATOM     18  C   UNL d   1       6.594   4.059 -12.774  0.00  0.00     0.012 C 
ENDBRANCH   1   7
BRANCH   4  19
ATOM     19  C   UNL d   1      10.395   7.552  -8.572  0.00  0.00     0.255 C 
BRANCH  19  20
ATOM     20  C   UNL d   1      10.723   6.779  -7.267  0.00  0.00     0.062 C 
BRANCH  20  21
ATOM     21  C   UNL d   1      11.116   7.646  -6.096  0.00  0.00    -0.020 A 
ATOM     22  C   UNL d   1      11.470   7.019  -4.882  0.00  0.00    -0.004 A 
ATOM     23  C   UNL d   1      11.875   7.796  -3.774  0.00  0.00    -0.000 A 
ATOM     24  C   UNL d   1      11.856   9.197  -3.865  0.00  0.00    -0.000 A 
ATOM     25  C   UNL d   1      11.464   9.825  -5.065  0.00  0.00    -0.000 A 
ATOM     26  C   UNL d   1      11.104   9.060  -6.172  0.00  0.00    -0.004 A 
ENDBRANCH  20  21
ENDBRANCH  19  20
ENDBRANCH   4  19
TORSDOF 4
