REMARK  7 active torsions:
REMARK  status: ('A' for Active; 'I' for Inactive)
REMARK    1  A    between atoms: O_2  and  C_3 
REMARK    2  A    between atoms: C_8  and  N_9 
REMARK    3  A    between atoms: N_12  and  C_13 
REMARK    4  A    between atoms: C_13  and  C_14 
REMARK    5  A    between atoms: C_14  and  C_15 
REMARK    6  A    between atoms: C_15  and  C_16 
REMARK    7  A    between atoms: C_16  and  N_17 
REMARK       I    between atoms: N_17  and  C_18 
REMARK       I    between atoms: C_18  and  N_20 
ROOT
ATOM      1  N   UNL d   1      11.077   7.222  -6.436  0.00  0.00    -0.343 N 
ATOM      2  C   UNL d   1      10.018   6.272  -6.676  0.00  0.00     0.137 C 
ATOM      3  C   UNL d   1       9.142   6.725  -7.827  0.00  0.00     0.274 C 
ATOM      4  N   UNL d   1      10.015   6.914  -9.000  0.00  0.00     0.141 N 
ATOM      5  C   UNL d   1      10.920   8.041  -8.703  0.00  0.00     0.274 C 
ATOM      6  C   UNL d   1      11.854   7.666  -7.570  0.00  0.00     0.137 C 
ENDROOT
BRANCH   4   7
ATOM      7  C   UNL d   1       9.153   7.306 -10.075  0.00  0.00     0.251 C 
BRANCH   7   8
ATOM      8  C   UNL d   1       9.655   7.110 -11.477  0.00  0.00     0.037 C 
BRANCH   8   9
ATOM      9  C   UNL d   1       9.530   5.637 -11.926  0.00  0.00     0.029 C 
BRANCH   9  10
ATOM     10  C   UNL d   1       9.730   5.421 -13.417  0.00  0.00     0.131 C 
BRANCH  10  11
ATOM     11  N   UNL d   1       9.710   4.020 -13.760  0.00  0.00    -0.219 NA
ATOM     12  C   UNL d   1       8.616   3.322 -14.101  0.00  0.00     0.342 C 
ATOM     13  O   UNL d   1       7.476   3.789 -14.015  0.00  0.00    -0.245 OA
ATOM     14  N   UNL d   1       8.882   2.057 -14.485  0.00  0.00    -0.296 N 
ATOM     15  C   UNL d   1      10.171   1.569 -15.021  0.00  0.00     0.138 C 
ATOM     16  C   UNL d   1       7.824   1.046 -14.569  0.00  0.00     0.138 C 
ATOM     17  C   UNL d   1       9.963   1.119 -16.475  0.00  0.00     0.167 C 
ATOM     18  O   UNL d   1       8.949   0.123 -16.537  0.00  0.00    -0.350 OA
ATOM     19  C   UNL d   1       7.693   0.571 -16.033  0.00  0.00     0.167 C 
ENDBRANCH  10  11
ENDBRANCH   9  10
ENDBRANCH   8   9
ENDBRANCH   7   8
ENDBRANCH   4   7
BRANCH   1  20
ATOM     20  C   UNL d   1      11.358   7.710  -5.159  0.00  0.00     0.079 A 
ATOM     21  C   UNL d   1      11.480   9.092  -4.986  0.00  0.00     0.110 A 
ATOM     22  C   UNL d   1      11.775   9.586  -3.696  0.00  0.00     0.026 A 
ATOM     23  C   UNL d   1      11.949   8.731  -2.605  0.00  0.00     0.002 A 
ATOM     24  C   UNL d   1      11.824   7.347  -2.777  0.00  0.00     0.002 A 
ATOM     25  C   UNL d   1      11.510   6.835  -4.058  0.00  0.00     0.019 A 
BRANCH  21  26
ATOM     26  O   UNL d   1      11.229   9.889  -6.088  0.00  0.00    -0.327 OA
ATOM     27  C   UNL d   1      11.833  11.150  -6.117  0.00  0.00     0.181 C 
ENDBRANCH  21  26
ENDBRANCH   1  20
TORSDOF 7
