REMARK  0 active torsions:
REMARK  status: ('A' for Active; 'I' for Inactive)
ROOT
ATOM      1  C   UNL d   1       8.643   6.160  -7.936  0.00  0.00     0.000 C 
ATOM      2  C   UNL d   1       9.834   6.923  -8.544  0.00  0.00     0.007 C 
ATOM      3  C   UNL d   1      10.265   5.999  -9.670  0.00  0.00     0.000 C 
ATOM      4  C   UNL d   1       9.612   8.315  -9.076  0.00  0.00     0.008 C 
ATOM      5  C   UNL d   1      10.981   8.874  -9.475  0.00  0.00     0.001 C 
ATOM      6  C   UNL d   1      11.906   8.239  -8.426  0.00  0.00     0.007 C 
ATOM      7  C   UNL d   1      10.909   7.423  -7.561  0.00  0.00     0.051 C 
ATOM      8  C   UNL d   1      11.490   6.393  -6.594  0.00  0.00     0.007 C 
ATOM      9  C   UNL d   1      10.110   8.474  -6.805  0.00  0.00     0.150 C 
ATOM     10  O   UNL d   1      10.401   8.992  -5.719  0.00  0.00    -0.296 OA
ATOM     11  C   UNL d   1       9.066   8.963  -7.789  0.00  0.00     0.065 C 
ENDROOT
TORSDOF 0
