REMARK  8 active torsions:
REMARK  status: ('A' for Active; 'I' for Inactive)
REMARK    1  A    between atoms: C_2  and  N_4 
REMARK    2  A    between atoms: N_4  and  C_5 
REMARK    3  A    between atoms: C_5  and  C_6 
REMARK    4  A    between atoms: C_6  and  C_8 
REMARK    5  A    between atoms: C_8  and  O_9 
REMARK    6  A    between atoms: O_9  and  C_10 
REMARK    7  A    between atoms: C_13  and  C_14 
REMARK    8  A    between atoms: C_14  and  C_15 
ROOT
ATOM      1  C   UNL d   1       9.901   7.011  -9.201  0.00  0.00     0.094 A 
ATOM      2  C   UNL d   1      11.059   7.804  -9.293  0.00  0.00     0.024 A 
ATOM      3  C   UNL d   1      11.472   8.608  -8.214  0.00  0.00    -0.002 A 
ATOM      4  C   UNL d   1      10.693   8.645  -7.034  0.00  0.00    -0.013 A 
ATOM      5  C   UNL d   1       9.520   7.872  -6.949  0.00  0.00    -0.002 A 
ATOM      6  C   UNL d   1       9.151   7.020  -8.003  0.00  0.00     0.024 A 
ENDROOT
BRANCH   1   7
ATOM      7  O   UNL d   1       9.562   6.272 -10.310  0.00  0.00    -0.328 OA
BRANCH   7   8
ATOM      8  C   UNL d   1       8.382   5.478 -10.270  0.00  0.00     0.184 C 
BRANCH   8   9
ATOM      9  C   UNL d   1       7.928   5.196 -11.702  0.00  0.00     0.206 C 
ATOM     10  O   UNL d   1       6.778   4.372 -11.635  0.00  0.00    -0.219 OA
BRANCH   9  11
ATOM     11  C   UNL d   1       8.969   4.447 -12.543  0.00  0.00     0.155 C 
BRANCH  11  12
ATOM     12  N   UNL d   1       9.853   5.376 -13.251  0.00  0.00    -0.295 NA
BRANCH  12  13
ATOM     13  C   UNL d   1      10.572   4.855 -14.423  0.00  0.00     0.098 C 
ATOM     14  C   UNL d   1       9.623   4.502 -15.575  0.00  0.00     0.026 C 
ATOM     15  C   UNL d   1      11.497   3.693 -14.047  0.00  0.00     0.026 C 
ENDBRANCH  12  13
ENDBRANCH  11  12
ENDBRANCH   9  11
ENDBRANCH   8   9
ENDBRANCH   7   8
ENDBRANCH   1   7
BRANCH   4  16
ATOM     16  C   UNL d   1      11.135   9.482  -5.839  0.00  0.00     0.118 C 
BRANCH  16  17
ATOM     17  C   UNL d   1      11.821   8.641  -4.750  0.00  0.00     0.278 C 
ATOM     18  N   UNL d   1      11.469   7.353  -4.626  0.00  0.00    -0.107 N 
ATOM     19  O   UNL d   1      12.656   9.156  -4.012  0.00  0.00    -0.268 OA
ENDBRANCH  16  17
ENDBRANCH   4  16
TORSDOF 8
