REMARK  5 active torsions:
REMARK  status: ('A' for Active; 'I' for Inactive)
REMARK    1  A    between atoms: C_2  and  C_3 
REMARK    2  A    between atoms: C_3  and  N_4 
REMARK    3  A    between atoms: C_3  and  C_8 
REMARK    4  A    between atoms: N_4  and  C_5 
REMARK    5  A    between atoms: C_8  and  C_10 
ROOT
ATOM      1  C   UNL d   1       8.203   4.833 -12.159  0.00  0.00     0.011 A 
ATOM      2  C   UNL d   1       6.813   4.625 -12.042  0.00  0.00     0.000 A 
ATOM      3  C   UNL d   1       6.162   3.710 -12.867  0.00  0.00     0.029 A 
ATOM      4  C   UNL d   1       6.895   2.979 -13.813  0.00  0.00     0.149 A 
ATOM      5  O   UNL d   1       6.260   2.025 -14.523  0.00  0.00    -0.189 OA
ATOM      6  C   UNL d   1       8.294   3.195 -13.958  0.00  0.00     0.110 A 
ATOM      7  N   UNL d   1       9.030   2.460 -14.924  0.00  0.00    -0.206 NA
ATOM      8  C   UNL d   1      10.359   2.577 -15.153  0.00  0.00     0.279 A 
ATOM      9  O   UNL d   1      10.900   1.876 -16.005  0.00  0.00    -0.265 OA
ATOM     10  C   UNL d   1      11.051   3.563 -14.344  0.00  0.00     0.063 A 
ATOM     11  C   UNL d   1      10.402   4.289 -13.409  0.00  0.00     0.006 A 
ATOM     12  C   UNL d   1       8.950   4.121 -13.139  0.00  0.00     0.018 A 
ENDROOT
BRANCH   1  13
ATOM     13  C   UNL d   1       8.790   5.906 -11.283  0.00  0.00     0.196 C 
ATOM     14  O   UNL d   1       8.426   7.162 -11.793  0.00  0.00    -0.216 OA
BRANCH  13  15
ATOM     15  C   UNL d   1       8.434   5.826  -9.771  0.00  0.00     0.133 C 
BRANCH  15  16
ATOM     16  C   UNL d   1       8.512   4.451  -9.109  0.00  0.00     0.027 C 
ATOM     17  C   UNL d   1       9.918   3.773  -9.235  0.00  0.00     0.002 C 
ENDBRANCH  15  16
BRANCH  15  18
ATOM     18  N   UNL d   1       9.114   6.846  -8.962  0.00  0.00    -0.297 NA
BRANCH  18  19
ATOM     19  C   UNL d   1      10.529   7.152  -9.226  0.00  0.00     0.098 C 
ATOM     20  C   UNL d   1      11.214   7.590  -7.938  0.00  0.00     0.026 C 
ATOM     21  C   UNL d   1      10.748   8.213 -10.331  0.00  0.00     0.026 C 
ENDBRANCH  18  19
ENDBRANCH  15  18
ENDBRANCH  13  15
ENDBRANCH   1  13
TORSDOF 5
