REMARK  6 active torsions:
REMARK  status: ('A' for Active; 'I' for Inactive)
REMARK    1  A    between atoms: O_2  and  C_3 
REMARK    2  A    between atoms: N_11  and  C_12 
REMARK    3  A    between atoms: C_12  and  C_13 
REMARK    4  A    between atoms: C_18  and  C_19 
REMARK    5  A    between atoms: C_19  and  N_20 
REMARK       I    between atoms: N_20  and  C_21 
REMARK    6  A    between atoms: C_21  and  C_23 
ROOT
ATOM      1  C   UNL d   1       8.935   6.172 -11.755  0.00  0.00     0.009 A 
ATOM      2  C   UNL d   1       7.956   6.848 -12.525  0.00  0.00    -0.003 A 
ATOM      3  C   UNL d   1       7.824   8.235 -12.425  0.00  0.00    -0.000 A 
ATOM      4  C   UNL d   1       8.644   8.952 -11.676  0.00  0.00    -0.000 A 
ATOM      5  C   UNL d   1       9.569   8.340 -10.880  0.00  0.00    -0.003 A 
ATOM      6  C   UNL d   1       9.736   6.942 -10.863  0.00  0.00     0.000 A 
ENDROOT
BRANCH   1   7
ATOM      7  C   UNL d   1       9.049   4.668 -11.922  0.00  0.00     0.277 C 
BRANCH   7   8
ATOM      8  N   UNL d   1       9.837   4.263 -13.089  0.00  0.00     0.146 N 
ATOM      9  C   UNL d   1       9.171   4.673 -14.317  0.00  0.00     0.277 C 
ATOM     10  C   UNL d   1       9.837   4.172 -15.576  0.00  0.00     0.009 A 
ATOM     11  C   UNL d   1      10.635   3.018 -15.523  0.00  0.00    -0.020 A 
ATOM     12  C   UNL d   1       9.618   4.822 -16.804  0.00  0.00     0.027 A 
ATOM     13  C   UNL d   1      11.213   2.513 -16.692  0.00  0.00     0.022 A 
ATOM     14  C   UNL d   1      10.893   2.340 -14.197  0.00  0.00     0.061 C 
ATOM     15  C   UNL d   1      10.998   3.148 -17.939  0.00  0.00     0.119 A 
ATOM     16  C   UNL d   1      10.194   4.311 -17.983  0.00  0.00     0.153 A 
ATOM     17  O   UNL d   1       9.968   4.953 -19.167  0.00  0.00    -0.188 OA
ATOM     18  C   UNL d   1       9.898   2.817 -13.136  0.00  0.00     0.256 C 
BRANCH  15  19
ATOM     19  O   UNL d   1      11.551   2.680 -19.112  0.00  0.00    -0.326 OA
ATOM     20  C   UNL d   1      12.286   1.466 -19.038  0.00  0.00     0.181 C 
ENDBRANCH  15  19
ENDBRANCH   7   8
ENDBRANCH   1   7
BRANCH   6  21
ATOM     21  C   UNL d   1      10.754   6.354  -9.939  0.00  0.00     0.155 C 
BRANCH  21  22
ATOM     22  N   UNL d   1      10.723   6.862  -8.579  0.00  0.00    -0.229 NA
ATOM     23  C   UNL d   1      11.278   7.998  -8.136  0.00  0.00     0.275 C 
ATOM     24  O   UNL d   1      11.791   8.870  -8.844  0.00  0.00    -0.266 OA
BRANCH  23  25
ATOM     25  C   UNL d   1      11.262   8.199  -6.678  0.00  0.00     0.058 A 
ATOM     26  C   UNL d   1      11.222   9.513  -6.156  0.00  0.00     0.007 A 
ATOM     27  C   UNL d   1      11.349   9.701  -4.774  0.00  0.00     0.030 A 
ATOM     28  C   UNL d   1      11.526   8.591  -3.932  0.00  0.00     0.140 A 
ATOM     29  C   UNL d   1      11.560   7.286  -4.454  0.00  0.00     0.030 A 
ATOM     30  F   UNL d   1      11.640   8.771  -2.600  0.00  0.00    -0.204 F 
ATOM     31  C   UNL d   1      11.433   7.088  -5.833  0.00  0.00     0.007 A 
ENDBRANCH  23  25
ENDBRANCH  21  22
ENDBRANCH   6  21
TORSDOF 6
