REMARK  1 active torsions:
REMARK  status: ('A' for Active; 'I' for Inactive)
REMARK    1  A    between atoms: C_8  and  N_9 
ROOT
ATOM      1 CL   UNL d   1       4.932   3.984 -13.233  0.00  0.00    -0.082 Cl
ATOM      2  C   UNL d   1       6.474   3.419 -13.721  0.00  0.00     0.058 A 
ATOM      3  C   UNL d   1       6.651   2.216 -14.434  0.00  0.00     0.013 A 
ATOM      4  C   UNL d   1       7.954   1.799 -14.774  0.00  0.00     0.026 A 
ATOM      5  C   UNL d   1       9.071   2.579 -14.391  0.00  0.00     0.103 A 
ATOM      6  C   UNL d   1       8.883   3.791 -13.680  0.00  0.00     0.058 A 
ATOM      7  C   UNL d   1       7.568   4.198 -13.356  0.00  0.00     0.016 A 
ATOM      8  C   UNL d   1      10.014   4.655 -13.222  0.00  0.00     0.142 C 
ATOM      9  N   UNL d   1      11.157   4.779 -13.831  0.00  0.00    -0.227 NA
ATOM     10  C   UNL d   1      11.476   4.219 -15.068  0.00  0.00     0.106 A 
ATOM     11  C   UNL d   1      12.312   4.983 -15.903  0.00  0.00     0.021 A 
ATOM     12  C   UNL d   1      12.714   4.497 -17.162  0.00  0.00     0.002 A 
ATOM     13  C   UNL d   1      12.281   3.228 -17.594  0.00  0.00     0.002 A 
ATOM     14  C   UNL d   1      11.467   2.444 -16.755  0.00  0.00     0.026 A 
ATOM     15  C   UNL d   1      11.075   2.933 -15.492  0.00  0.00     0.118 A 
ATOM     16  O   UNL d   1      10.325   2.122 -14.694  0.00  0.00    -0.305 OA
ENDROOT
BRANCH   8  17
ATOM     17  N   UNL d   1       9.791   5.330 -12.024  0.00  0.00    -0.330 N 
ATOM     18  C   UNL d   1       9.385   4.644 -10.790  0.00  0.00     0.141 C 
ATOM     19  C   UNL d   1       9.740   5.434  -9.511  0.00  0.00     0.314 C 
ATOM     20  N   UNL d   1       9.205   6.774  -9.610  0.00  0.00     0.343 N 
ATOM     21  C   UNL d   1       9.775   7.464 -10.766  0.00  0.00     0.314 C 
ATOM     22  C   UNL d   1       9.382   6.729 -12.056  0.00  0.00     0.141 C 
ENDBRANCH   8  17
TORSDOF 1
