REMARK  11 active torsions:
REMARK  status: ('A' for Active; 'I' for Inactive)
REMARK    1  A    between atoms: C_2  and  C_3 
REMARK    2  A    between atoms: C_3  and  N_4 
REMARK    3  A    between atoms: N_4  and  C_5 
REMARK    4  A    between atoms: N_4  and  C_24 
REMARK    5  A    between atoms: C_5  and  C_6 
REMARK    6  A    between atoms: C_6  and  C_7 
REMARK    7  A    between atoms: C_7  and  C_8 
REMARK    8  A    between atoms: C_8  and  N_9 
REMARK       I    between atoms: N_9  and  C_10 
REMARK    9  A    between atoms: C_10  and  C_12 
REMARK   10  A    between atoms: C_15  and  C_16 
REMARK   11  A    between atoms: C_32  and  C_33 
ROOT
ATOM      1  C   UNL d   1      10.085   2.835 -14.568  0.00  0.00     0.250 C 
ENDROOT
BRANCH   1   2
ATOM      2  N   UNL d   1       9.921   2.515 -16.000  0.00  0.00     0.135 N 
BRANCH   2   3
ATOM      3  C   UNL d   1      10.983   1.586 -16.426  0.00  0.00     0.250 C 
BRANCH   3   4
ATOM      4  C   UNL d   1      12.318   2.322 -16.591  0.00  0.00     0.035 C 
ATOM      5  C   UNL d   1      12.275   3.369 -17.712  0.00  0.00     0.002 C 
ENDBRANCH   3   4
ENDBRANCH   2   3
BRANCH   2   6
ATOM      6  C   UNL d   1       8.581   2.006 -16.334  0.00  0.00     0.224 C 
ATOM      7  C   UNL d   1       8.351   1.905 -17.872  0.00  0.00     0.059 C 
ATOM      8  C   UNL d   1       7.087   1.145 -18.253  0.00  0.00    -0.024 A 
ATOM      9  C   UNL d   1       6.385   0.346 -17.314  0.00  0.00    -0.021 A 
ATOM     10  C   UNL d   1       6.677   1.187 -19.596  0.00  0.00    -0.004 A 
ATOM     11  C   UNL d   1       6.851   0.241 -15.864  0.00  0.00     0.028 C 
ATOM     12  C   UNL d   1       5.239  -0.383 -17.742  0.00  0.00     0.055 A 
ATOM     13  C   UNL d   1       8.275   0.681 -15.620  0.00  0.00     0.038 C 
ATOM     14  C   UNL d   1       4.833  -0.300 -19.088  0.00  0.00     0.004 A 
ATOM     15  C   UNL d   1       5.544   0.475 -20.018  0.00  0.00    -0.000 A 
BRANCH  12  16
ATOM     16  C   UNL d   1       4.437  -1.222 -16.779  0.00  0.00     0.296 C 
ATOM     17  N   UNL d   1       4.101  -2.412 -17.248  0.00  0.00    -0.102 N 
ATOM     18  O   UNL d   1       4.149  -0.848 -15.642  0.00  0.00    -0.264 OA
ENDBRANCH  12  16
ENDBRANCH   2   6
ENDBRANCH   1   2
BRANCH   1  19
ATOM     19  C   UNL d   1       9.178   3.980 -14.075  0.00  0.00     0.037 C 
BRANCH  19  20
ATOM     20  C   UNL d   1       9.553   4.412 -12.647  0.00  0.00     0.029 C 
BRANCH  20  21
ATOM     21  C   UNL d   1       8.660   5.538 -12.107  0.00  0.00     0.129 C 
BRANCH  21  22
ATOM     22  N   UNL d   1       9.117   5.982 -10.794  0.00  0.00    -0.234 NA
ATOM     23  C   UNL d   1       9.658   7.180 -10.516  0.00  0.00     0.275 C 
ATOM     24  O   UNL d   1       9.836   8.059 -11.360  0.00  0.00    -0.266 OA
BRANCH  23  25
ATOM     25  C   UNL d   1      10.107   7.389  -9.097  0.00  0.00     0.058 A 
ATOM     26  C   UNL d   1      11.157   8.290  -8.820  0.00  0.00     0.005 A 
ATOM     27  C   UNL d   1      11.578   8.511  -7.495  0.00  0.00     0.000 A 
ATOM     28  C   UNL d   1      10.959   7.841  -6.419  0.00  0.00     0.000 A 
ATOM     29  C   UNL d   1       9.893   6.958  -6.699  0.00  0.00     0.000 A 
ATOM     30  C   UNL d   1       9.462   6.739  -8.021  0.00  0.00     0.005 A 
BRANCH  28  31
ATOM     31  C   UNL d   1      11.408   8.067  -5.035  0.00  0.00     0.000 A 
ATOM     32  C   UNL d   1      11.461   9.372  -4.501  0.00  0.00     0.000 A 
ATOM     33  C   UNL d   1      11.873   9.585  -3.173  0.00  0.00     0.000 A 
ATOM     34  C   UNL d   1      12.258   8.498  -2.366  0.00  0.00     0.000 A 
ATOM     35  C   UNL d   1      12.213   7.191  -2.886  0.00  0.00     0.000 A 
ATOM     36  C   UNL d   1      11.786   6.982  -4.211  0.00  0.00     0.000 A 
ENDBRANCH  28  31
ENDBRANCH  23  25
ENDBRANCH  21  22
ENDBRANCH  20  21
ENDBRANCH  19  20
ENDBRANCH   1  19
TORSDOF 11
