REMARK  3 active torsions:
REMARK  status: ('A' for Active; 'I' for Inactive)
REMARK    1  A    between atoms: N_2  and  C_4 
REMARK    2  A    between atoms: C_4  and  C_5 
REMARK    3  A    between atoms: C_5  and  N_6 
ROOT
ATOM      1  N   UNL d   1      10.173   1.160 -15.377  0.00  0.00    -0.294 N 
ATOM      2  C   UNL d   1      10.660   2.100 -14.535  0.00  0.00     0.262 C 
ATOM      3  O   UNL d   1      11.783   2.202 -14.117  0.00  0.00    -0.267 OA
ATOM      4  C   UNL d   1       9.791   3.204 -14.131  0.00  0.00     0.072 A 
ATOM      5  C   UNL d   1       9.590   3.458 -12.762  0.00  0.00     0.006 A 
ATOM      6  C   UNL d   1       8.842   4.550 -12.316  0.00  0.00     0.000 A 
ATOM      7  C   UNL d   1       8.344   5.426 -13.289  0.00  0.00     0.002 A 
ATOM      8  C   UNL d   1       8.657   5.190 -14.644  0.00  0.00     0.017 A 
ATOM      9  C   UNL d   1       9.359   4.109 -15.114  0.00  0.00     0.067 A 
ATOM     10  N   UNL d   1       9.657   3.994 -16.523  0.00  0.00    -0.294 N 
ATOM     11  C   UNL d   1      10.386   5.103 -17.150  0.00  0.00     0.134 C 
ATOM     12  C   UNL d   1       9.046   3.082 -17.327  0.00  0.00     0.262 C 
ATOM     13  O   UNL d   1       8.988   3.196 -18.553  0.00  0.00    -0.267 OA
ATOM     14  C   UNL d   1       8.247   1.980 -16.663  0.00  0.00     0.072 A 
ATOM     15  C   UNL d   1       6.888   1.786 -16.985  0.00  0.00     0.006 A 
ATOM     16  C   UNL d   1       6.118   0.778 -16.369  0.00  0.00     0.000 A 
ATOM     17  C   UNL d   1       6.687  -0.068 -15.426  0.00  0.00     0.002 A 
ATOM     18  C   UNL d   1       8.043   0.100 -15.116  0.00  0.00     0.017 A 
ATOM     19  C   UNL d   1       8.815   1.096 -15.719  0.00  0.00     0.067 A 
ENDROOT
BRANCH   1  20
ATOM     20  C   UNL d   1      10.985   0.053 -15.833  0.00  0.00     0.144 C 
BRANCH  20  21
ATOM     21  C   UNL d   1      11.832   0.398 -17.097  0.00  0.00     0.275 C 
BRANCH  21  22
ATOM     22  N   UNL d   1      11.025   0.461 -18.318  0.00  0.00     0.143 N 
ATOM     23  C   UNL d   1      10.438  -0.830 -18.675  0.00  0.00     0.286 C 
ATOM     24  C   UNL d   1      11.868   0.893 -19.427  0.00  0.00     0.286 C 
ENDBRANCH  21  22
ENDBRANCH  20  21
ENDBRANCH   1  20
TORSDOF 3
