REMARK  2 active torsions:
REMARK  status: ('A' for Active; 'I' for Inactive)
REMARK    1  A    between atoms: N_11  and  C_12 
REMARK    2  A    between atoms: C_12  and  C_13 
ROOT
ATOM      1  N   UNL d   1      15.901   0.272 -19.901  0.00  0.00    -0.191 NA
ATOM      2  C   UNL d   1      14.894   0.833 -19.802  0.00  0.00     0.101 C 
ATOM      3  C   UNL d   1      13.629   1.539 -19.675  0.00  0.00     0.068 A 
ATOM      4  C   UNL d   1      12.620   1.358 -20.642  0.00  0.00     0.012 A 
ATOM      5  C   UNL d   1      11.393   2.039 -20.519  0.00  0.00     0.025 A 
ATOM      6  C   UNL d   1      11.171   2.913 -19.436  0.00  0.00     0.090 A 
ATOM      7  C   UNL d   1      12.176   3.077 -18.453  0.00  0.00     0.003 A 
ATOM      8  C   UNL d   1      13.404   2.396 -18.579  0.00  0.00     0.008 A 
ATOM      9  C   UNL d   1      11.899   3.933 -17.229  0.00  0.00     0.062 C 
ATOM     10  C   UNL d   1      11.607   3.074 -15.992  0.00  0.00     0.255 C 
ATOM     11  N   UNL d   1      10.663   3.880 -15.225  0.00  0.00     0.142 N 
ATOM     12  C   UNL d   1       9.736   4.340 -16.251  0.00  0.00     0.254 C 
ATOM     13  C   UNL d   1      10.668   4.837 -17.353  0.00  0.00     0.070 C 
ATOM     14  C   UNL d   1      10.047   4.868 -18.759  0.00  0.00     0.151 C 
ATOM     15  O   UNL d   1       9.970   3.576 -19.351  0.00  0.00    -0.331 OA
ENDROOT
BRANCH  11  16
ATOM     16  C   UNL d   1      10.009   3.085 -14.191  0.00  0.00     0.277 C 
BRANCH  16  17
ATOM     17  C   UNL d   1       8.855   3.808 -13.516  0.00  0.00     0.011 A 
ATOM     18  C   UNL d   1       7.527   3.388 -13.752  0.00  0.00    -0.000 A 
ATOM     19  C   UNL d   1       6.454   4.056 -13.132  0.00  0.00     0.029 A 
ATOM     20  C   UNL d   1       6.703   5.148 -12.276  0.00  0.00     0.140 A 
ATOM     21  C   UNL d   1       8.026   5.568 -12.041  0.00  0.00     0.029 A 
ATOM     22  F   UNL d   1       5.672   5.791 -11.684  0.00  0.00    -0.204 F 
ATOM     23  C   UNL d   1       9.100   4.899 -12.661  0.00  0.00    -0.000 A 
ENDBRANCH  16  17
ENDBRANCH  11  16
TORSDOF 2
