REMARK  5 active torsions:
REMARK  status: ('A' for Active; 'I' for Inactive)
REMARK    1  A    between atoms: O_2  and  C_3 
REMARK    2  A    between atoms: C_8  and  N_9 
REMARK    3  A    between atoms: N_12  and  C_13 
REMARK    4  A    between atoms: C_13  and  C_14 
REMARK    5  A    between atoms: C_25  and  S_26 
ROOT
ATOM      1  C   UNL d   1      10.403   1.545 -17.524  0.00  0.00     0.146 C 
ATOM      2  C   UNL d   1      11.138   1.137 -16.215  0.00  0.00     0.152 C 
ATOM      3  N   UNL d   1      10.122   0.723 -15.283  0.00  0.00    -0.252 NA
ATOM      4  C   UNL d   1       9.037   0.719 -15.969  0.00  0.00     0.142 C 
ATOM      5  C   UNL d   1       7.696   0.394 -15.445  0.00  0.00     0.052 A 
ATOM      6  C   UNL d   1       7.482   0.146 -14.078  0.00  0.00     0.004 A 
ATOM      7  C   UNL d   1       6.199  -0.198 -13.628  0.00  0.00     0.000 A 
ATOM      8  C   UNL d   1       5.135  -0.280 -14.548  0.00  0.00     0.002 A 
ATOM      9  C   UNL d   1       5.352  -0.023 -15.915  0.00  0.00     0.019 A 
ATOM     10  C   UNL d   1       6.629   0.328 -16.386  0.00  0.00     0.086 A 
ATOM     11  N   UNL d   1       6.806   0.579 -17.773  0.00  0.00    -0.223 NA
ATOM     12  C   UNL d   1       7.989   0.912 -18.195  0.00  0.00     0.172 C 
ATOM     13  N   UNL d   1       9.057   1.042 -17.300  0.00  0.00    -0.291 N 
ENDROOT
BRANCH   1  14
ATOM     14  C   UNL d   1      10.417   3.084 -17.762  0.00  0.00     0.275 C 
BRANCH  14  15
ATOM     15  N   UNL d   1      11.614   3.580 -18.459  0.00  0.00     0.143 N 
ATOM     16  C   UNL d   1      12.850   3.110 -17.819  0.00  0.00     0.274 C 
ATOM     17  C   UNL d   1      14.106   3.654 -18.491  0.00  0.00     0.137 C 
ATOM     18  N   UNL d   1      14.056   3.376 -19.918  0.00  0.00    -0.343 N 
ATOM     19  C   UNL d   1      12.832   3.762 -20.612  0.00  0.00     0.137 C 
ATOM     20  C   UNL d   1      11.596   3.203 -19.879  0.00  0.00     0.274 C 
BRANCH  18  21
ATOM     21  C   UNL d   1      15.053   2.659 -20.558  0.00  0.00     0.079 A 
ATOM     22  C   UNL d   1      15.179   1.247 -20.442  0.00  0.00     0.110 A 
ATOM     23  C   UNL d   1      16.225   0.588 -21.136  0.00  0.00     0.026 A 
ATOM     24  C   UNL d   1      17.133   1.319 -21.928  0.00  0.00     0.002 A 
ATOM     25  C   UNL d   1      17.010   2.711 -22.036  0.00  0.00     0.002 A 
ATOM     26  C   UNL d   1      15.973   3.377 -21.358  0.00  0.00     0.019 A 
BRANCH  22  27
ATOM     27  O   UNL d   1      14.256   0.586 -19.654  0.00  0.00    -0.327 OA
ATOM     28  C   UNL d   1      14.287  -0.834 -19.640  0.00  0.00     0.181 C 
ENDBRANCH  22  27
ENDBRANCH  18  21
ENDBRANCH  14  15
ENDBRANCH   1  14
BRANCH  12  29
ATOM     29  S   UNL d   1       8.444   1.222 -19.933  0.00  0.00    -0.076 SA
ATOM     30  C   UNL d   1       6.883   0.863 -20.787  0.00  0.00     0.077 C 
ENDBRANCH  12  29
TORSDOF 5
