REMARK  6 active torsions:
REMARK  status: ('A' for Active; 'I' for Inactive)
REMARK    1  A    between atoms: C_2  and  C_3 
REMARK    2  A    between atoms: C_3  and  O_4 
REMARK    3  A    between atoms: O_4  and  C_5 
REMARK    4  A    between atoms: C_10  and  N_11 
REMARK    5  A    between atoms: N_14  and  C_15 
REMARK    6  A    between atoms: C_15  and  C_16 
ROOT
ATOM      1  N   UNL d   1       8.956   5.036 -11.635  0.00  0.00    -0.343 N 
ATOM      2  C   UNL d   1       9.205   4.778 -10.224  0.00  0.00     0.137 C 
ATOM      3  C   UNL d   1       9.018   6.045  -9.377  0.00  0.00     0.275 C 
ATOM      4  N   UNL d   1       9.884   7.107  -9.903  0.00  0.00     0.147 N 
ATOM      5  C   UNL d   1       9.457   7.421 -11.280  0.00  0.00     0.275 C 
ATOM      6  C   UNL d   1       9.613   6.189 -12.204  0.00  0.00     0.137 C 
ENDROOT
BRANCH   1   7
ATOM      7  C   UNL d   1       7.965   4.368 -12.364  0.00  0.00     0.079 A 
ATOM      8  C   UNL d   1       8.246   3.725 -13.592  0.00  0.00     0.110 A 
ATOM      9  C   UNL d   1       7.218   2.979 -14.224  0.00  0.00     0.026 A 
ATOM     10  C   UNL d   1       5.958   2.858 -13.627  0.00  0.00     0.002 A 
ATOM     11  C   UNL d   1       5.667   3.539 -12.438  0.00  0.00     0.002 A 
ATOM     12  C   UNL d   1       6.684   4.291 -11.803  0.00  0.00     0.019 A 
BRANCH   8  13
ATOM     13  O   UNL d   1       9.526   3.791 -14.098  0.00  0.00    -0.326 OA
BRANCH  13  14
ATOM     14  C   UNL d   1       9.856   3.020 -15.245  0.00  0.00     0.187 C 
BRANCH  14  15
ATOM     15  C   UNL d   1      10.092   1.528 -14.910  0.00  0.00     0.226 C 
ATOM     16  F   UNL d   1       8.967   0.853 -14.645  0.00  0.00    -0.232 F 
ENDBRANCH  14  15
ENDBRANCH  13  14
ENDBRANCH   8  13
ENDBRANCH   1   7
BRANCH   4  17
ATOM     17  C   UNL d   1       9.801   8.302  -9.063  0.00  0.00     0.298 C 
BRANCH  17  18
ATOM     18  C   UNL d   1      10.355   8.289  -7.664  0.00  0.00     0.114 A 
ATOM     19  N   UNL d   1      10.613   9.419  -7.033  0.00  0.00    -0.168 NA
ATOM     20  N   UNL d   1      11.053   9.036  -5.800  0.00  0.00    -0.229 N 
ATOM     21  C   UNL d   1      11.063   7.637  -5.679  0.00  0.00     0.084 A 
ATOM     22  C   UNL d   1      11.442   9.869  -4.791  0.00  0.00     0.100 A 
ATOM     23  C   UNL d   1      10.637   7.142  -6.878  0.00  0.00     0.038 A 
ATOM     24  C   UNL d   1      11.477   7.071  -4.454  0.00  0.00     0.019 A 
ATOM     25  C   UNL d   1      11.884   7.896  -3.430  0.00  0.00     0.003 A 
ATOM     26  C   UNL d   1      11.869   9.309  -3.601  0.00  0.00     0.021 A 
ENDBRANCH  17  18
ENDBRANCH   4  17
TORSDOF 6
