REMARK  4 active torsions:
REMARK  status: ('A' for Active; 'I' for Inactive)
REMARK    1  A    between atoms: C_12  and  C_13 
REMARK    2  A    between atoms: N_16  and  C_17 
REMARK    3  A    between atoms: C_17  and  C_18 
REMARK    4  A    between atoms: C_18  and  C_19 
ROOT
ATOM      1  C   UNL d   1       8.252   5.962 -11.474  0.00  0.00     0.011 C 
ATOM      2  C   UNL d   1       9.171   7.198 -11.672  0.00  0.00     0.036 C 
ATOM      3  C   UNL d   1       9.617   7.847 -10.353  0.00  0.00     0.250 C 
ATOM      4  N   UNL d   1      10.137   6.847  -9.430  0.00  0.00     0.137 N 
ATOM      5  C   UNL d   1       9.078   5.890  -9.095  0.00  0.00     0.250 C 
ATOM      6  C   UNL d   1       8.734   5.074 -10.313  0.00  0.00     0.036 C 
ENDROOT
BRANCH   1   7
ATOM      7  C   UNL d   1       7.980   5.156 -12.780  0.00  0.00     0.062 C 
ATOM      8  C   UNL d   1       9.188   4.373 -13.324  0.00  0.00     0.172 C 
ATOM      9  O   UNL d   1      10.342   4.799 -13.097  0.00  0.00    -0.291 OA
ATOM     10  C   UNL d   1       8.944   3.191 -14.171  0.00  0.00     0.031 A 
ATOM     11  C   UNL d   1       7.622   2.751 -14.474  0.00  0.00    -0.019 A 
ATOM     12  C   UNL d   1      10.061   2.502 -14.701  0.00  0.00     0.003 A 
ATOM     13  C   UNL d   1       7.464   1.657 -15.363  0.00  0.00     0.007 A 
ATOM     14  C   UNL d   1       6.389   3.445 -13.902  0.00  0.00     0.027 C 
ATOM     15  C   UNL d   1       8.612   1.020 -15.929  0.00  0.00     0.057 A 
ATOM     16  C   UNL d   1       9.907   1.420 -15.555  0.00  0.00     0.011 A 
ATOM     17 CL   UNL d   1       8.427  -0.170 -17.176  0.00  0.00    -0.082 Cl
ATOM     18  C   UNL d   1       6.710   4.262 -12.625  0.00  0.00     0.012 C 
ENDBRANCH   1   7
BRANCH   4  19
ATOM     19  C   UNL d   1      10.491   7.597  -8.241  0.00  0.00     0.255 C 
BRANCH  19  20
ATOM     20  C   UNL d   1      11.216   6.762  -7.166  0.00  0.00     0.062 C 
BRANCH  20  21
ATOM     21  C   UNL d   1      11.453   7.484  -5.862  0.00  0.00    -0.020 A 
ATOM     22  C   UNL d   1      11.596   6.727  -4.680  0.00  0.00    -0.004 A 
ATOM     23  C   UNL d   1      11.867   7.355  -3.447  0.00  0.00    -0.000 A 
ATOM     24  C   UNL d   1      11.916   8.760  -3.395  0.00  0.00    -0.000 A 
ATOM     25  C   UNL d   1      11.740   9.513  -4.579  0.00  0.00    -0.000 A 
ATOM     26  C   UNL d   1      11.544   8.888  -5.811  0.00  0.00    -0.004 A 
ENDBRANCH  20  21
ENDBRANCH  19  20
ENDBRANCH   4  19
TORSDOF 4
