REMARK  1 active torsions:
REMARK  status: ('A' for Active; 'I' for Inactive)
REMARK    1  A    between atoms: C_6  and  N_7 
ROOT
ATOM      1  O   UNL d   1      13.451   8.365 -10.816  0.00  0.00    -0.267 OA
ATOM      2  C   UNL d   1      12.689   8.121  -9.908  0.00  0.00     0.287 C 
ATOM      3  C   UNL d   1      13.154   8.224  -8.508  0.00  0.00     0.238 C 
ATOM      4  O   UNL d   1      12.142   8.423  -7.555  0.00  0.00    -0.318 OA
ATOM      5  C   UNL d   1      11.043   7.640  -7.689  0.00  0.00     0.130 A 
ATOM      6  C   UNL d   1      10.276   7.319  -6.564  0.00  0.00     0.080 A 
ATOM      7  C   UNL d   1       9.073   6.612  -6.766  0.00  0.00     0.021 A 
ATOM      8  C   UNL d   1       8.690   6.168  -8.058  0.00  0.00     0.031 A 
ATOM      9  C   UNL d   1       9.498   6.459  -9.162  0.00  0.00     0.151 A 
ATOM     10  O   UNL d   1       9.113   6.064 -10.420  0.00  0.00    -0.189 OA
ATOM     11  C   UNL d   1      10.661   7.196  -8.961  0.00  0.00     0.133 A 
ATOM     12  N   UNL d   1      11.481   7.569 -10.018  0.00  0.00    -0.205 NA
ENDROOT
BRANCH   6  13
ATOM     13  N   UNL d   1      10.723   7.742  -5.310  0.00  0.00    -0.344 N 
ATOM     14  C   UNL d   1      10.726   9.164  -5.004  0.00  0.00     0.140 C 
ATOM     15  C   UNL d   1      12.145   9.703  -4.995  0.00  0.00     0.314 C 
ATOM     16  N   UNL d   1      12.695   9.498  -3.664  0.00  0.00     0.341 N 
ATOM     17  C   UNL d   1      12.991   8.081  -3.422  0.00  0.00     0.292 C 
ATOM     18  C   UNL d   1      11.779   7.277  -3.038  0.00  0.00     0.062 C 
ATOM     19  C   UNL d   1      11.079   6.729  -4.319  0.00  0.00     0.104 C 
ENDBRANCH   6  13
TORSDOF 1
