REMARK  4 active torsions:
REMARK  status: ('A' for Active; 'I' for Inactive)
REMARK    1  A    between atoms: C_4  and  N_5 
REMARK    2  A    between atoms: N_8  and  C_9 
REMARK    3  A    between atoms: C_9  and  C_10 
REMARK    4  A    between atoms: N_13  and  C_14 
ROOT
ATOM      1  N   UNL d   1      10.537   8.218  -6.273  0.00  0.00    -0.344 N 
ATOM      2  C   UNL d   1      10.787   9.341  -7.161  0.00  0.00     0.137 C 
ATOM      3  C   UNL d   1      11.231   8.828  -8.540  0.00  0.00     0.275 C 
ATOM      4  N   UNL d   1      10.212   7.932  -9.086  0.00  0.00     0.146 N 
ATOM      5  C   UNL d   1      10.080   6.769  -8.206  0.00  0.00     0.275 C 
ATOM      6  C   UNL d   1       9.616   7.213  -6.807  0.00  0.00     0.137 C 
ENDROOT
BRANCH   4   7
ATOM      7  C   UNL d   1      10.620   7.512 -10.417  0.00  0.00     0.280 C 
BRANCH   7   8
ATOM      8  C   UNL d   1       9.516   6.882 -11.223  0.00  0.00     0.051 A 
ATOM      9  C   UNL d   1       9.175   5.569 -11.402  0.00  0.00     0.100 A 
ATOM     10  N   UNL d   1       8.100   5.542 -12.268  0.00  0.00    -0.229 N 
ATOM     11  N   UNL d   1       7.747   6.777 -12.674  0.00  0.00    -0.164 NA
ATOM     12  C   UNL d   1       8.586   7.578 -12.038  0.00  0.00     0.120 A 
BRANCH  10  13
ATOM     13  C   UNL d   1       7.403   4.426 -12.749  0.00  0.00     0.083 A 
ATOM     14  C   UNL d   1       8.026   3.556 -13.665  0.00  0.00     0.019 A 
ATOM     15  C   UNL d   1       7.332   2.427 -14.143  0.00  0.00     0.002 A 
ATOM     16  C   UNL d   1       6.026   2.161 -13.686  0.00  0.00     0.000 A 
ATOM     17  C   UNL d   1       5.402   3.036 -12.777  0.00  0.00     0.002 A 
ATOM     18  C   UNL d   1       6.087   4.174 -12.313  0.00  0.00     0.019 A 
ENDBRANCH  10  13
ENDBRANCH   7   8
ENDBRANCH   4   7
BRANCH   1  19
ATOM     19  C   UNL d   1      11.159   8.128  -5.019  0.00  0.00     0.056 A 
ATOM     20  C   UNL d   1      11.466   6.871  -4.443  0.00  0.00     0.017 A 
ATOM     21  C   UNL d   1      12.051   6.792  -3.162  0.00  0.00     0.002 A 
ATOM     22  C   UNL d   1      12.344   7.963  -2.444  0.00  0.00     0.000 A 
ATOM     23  C   UNL d   1      12.055   9.215  -3.010  0.00  0.00     0.002 A 
ATOM     24  C   UNL d   1      11.463   9.298  -4.282  0.00  0.00     0.017 A 
ENDBRANCH   1  19
TORSDOF 4
