REMARK  7 active torsions:
REMARK  status: ('A' for Active; 'I' for Inactive)
REMARK    1  A    between atoms: O_2  and  C_3 
REMARK    2  A    between atoms: C_9  and  C_10 
REMARK    3  A    between atoms: C_10  and  C_11 
REMARK    4  A    between atoms: C_11  and  N_12 
REMARK    5  A    between atoms: N_12  and  C_13 
REMARK    6  A    between atoms: C_13  and  C_14 
REMARK    7  A    between atoms: C_17  and  C_18 
ROOT
ATOM      1  C   UNL d   1       9.630   6.184  -9.639  0.00  0.00     0.114 A 
ATOM      2  C   UNL d   1       9.863   7.331 -10.345  0.00  0.00     0.024 A 
ATOM      3  C   UNL d   1      10.304   8.294  -9.401  0.00  0.00     0.026 A 
ATOM      4  C   UNL d   1      10.321   7.667  -8.186  0.00  0.00     0.101 A 
ATOM      5  O   UNL d   1       9.910   6.375  -8.319  0.00  0.00    -0.309 OA
ENDROOT
BRANCH   1   6
ATOM      6  C   UNL d   1       9.178   4.812 -10.009  0.00  0.00     0.341 C 
BRANCH   6   7
ATOM      7  N   UNL d   1       8.283   4.792 -11.155  0.00  0.00     0.346 N 
BRANCH   7   8
ATOM      8  C   UNL d   1       8.920   4.181 -12.306  0.00  0.00     0.295 C 
BRANCH   8   9
ATOM      9  C   UNL d   1       7.886   3.821 -13.383  0.00  0.00     0.066 C 
BRANCH   9  10
ATOM     10  C   UNL d   1       8.430   2.906 -14.441  0.00  0.00     0.001 A 
ATOM     11  C   UNL d   1       7.791   1.776 -14.899  0.00  0.00     0.095 A 
ATOM     12  N   UNL d   1       8.558   1.179 -15.880  0.00  0.00    -0.244 NA
ATOM     13  C   UNL d   1       9.715   1.885 -16.077  0.00  0.00     0.081 A 
ATOM     14  C   UNL d   1      10.774   1.665 -16.962  0.00  0.00     0.021 A 
ATOM     15  C   UNL d   1       9.688   2.989 -15.172  0.00  0.00     0.017 A 
ATOM     16  C   UNL d   1      11.866   2.550 -16.973  0.00  0.00     0.026 A 
ATOM     17  C   UNL d   1      11.886   3.670 -16.084  0.00  0.00     0.094 A 
ATOM     18  C   UNL d   1      10.807   3.859 -15.204  0.00  0.00     0.025 A 
BRANCH  17  19
ATOM     19  O   UNL d   1      12.909   4.596 -16.033  0.00  0.00    -0.328 OA
ATOM     20  C   UNL d   1      13.872   4.573 -17.069  0.00  0.00     0.181 C 
ENDBRANCH  17  19
ENDBRANCH   9  10
ENDBRANCH   8   9
ENDBRANCH   7   8
ENDBRANCH   6   7
ENDBRANCH   1   6
BRANCH   4  21
ATOM     21  C   UNL d   1      10.703   8.108  -6.854  0.00  0.00     0.042 A 
ATOM     22  C   UNL d   1      11.059   7.191  -5.849  0.00  0.00     0.005 A 
ATOM     23  C   UNL d   1      11.469   7.683  -4.597  0.00  0.00     0.018 A 
ATOM     24  C   UNL d   1      11.461   9.085  -4.357  0.00  0.00     0.081 A 
ATOM     25  C   UNL d   1      11.861   6.783  -3.594  0.00  0.00     0.002 A 
ATOM     26  N   UNL d   1      11.079   9.960  -5.307  0.00  0.00    -0.244 NA
ATOM     27  C   UNL d   1      11.861   9.546  -3.084  0.00  0.00     0.019 A 
ATOM     28  C   UNL d   1      10.732   9.473  -6.512  0.00  0.00     0.101 A 
ATOM     29  C   UNL d   1      12.269   8.646  -2.088  0.00  0.00     0.002 A 
ATOM     30  C   UNL d   1      12.259   7.261  -2.337  0.00  0.00     0.000 A 
ENDBRANCH   4  21
TORSDOF 7
