REMARK  2 active torsions:
REMARK  status: ('A' for Active; 'I' for Inactive)
REMARK    1  A    between atoms: C_2  and  C_3 
REMARK    2  A    between atoms: C_3  and  N_4 
ROOT
ATOM      1  N   UNL d   1       8.982   4.794 -12.171  0.00  0.00     0.140 N 
ATOM      2  C   UNL d   1       7.629   4.511 -11.665  0.00  0.00     0.282 C 
ATOM      3  C   UNL d   1       6.592   4.310 -12.780  0.00  0.00     0.178 C 
ATOM      4  O   UNL d   1       7.031   3.288 -13.672  0.00  0.00    -0.348 OA
ATOM      5  C   UNL d   1       8.319   3.531 -14.242  0.00  0.00     0.169 C 
ATOM      6  C   UNL d   1       8.706   2.431 -15.228  0.00  0.00     0.003 A 
ATOM      7  C   UNL d   1       7.711   1.923 -16.098  0.00  0.00     0.003 A 
ATOM      8  C   UNL d   1       8.077   0.935 -17.025  0.00  0.00     0.061 A 
ATOM      9  C   UNL d   1       9.370   0.458 -17.100  0.00  0.00     0.013 A 
ATOM     10  C   UNL d   1      10.383   0.941 -16.257  0.00  0.00    -0.006 A 
ATOM     11  C   UNL d   1      10.046   1.944 -15.315  0.00  0.00    -0.024 A 
ATOM     12  C   UNL d   1      11.134   2.470 -14.393  0.00  0.00     0.028 C 
ATOM     13  C   UNL d   1      10.770   3.794 -13.701  0.00  0.00     0.041 C 
ATOM     14  C   UNL d   1       9.352   3.722 -13.110  0.00  0.00     0.251 C 
ATOM     15  C   UNL d   1       9.444  -0.576 -18.181  0.00  0.00     0.179 A 
ATOM     16  O   UNL d   1       8.104  -0.622 -18.679  0.00  0.00    -0.293 OA
ATOM     17  C   UNL d   1       7.270   0.246 -18.038  0.00  0.00     0.296 A 
ATOM     18  O   UNL d   1       6.080   0.432 -18.284  0.00  0.00    -0.259 OA
ENDROOT
BRANCH   1  19
ATOM     19  C   UNL d   1       9.086   6.159 -12.707  0.00  0.00     0.250 C 
BRANCH  19  20
ATOM     20  C   UNL d   1       9.093   7.261 -11.632  0.00  0.00     0.035 C 
ATOM     21  C   UNL d   1       8.727   8.642 -12.192  0.00  0.00     0.002 C 
ENDBRANCH  19  20
ENDBRANCH   1  19
TORSDOF 2
