REMARK  3 active torsions:
REMARK  status: ('A' for Active; 'I' for Inactive)
REMARK    1  A    between atoms: O_2  and  C_3 
REMARK    2  A    between atoms: C_8  and  O_9 
REMARK    3  A    between atoms: C_13  and  N_14 
ROOT
ATOM      1  C   UNL d   1       8.605   4.212 -13.964  0.00  0.00     0.116 A 
ATOM      2  C   UNL d   1       7.427   3.809 -13.302  0.00  0.00     0.022 A 
ATOM      3  C   UNL d   1       6.760   2.643 -13.695  0.00  0.00    -0.020 A 
ATOM      4  C   UNL d   1       7.312   1.863 -14.749  0.00  0.00     0.007 A 
ATOM      5  C   UNL d   1       8.507   2.199 -15.442  0.00  0.00     0.022 A 
ATOM      6  C   UNL d   1       9.123   3.414 -15.016  0.00  0.00     0.116 A 
ATOM      7  C   UNL d   1       9.024   1.342 -16.553  0.00  0.00    -0.001 A 
ATOM      8  C   UNL d   1      10.374   1.328 -16.993  0.00  0.00     0.023 A 
ATOM      9  C   UNL d   1      10.815   0.512 -18.062  0.00  0.00     0.127 A 
ATOM     10  C   UNL d   1       9.890  -0.327 -18.715  0.00  0.00     0.023 A 
ATOM     11  C   UNL d   1       8.551  -0.359 -18.288  0.00  0.00    -0.003 A 
ATOM     12  C   UNL d   1       8.135   0.457 -17.207  0.00  0.00    -0.020 A 
ATOM     13  C   UNL d   1       6.708   0.349 -16.700  0.00  0.00     0.064 C 
ATOM     14  C   UNL d   1       6.636   0.535 -15.162  0.00  0.00     0.246 C 
ATOM     15  N   UNL d   1       5.254   0.375 -14.681  0.00  0.00     0.142 N 
ATOM     16  C   UNL d   1       4.720  -0.966 -14.923  0.00  0.00     0.286 C 
ATOM     17  C   UNL d   1       5.249   0.609 -13.246  0.00  0.00     0.255 C 
ATOM     18  C   UNL d   1       5.517   2.097 -13.003  0.00  0.00     0.061 C 
ENDROOT
BRANCH   9  19
ATOM     19  N   UNL d   1      12.222   0.547 -18.471  0.00  0.00    -0.114 N 
ATOM     20  O   UNL d   1      12.695  -0.442 -19.017  0.00  0.00    -0.532 OA
ATOM     21  O   UNL d   1      12.857   1.572 -18.236  0.00  0.00    -0.532 OA
ENDBRANCH   9  19
BRANCH   6  22
ATOM     22  O   UNL d   1      10.221   3.889 -15.688  0.00  0.00    -0.326 OA
ATOM     23  C   UNL d   1      11.445   3.796 -14.979  0.00  0.00     0.181 C 
ENDBRANCH   6  22
BRANCH   1  24
ATOM     24  O   UNL d   1       9.286   5.370 -13.641  0.00  0.00    -0.326 OA
ATOM     25  C   UNL d   1       8.804   6.182 -12.579  0.00  0.00     0.181 C 
ENDBRANCH   1  24
TORSDOF 3
