REMARK  4 active torsions:
REMARK  status: ('A' for Active; 'I' for Inactive)
REMARK    1  A    between atoms: C_4  and  O_5 
REMARK    2  A    between atoms: O_5  and  C_6 
REMARK    3  A    between atoms: C_6  and  C_7 
REMARK    4  A    between atoms: N_12  and  C_13 
ROOT
ATOM      1  C   UNL d   1       9.763   4.733 -12.832  0.00  0.00     0.064 C 
ATOM      2  C   UNL d   1       8.794   5.433 -13.770  0.00  0.00     0.007 C 
ATOM      3  C   UNL d   1       9.192   5.081 -15.207  0.00  0.00     0.035 C 
ATOM      4  C   UNL d   1       9.141   3.556 -15.435  0.00  0.00     0.242 C 
ATOM      5  C   UNL d   1       9.467   3.218 -16.907  0.00  0.00     0.153 C 
ATOM      6  N   UNL d   1       9.487   1.774 -17.108  0.00  0.00    -0.179 N 
ATOM      7  C   UNL d   1      10.428   1.123 -16.200  0.00  0.00     0.155 C 
ATOM      8  C   UNL d   1      10.102   1.501 -14.742  0.00  0.00     0.275 C 
ATOM      9  N   UNL d   1      10.123   2.949 -14.551  0.00  0.00     0.139 N 
ATOM     10  C   UNL d   1       9.750   3.236 -13.178  0.00  0.00     0.253 C 
ENDROOT
BRANCH   1  11
ATOM     11  C   UNL d   1       9.404   5.048 -11.363  0.00  0.00     0.151 C 
BRANCH  11  12
ATOM     12  O   UNL d   1       9.860   6.362 -11.034  0.00  0.00    -0.331 OA
BRANCH  12  13
ATOM     13  C   UNL d   1       9.794   6.771  -9.717  0.00  0.00     0.094 A 
ATOM     14  C   UNL d   1      10.447   7.976  -9.378  0.00  0.00     0.024 A 
ATOM     15  C   UNL d   1      10.421   8.463  -8.056  0.00  0.00     0.002 A 
ATOM     16  C   UNL d   1       9.729   7.752  -7.059  0.00  0.00     0.000 A 
ATOM     17  C   UNL d   1       9.065   6.556  -7.388  0.00  0.00     0.002 A 
ATOM     18  C   UNL d   1       9.099   6.063  -8.706  0.00  0.00     0.024 A 
ENDBRANCH  12  13
ENDBRANCH  11  12
ENDBRANCH   1  11
BRANCH   6  19
ATOM     19  C   UNL d   1       8.667   1.095 -18.047  0.00  0.00     0.727 A 
ATOM     20  N   UNL d   1       7.875   1.831 -18.834  0.00  0.00    -0.060 NA
ATOM     21  C   UNL d   1       7.127   1.172 -19.743  0.00  0.00     0.120 A 
ATOM     22  C   UNL d   1       7.144  -0.228 -19.845  0.00  0.00     0.043 A 
ATOM     23  C   UNL d   1       8.000  -0.899 -18.957  0.00  0.00     0.120 A 
ATOM     24  N   UNL d   1       8.768  -0.236 -18.073  0.00  0.00    -0.060 NA
ENDBRANCH   6  19
TORSDOF 4
