REMARK  7 active torsions:
REMARK  status: ('A' for Active; 'I' for Inactive)
REMARK    1  A    between atoms: C_5  and  C_6 
REMARK    2  A    between atoms: N_10  and  C_11 
REMARK    3  A    between atoms: C_11  and  C_12 
REMARK    4  A    between atoms: C_12  and  C_13 
REMARK    5  A    between atoms: C_13  and  S_14 
REMARK    6  A    between atoms: S_14  and  C_15 
REMARK    7  A    between atoms: C_18  and  C_19 
ROOT
ATOM      1  C   UNL d   1       8.843   5.899 -10.083  0.00  0.00     0.251 C 
ENDROOT
BRANCH   1   2
ATOM      2  N   UNL d   1       9.896   6.469  -9.237  0.00  0.00     0.137 N 
ATOM      3  C   UNL d   1      10.834   7.311  -9.989  0.00  0.00     0.251 C 
ATOM      4  C   UNL d   1      11.430   8.204  -8.964  0.00  0.00     0.040 A 
ATOM      5  C   UNL d   1      10.465   8.271  -7.824  0.00  0.00     0.054 A 
ATOM      6  C   UNL d   1      10.798   9.512  -8.616  0.00  0.00     0.009 A 
ATOM      7  C   UNL d   1       9.328   7.379  -8.233  0.00  0.00     0.254 C 
BRANCH   5   8
ATOM      8  C   UNL d   1      10.928   8.095  -6.414  0.00  0.00     0.007 A 
ATOM      9  C   UNL d   1      11.289   6.808  -5.984  0.00  0.00    -0.002 A 
ATOM     10  C   UNL d   1      11.760   6.603  -4.677  0.00  0.00    -0.004 A 
ATOM     11  C   UNL d   1      11.885   7.685  -3.797  0.00  0.00    -0.020 A 
ATOM     12  C   UNL d   1      12.399   7.462  -2.398  0.00  0.00     0.031 C 
ATOM     13  C   UNL d   1      11.534   8.979  -4.209  0.00  0.00     0.025 A 
ATOM     14  C   UNL d   1      11.033   9.181  -5.505  0.00  0.00     0.136 A 
ATOM     15  F   UNL d   1      10.655  10.426  -5.845  0.00  0.00    -0.205 F 
ENDBRANCH   5   8
ENDBRANCH   1   2
BRANCH   1  16
ATOM     16  C   UNL d   1       9.401   4.955 -11.170  0.00  0.00     0.047 C 
BRANCH  16  17
ATOM     17  C   UNL d   1       8.410   4.610 -12.296  0.00  0.00     0.067 C 
BRANCH  17  18
ATOM     18  S   UNL d   1       9.005   3.278 -13.408  0.00  0.00    -0.075 SA
BRANCH  18  19
ATOM     19  C   UNL d   1      10.293   4.039 -14.319  0.00  0.00     0.193 A 
ATOM     20  N   UNL d   1      10.968   3.419 -15.314  0.00  0.00    -0.287 N 
ATOM     21  C   UNL d   1      11.776   4.410 -15.749  0.00  0.00     0.191 A 
ATOM     22  C   UNL d   1      10.822   2.060 -15.798  0.00  0.00     0.134 C 
ATOM     23  N   UNL d   1      11.624   5.550 -15.073  0.00  0.00    -0.126 NA
ATOM     24  N   UNL d   1      10.662   5.296 -14.132  0.00  0.00    -0.122 NA
BRANCH  21  25
ATOM     25  C   UNL d   1      12.730   4.346 -16.830  0.00  0.00     0.151 A 
ATOM     26  C   UNL d   1      13.543   5.304 -17.394  0.00  0.00     0.087 A 
ATOM     27  N   UNL d   1      14.282   4.700 -18.401  0.00  0.00    -0.221 NA
ATOM     28  C   UNL d   1      13.696   6.768 -17.070  0.00  0.00     0.054 C 
ATOM     29  C   UNL d   1      13.868   3.435 -18.394  0.00  0.00     0.225 A 
ATOM     30  O   UNL d   1      12.927   3.157 -17.460  0.00  0.00    -0.282 OA
ENDBRANCH  21  25
ENDBRANCH  18  19
ENDBRANCH  17  18
ENDBRANCH  16  17
ENDBRANCH   1  16
TORSDOF 7
