REMARK  6 active torsions:
REMARK  status: ('A' for Active; 'I' for Inactive)
REMARK    1  A    between atoms: C_2  and  C_4 
REMARK    2  A    between atoms: C_4  and  S_5 
REMARK    3  A    between atoms: S_5  and  N_8 
REMARK    4  A    between atoms: C_12  and  C_13 
REMARK    5  A    between atoms: C_16  and  C_17 
REMARK    6  A    between atoms: C_24  and  N_25 
ROOT
ATOM      1  N   UNL d   1      13.212   0.828 -19.566  0.00  0.00    -0.218 N 
ATOM      2  C   UNL d   1      12.374  -0.276 -19.653  0.00  0.00     0.093 A 
ATOM      3  C   UNL d   1      11.346  -0.147 -18.752  0.00  0.00     0.023 A 
ATOM      4  C   UNL d   1      11.567   1.092 -18.060  0.00  0.00     0.037 A 
ATOM      5  C   UNL d   1      10.917   1.803 -17.026  0.00  0.00     0.006 A 
ATOM      6  C   UNL d   1      11.469   3.022 -16.595  0.00  0.00     0.037 A 
ATOM      7  C   UNL d   1      12.646   3.547 -17.194  0.00  0.00     0.142 A 
ATOM      8  N   UNL d   1      13.282   2.888 -18.199  0.00  0.00    -0.211 NA
ATOM      9  C   UNL d   1      12.740   1.697 -18.590  0.00  0.00     0.158 A 
ENDROOT
BRANCH   5  10
ATOM     10  C   UNL d   1       9.679   1.305 -16.417  0.00  0.00     0.000 A 
ATOM     11  C   UNL d   1       9.608   1.064 -15.028  0.00  0.00    -0.000 A 
ATOM     12  C   UNL d   1       8.416   0.590 -14.442  0.00  0.00     0.004 A 
ATOM     13  C   UNL d   1       7.276   0.352 -15.238  0.00  0.00     0.071 A 
ATOM     14  C   UNL d   1       7.340   0.607 -16.625  0.00  0.00     0.004 A 
ATOM     15  C   UNL d   1       8.534   1.078 -17.207  0.00  0.00    -0.000 A 
BRANCH  13  16
ATOM     16  C   UNL d   1       5.997  -0.176 -14.597  0.00  0.00     0.419 C 
ATOM     17  F   UNL d   1       5.116  -0.583 -15.510  0.00  0.00    -0.166 F 
ATOM     18  F   UNL d   1       6.264  -1.202 -13.792  0.00  0.00    -0.166 F 
ATOM     19  F   UNL d   1       5.440   0.793 -13.873  0.00  0.00    -0.166 F 
ENDBRANCH  13  16
ENDBRANCH   5  10
BRANCH   7  20
ATOM     20  N   UNL d   1      13.181   4.769 -16.778  0.00  0.00    -0.330 N 
ATOM     21  C   UNL d   1      12.420   5.770 -16.017  0.00  0.00     0.138 C 
ATOM     22  C   UNL d   1      12.496   7.139 -16.706  0.00  0.00     0.274 C 
ATOM     23  N   UNL d   1      13.892   7.540 -16.882  0.00  0.00     0.143 N 
ATOM     24  C   UNL d   1      14.569   6.567 -17.743  0.00  0.00     0.274 C 
ATOM     25  C   UNL d   1      13.935   8.851 -17.513  0.00  0.00     0.286 C 
ATOM     26  C   UNL d   1      14.560   5.181 -17.078  0.00  0.00     0.138 C 
ENDBRANCH   7  20
BRANCH   1  27
ATOM     27  S   UNL d   1      14.634   1.022 -20.508  0.00  0.00     0.252 S 
ATOM     28  O   UNL d   1      14.727  -0.171 -21.361  0.00  0.00    -0.204 OA
ATOM     29  O   UNL d   1      15.700   1.348 -19.553  0.00  0.00    -0.204 OA
BRANCH  27  30
ATOM     30  C   UNL d   1      14.191   2.493 -21.543  0.00  0.00     0.145 C 
BRANCH  30  31
ATOM     31  C   UNL d   1      15.327   2.930 -22.500  0.00  0.00     0.018 C 
ATOM     32  C   UNL d   1      16.662   3.181 -21.780  0.00  0.00     0.001 C 
ATOM     33  C   UNL d   1      14.925   4.181 -23.302  0.00  0.00     0.001 C 
ENDBRANCH  30  31
ENDBRANCH  27  30
ENDBRANCH   1  27
TORSDOF 6
