REMARK  11 active torsions:
REMARK  status: ('A' for Active; 'I' for Inactive)
REMARK    1  A    between atoms: C_6  and  C_7 
REMARK    2  A    between atoms: C_7  and  C_8 
REMARK    3  A    between atoms: C_7  and  C_27 
REMARK    4  A    between atoms: C_8  and  C_9 
REMARK    5  A    between atoms: C_9  and  N_10 
REMARK    6  A    between atoms: N_10  and  C_11 
REMARK    7  A    between atoms: C_11  and  C_12 
REMARK    8  A    between atoms: C_12  and  C_13 
REMARK    9  A    between atoms: C_13  and  C_14 
REMARK   10  A    between atoms: C_14  and  N_15 
REMARK   11  A    between atoms: N_18  and  C_19 
ROOT
ATOM      1  C   UNL d   1       8.550   2.481 -14.052  0.00  0.00     0.291 C 
ENDROOT
BRANCH   1   2
ATOM      2  C   UNL d   1       7.556   1.410 -14.534  0.00  0.00     0.047 C 
BRANCH   2   3
ATOM      3  C   UNL d   1       7.233   1.416 -16.046  0.00  0.00     0.047 C 
BRANCH   3   4
ATOM      4  C   UNL d   1       8.491   1.318 -16.910  0.00  0.00    -0.016 A 
ATOM      5  C   UNL d   1       8.994   2.464 -17.564  0.00  0.00    -0.004 A 
ATOM      6  C   UNL d   1      10.148   2.381 -18.365  0.00  0.00     0.002 A 
ATOM      7  C   UNL d   1      10.812   1.149 -18.520  0.00  0.00     0.027 A 
ATOM      8  C   UNL d   1      10.319   0.000 -17.872  0.00  0.00     0.131 A 
ATOM      9  O   UNL d   1      10.956  -1.195 -18.043  0.00  0.00    -0.190 OA
ATOM     10  C   UNL d   1       9.165   0.085 -17.066  0.00  0.00     0.023 A 
ENDBRANCH   3   4
BRANCH   3  11
ATOM     11  C   UNL d   1       6.177   0.383 -16.454  0.00  0.00    -0.016 A 
ATOM     12  C   UNL d   1       5.652   0.426 -17.766  0.00  0.00     0.023 A 
ATOM     13  C   UNL d   1       4.660  -0.488 -18.174  0.00  0.00     0.131 A 
ATOM     14  C   UNL d   1       4.186  -1.464 -17.276  0.00  0.00     0.027 A 
ATOM     15  O   UNL d   1       4.154  -0.414 -19.437  0.00  0.00    -0.190 OA
ATOM     16  C   UNL d   1       4.701  -1.515 -15.969  0.00  0.00     0.002 A 
ATOM     17  C   UNL d   1       5.689  -0.602 -15.556  0.00  0.00    -0.004 A 
ENDBRANCH   3  11
ENDBRANCH   2   3
ENDBRANCH   1   2
BRANCH   1  18
ATOM     18  N   UNL d   1       7.837   3.643 -13.546  0.00  0.00     0.339 N 
BRANCH  18  19
ATOM     19  C   UNL d   1       8.703   4.388 -12.643  0.00  0.00     0.290 C 
BRANCH  19  20
ATOM     20  C   UNL d   1       7.927   5.549 -11.995  0.00  0.00     0.040 C 
BRANCH  20  21
ATOM     21  C   UNL d   1       8.820   6.460 -11.136  0.00  0.00     0.037 C 
BRANCH  21  22
ATOM     22  C   UNL d   1       8.834   6.106  -9.640  0.00  0.00     0.251 C 
BRANCH  22  23
ATOM     23  N   UNL d   1       9.858   6.883  -8.934  0.00  0.00     0.141 N 
ATOM     24  C   UNL d   1      10.582   6.010  -8.016  0.00  0.00     0.274 C 
ATOM     25  C   UNL d   1      11.707   6.791  -7.319  0.00  0.00     0.137 C 
ATOM     26  N   UNL d   1      11.143   7.902  -6.573  0.00  0.00    -0.344 N 
ATOM     27  C   UNL d   1      10.320   8.786  -7.400  0.00  0.00     0.137 C 
ATOM     28  C   UNL d   1       9.244   7.960  -8.146  0.00  0.00     0.274 C 
BRANCH  26  29
ATOM     29  C   UNL d   1      11.396   8.098  -5.215  0.00  0.00     0.056 A 
ATOM     30  C   UNL d   1      11.608   6.993  -4.352  0.00  0.00     0.017 A 
ATOM     31  C   UNL d   1      11.874   7.179  -2.985  0.00  0.00     0.002 A 
ATOM     32  C   UNL d   1      11.925   8.479  -2.448  0.00  0.00     0.000 A 
ATOM     33  C   UNL d   1      11.707   9.587  -3.285  0.00  0.00     0.002 A 
ATOM     34  C   UNL d   1      11.447   9.400  -4.661  0.00  0.00     0.017 A 
ENDBRANCH  26  29
ENDBRANCH  22  23
ENDBRANCH  21  22
ENDBRANCH  20  21
ENDBRANCH  19  20
ENDBRANCH  18  19
ENDBRANCH   1  18
TORSDOF 11
