REMARK  4 active torsions:
REMARK  status: ('A' for Active; 'I' for Inactive)
REMARK       I    between atoms: N_10  and  C_11 
REMARK    1  A    between atoms: C_11  and  C_13 
REMARK    2  A    between atoms: C_13  and  N_14 
REMARK    3  A    between atoms: N_17  and  C_18 
REMARK    4  A    between atoms: C_18  and  C_19 
ROOT
ATOM      1  N   UNL d   1       9.137   4.584 -13.680  0.00  0.00     0.151 N 
ATOM      2  C   UNL d   1      10.515   4.104 -13.495  0.00  0.00     0.286 C 
ATOM      3  C   UNL d   1      11.185   3.708 -14.828  0.00  0.00     0.286 C 
ATOM      4  N   UNL d   1      10.414   2.684 -15.535  0.00  0.00     0.146 N 
ATOM      5  C   UNL d   1       9.051   3.191 -15.719  0.00  0.00     0.286 C 
ATOM      6  C   UNL d   1       8.390   3.557 -14.380  0.00  0.00     0.286 C 
ENDROOT
BRANCH   1   7
ATOM      7  C   UNL d   1       8.461   4.934 -12.424  0.00  0.00     0.337 C 
BRANCH   7   8
ATOM      8  C   UNL d   1       9.063   6.165 -11.719  0.00  0.00     0.272 C 
ATOM      9  N   UNL d   1       9.158   6.183 -10.372  0.00  0.00    -0.298 N 
ATOM     10  C   UNL d   1       9.784   7.184  -9.598  0.00  0.00     0.058 A 
ATOM     11  C   UNL d   1       8.559   5.178  -9.491  0.00  0.00     0.114 A 
ATOM     12  C   UNL d   1      10.419   8.374 -10.005  0.00  0.00     0.017 A 
ATOM     13  C   UNL d   1       9.685   6.855  -8.244  0.00  0.00    -0.005 A 
ATOM     14  C   UNL d   1      10.974   9.193  -9.007  0.00  0.00    -0.003 A 
ATOM     15  C   UNL d   1      10.880   8.862  -7.635  0.00  0.00    -0.022 A 
ATOM     16  C   UNL d   1      11.451   9.796  -6.588  0.00  0.00     0.031 C 
ATOM     17  C   UNL d   1      10.235   7.672  -7.241  0.00  0.00    -0.007 A 
ATOM     18  C   UNL d   1       8.951   5.566  -8.058  0.00  0.00     0.052 A 
ATOM     19  O   UNL d   1       9.414   7.112 -12.435  0.00  0.00    -0.270 OA
ENDBRANCH   7   8
ENDBRANCH   1   7
BRANCH   4  20
ATOM     20  C   UNL d   1      11.053   2.328 -16.799  0.00  0.00     0.277 C 
BRANCH  20  21
ATOM     21  C   UNL d   1      10.281   1.295 -17.606  0.00  0.00     0.011 A 
ATOM     22  C   UNL d   1       9.414   1.711 -18.641  0.00  0.00    -0.002 A 
ATOM     23  C   UNL d   1       8.671   0.762 -19.370  0.00  0.00     0.011 A 
ATOM     24  C   UNL d   1       8.798  -0.609 -19.072  0.00  0.00     0.058 A 
ATOM     25  C   UNL d   1       9.666  -1.027 -18.046  0.00  0.00     0.011 A 
ATOM     26 CL   UNL d   1       7.889  -1.772 -19.965  0.00  0.00    -0.082 Cl
ATOM     27  C   UNL d   1      10.401  -0.076 -17.309  0.00  0.00    -0.002 A 
ENDBRANCH  20  21
ENDBRANCH   4  20
TORSDOF 4
