REMARK  7 active torsions:
REMARK  status: ('A' for Active; 'I' for Inactive)
REMARK       I    between atoms: C_2  and  N_4 
REMARK    1  A    between atoms: N_4  and  C_5 
REMARK    2  A    between atoms: C_8  and  C_9 
REMARK    3  A    between atoms: C_9  and  C_11 
REMARK    4  A    between atoms: C_11  and  C_12 
REMARK    5  A    between atoms: C_12  and  C_13 
REMARK    6  A    between atoms: C_13  and  N_14 
REMARK    7  A    between atoms: N_17  and  C_18 
ROOT
ATOM      1  C   UNL d   1       8.126   5.939 -11.018  0.00  0.00     0.043 C 
ENDROOT
BRANCH   1   2
ATOM      2  C   UNL d   1       7.896   4.701 -11.903  0.00  0.00     0.071 C 
BRANCH   2   3
ATOM      3  C   UNL d   1       8.868   4.532 -13.088  0.00  0.00     0.173 C 
ATOM      4  O   UNL d   1       9.896   5.208 -13.152  0.00  0.00    -0.291 OA
BRANCH   3   5
ATOM      5  C   UNL d   1       8.508   3.538 -14.140  0.00  0.00     0.035 A 
ATOM      6  C   UNL d   1       7.345   2.733 -14.057  0.00  0.00     0.004 A 
ATOM      7  C   UNL d   1       7.053   1.804 -15.073  0.00  0.00     0.019 A 
ATOM      8  C   UNL d   1       7.892   1.691 -16.198  0.00  0.00     0.084 A 
ATOM      9  C   UNL d   1       9.051   2.493 -16.297  0.00  0.00     0.019 A 
ATOM     10  C   UNL d   1       9.355   3.401 -15.266  0.00  0.00     0.004 A 
BRANCH   8  11
ATOM     11  N   UNL d   1       7.563   0.724 -17.170  0.00  0.00    -0.212 NA
ATOM     12  C   UNL d   1       7.579   0.889 -18.500  0.00  0.00     0.256 C 
ATOM     13  C   UNL d   1       7.164  -0.327 -19.322  0.00  0.00     0.100 C 
ATOM     14  O   UNL d   1       7.868   1.948 -19.060  0.00  0.00    -0.270 OA
ENDBRANCH   8  11
ENDBRANCH   3   5
ENDBRANCH   2   3
ENDBRANCH   1   2
BRANCH   1  15
ATOM     15  C   UNL d   1       9.473   5.945 -10.263  0.00  0.00     0.251 C 
BRANCH  15  16
ATOM     16  N   UNL d   1       9.552   7.000  -9.258  0.00  0.00     0.141 N 
ATOM     17  C   UNL d   1       8.913   6.566  -8.014  0.00  0.00     0.274 C 
ATOM     18  C   UNL d   1       8.972   7.691  -6.967  0.00  0.00     0.138 C 
ATOM     19  N   UNL d   1      10.337   8.144  -6.776  0.00  0.00    -0.330 N 
ATOM     20  C   UNL d   1      11.086   8.471  -7.975  0.00  0.00     0.138 C 
ATOM     21  C   UNL d   1      10.955   7.315  -8.990  0.00  0.00     0.274 C 
BRANCH  19  22
ATOM     22  C   UNL d   1      10.960   8.151  -5.526  0.00  0.00     0.140 A 
ATOM     23  N   UNL d   1      11.237   9.360  -4.993  0.00  0.00    -0.227 NA
ATOM     24  C   UNL d   1      11.802   9.403  -3.771  0.00  0.00     0.101 A 
ATOM     25  C   UNL d   1      12.143   8.253  -3.035  0.00  0.00     0.021 A 
ATOM     26  C   UNL d   1      11.864   6.993  -3.595  0.00  0.00     0.005 A 
ATOM     27  C   UNL d   1      11.249   6.938  -4.860  0.00  0.00     0.037 A 
ENDBRANCH  19  22
ENDBRANCH  15  16
ENDBRANCH   1  15
TORSDOF 7
