REMARK  9 active torsions:
REMARK  status: ('A' for Active; 'I' for Inactive)
REMARK    1  A    between atoms: C_6  and  C_7 
REMARK    2  A    between atoms: C_10  and  S_11 
REMARK    3  A    between atoms: S_11  and  C_12 
REMARK    4  A    between atoms: C_12  and  C_13 
REMARK    5  A    between atoms: C_13  and  C_14 
REMARK    6  A    between atoms: C_14  and  C_15 
REMARK    7  A    between atoms: C_15  and  N_16 
REMARK    8  A    between atoms: C_20  and  C_21 
REMARK    9  A    between atoms: C_24  and  C_25 
ROOT
ATOM      1  C   UNL d   1       8.489   4.935 -12.215  0.00  0.00     0.251 C 
ENDROOT
BRANCH   1   2
ATOM      2  C   UNL d   1       8.077   4.552 -13.621  0.00  0.00     0.036 C 
BRANCH   2   3
ATOM      3  C   UNL d   1       7.732   3.093 -13.737  0.00  0.00     0.014 C 
BRANCH   3   4
ATOM      4  C   UNL d   1       6.282   2.752 -13.276  0.00  0.00     0.065 C 
BRANCH   4   5
ATOM      5  S   UNL d   1       5.864   0.983 -13.460  0.00  0.00    -0.076 SA
BRANCH   5   6
ATOM      6  C   UNL d   1       6.126   0.723 -15.167  0.00  0.00     0.193 A 
ATOM      7  N   UNL d   1       7.057   1.300 -15.911  0.00  0.00    -0.122 NA
ATOM      8  N   UNL d   1       6.840   0.934 -17.180  0.00  0.00    -0.126 NA
ATOM      9  C   UNL d   1       5.861   0.056 -17.119  0.00  0.00     0.191 A 
ATOM     10  N   UNL d   1       5.373  -0.140 -15.867  0.00  0.00    -0.287 N 
ATOM     11  C   UNL d   1       4.343  -1.057 -15.376  0.00  0.00     0.134 C 
BRANCH   9  12
ATOM     12  C   UNL d   1       5.423  -0.620 -18.354  0.00  0.00     0.151 A 
ATOM     13  C   UNL d   1       5.048  -1.896 -18.691  0.00  0.00     0.087 A 
ATOM     14  C   UNL d   1       4.888  -3.102 -17.833  0.00  0.00     0.054 C 
ATOM     15  N   UNL d   1       4.795  -1.943 -20.063  0.00  0.00    -0.221 NA
ATOM     16  C   UNL d   1       5.049  -0.706 -20.479  0.00  0.00     0.225 A 
ATOM     17  O   UNL d   1       5.439   0.144 -19.484  0.00  0.00    -0.282 OA
ENDBRANCH   9  12
ENDBRANCH   5   6
ENDBRANCH   4   5
ENDBRANCH   3   4
ENDBRANCH   2   3
ENDBRANCH   1   2
BRANCH   1  18
ATOM     18  N   UNL d   1       9.046   6.278 -12.117  0.00  0.00     0.143 N 
ATOM     19  C   UNL d   1       9.495   6.532 -10.758  0.00  0.00     0.284 C 
ATOM     20  C   UNL d   1      10.051   7.962 -10.583  0.00  0.00     0.171 C 
ATOM     21  O   UNL d   1       9.105   8.929 -11.028  0.00  0.00    -0.348 OA
ATOM     22  C   UNL d   1       8.641   8.713 -12.339  0.00  0.00     0.178 C 
ATOM     23  C   UNL d   1       8.070   7.304 -12.489  0.00  0.00     0.282 C 
BRANCH  20  24
ATOM     24  C   UNL d   1      10.453   8.207  -9.148  0.00  0.00     0.007 A 
ATOM     25  C   UNL d   1      11.776   8.535  -8.819  0.00  0.00    -0.002 A 
ATOM     26  C   UNL d   1      12.129   8.788  -7.483  0.00  0.00     0.004 A 
ATOM     27  C   UNL d   1      11.156   8.717  -6.453  0.00  0.00     0.071 A 
ATOM     28  C   UNL d   1       9.835   8.371  -6.790  0.00  0.00     0.004 A 
ATOM     29  C   UNL d   1       9.483   8.123  -8.123  0.00  0.00    -0.002 A 
BRANCH  27  30
ATOM     30  C   UNL d   1      11.524   9.011  -5.006  0.00  0.00     0.419 C 
ATOM     31  F   UNL d   1      11.461   7.879  -4.305  0.00  0.00    -0.166 F 
ATOM     32  F   UNL d   1      12.750   9.514  -4.883  0.00  0.00    -0.166 F 
ATOM     33  F   UNL d   1      10.661   9.895  -4.498  0.00  0.00    -0.166 F 
ENDBRANCH  27  30
ENDBRANCH  20  24
ENDBRANCH   1  18
TORSDOF 9
