REMARK  6 active torsions:
REMARK  status: ('A' for Active; 'I' for Inactive)
REMARK    1  A    between atoms: N_13  and  C_14 
REMARK    2  A    between atoms: C_14  and  C_15 
REMARK    3  A    between atoms: C_15  and  C_16 
REMARK    4  A    between atoms: C_16  and  C_17 
REMARK    5  A    between atoms: C_17  and  N_18 
REMARK    6  A    between atoms: N_21  and  C_22 
ROOT
ATOM      1  C   UNL d   1       8.656   2.303 -14.249  0.00  0.00     0.037 C 
ENDROOT
BRANCH   1   2
ATOM      2  C   UNL d   1       9.011   1.623 -15.567  0.00  0.00     0.027 C 
BRANCH   2   3
ATOM      3  C   UNL d   1      10.528   1.397 -15.723  0.00  0.00     0.112 C 
BRANCH   3   4
ATOM      4  N   UNL d   1      10.860   1.288 -17.142  0.00  0.00    -0.271 N 
ATOM      5  C   UNL d   1      10.632   0.076 -17.740  0.00  0.00     0.239 C 
ATOM      6  O   UNL d   1      10.235  -0.949 -17.161  0.00  0.00    -0.272 OA
ATOM      7  C   UNL d   1      10.903  -0.055 -19.267  0.00  0.00     0.089 C 
ATOM      8  C   UNL d   1      12.039   0.884 -19.773  0.00  0.00     0.018 C 
ATOM      9  C   UNL d   1      12.108   0.822 -21.315  0.00  0.00     0.001 C 
ATOM     10  C   UNL d   1      13.426   0.515 -19.157  0.00  0.00     0.001 C 
ATOM     11  C   UNL d   1      11.655   2.300 -19.316  0.00  0.00     0.089 C 
ATOM     12  C   UNL d   1      12.579  -0.552 -21.819  0.00  0.00     0.000 C 
ATOM     13  C   UNL d   1      13.912  -0.980 -21.176  0.00  0.00     0.000 C 
ATOM     14  C   UNL d   1      13.914  -0.885 -19.645  0.00  0.00     0.000 C 
ATOM     15  C   UNL d   1      11.332   2.380 -17.807  0.00  0.00     0.239 C 
ATOM     16  O   UNL d   1      11.531   3.470 -17.270  0.00  0.00    -0.272 OA
ENDBRANCH   3   4
ENDBRANCH   2   3
ENDBRANCH   1   2
BRANCH   1  17
ATOM     17  C   UNL d   1       9.048   3.791 -14.257  0.00  0.00     0.251 C 
BRANCH  17  18
ATOM     18  N   UNL d   1       8.650   4.440 -13.019  0.00  0.00     0.141 N 
ATOM     19  C   UNL d   1       8.659   5.892 -13.227  0.00  0.00     0.274 C 
ATOM     20  C   UNL d   1       8.242   6.639 -11.953  0.00  0.00     0.137 C 
ATOM     21  N   UNL d   1       9.137   6.237 -10.880  0.00  0.00    -0.344 N 
ATOM     22  C   UNL d   1       9.238   4.812 -10.642  0.00  0.00     0.137 C 
ATOM     23  C   UNL d   1       9.627   4.131 -11.967  0.00  0.00     0.274 C 
BRANCH  21  24
ATOM     24  C   UNL d   1       9.746   7.186 -10.029  0.00  0.00     0.057 C 
ATOM     25  C   UNL d   1       9.647   7.128  -8.618  0.00  0.00     0.022 A 
ATOM     26  C   UNL d   1      10.343   8.128  -7.860  0.00  0.00     0.031 A 
ATOM     27  C   UNL d   1       8.940   6.220  -7.764  0.00  0.00     0.009 A 
ATOM     28  C   UNL d   1      11.076   9.139  -8.466  0.00  0.00     0.007 C 
ATOM     29  S   UNL d   1      10.155   7.896  -6.153  0.00  0.00    -0.086 SA
ATOM     30  C   UNL d   1      11.159   9.189  -9.856  0.00  0.00     0.002 C 
ATOM     31  C   UNL d   1      10.433   8.256 -10.619  0.00  0.00     0.017 C 
ATOM     32  C   UNL d   1       9.096   6.571  -6.459  0.00  0.00     0.035 A 
ENDBRANCH  21  24
ENDBRANCH  17  18
ENDBRANCH   1  17
TORSDOF 6
