REMARK  5 active torsions:
REMARK  status: ('A' for Active; 'I' for Inactive)
REMARK       I    between atoms: C_2  and  N_3 
REMARK    1  A    between atoms: C_2  and  C_16 
REMARK    2  A    between atoms: N_3  and  C_4 
REMARK    3  A    between atoms: N_7  and  C_8 
REMARK    4  A    between atoms: C_8  and  C_9 
REMARK    5  A    between atoms: C_19  and  C_20 
ROOT
ATOM      1  O   UNL d   1       9.753   8.216 -11.493  0.00  0.00    -0.266 OA
ATOM      2  C   UNL d   1       9.722   7.259 -10.717  0.00  0.00     0.275 C 
ATOM      3  N   UNL d   1       9.289   6.033 -11.053  0.00  0.00    -0.234 NA
ENDROOT
BRANCH   2   4
ATOM      4  C   UNL d   1      10.184   7.414  -9.303  0.00  0.00     0.058 A 
ATOM      5  C   UNL d   1       9.504   6.750  -8.255  0.00  0.00     0.005 A 
ATOM      6  C   UNL d   1       9.919   6.925  -6.925  0.00  0.00     0.000 A 
ATOM      7  C   UNL d   1      10.995   7.780  -6.611  0.00  0.00     0.000 A 
ATOM      8  C   UNL d   1      11.648   8.468  -7.659  0.00  0.00     0.000 A 
ATOM      9  C   UNL d   1      11.239   8.291  -8.996  0.00  0.00     0.005 A 
BRANCH   7  10
ATOM     10  C   UNL d   1      11.427   7.943  -5.214  0.00  0.00     0.000 A 
ATOM     11  C   UNL d   1      11.659   9.226  -4.673  0.00  0.00     0.002 A 
ATOM     12  C   UNL d   1      12.070   9.374  -3.335  0.00  0.00     0.030 A 
ATOM     13  C   UNL d   1      12.268   8.241  -2.527  0.00  0.00     0.140 A 
ATOM     14  C   UNL d   1      12.049   6.956  -3.055  0.00  0.00     0.030 A 
ATOM     15  F   UNL d   1      12.679   8.387  -1.248  0.00  0.00    -0.204 F 
ATOM     16  C   UNL d   1      11.625   6.812  -4.390  0.00  0.00     0.002 A 
ENDBRANCH   7  10
ENDBRANCH   2   4
BRANCH   3  17
ATOM     17  C   UNL d   1       8.561   5.701 -12.277  0.00  0.00     0.142 C 
ATOM     18  C   UNL d   1       7.943   4.306 -12.188  0.00  0.00     0.275 C 
ATOM     19  N   UNL d   1       6.714   4.401 -12.963  0.00  0.00     0.143 N 
ATOM     20  C   UNL d   1       6.136   5.649 -12.512  0.00  0.00     0.253 C 
ATOM     21  C   UNL d   1       7.333   6.588 -12.517  0.00  0.00     0.062 C 
BRANCH  19  22
ATOM     22  C   UNL d   1       5.812   3.266 -12.767  0.00  0.00     0.277 C 
BRANCH  22  23
ATOM     23  C   UNL d   1       6.136   2.066 -13.642  0.00  0.00     0.011 A 
ATOM     24  C   UNL d   1       5.601   0.800 -13.319  0.00  0.00    -0.002 A 
ATOM     25  C   UNL d   1       5.841  -0.307 -14.157  0.00  0.00    -0.000 A 
ATOM     26  C   UNL d   1       6.607  -0.147 -15.327  0.00  0.00    -0.000 A 
ATOM     27  C   UNL d   1       7.161   1.105 -15.644  0.00  0.00    -0.000 A 
ATOM     28  C   UNL d   1       6.925   2.207 -14.805  0.00  0.00    -0.002 A 
ENDBRANCH  22  23
ENDBRANCH  19  22
ENDBRANCH   3  17
TORSDOF 5
