REMARK  2 active torsions:
REMARK  status: ('A' for Active; 'I' for Inactive)
REMARK    1  A    between atoms: C_4  and  C_5 
REMARK    2  A    between atoms: C_5  and  N_6 
ROOT
ATOM      1  N   UNL d   1      11.027   8.881  -6.387  0.00  0.00     0.144 N 
ATOM      2  C   UNL d   1      10.950   7.431  -6.195  0.00  0.00     0.268 C 
ATOM      3  C   UNL d   1       9.865   6.766  -7.000  0.00  0.00     0.112 C 
ATOM      4  N   UNL d   1      10.163   6.982  -8.386  0.00  0.00    -0.249 NA
ATOM      5  C   UNL d   1       9.439   6.220  -9.288  0.00  0.00     0.038 A 
ATOM      6  C   UNL d   1       8.786   5.025  -9.005  0.00  0.00     0.011 A 
ATOM      7  C   UNL d   1       8.001   4.415  -9.986  0.00  0.00     0.003 A 
ATOM      8  C   UNL d   1       7.870   4.933 -11.288  0.00  0.00     0.019 A 
ATOM      9  C   UNL d   1       8.505   6.103 -11.557  0.00  0.00     0.082 A 
ATOM     10  N   UNL d   1       8.510   6.890 -12.659  0.00  0.00    -0.244 NA
ATOM     11  C   UNL d   1       9.277   8.022 -12.435  0.00  0.00     0.095 A 
ATOM     12  C   UNL d   1       9.763   7.891 -11.155  0.00  0.00     0.001 A 
ATOM     13  C   UNL d   1       9.272   6.718 -10.593  0.00  0.00     0.025 A 
ATOM     14  C   UNL d   1      10.668   8.598 -10.187  0.00  0.00     0.046 C 
ATOM     15  C   UNL d   1      10.302   8.403  -8.701  0.00  0.00     0.100 C 
ATOM     16  C   UNL d   1      11.352   9.064  -7.802  0.00  0.00     0.267 C 
ENDROOT
BRANCH   1  17
ATOM     17  C   UNL d   1      12.089   9.502  -5.592  0.00  0.00     0.277 C 
BRANCH  17  18
ATOM     18  C   UNL d   1      12.198   8.945  -4.167  0.00  0.00     0.011 C 
ATOM     19  C   UNL d   1      12.597   7.593  -3.917  0.00  0.00    -0.002 C 
ATOM     20  C   UNL d   1      12.631   7.098  -2.615  0.00  0.00    -0.000 C 
ATOM     21  C   UNL d   1      12.595   7.986  -1.537  0.00  0.00    -0.000 C 
ATOM     22  C   UNL d   1      12.241   9.323  -1.756  0.00  0.00    -0.000 C 
ATOM     23  C   UNL d   1      12.010   9.796  -3.055  0.00  0.00    -0.002 C 
ENDBRANCH  17  18
ENDBRANCH   1  17
TORSDOF 2
