REMARK  9 active torsions:
REMARK  status: ('A' for Active; 'I' for Inactive)
REMARK    1  A    between atoms: O_2  and  C_3 
REMARK    2  A    between atoms: C_8  and  N_9 
REMARK    3  A    between atoms: N_12  and  C_13 
REMARK    4  A    between atoms: C_13  and  C_14 
REMARK    5  A    between atoms: C_14  and  C_15 
REMARK    6  A    between atoms: C_15  and  C_16 
REMARK    7  A    between atoms: C_16  and  N_17 
REMARK       I    between atoms: N_17  and  C_18 
REMARK    8  A    between atoms: C_18  and  C_20 
REMARK    9  A    between atoms: C_21  and  C_22 
ROOT
ATOM      1  C   UNL d   1      11.557   0.004 -19.207  0.00  0.00     0.037 C 
ENDROOT
BRANCH   1   2
ATOM      2  C   UNL d   1      10.963   0.505 -17.879  0.00  0.00     0.251 C 
BRANCH   2   3
ATOM      3  N   UNL d   1       9.517   0.685 -17.975  0.00  0.00     0.141 N 
ATOM      4  C   UNL d   1       9.041   1.397 -16.787  0.00  0.00     0.274 C 
ATOM      5  C   UNL d   1       7.524   1.647 -16.894  0.00  0.00     0.137 C 
ATOM      6  N   UNL d   1       6.812   0.381 -17.078  0.00  0.00    -0.343 N 
ATOM      7  C   UNL d   1       7.338  -0.448 -18.166  0.00  0.00     0.137 C 
ATOM      8  C   UNL d   1       8.855  -0.619 -18.033  0.00  0.00     0.274 C 
BRANCH   6   9
ATOM      9  C   UNL d   1       5.803  -0.053 -16.210  0.00  0.00     0.079 A 
ATOM     10  C   UNL d   1       4.702  -0.851 -16.658  0.00  0.00     0.110 A 
ATOM     11  C   UNL d   1       3.695  -1.227 -15.737  0.00  0.00     0.026 A 
ATOM     12  C   UNL d   1       3.738  -0.805 -14.396  0.00  0.00     0.002 A 
ATOM     13  C   UNL d   1       4.815  -0.018 -13.949  0.00  0.00     0.002 A 
ATOM     14  C   UNL d   1       5.841   0.330 -14.842  0.00  0.00     0.019 A 
BRANCH  10  15
ATOM     15  O   UNL d   1       4.634  -1.188 -18.001  0.00  0.00    -0.327 OA
ATOM     16  C   UNL d   1       3.636  -2.097 -18.435  0.00  0.00     0.181 C 
ENDBRANCH  10  15
ENDBRANCH   6   9
ENDBRANCH   2   3
ENDBRANCH   1   2
BRANCH   1  17
ATOM     17  C   UNL d   1      13.080  -0.031 -19.148  0.00  0.00     0.029 C 
BRANCH  17  18
ATOM     18  C   UNL d   1      13.716  -0.325 -20.522  0.00  0.00     0.129 C 
BRANCH  18  19
ATOM     19  N   UNL d   1      15.164  -0.407 -20.431  0.00  0.00    -0.234 NA
ATOM     20  C   UNL d   1      16.049   0.608 -20.429  0.00  0.00     0.275 C 
ATOM     21  O   UNL d   1      17.249   0.397 -20.420  0.00  0.00    -0.266 OA
BRANCH  20  22
ATOM     22  C   UNL d   1      15.459   1.929 -20.409  0.00  0.00     0.062 C 
ATOM     23  C   UNL d   1      16.097   3.019 -20.860  0.00  0.00     0.005 C 
BRANCH  23  24
ATOM     24  C   UNL d   1      15.489   4.357 -20.835  0.00  0.00     0.002 A 
ATOM     25  C   UNL d   1      14.228   4.646 -20.234  0.00  0.00     0.026 A 
ATOM     26  C   UNL d   1      13.747   5.965 -20.279  0.00  0.00     0.119 A 
ATOM     27  C   UNL d   1      14.464   6.972 -20.885  0.00  0.00     0.119 A 
ATOM     28  O   UNL d   1      12.588   6.473 -19.780  0.00  0.00    -0.300 OA
ATOM     29  C   UNL d   1      15.709   6.724 -21.489  0.00  0.00     0.026 A 
ATOM     30  O   UNL d   1      13.786   8.144 -20.785  0.00  0.00    -0.300 OA
ATOM     31  C   UNL d   1      16.211   5.404 -21.455  0.00  0.00     0.002 A 
ATOM     32  C   UNL d   1      12.605   7.846 -20.088  0.00  0.00     0.304 A 
ENDBRANCH  23  24
ENDBRANCH  20  22
ENDBRANCH  18  19
ENDBRANCH  17  18
ENDBRANCH   1  17
TORSDOF 9
