REMARK  7 active torsions:
REMARK  status: ('A' for Active; 'I' for Inactive)
REMARK    1  A    between atoms: C_2  and  C_5 
REMARK       I    between atoms: C_5  and  N_7 
REMARK    2  A    between atoms: N_7  and  C_8 
REMARK    3  A    between atoms: C_8  and  C_9 
REMARK    4  A    between atoms: C_9  and  C_10 
REMARK    5  A    between atoms: C_10  and  C_11 
REMARK    6  A    between atoms: C_11  and  N_12 
REMARK    7  A    between atoms: N_15  and  C_16 
ROOT
ATOM      1  N   UNL d   1       9.236   6.099  -9.899  0.00  0.00     0.141 N 
ATOM      2  C   UNL d   1      10.241   7.157  -9.982  0.00  0.00     0.274 C 
ATOM      3  C   UNL d   1      10.002   8.228  -8.905  0.00  0.00     0.137 C 
ATOM      4  N   UNL d   1       9.983   7.613  -7.576  0.00  0.00    -0.344 N 
ATOM      5  C   UNL d   1       9.040   6.497  -7.463  0.00  0.00     0.137 C 
ATOM      6  C   UNL d   1       9.299   5.462  -8.583  0.00  0.00     0.274 C 
ENDROOT
BRANCH   1   7
ATOM      7  C   UNL d   1       9.451   5.122 -10.958  0.00  0.00     0.251 C 
BRANCH   7   8
ATOM      8  C   UNL d   1       8.118   4.709 -11.586  0.00  0.00     0.037 C 
BRANCH   8   9
ATOM      9  C   UNL d   1       8.395   3.940 -12.873  0.00  0.00     0.029 C 
BRANCH   9  10
ATOM     10  C   UNL d   1       7.139   3.409 -13.581  0.00  0.00     0.129 C 
BRANCH  10  11
ATOM     11  N   UNL d   1       7.428   2.354 -14.551  0.00  0.00    -0.238 NA
ATOM     12  C   UNL d   1       8.507   2.211 -15.341  0.00  0.00     0.250 C 
ATOM     13  O   UNL d   1       9.407   3.051 -15.409  0.00  0.00    -0.271 OA
BRANCH  12  14
ATOM     14  C   UNL d   1       8.601   0.920 -16.192  0.00  0.00     0.073 C 
ATOM     15  C   UNL d   1       7.336   0.041 -16.044  0.00  0.00     0.009 C 
ATOM     16  C   UNL d   1       9.846   0.122 -15.745  0.00  0.00     0.009 C 
ATOM     17  C   UNL d   1       8.763   1.317 -17.675  0.00  0.00     0.009 C 
ENDBRANCH  12  14
ENDBRANCH  10  11
ENDBRANCH   9  10
ENDBRANCH   8   9
ENDBRANCH   7   8
ENDBRANCH   1   7
BRANCH   4  18
ATOM     18  C   UNL d   1      10.789   8.072  -6.513  0.00  0.00     0.057 A 
ATOM     19  C   UNL d   1      11.036   7.287  -5.354  0.00  0.00     0.028 A 
ATOM     20  C   UNL d   1      11.845   7.771  -4.301  0.00  0.00     0.059 A 
ATOM     21  C   UNL d   1      12.435   9.044  -4.396  0.00  0.00     0.011 A 
ATOM     22 CL   UNL d   1      12.113   6.793  -2.897  0.00  0.00    -0.082 Cl
ATOM     23  C   UNL d   1      12.215   9.819  -5.548  0.00  0.00     0.002 A 
ATOM     24  C   UNL d   1      11.390   9.351  -6.583  0.00  0.00     0.017 A 
ENDBRANCH   4  18
TORSDOF 7
