REMARK  1 active torsions:
REMARK  status: ('A' for Active; 'I' for Inactive)
REMARK    1  A    between atoms: C_22  and  C_23 
ROOT
ATOM      1  C   UNL d   1       9.514   3.387 -18.296  0.00  0.00     0.286 C 
ATOM      2  N   UNL d   1       9.099   2.513 -17.198  0.00  0.00     0.148 N 
ATOM      3  C   UNL d   1       8.431   1.296 -17.675  0.00  0.00     0.256 C 
ATOM      4  C   UNL d   1       6.920   1.558 -17.595  0.00  0.00     0.061 C 
ATOM      5  C   UNL d   1       6.037   0.338 -17.450  0.00  0.00    -0.024 A 
ATOM      6  C   UNL d   1       5.174   0.027 -18.525  0.00  0.00    -0.004 A 
ATOM      7  C   UNL d   1       4.297  -1.065 -18.456  0.00  0.00    -0.000 A 
ATOM      8  C   UNL d   1       4.279  -1.862 -17.299  0.00  0.00    -0.000 A 
ATOM      9  C   UNL d   1       5.126  -1.557 -16.218  0.00  0.00    -0.004 A 
ATOM     10  C   UNL d   1       6.012  -0.457 -16.268  0.00  0.00    -0.020 A 
ATOM     11  C   UNL d   1       6.956  -0.257 -15.075  0.00  0.00     0.071 C 
ATOM     12  C   UNL d   1       7.100   1.155 -14.526  0.00  0.00     0.059 A 
ATOM     13  N   UNL d   1       6.055   1.890 -14.009  0.00  0.00    -0.250 NA
ATOM     14  C   UNL d   1       6.425   3.140 -13.574  0.00  0.00     0.081 A 
ATOM     15  C   UNL d   1       5.726   4.197 -12.965  0.00  0.00     0.019 A 
ATOM     16  C   UNL d   1       6.424   5.362 -12.604  0.00  0.00     0.002 A 
ATOM     17  C   UNL d   1       7.804   5.462 -12.872  0.00  0.00     0.000 A 
ATOM     18  C   UNL d   1       8.490   4.394 -13.493  0.00  0.00     0.001 A 
ATOM     19  C   UNL d   1       7.817   3.201 -13.848  0.00  0.00     0.015 A 
ATOM     20  C   UNL d   1       8.223   1.930 -14.449  0.00  0.00    -0.004 A 
ATOM     21  C   UNL d   1       9.611   1.556 -14.911  0.00  0.00     0.072 C 
ATOM     22  C   UNL d   1      10.151   2.292 -16.170  0.00  0.00     0.309 C 
ENDROOT
BRANCH  22  23
ATOM     23  C   UNL d   1      11.414   1.605 -16.721  0.00  0.00     0.218 C 
ATOM     24  O   UNL d   1      11.431   0.399 -16.959  0.00  0.00    -0.646 OA
ATOM     25  O   UNL d   1      12.484   2.409 -16.969  0.00  0.00    -0.646 OA
ENDBRANCH  22  23
TORSDOF 1
