REMARK  6 active torsions:
REMARK  status: ('A' for Active; 'I' for Inactive)
REMARK    1  A    between atoms: O_2  and  C_3 
REMARK    2  A    between atoms: C_4  and  C_5 
REMARK       I    between atoms: C_5  and  N_7 
REMARK    3  A    between atoms: N_7  and  C_8 
REMARK    4  A    between atoms: C_8  and  C_9 
REMARK    5  A    between atoms: C_9  and  N_10 
REMARK    6  A    between atoms: N_13  and  C_14 
ROOT
ATOM      1  C   UNL d   1       9.099   4.273 -13.502  0.00  0.00     0.277 C 
ATOM      2  O   UNL d   1       9.864   5.226 -13.639  0.00  0.00    -0.266 OA
ATOM      3  N   UNL d   1       8.221   4.184 -12.489  0.00  0.00    -0.232 NA
ENDROOT
BRANCH   3   4
ATOM      4  C   UNL d   1       8.113   5.124 -11.382  0.00  0.00     0.164 C 
BRANCH   4   5
ATOM      5  C   UNL d   1       9.478   5.438 -10.754  0.00  0.00     0.277 C 
BRANCH   5   6
ATOM      6  N   UNL d   1       9.376   6.485  -9.771  0.00  0.00     0.143 N 
ATOM      7  C   UNL d   1       9.139   5.911  -8.449  0.00  0.00     0.274 C 
ATOM      8  C   UNL d   1       9.035   7.038  -7.406  0.00  0.00     0.137 C 
ATOM      9  N   UNL d   1      10.241   7.880  -7.443  0.00  0.00    -0.344 N 
ATOM     10  C   UNL d   1      10.548   8.405  -8.774  0.00  0.00     0.137 C 
ATOM     11  C   UNL d   1      10.621   7.255  -9.772  0.00  0.00     0.274 C 
BRANCH   9  12
ATOM     12  C   UNL d   1      11.018   8.169  -6.309  0.00  0.00     0.057 A 
ATOM     13  C   UNL d   1      10.995   7.345  -5.153  0.00  0.00     0.028 A 
ATOM     14  C   UNL d   1      11.767   7.691  -4.020  0.00  0.00     0.059 A 
ATOM     15  C   UNL d   1      12.595   8.810  -4.034  0.00  0.00     0.011 A 
ATOM     16 CL   UNL d   1      11.716   6.782  -2.553  0.00  0.00    -0.082 Cl
ATOM     17  C   UNL d   1      12.673   9.589  -5.187  0.00  0.00     0.002 A 
ATOM     18  C   UNL d   1      11.864   9.310  -6.299  0.00  0.00     0.017 A 
ENDBRANCH   9  12
ENDBRANCH   5   6
ENDBRANCH   4   5
ENDBRANCH   3   4
BRANCH   1  19
ATOM     19  C   UNL d   1       9.130   3.100 -14.453  0.00  0.00     0.080 A 
ATOM     20  C   UNL d   1      10.306   2.745 -15.177  0.00  0.00     0.099 A 
ATOM     21  C   UNL d   1      10.283   1.645 -16.074  0.00  0.00     0.023 A 
ATOM     22  C   UNL d   1       9.082   0.915 -16.284  0.00  0.00     0.008 A 
ATOM     23  C   UNL d   1      11.455   1.272 -16.772  0.00  0.00     0.002 A 
ATOM     24  C   UNL d   1       7.912   1.279 -15.577  0.00  0.00     0.035 A 
ATOM     25  C   UNL d   1       9.070  -0.161 -17.202  0.00  0.00     0.001 A 
ATOM     26  C   UNL d   1       7.947   2.359 -14.679  0.00  0.00     0.013 A 
ATOM     27 BR   UNL d   1       6.250   0.363 -15.813  0.00  0.00    -0.049 Br
ATOM     28  C   UNL d   1      10.244  -0.524 -17.886  0.00  0.00     0.000 A 
ATOM     29  C   UNL d   1      11.435   0.194 -17.676  0.00  0.00     0.000 A 
BRANCH  20  30
ATOM     30  O   UNL d   1      11.480   3.442 -15.001  0.00  0.00    -0.328 OA
ATOM     31  C   UNL d   1      11.656   4.537 -15.899  0.00  0.00     0.181 C 
ENDBRANCH  20  30
ENDBRANCH   1  19
TORSDOF 6
