REMARK  8 active torsions:
REMARK  status: ('A' for Active; 'I' for Inactive)
REMARK    1  A    between atoms: C_3  and  S_4 
REMARK    2  A    between atoms: S_4  and  C_5 
REMARK    3  A    between atoms: C_5  and  C_6 
REMARK    4  A    between atoms: C_6  and  C_7 
REMARK    5  A    between atoms: C_7  and  N_8 
REMARK    6  A    between atoms: C_12  and  C_13 
REMARK    7  A    between atoms: C_16  and  C_17 
REMARK    8  A    between atoms: C_26  and  C_27 
ROOT
ATOM      1  N   UNL d   1       5.697  -1.087 -16.732  0.00  0.00     0.143 N 
ATOM      2  C   UNL d   1       4.289  -1.272 -16.432  0.00  0.00     0.282 C 
ATOM      3  C   UNL d   1       3.999  -1.207 -14.925  0.00  0.00     0.178 C 
ATOM      4  O   UNL d   1       4.451   0.012 -14.382  0.00  0.00    -0.348 OA
ATOM      5  C   UNL d   1       5.845   0.258 -14.606  0.00  0.00     0.171 C 
ATOM      6  C   UNL d   1       6.144   0.165 -16.131  0.00  0.00     0.284 C 
ENDROOT
BRANCH   1   7
ATOM      7  C   UNL d   1       5.946  -1.116 -18.174  0.00  0.00     0.251 C 
BRANCH   7   8
ATOM      8  C   UNL d   1       7.426  -1.305 -18.552  0.00  0.00     0.047 C 
BRANCH   8   9
ATOM      9  C   UNL d   1       7.881  -0.382 -19.704  0.00  0.00     0.067 C 
BRANCH   9  10
ATOM     10  S   UNL d   1       9.694  -0.305 -19.876  0.00  0.00    -0.075 SA
BRANCH  10  11
ATOM     11  C   UNL d   1      10.091   0.265 -18.248  0.00  0.00     0.193 C 
ATOM     12  N   UNL d   1      10.198   1.565 -17.894  0.00  0.00    -0.289 N 
ATOM     13  C   UNL d   1      10.002   2.734 -18.743  0.00  0.00     0.134 C 
ATOM     14  C   UNL d   1      10.573   1.475 -16.592  0.00  0.00     0.167 C 
ATOM     15  N   UNL d   1      10.559   0.215 -16.151  0.00  0.00    -0.128 NA
ATOM     16  N   UNL d   1      10.330  -0.578 -17.247  0.00  0.00    -0.122 NA
BRANCH  14  17
ATOM     17  C   UNL d   1      10.957   2.577 -15.734  0.00  0.00     0.039 C 
ATOM     18  C   UNL d   1      11.766   3.636 -16.183  0.00  0.00     0.024 C 
ATOM     19  C   UNL d   1      12.040   4.707 -15.305  0.00  0.00     0.099 C 
ATOM     20  N   UNL d   1      11.561   4.809 -14.055  0.00  0.00    -0.242 NA
ATOM     21  C   UNL d   1      10.762   3.782 -13.644  0.00  0.00     0.099 C 
ATOM     22  C   UNL d   1      10.491   2.619 -14.391  0.00  0.00     0.024 C 
ENDBRANCH  14  17
ENDBRANCH  10  11
ENDBRANCH   9  10
ENDBRANCH   8   9
ENDBRANCH   7   8
ENDBRANCH   1   7
BRANCH   5  23
ATOM     23  C   UNL d   1       6.241   1.624 -14.029  0.00  0.00     0.007 A 
ATOM     24  C   UNL d   1       5.386   2.296 -13.108  0.00  0.00    -0.002 A 
ATOM     25  C   UNL d   1       5.798   3.549 -12.567  0.00  0.00     0.004 A 
ATOM     26  C   UNL d   1       7.002   4.159 -13.038  0.00  0.00     0.071 A 
ATOM     27  C   UNL d   1       7.781   3.537 -14.022  0.00  0.00     0.004 A 
ATOM     28  C   UNL d   1       7.439   2.252 -14.451  0.00  0.00    -0.002 A 
BRANCH  26  29
ATOM     29  C   UNL d   1       7.473   5.480 -12.448  0.00  0.00     0.419 C 
ATOM     30  F   UNL d   1       6.465   6.359 -12.450  0.00  0.00    -0.166 F 
ATOM     31  F   UNL d   1       7.954   5.309 -11.207  0.00  0.00    -0.166 F 
ATOM     32  F   UNL d   1       8.452   6.002 -13.179  0.00  0.00    -0.166 F 
ENDBRANCH  26  29
ENDBRANCH   5  23
TORSDOF 8
