REMARK  4 active torsions:
REMARK  status: ('A' for Active; 'I' for Inactive)
REMARK    1  A    between atoms: C_4  and  C_5 
REMARK    2  A    between atoms: C_5  and  N_6 
REMARK    3  A    between atoms: C_9  and  C_10 
REMARK    4  A    between atoms: C_25  and  N_26 
ROOT
ATOM      1  N   UNL d   1       7.593   5.301 -11.781  0.00  0.00     0.142 N 
ATOM      2  C   UNL d   1       8.443   6.251 -12.533  0.00  0.00     0.276 C 
ATOM      3  C   UNL d   1       9.355   7.013 -11.603  0.00  0.00     0.005 C 
ATOM      4  C   UNL d   1       9.533   6.762 -10.289  0.00  0.00    -0.021 C 
ATOM      5  C   UNL d   1       8.769   5.637  -9.630  0.00  0.00     0.061 C 
ATOM      6  C   UNL d   1       8.232   4.635 -10.640  0.00  0.00     0.255 C 
ENDROOT
BRANCH   1   7
ATOM      7  C   UNL d   1       6.856   4.369 -12.622  0.00  0.00     0.252 C 
BRANCH   7   8
ATOM      8  C   UNL d   1       7.715   3.776 -13.755  0.00  0.00     0.047 C 
ATOM      9  C   UNL d   1       9.164   3.343 -13.299  0.00  0.00     0.072 C 
ATOM     10  C   UNL d   1       9.973   2.708 -14.411  0.00  0.00     0.180 C 
ATOM     11  O   UNL d   1      11.192   2.857 -14.481  0.00  0.00    -0.291 OA
ATOM     12  C   UNL d   1       9.203   1.932 -15.354  0.00  0.00     0.080 A 
ATOM     13  C   UNL d   1       7.838   1.876 -15.385  0.00  0.00     0.070 A 
ATOM     14  S   UNL d   1       9.974   0.961 -16.564  0.00  0.00    -0.046 SA
ATOM     15  C   UNL d   1       6.941   2.631 -14.450  0.00  0.00     0.049 C 
ATOM     16  N   UNL d   1       7.354   1.017 -16.373  0.00  0.00    -0.227 NA
ATOM     17  C   UNL d   1       8.359   0.472 -17.068  0.00  0.00     0.171 A 
BRANCH  17  18
ATOM     18  N   UNL d   1       8.187  -0.414 -18.103  0.00  0.00    -0.329 N 
ATOM     19  C   UNL d   1       9.192  -0.820 -19.073  0.00  0.00     0.103 C 
ATOM     20  C   UNL d   1       8.480  -1.611 -20.166  0.00  0.00     0.026 C 
ATOM     21  C   UNL d   1       7.276  -2.189 -19.442  0.00  0.00     0.026 C 
ATOM     22  C   UNL d   1       6.953  -1.120 -18.407  0.00  0.00     0.103 C 
ENDBRANCH  17  18
ENDBRANCH   7   8
ENDBRANCH   1   7
BRANCH   4  23
ATOM     23  C   UNL d   1      10.417   7.609  -9.474  0.00  0.00     0.016 A 
ATOM     24  C   UNL d   1      10.505   7.630  -8.039  0.00  0.00     0.019 A 
ATOM     25  C   UNL d   1      11.443   8.659  -7.709  0.00  0.00     0.084 A 
ATOM     26  C   UNL d   1       9.916   6.923  -6.959  0.00  0.00     0.004 A 
ATOM     27  N   UNL d   1      11.859   9.183  -8.916  0.00  0.00    -0.244 NA
ATOM     28  C   UNL d   1      11.780   8.950  -6.381  0.00  0.00     0.049 A 
ATOM     29  C   UNL d   1      11.244   8.574  -9.979  0.00  0.00     0.099 A 
ATOM     30  C   UNL d   1      11.197   8.214  -5.340  0.00  0.00     0.142 A 
ATOM     31  F   UNL d   1      11.524   8.477  -4.054  0.00  0.00    -0.204 F 
ATOM     32  C   UNL d   1      10.273   7.203  -5.640  0.00  0.00     0.030 A 
ENDBRANCH   4  23
TORSDOF 4
