REMARK  7 active torsions:
REMARK  status: ('A' for Active; 'I' for Inactive)
REMARK    1  A    between atoms: C_8  and  N_9 
REMARK    2  A    between atoms: N_12  and  C_13 
REMARK    3  A    between atoms: C_13  and  C_14 
REMARK    4  A    between atoms: C_14  and  C_16 
REMARK    5  A    between atoms: C_16  and  N_17 
REMARK    6  A    between atoms: C_21  and  C_22 
REMARK    7  A    between atoms: C_21  and  C_28 
ROOT
ATOM      1  N   UNL d   1      11.798   4.395 -13.986  0.00  0.00    -0.191 NA
ATOM      2  C   UNL d   1      10.669   4.233 -13.786  0.00  0.00     0.102 C 
ATOM      3  C   UNL d   1       9.253   4.038 -13.519  0.00  0.00     0.084 A 
ATOM      4  C   UNL d   1       8.762   4.557 -12.305  0.00  0.00     0.012 A 
ATOM      5  C   UNL d   1       7.412   4.404 -11.957  0.00  0.00     0.001 A 
ATOM      6  C   UNL d   1       6.538   3.719 -12.815  0.00  0.00     0.002 A 
ATOM      7  C   UNL d   1       7.017   3.189 -14.026  0.00  0.00     0.018 A 
ATOM      8  C   UNL d   1       8.367   3.351 -14.405  0.00  0.00     0.066 A 
ENDROOT
BRANCH   8   9
ATOM      9  N   UNL d   1       8.762   2.865 -15.650  0.00  0.00    -0.344 N 
ATOM     10  C   UNL d   1       8.537   1.473 -16.032  0.00  0.00     0.137 C 
ATOM     11  C   UNL d   1       9.876   0.844 -16.448  0.00  0.00     0.274 C 
ATOM     12  N   UNL d   1      10.533   1.629 -17.530  0.00  0.00     0.144 N 
ATOM     13  C   UNL d   1      10.759   2.983 -17.042  0.00  0.00     0.274 C 
ATOM     14  C   UNL d   1       9.460   3.685 -16.638  0.00  0.00     0.137 C 
BRANCH  12  15
ATOM     15  C   UNL d   1      11.822   1.069 -17.952  0.00  0.00     0.285 C 
BRANCH  15  16
ATOM     16  C   UNL d   1      11.732  -0.079 -18.977  0.00  0.00     0.208 C 
ATOM     17  O   UNL d   1      11.113  -1.201 -18.385  0.00  0.00    -0.219 OA
BRANCH  16  18
ATOM     18  C   UNL d   1      13.112  -0.520 -19.512  0.00  0.00     0.148 C 
BRANCH  18  19
ATOM     19  N   UNL d   1      13.609   0.362 -20.574  0.00  0.00    -0.247 N 
ATOM     20  C   UNL d   1      14.182   1.559 -20.375  0.00  0.00     0.269 A 
ATOM     21  C   UNL d   1      14.495   2.176 -21.738  0.00  0.00     0.197 A 
ATOM     22  O   UNL d   1      14.450   2.066 -19.279  0.00  0.00    -0.269 OA
ATOM     23  N   UNL d   1      14.088   1.054 -22.579  0.00  0.00    -0.205 NA
ATOM     24  C   UNL d   1      13.587   0.036 -21.874  0.00  0.00     0.349 A 
ATOM     25  O   UNL d   1      13.199  -1.033 -22.348  0.00  0.00    -0.245 OA
BRANCH  21  26
ATOM     26  C   UNL d   1      16.017   2.415 -21.863  0.00  0.00     0.010 A 
ATOM     27  C   UNL d   1      16.924   1.374 -21.538  0.00  0.00    -0.002 A 
ATOM     28  C   UNL d   1      18.315   1.588 -21.627  0.00  0.00    -0.000 A 
ATOM     29  C   UNL d   1      18.826   2.830 -22.034  0.00  0.00    -0.000 A 
ATOM     30  C   UNL d   1      17.936   3.868 -22.346  0.00  0.00    -0.000 A 
ATOM     31  C   UNL d   1      16.549   3.662 -22.286  0.00  0.00    -0.002 A 
ENDBRANCH  21  26
BRANCH  21  32
ATOM     32  C   UNL d   1      13.606   3.432 -21.953  0.00  0.00     0.010 A 
ATOM     33  C   UNL d   1      13.847   4.617 -21.212  0.00  0.00    -0.002 A 
ATOM     34  C   UNL d   1      13.132   5.803 -21.470  0.00  0.00    -0.000 A 
ATOM     35  C   UNL d   1      12.121   5.816 -22.450  0.00  0.00    -0.000 A 
ATOM     36  C   UNL d   1      11.825   4.635 -23.158  0.00  0.00    -0.000 A 
ATOM     37  C   UNL d   1      12.555   3.454 -22.908  0.00  0.00    -0.002 A 
ENDBRANCH  21  32
ENDBRANCH  18  19
ENDBRANCH  16  18
ENDBRANCH  15  16
ENDBRANCH  12  15
ENDBRANCH   8   9
TORSDOF 7
