REMARK  3 active torsions:
REMARK  status: ('A' for Active; 'I' for Inactive)
REMARK    1  A    between atoms: CA_2  and  C_3 
REMARK    2  A    between atoms: CA_2  and  C_11 
REMARK    3  A    between atoms: C_3  and  C_4 
ROOT
ATOM      1  C   UNL d   1      11.096   7.813  -4.989  0.00  0.00    -0.019 A 
ATOM      2  C   UNL d   1      11.545   6.713  -4.234  0.00  0.00    -0.002 A 
ATOM      3  C   UNL d   1      12.151   6.915  -2.979  0.00  0.00     0.029 A 
ATOM      4  C   UNL d   1      12.317   8.214  -2.477  0.00  0.00     0.140 A 
ATOM      5  F   UNL d   1      12.921   8.405  -1.278  0.00  0.00    -0.204 F 
ATOM      6  C   UNL d   1      11.864   9.319  -3.228  0.00  0.00     0.029 A 
ATOM      7  C   UNL d   1      11.243   9.124  -4.476  0.00  0.00    -0.002 A 
ENDROOT
BRANCH   1   8
ATOM      8  C   UNL d   1      10.410   7.578  -6.325  0.00  0.00     0.077 C 
BRANCH   8   9
ATOM      9  CA  UNL d   1      11.278   7.844  -7.569  0.00  0.00     0.391 C 
ATOM     10  N   UNL d   1      11.868   9.178  -7.533  0.00  0.00     0.628 N 
BRANCH   9  11
ATOM     11  C   UNL d   1      10.415   7.710  -8.824  0.00  0.00     0.224 C 
ATOM     12  O   UNL d   1      10.556   6.767  -9.597  0.00  0.00    -0.646 OA
ATOM     13  OXT UNL d   1       9.468   8.668  -8.976  0.00  0.00    -0.646 OA
ENDBRANCH   9  11
ENDBRANCH   8   9
ENDBRANCH   1   8
TORSDOF 3
