REMARK  6 active torsions:
REMARK  status: ('A' for Active; 'I' for Inactive)
REMARK    1  A    between atoms: O_2  and  C_3 
REMARK    2  A    between atoms: C_8  and  N_9 
REMARK    3  A    between atoms: N_12  and  C_13 
REMARK    4  A    between atoms: C_13  and  C_14 
REMARK    5  A    between atoms: C_14  and  C_15 
REMARK    6  A    between atoms: C_21  and  N_22 
ROOT
ATOM      1  C   UNL d   1       8.232   5.674 -11.121  0.00  0.00     0.251 C 
ENDROOT
BRANCH   1   2
ATOM      2  N   UNL d   1       8.139   4.407 -11.871  0.00  0.00     0.141 N 
ATOM      3  C   UNL d   1       7.557   4.657 -13.192  0.00  0.00     0.274 C 
ATOM      4  C   UNL d   1       8.492   5.547 -14.050  0.00  0.00     0.137 C 
ATOM      5  N   UNL d   1       9.827   4.986 -14.113  0.00  0.00    -0.343 N 
ATOM      6  C   UNL d   1      10.440   4.555 -12.884  0.00  0.00     0.137 C 
ATOM      7  C   UNL d   1       9.434   3.718 -12.071  0.00  0.00     0.274 C 
BRANCH   5   8
ATOM      8  C   UNL d   1      10.441   4.763 -15.350  0.00  0.00     0.079 A 
ATOM      9  C   UNL d   1       9.973   3.732 -16.193  0.00  0.00     0.110 A 
ATOM     10  C   UNL d   1      10.587   3.572 -17.459  0.00  0.00     0.026 A 
ATOM     11  C   UNL d   1      11.638   4.416 -17.860  0.00  0.00     0.002 A 
ATOM     12  C   UNL d   1      12.098   5.432 -17.004  0.00  0.00     0.002 A 
ATOM     13  C   UNL d   1      11.500   5.601 -15.745  0.00  0.00     0.019 A 
BRANCH   9  14
ATOM     14  O   UNL d   1       8.940   2.940 -15.734  0.00  0.00    -0.327 OA
ATOM     15  C   UNL d   1       8.475   1.895 -16.574  0.00  0.00     0.181 C 
ENDBRANCH   9  14
ENDBRANCH   5   8
ENDBRANCH   1   2
BRANCH   1  16
ATOM     16  C   UNL d   1       8.632   5.447  -9.648  0.00  0.00     0.038 C 
BRANCH  16  17
ATOM     17  C   UNL d   1       9.337   6.681  -9.033  0.00  0.00     0.037 C 
ATOM     18  C   UNL d   1       9.550   6.442  -7.522  0.00  0.00     0.174 C 
ATOM     19  C   UNL d   1      10.517   7.423  -6.857  0.00  0.00     0.005 A 
ATOM     20  O   UNL d   1       8.274   6.396  -6.886  0.00  0.00    -0.219 OA
ATOM     21  C   UNL d   1      11.349   8.263  -7.631  0.00  0.00    -0.024 A 
ATOM     22  C   UNL d   1      10.624   7.446  -5.461  0.00  0.00     0.021 A 
ATOM     23  C   UNL d   1      11.351   8.243  -9.149  0.00  0.00     0.026 C 
ATOM     24  C   UNL d   1      12.244   9.125  -6.978  0.00  0.00    -0.003 A 
ATOM     25  C   UNL d   1      10.668   7.014  -9.751  0.00  0.00     0.008 C 
ATOM     26  C   UNL d   1      12.258   9.240  -5.588  0.00  0.00     0.023 A 
ATOM     27  C   UNL d   1      11.470   8.379  -4.807  0.00  0.00     0.126 A 
BRANCH  27  28
ATOM     28  N   UNL d   1      11.542   8.451  -3.337  0.00  0.00    -0.114 N 
ATOM     29  O   UNL d   1      11.567   7.409  -2.698  0.00  0.00    -0.532 OA
ATOM     30  O   UNL d   1      11.590   9.569  -2.833  0.00  0.00    -0.532 OA
ENDBRANCH  27  28
ENDBRANCH  16  17
ENDBRANCH   1  16
TORSDOF 6
