REMARK  12 active torsions:
REMARK  status: ('A' for Active; 'I' for Inactive)
REMARK    1  A    between atoms: C_2  and  C_3 
REMARK    2  A    between atoms: C_3  and  N_4 
REMARK    3  A    between atoms: N_4  and  C_5 
REMARK    4  A    between atoms: N_4  and  C_24 
REMARK    5  A    between atoms: C_5  and  C_6 
REMARK    6  A    between atoms: C_6  and  C_7 
REMARK    7  A    between atoms: C_7  and  C_8 
REMARK    8  A    between atoms: C_8  and  N_9 
REMARK       I    between atoms: N_9  and  C_10 
REMARK    9  A    between atoms: C_10  and  C_12 
REMARK   10  A    between atoms: C_15  and  C_16 
REMARK   11  A    between atoms: C_32  and  O_33 
REMARK   12  A    between atoms: O_33  and  S_34 
ROOT
ATOM      1  N   UNL d   1      10.044   2.643 -16.111  0.00  0.00     0.135 N 
ENDROOT
BRANCH   1   2
ATOM      2  C   UNL d   1      10.295   3.799 -16.995  0.00  0.00     0.250 C 
BRANCH   2   3
ATOM      3  C   UNL d   1      11.777   4.226 -17.011  0.00  0.00     0.035 C 
ATOM      4  C   UNL d   1      12.665   3.150 -17.660  0.00  0.00     0.002 C 
ENDBRANCH   2   3
ENDBRANCH   1   2
BRANCH   1   5
ATOM      5  C   UNL d   1      10.392   2.953 -14.715  0.00  0.00     0.250 C 
BRANCH   5   6
ATOM      6  C   UNL d   1       9.431   3.990 -14.069  0.00  0.00     0.037 C 
BRANCH   6   7
ATOM      7  C   UNL d   1       9.926   4.405 -12.695  0.00  0.00     0.029 C 
BRANCH   7   8
ATOM      8  C   UNL d   1       8.952   5.386 -12.038  0.00  0.00     0.129 C 
BRANCH   8   9
ATOM      9  N   UNL d   1       9.460   5.837 -10.746  0.00  0.00    -0.234 NA
ATOM     10  C   UNL d   1       9.825   7.087 -10.441  0.00  0.00     0.275 C 
ATOM     11  O   UNL d   1       9.861   8.015 -11.254  0.00  0.00    -0.266 OA
BRANCH  10  12
ATOM     12  C   UNL d   1      10.258   7.311  -9.025  0.00  0.00     0.058 A 
ATOM     13  C   UNL d   1      11.281   8.237  -8.747  0.00  0.00     0.005 A 
ATOM     14  C   UNL d   1      11.669   8.482  -7.417  0.00  0.00     0.000 A 
ATOM     15  C   UNL d   1      11.040   7.808  -6.350  0.00  0.00     0.000 A 
ATOM     16  C   UNL d   1       9.996   6.902  -6.634  0.00  0.00     0.000 A 
ATOM     17  C   UNL d   1       9.600   6.656  -7.961  0.00  0.00     0.005 A 
BRANCH  15  18
ATOM     18  C   UNL d   1      11.455   8.051  -4.957  0.00  0.00     0.000 A 
ATOM     19  C   UNL d   1      11.859   6.975  -4.132  0.00  0.00     0.000 A 
ATOM     20  C   UNL d   1      12.261   7.205  -2.800  0.00  0.00     0.000 A 
ATOM     21  C   UNL d   1      12.258   8.508  -2.286  0.00  0.00     0.000 A 
ATOM     22  C   UNL d   1      11.863   9.591  -3.102  0.00  0.00     0.000 A 
ATOM     23  C   UNL d   1      11.460   9.354  -4.432  0.00  0.00     0.000 A 
ENDBRANCH  15  18
ENDBRANCH  10  12
ENDBRANCH   8   9
ENDBRANCH   7   8
ENDBRANCH   6   7
ENDBRANCH   5   6
ENDBRANCH   1   5
BRANCH   1  24
ATOM     24  C   UNL d   1       8.694   2.064 -16.287  0.00  0.00     0.224 C 
ATOM     25  C   UNL d   1       8.340   1.041 -15.179  0.00  0.00     0.059 C 
ATOM     26  C   UNL d   1       7.032   0.310 -15.419  0.00  0.00    -0.022 A 
ATOM     27  C   UNL d   1       6.449   0.239 -16.702  0.00  0.00    -0.002 A 
ATOM     28  C   UNL d   1       6.436  -0.330 -14.319  0.00  0.00    -0.004 A 
ATOM     29  C   UNL d   1       7.059   0.977 -17.888  0.00  0.00     0.030 C 
ATOM     30  C   UNL d   1       5.265  -0.524 -16.878  0.00  0.00     0.109 A 
ATOM     31  C   UNL d   1       8.521   1.402 -17.663  0.00  0.00     0.038 C 
ATOM     32  C   UNL d   1       4.657  -1.135 -15.771  0.00  0.00     0.025 A 
ATOM     33  C   UNL d   1       5.243  -1.056 -14.494  0.00  0.00     0.002 A 
BRANCH  30  34
ATOM     34  O   UNL d   1       4.719  -0.661 -18.120  0.00  0.00    -0.231 OA
BRANCH  34  35
ATOM     35  S   UNL d   1       5.193  -1.982 -19.072  0.00  0.00     0.285 S 
ATOM     36  C   UNL d   1       4.872  -3.384 -17.936  0.00  0.00     0.172 C 
ATOM     37  O   UNL d   1       4.256  -2.064 -20.198  0.00  0.00    -0.197 OA
ATOM     38  O   UNL d   1       6.646  -1.900 -19.297  0.00  0.00    -0.197 OA
ENDBRANCH  34  35
ENDBRANCH  30  34
ENDBRANCH   1  24
TORSDOF 12
