REMARK  7 active torsions:
REMARK  status: ('A' for Active; 'I' for Inactive)
REMARK    1  A    between atoms: O_2  and  C_3 
REMARK    2  A    between atoms: C_7  and  N_8 
REMARK    3  A    between atoms: N_11  and  C_12 
REMARK    4  A    between atoms: C_12  and  C_13 
REMARK    5  A    between atoms: C_13  and  C_15 
REMARK    6  A    between atoms: C_15  and  N_16 
REMARK    7  A    between atoms: C_20  and  C_22 
ROOT
ATOM      1  C   UNL d   1       6.797   3.941 -12.495  0.00  0.00     0.208 C 
ATOM      2  O   UNL d   1       5.793   4.825 -12.085  0.00  0.00    -0.219 OA
ENDROOT
BRANCH   1   3
ATOM      3  C   UNL d   1       8.188   4.453 -12.049  0.00  0.00     0.285 C 
BRANCH   3   4
ATOM      4  N   UNL d   1       8.353   4.650 -10.598  0.00  0.00     0.144 N 
ATOM      5  C   UNL d   1       8.013   5.982 -10.188  0.00  0.00     0.274 C 
ATOM      6  C   UNL d   1       8.207   6.191  -8.657  0.00  0.00     0.137 C 
ATOM      7  N   UNL d   1       9.533   5.859  -8.225  0.00  0.00    -0.344 N 
ATOM      8  C   UNL d   1       9.990   4.583  -8.714  0.00  0.00     0.137 C 
ATOM      9  C   UNL d   1       9.747   4.475 -10.237  0.00  0.00     0.274 C 
BRANCH   7  10
ATOM     10  C   UNL d   1      10.333   6.821  -7.571  0.00  0.00     0.058 A 
ATOM     11  C   UNL d   1      10.939   7.841  -8.318  0.00  0.00     0.017 A 
ATOM     12  C   UNL d   1      11.698   8.826  -7.656  0.00  0.00     0.004 A 
ATOM     13  C   UNL d   1      11.841   8.812  -6.254  0.00  0.00     0.024 A 
ATOM     14  C   UNL d   1      11.240   7.774  -5.493  0.00  0.00     0.096 A 
ATOM     15  C   UNL d   1      10.467   6.798  -6.165  0.00  0.00     0.041 A 
BRANCH  14  16
ATOM     16  O   UNL d   1      11.457   7.663  -4.132  0.00  0.00    -0.328 OA
ATOM     17  C   UNL d   1      12.039   8.752  -3.435  0.00  0.00     0.181 C 
ENDBRANCH  14  16
ENDBRANCH   7  10
ENDBRANCH   3   4
ENDBRANCH   1   3
BRANCH   1  18
ATOM     18  C   UNL d   1       6.712   3.814 -14.016  0.00  0.00     0.148 C 
BRANCH  18  19
ATOM     19  N   UNL d   1       7.271   2.544 -14.499  0.00  0.00    -0.247 N 
ATOM     20  C   UNL d   1       8.476   2.422 -15.062  0.00  0.00     0.265 A 
ATOM     21  C   UNL d   1       8.678   0.976 -15.498  0.00  0.00     0.179 A 
ATOM     22  O   UNL d   1       9.312   3.318 -15.210  0.00  0.00    -0.269 OA
ATOM     23  N   UNL d   1       7.418   0.435 -15.017  0.00  0.00    -0.209 NA
ATOM     24  C   UNL d   1       9.834   0.323 -14.725  0.00  0.00     0.039 C 
ATOM     25  C   UNL d   1       6.630   1.359 -14.450  0.00  0.00     0.348 A 
ATOM     26  O   UNL d   1       5.520   1.140 -13.978  0.00  0.00    -0.245 OA
BRANCH  21  27
ATOM     27  C   UNL d   1       8.853   0.894 -17.021  0.00  0.00     0.006 A 
ATOM     28  C   UNL d   1      10.107   1.194 -17.604  0.00  0.00     0.000 A 
ATOM     29  C   UNL d   1      10.293   1.104 -18.996  0.00  0.00     0.029 A 
ATOM     30  C   UNL d   1       9.224   0.725 -19.825  0.00  0.00     0.140 A 
ATOM     31  C   UNL d   1       7.968   0.435 -19.262  0.00  0.00     0.029 A 
ATOM     32  F   UNL d   1       9.404   0.642 -21.164  0.00  0.00    -0.204 F 
ATOM     33  C   UNL d   1       7.782   0.518 -17.868  0.00  0.00     0.000 A 
ENDBRANCH  21  27
ENDBRANCH  18  19
ENDBRANCH   1  18
TORSDOF 7
