REMARK  11 active torsions:
REMARK  status: ('A' for Active; 'I' for Inactive)
REMARK    1  A    between atoms: C_2  and  C_3 
REMARK    2  A    between atoms: C_3  and  N_4 
REMARK    3  A    between atoms: N_4  and  C_5 
REMARK    4  A    between atoms: N_4  and  C_24 
REMARK    5  A    between atoms: C_5  and  C_6 
REMARK    6  A    between atoms: C_6  and  C_7 
REMARK    7  A    between atoms: C_7  and  C_8 
REMARK    8  A    between atoms: C_8  and  N_9 
REMARK       I    between atoms: N_9  and  C_10 
REMARK    9  A    between atoms: C_10  and  C_12 
REMARK   10  A    between atoms: C_15  and  C_16 
REMARK   11  A    between atoms: C_29  and  N_30 
ROOT
ATOM      1  C   UNL d   1       7.257   1.104 -14.176  0.00  0.00     0.250 C 
ENDROOT
BRANCH   1   2
ATOM      2  N   UNL d   1       6.872   0.181 -15.263  0.00  0.00     0.135 N 
BRANCH   2   3
ATOM      3  C   UNL d   1       5.415   0.161 -15.437  0.00  0.00     0.250 C 
BRANCH   3   4
ATOM      4  C   UNL d   1       4.711  -0.494 -14.232  0.00  0.00     0.035 C 
ATOM      5  C   UNL d   1       3.214  -0.622 -14.491  0.00  0.00     0.002 C 
ENDBRANCH   3   4
ENDBRANCH   2   3
BRANCH   2   6
ATOM      6  C   UNL d   1       7.615   0.401 -16.522  0.00  0.00     0.224 C 
ATOM      7  C   UNL d   1       9.143   0.375 -16.259  0.00  0.00     0.062 C 
ATOM      8  C   UNL d   1       9.980   0.321 -17.520  0.00  0.00     0.014 A 
ATOM      9  C   UNL d   1       9.438  -0.021 -18.775  0.00  0.00     0.075 A 
ATOM     10  C   UNL d   1      11.354   0.602 -17.491  0.00  0.00     0.115 A 
ATOM     11  C   UNL d   1       7.967  -0.344 -18.946  0.00  0.00     0.048 C 
ATOM     12  N   UNL d   1      10.202  -0.060 -19.884  0.00  0.00    -0.066 NA
ATOM     13  C   UNL d   1       7.234  -0.614 -17.627  0.00  0.00     0.040 C 
ATOM     14  C   UNL d   1      11.503   0.227 -19.746  0.00  0.00     0.727 A 
ATOM     15  N   UNL d   1      12.114   0.549 -18.603  0.00  0.00    -0.060 NA
BRANCH  14  16
ATOM     16  N   UNL d   1      12.287   0.193 -20.899  0.00  0.00    -0.179 N 
ATOM     17  C   UNL d   1      13.720   0.462 -20.834  0.00  0.00     0.144 C 
ATOM     18  C   UNL d   1      11.701  -0.102 -22.204  0.00  0.00     0.144 C 
ENDBRANCH  14  16
ENDBRANCH   2   6
ENDBRANCH   1   2
BRANCH   1  19
ATOM     19  C   UNL d   1       7.057   2.593 -14.547  0.00  0.00     0.037 C 
BRANCH  19  20
ATOM     20  C   UNL d   1       7.388   3.541 -13.403  0.00  0.00     0.029 C 
BRANCH  20  21
ATOM     21  C   UNL d   1       8.902   3.660 -13.177  0.00  0.00     0.129 C 
BRANCH  21  22
ATOM     22  N   UNL d   1       9.180   4.402 -11.961  0.00  0.00    -0.234 NA
ATOM     23  C   UNL d   1       9.038   5.728 -11.829  0.00  0.00     0.275 C 
ATOM     24  O   UNL d   1       8.647   6.460 -12.734  0.00  0.00    -0.266 OA
BRANCH  23  25
ATOM     25  C   UNL d   1       9.465   6.278 -10.501  0.00  0.00     0.058 A 
ATOM     26  C   UNL d   1      10.114   7.528 -10.438  0.00  0.00     0.005 A 
ATOM     27  C   UNL d   1      10.527   8.060  -9.201  0.00  0.00     0.000 A 
ATOM     28  C   UNL d   1      10.272   7.370  -7.997  0.00  0.00     0.000 A 
ATOM     29  C   UNL d   1       9.599   6.129  -8.068  0.00  0.00     0.000 A 
ATOM     30  C   UNL d   1       9.199   5.582  -9.304  0.00  0.00     0.005 A 
BRANCH  28  31
ATOM     31  C   UNL d   1      10.688   7.928  -6.693  0.00  0.00     0.000 A 
ATOM     32  C   UNL d   1      10.669   9.321  -6.460  0.00  0.00     0.000 A 
ATOM     33  C   UNL d   1      11.072   9.859  -5.224  0.00  0.00     0.000 A 
ATOM     34  C   UNL d   1      11.506   9.007  -4.194  0.00  0.00     0.000 A 
ATOM     35  C   UNL d   1      11.528   7.615  -4.406  0.00  0.00     0.000 A 
ATOM     36  C   UNL d   1      11.118   7.083  -5.644  0.00  0.00     0.000 A 
ENDBRANCH  28  31
ENDBRANCH  23  25
ENDBRANCH  21  22
ENDBRANCH  20  21
ENDBRANCH  19  20
ENDBRANCH   1  19
TORSDOF 11
