REMARK  6 active torsions:
REMARK  status: ('A' for Active; 'I' for Inactive)
REMARK    1  A    between atoms: C_3  and  C_4 
REMARK    2  A    between atoms: C_4  and  N_5 
REMARK    3  A    between atoms: C_8  and  N_9 
REMARK    4  A    between atoms: C_22  and  N_23 
REMARK       I    between atoms: N_23  and  C_24 
REMARK    5  A    between atoms: C_24  and  C_26 
REMARK    6  A    between atoms: C_29  and  C_30 
ROOT
ATOM      1  C   UNL d   1       9.786   3.788 -12.431  0.00  0.00     0.032 C 
ATOM      2  C   UNL d   1       8.306   4.027 -12.733  0.00  0.00    -0.006 A 
ATOM      3  C   UNL d   1       7.694   3.332 -13.799  0.00  0.00    -0.000 A 
ATOM      4  C   UNL d   1       6.319   3.487 -14.026  0.00  0.00    -0.003 A 
ATOM      5  C   UNL d   1       5.506   4.272 -13.177  0.00  0.00     0.001 A 
ATOM      6  C   UNL d   1       6.106   4.969 -12.124  0.00  0.00     0.019 A 
ATOM      7  C   UNL d   1       7.484   4.874 -11.909  0.00  0.00     0.080 A 
ENDROOT
BRANCH   3   8
ATOM      8  C   UNL d   1       8.513   2.370 -14.679  0.00  0.00     0.157 C 
BRANCH   8   9
ATOM      9  N   UNL d   1       7.746   1.387 -15.462  0.00  0.00    -0.211 N 
ATOM     10  C   UNL d   1       6.974   0.444 -14.852  0.00  0.00     0.289 A 
ATOM     11  C   UNL d   1       6.257  -0.432 -15.787  0.00  0.00     0.132 A 
ATOM     12  O   UNL d   1       6.854   0.350 -13.634  0.00  0.00    -0.265 OA
ATOM     13  C   UNL d   1       6.425  -0.356 -17.134  0.00  0.00     0.093 A 
ATOM     14 CL   UNL d   1       5.262  -1.625 -15.021  0.00  0.00    -0.076 Cl
ATOM     15  C   UNL d   1       7.337   0.684 -17.605  0.00  0.00     0.138 A 
ATOM     16  N   UNL d   1       7.947   1.489 -16.813  0.00  0.00    -0.164 NA
BRANCH  13  17
ATOM     17  N   UNL d   1       5.807  -1.212 -18.034  0.00  0.00    -0.342 N 
ATOM     18  C   UNL d   1       6.478  -1.855 -19.155  0.00  0.00     0.140 C 
ATOM     19  C   UNL d   1       5.741  -1.572 -20.477  0.00  0.00     0.314 C 
ATOM     20  N   UNL d   1       4.358  -2.039 -20.390  0.00  0.00     0.343 N 
ATOM     21  C   UNL d   1       3.700  -1.310 -19.306  0.00  0.00     0.314 C 
ATOM     22  C   UNL d   1       4.399  -1.597 -17.977  0.00  0.00     0.140 C 
ENDBRANCH  13  17
ENDBRANCH   8   9
ENDBRANCH   3   8
BRANCH   7  23
ATOM     23  N   UNL d   1       7.988   5.553 -10.775  0.00  0.00    -0.208 NA
ATOM     24  C   UNL d   1       9.041   6.371 -10.776  0.00  0.00     0.279 C 
ATOM     25  O   UNL d   1       9.512   6.832 -11.818  0.00  0.00    -0.265 OA
BRANCH  24  26
ATOM     26  C   UNL d   1       9.570   6.781  -9.418  0.00  0.00     0.058 A 
ATOM     27  C   UNL d   1      10.566   7.774  -9.311  0.00  0.00     0.005 A 
ATOM     28  C   UNL d   1      11.054   8.162  -8.045  0.00  0.00     0.000 A 
ATOM     29  C   UNL d   1      10.559   7.566  -6.870  0.00  0.00     0.000 A 
ATOM     30  C   UNL d   1       9.567   6.571  -6.985  0.00  0.00     0.000 A 
ATOM     31  C   UNL d   1       9.089   6.166  -8.245  0.00  0.00     0.005 A 
BRANCH  29  32
ATOM     32  C   UNL d   1      11.044   7.976  -5.550  0.00  0.00     0.000 A 
ATOM     33  C   UNL d   1      11.475   7.014  -4.603  0.00  0.00     0.000 A 
ATOM     34  C   UNL d   1      11.925   7.406  -3.329  0.00  0.00     0.000 A 
ATOM     35  C   UNL d   1      11.927   8.769  -2.978  0.00  0.00     0.000 A 
ATOM     36  C   UNL d   1      11.476   9.730  -3.900  0.00  0.00     0.000 A 
ATOM     37  C   UNL d   1      11.053   9.339  -5.183  0.00  0.00     0.000 A 
ENDBRANCH  29  32
ENDBRANCH  24  26
ENDBRANCH   7  23
TORSDOF 6
