REMARK  1 active torsions:
REMARK  status: ('A' for Active; 'I' for Inactive)
REMARK    1  A    between atoms: C_3  and  C_4 
ROOT
ATOM      1  O   UNL d   1      10.886   2.679 -14.584  0.00  0.00    -0.289 OA
ATOM      2  C   UNL d   1       9.822   2.297 -15.107  0.00  0.00     0.202 A 
ATOM      3  C   UNL d   1       8.472   2.671 -14.721  0.00  0.00     0.061 A 
ATOM      4  C   UNL d   1       7.704   1.972 -15.561  0.00  0.00     0.119 A 
ATOM      5  O   UNL d   1       8.351   1.211 -16.493  0.00  0.00    -0.324 OA
ATOM      6  C   UNL d   1       9.746   1.380 -16.317  0.00  0.00     0.187 A 
ATOM      7  C   UNL d   1      10.348   2.084 -17.542  0.00  0.00     0.040 C 
ATOM      8  C   UNL d   1      10.301   1.149 -18.752  0.00  0.00     0.041 C 
ATOM      9  C   UNL d   1      10.946  -0.208 -18.415  0.00  0.00     0.290 C 
ATOM     10  N   UNL d   1      10.264  -0.832 -17.281  0.00  0.00     0.342 N 
ATOM     11  C   UNL d   1      10.391   0.006 -16.084  0.00  0.00     0.325 C 
ENDROOT
BRANCH   3  12
ATOM     12  C   UNL d   1       8.019   3.607 -13.672  0.00  0.00     0.005 A 
ATOM     13  C   UNL d   1       8.933   4.398 -12.942  0.00  0.00     0.000 A 
ATOM     14  C   UNL d   1       8.472   5.259 -11.929  0.00  0.00     0.000 A 
ATOM     15  C   UNL d   1       7.096   5.347 -11.649  0.00  0.00     0.000 A 
ATOM     16  C   UNL d   1       6.179   4.587 -12.397  0.00  0.00     0.000 A 
ATOM     17  C   UNL d   1       6.638   3.725 -13.408  0.00  0.00     0.000 A 
ENDBRANCH   3  12
TORSDOF 1
