REMARK  7 active torsions:
REMARK  status: ('A' for Active; 'I' for Inactive)
REMARK    1  A    between atoms: C_2  and  C_3 
REMARK    2  A    between atoms: C_2  and  C_23 
REMARK    3  A    between atoms: C_3  and  C_4 
REMARK    4  A    between atoms: C_4  and  C_5 
REMARK    5  A    between atoms: C_5  and  C_6 
REMARK    6  A    between atoms: C_6  and  N_7 
REMARK    7  A    between atoms: C_13  and  C_15 
ROOT
ATOM      1  N   UNL d   1       9.667   5.032 -13.340  0.00  0.00     0.133 N 
ATOM      2  C   UNL d   1       8.912   4.993 -14.603  0.00  0.00     0.222 C 
ATOM      3  C   UNL d   1       7.686   4.114 -14.306  0.00  0.00     0.035 C 
ATOM      4  C   UNL d   1       8.138   3.269 -13.164  0.00  0.00     0.035 C 
ATOM      5  C   UNL d   1       9.624   3.612 -12.952  0.00  0.00     0.222 C 
ATOM      6  C   UNL d   1      10.686   2.902 -13.855  0.00  0.00     0.068 C 
ATOM      7  C   UNL d   1      10.330   2.940 -15.361  0.00  0.00     0.149 C 
ATOM      8  O   UNL d   1      11.489   2.647 -16.127  0.00  0.00    -0.221 OA
ATOM      9  C   UNL d   1       9.860   4.398 -15.691  0.00  0.00     0.068 C 
ENDROOT
BRANCH   1  10
ATOM     10  C   UNL d   1       9.022   5.898 -12.350  0.00  0.00     0.250 C 
BRANCH  10  11
ATOM     11  C   UNL d   1       9.828   5.952 -11.041  0.00  0.00     0.036 C 
BRANCH  11  12
ATOM     12  C   UNL d   1       9.146   6.734  -9.936  0.00  0.00     0.010 C 
BRANCH  12  13
ATOM     13  C   UNL d   1       9.897   6.653  -8.594  0.00  0.00     0.071 C 
BRANCH  13  14
ATOM     14  C   UNL d   1      10.392   8.014  -8.090  0.00  0.00     0.197 C 
ATOM     15  O   UNL d   1      10.440   9.004  -8.822  0.00  0.00    -0.289 OA
BRANCH  14  16
ATOM     16  C   UNL d   1      10.826   8.111  -6.673  0.00  0.00     0.145 A 
ATOM     17  S   UNL d   1      11.051   9.729  -5.986  0.00  0.00    -0.064 SA
ATOM     18  C   UNL d   1      11.508   8.973  -4.470  0.00  0.00     0.049 A 
ATOM     19  C   UNL d   1      11.485   7.555  -4.615  0.00  0.00     0.088 A 
ATOM     20  C   UNL d   1      11.863   9.586  -3.261  0.00  0.00     0.008 A 
ATOM     21  N   UNL d   1      11.082   7.080  -5.861  0.00  0.00    -0.236 NA
ATOM     22  C   UNL d   1      11.871   6.788  -3.498  0.00  0.00     0.020 A 
ATOM     23  C   UNL d   1      12.266   7.388  -2.295  0.00  0.00     0.002 A 
ATOM     24  C   UNL d   1      12.270   8.786  -2.163  0.00  0.00     0.001 A 
ENDBRANCH  14  16
ENDBRANCH  13  14
ENDBRANCH  12  13
ENDBRANCH  11  12
ENDBRANCH  10  11
ENDBRANCH   1  10
BRANCH   7  25
ATOM     25  C   UNL d   1       9.250   1.904 -15.745  0.00  0.00     0.005 C 
ATOM     26  C   UNL d   1       8.609   1.922 -16.969  0.00  0.00    -0.001 C 
ATOM     27  C   UNL d   1       7.535   1.038 -17.260  0.00  0.00     0.011 C 
ATOM     28  C   UNL d   1       7.106   0.142 -16.254  0.00  0.00     0.058 C 
ATOM     29  C   UNL d   1       7.723   0.103 -15.026  0.00  0.00     0.011 C 
ATOM     30 CL   UNL d   1       5.779  -0.936 -16.576  0.00  0.00    -0.082 Cl
ATOM     31  C   UNL d   1       8.887   0.898 -14.784  0.00  0.00    -0.001 C 
ENDBRANCH   7  25
TORSDOF 7
