REMARK  3 active torsions:
REMARK  status: ('A' for Active; 'I' for Inactive)
REMARK    1  A    between atoms: C_9  and  N_10 
REMARK    2  A    between atoms: N_19  and  S_20 
REMARK    3  A    between atoms: S_20  and  C_23 
ROOT
ATOM      1  C   UNL d   1       6.605   0.245 -19.724  0.00  0.00     0.026 C 
ATOM      2  C   UNL d   1       7.502  -0.595 -18.784  0.00  0.00     0.105 C 
ATOM      3  C   UNL d   1       6.780  -1.873 -18.337  0.00  0.00     0.093 C 
ATOM      4  C   UNL d   1       5.694  -1.600 -17.296  0.00  0.00     0.176 C 
ATOM      5  O   UNL d   1       4.676  -2.285 -17.276  0.00  0.00    -0.291 OA
ATOM      6  C   UNL d   1       5.989  -0.504 -16.351  0.00  0.00     0.051 A 
ATOM      7  C   UNL d   1       5.162  -0.281 -15.225  0.00  0.00     0.005 A 
ATOM      8  C   UNL d   1       5.453   0.746 -14.305  0.00  0.00     0.011 A 
ATOM      9  C   UNL d   1       6.555   1.599 -14.526  0.00  0.00     0.038 A 
ATOM     10  C   UNL d   1       7.352   1.366 -15.652  0.00  0.00     0.029 A 
ATOM     11  C   UNL d   1       7.110   0.329 -16.569  0.00  0.00     0.074 A 
ATOM     12  N   UNL d   1       8.006   0.224 -17.667  0.00  0.00    -0.255 N 
ENDROOT
BRANCH  12  13
ATOM     13  S   UNL d   1       9.316   1.383 -17.950  0.00  0.00     0.268 S 
ATOM     14  O   UNL d   1       8.658   2.645 -18.321  0.00  0.00    -0.200 OA
ATOM     15  O   UNL d   1      10.201   1.327 -16.777  0.00  0.00    -0.200 OA
BRANCH  13  16
ATOM     16  C   UNL d   1      10.231   0.798 -19.338  0.00  0.00     0.104 A 
ATOM     17  C   UNL d   1      11.420   0.086 -19.101  0.00  0.00     0.013 A 
ATOM     18  C   UNL d   1      12.155  -0.387 -20.201  0.00  0.00     0.001 A 
ATOM     19  C   UNL d   1      11.669  -0.178 -21.519  0.00  0.00     0.000 A 
ATOM     20  C   UNL d   1      13.374  -1.060 -19.995  0.00  0.00     0.000 A 
ATOM     21  C   UNL d   1      10.468   0.530 -21.735  0.00  0.00     0.001 A 
ATOM     22  C   UNL d   1      12.400  -0.646 -22.622  0.00  0.00     0.000 A 
ATOM     23  C   UNL d   1       9.771   1.066 -20.643  0.00  0.00     0.013 A 
ATOM     24  C   UNL d   1      13.622  -1.309 -22.414  0.00  0.00     0.000 A 
ATOM     25  C   UNL d   1      14.107  -1.513 -21.108  0.00  0.00     0.000 A 
ENDBRANCH  13  16
ENDBRANCH  12  13
BRANCH   9  26
ATOM     26  N   UNL d   1       6.844   2.680 -13.667  0.00  0.00    -0.248 NA
ATOM     27  C   UNL d   1       5.784   3.664 -13.521  0.00  0.00     0.112 C 
ATOM     28  C   UNL d   1       6.168   4.730 -12.477  0.00  0.00     0.268 C 
ATOM     29  N   UNL d   1       7.455   5.346 -12.819  0.00  0.00     0.142 N 
ATOM     30  C   UNL d   1       8.493   4.325 -12.779  0.00  0.00     0.268 C 
ATOM     31  C   UNL d   1       7.775   6.372 -11.848  0.00  0.00     0.285 C 
ATOM     32  C   UNL d   1       8.171   3.289 -13.845  0.00  0.00     0.112 C 
ENDBRANCH   9  26
TORSDOF 3
