REMARK  3 active torsions:
REMARK  status: ('A' for Active; 'I' for Inactive)
REMARK    1  A    between atoms: C_3  and  C_4 
REMARK    2  A    between atoms: N_15  and  C_16 
REMARK    3  A    between atoms: C_16  and  C_17 
ROOT
ATOM      1  O   UNL d   1       9.477   7.702 -11.716  0.00  0.00    -0.289 OA
ATOM      2  C   UNL d   1       9.344   6.683 -11.048  0.00  0.00     0.200 C 
ATOM      3  C   UNL d   1       9.637   6.455  -9.659  0.00  0.00     0.061 C 
ATOM      4  C   UNL d   1       9.253   5.230  -9.396  0.00  0.00     0.119 C 
ATOM      5  O   UNL d   1       8.832   4.522 -10.499  0.00  0.00    -0.326 OA
ATOM      6  C   UNL d   1       8.771   5.399 -11.601  0.00  0.00     0.157 C 
ATOM      7  C   UNL d   1       7.324   5.549 -12.104  0.00  0.00     0.071 C 
ATOM      8  C   UNL d   1       6.815   4.257 -12.774  0.00  0.00     0.254 C 
ATOM      9  N   UNL d   1       7.704   3.867 -13.884  0.00  0.00     0.142 N 
ATOM     10  C   UNL d   1       9.042   3.585 -13.314  0.00  0.00     0.254 C 
ATOM     11  C   UNL d   1       9.636   4.866 -12.764  0.00  0.00     0.071 C 
ENDROOT
BRANCH   3  12
ATOM     12  C   UNL d   1      10.113   7.439  -8.683  0.00  0.00     0.005 A 
ATOM     13  C   UNL d   1       9.283   7.845  -7.632  0.00  0.00     0.000 A 
ATOM     14  C   UNL d   1       9.758   8.784  -6.712  0.00  0.00     0.000 A 
ATOM     15  C   UNL d   1      11.050   9.333  -6.813  0.00  0.00     0.000 A 
ATOM     16  C   UNL d   1      11.875   8.881  -7.857  0.00  0.00     0.000 A 
ATOM     17  C   UNL d   1      11.415   7.959  -8.801  0.00  0.00     0.000 A 
ENDBRANCH   3  12
BRANCH   9  18
ATOM     18  C   UNL d   1       7.165   2.688 -14.564  0.00  0.00     0.277 C 
BRANCH  18  19
ATOM     19  C   UNL d   1       7.803   2.362 -15.936  0.00  0.00     0.012 A 
ATOM     20  C   UNL d   1       9.063   2.901 -16.341  0.00  0.00     0.009 A 
ATOM     21  C   UNL d   1       9.648   2.531 -17.557  0.00  0.00     0.058 A 
ATOM     22  C   UNL d   1       8.937   1.748 -18.460  0.00  0.00     0.011 A 
ATOM     23 CL   UNL d   1      11.232   3.151 -17.861  0.00  0.00    -0.082 Cl
ATOM     24  C   UNL d   1       7.640   1.292 -18.128  0.00  0.00     0.001 A 
ATOM     25  C   UNL d   1       7.079   1.574 -16.857  0.00  0.00    -0.002 A 
ENDBRANCH  18  19
ENDBRANCH   9  18
TORSDOF 3
