REMARK  8 active torsions:
REMARK  status: ('A' for Active; 'I' for Inactive)
REMARK    1  A    between atoms: O_2  and  C_3 
REMARK    2  A    between atoms: C_8  and  N_9 
REMARK    3  A    between atoms: N_12  and  C_13 
REMARK    4  A    between atoms: C_13  and  C_14 
REMARK    5  A    between atoms: C_14  and  C_15 
REMARK    6  A    between atoms: C_15  and  C_16 
REMARK       I    between atoms: C_16  and  N_18 
REMARK    7  A    between atoms: N_18  and  C_19 
REMARK    8  A    between atoms: C_25  and  C_26 
ROOT
ATOM      1  C   UNL d   1       8.417   4.737 -11.710  0.00  0.00     0.045 C 
ENDROOT
BRANCH   1   2
ATOM      2  C   UNL d   1       9.724   4.147 -12.270  0.00  0.00     0.251 C 
BRANCH   2   3
ATOM      3  N   UNL d   1       9.668   3.872 -13.701  0.00  0.00     0.141 N 
ATOM      4  C   UNL d   1       9.768   5.131 -14.446  0.00  0.00     0.274 C 
ATOM      5  C   UNL d   1       9.691   4.867 -15.959  0.00  0.00     0.137 C 
ATOM      6  N   UNL d   1      10.716   3.912 -16.362  0.00  0.00    -0.343 N 
ATOM      7  C   UNL d   1      10.771   2.686 -15.576  0.00  0.00     0.137 C 
ATOM      8  C   UNL d   1      10.810   3.030 -14.075  0.00  0.00     0.274 C 
BRANCH   6   9
ATOM      9  C   UNL d   1      11.646   4.188 -17.369  0.00  0.00     0.079 A 
ATOM     10  C   UNL d   1      12.339   5.427 -17.421  0.00  0.00     0.110 A 
ATOM     11  C   UNL d   1      13.250   5.660 -18.485  0.00  0.00     0.026 A 
ATOM     12  C   UNL d   1      13.479   4.678 -19.465  0.00  0.00     0.002 A 
ATOM     13  C   UNL d   1      12.806   3.450 -19.400  0.00  0.00     0.002 A 
ATOM     14  C   UNL d   1      11.895   3.203 -18.353  0.00  0.00     0.019 A 
BRANCH  10  15
ATOM     15  O   UNL d   1      12.109   6.340 -16.411  0.00  0.00    -0.327 OA
ATOM     16  C   UNL d   1      12.791   7.580 -16.440  0.00  0.00     0.181 C 
ENDBRANCH  10  15
ENDBRANCH   6   9
ENDBRANCH   2   3
ENDBRANCH   1   2
BRANCH   1  17
ATOM     17  C   UNL d   1       8.450   4.975 -10.188  0.00  0.00     0.092 C 
BRANCH  17  18
ATOM     18  C   UNL d   1       9.450   6.038  -9.726  0.00  0.00     0.256 C 
ATOM     19  O   UNL d   1      10.015   6.758 -10.548  0.00  0.00    -0.270 OA
ATOM     20  N   UNL d   1       9.653   6.100  -8.398  0.00  0.00    -0.212 NA
BRANCH  20  21
ATOM     21  C   UNL d   1      10.331   7.111  -7.666  0.00  0.00     0.087 A 
ATOM     22  C   UNL d   1      10.709   6.813  -6.375  0.00  0.00     0.039 A 
ATOM     23  C   UNL d   1      11.335   7.792  -5.573  0.00  0.00     0.089 A 
ATOM     24  N   UNL d   1      11.540   9.058  -6.141  0.00  0.00    -0.228 N 
ATOM     25  C   UNL d   1      11.845   7.874  -4.304  0.00  0.00     0.081 A 
ATOM     26  C   UNL d   1      11.186   9.365  -7.408  0.00  0.00     0.102 A 
ATOM     27  N   UNL d   1      12.134   9.917  -5.263  0.00  0.00    -0.164 NA
ATOM     28  C   UNL d   1      10.569   8.416  -8.187  0.00  0.00     0.040 A 
ATOM     29  C   UNL d   1      12.327   9.194  -4.186  0.00  0.00     0.125 A 
BRANCH  25  30
ATOM     30  C   UNL d   1      11.858   6.796  -3.345  0.00  0.00     0.237 C 
ATOM     31  O   UNL d   1      12.278   6.879  -2.193  0.00  0.00    -0.283 OA
ENDBRANCH  25  30
ENDBRANCH  20  21
ENDBRANCH  17  18
ENDBRANCH   1  17
TORSDOF 8
