REMARK  11 active torsions:
REMARK  status: ('A' for Active; 'I' for Inactive)
REMARK       I    between atoms: N_2  and  C_3 
REMARK    1  A    between atoms: C_3  and  C_5 
REMARK    2  A    between atoms: C_8  and  C_9 
REMARK    3  A    between atoms: C_12  and  C_13 
REMARK       I    between atoms: C_13  and  N_15 
REMARK    4  A    between atoms: N_15  and  C_16 
REMARK    5  A    between atoms: C_16  and  C_17 
REMARK    6  A    between atoms: C_17  and  C_18 
REMARK    7  A    between atoms: C_18  and  C_19 
REMARK    8  A    between atoms: C_19  and  N_20 
REMARK    9  A    between atoms: C_26  and  O_27 
REMARK   10  A    between atoms: O_27  and  S_28 
REMARK   11  A    between atoms: S_28  and  C_31 
ROOT
ATOM      1  C   UNL d   1       5.957  -1.603 -22.019  0.00  0.00     0.029 C 
ENDROOT
BRANCH   1   2
ATOM      2  C   UNL d   1       6.625  -0.534 -22.913  0.00  0.00     0.129 C 
BRANCH   2   3
ATOM      3  N   UNL d   1       7.683   0.221 -22.233  0.00  0.00    -0.234 NA
ATOM      4  C   UNL d   1       7.450   1.272 -21.443  0.00  0.00     0.275 C 
ATOM      5  O   UNL d   1       6.326   1.671 -21.183  0.00  0.00    -0.266 OA
BRANCH   4   6
ATOM      6  C   UNL d   1       8.671   1.943 -20.864  0.00  0.00     0.058 A 
ATOM      7  C   UNL d   1       8.695   3.348 -20.727  0.00  0.00     0.005 A 
ATOM      8  C   UNL d   1       9.826   3.994 -20.205  0.00  0.00     0.000 A 
ATOM      9  C   UNL d   1      10.957   3.252 -19.795  0.00  0.00     0.000 A 
ATOM     10  C   UNL d   1      10.914   1.840 -19.901  0.00  0.00     0.000 A 
ATOM     11  C   UNL d   1       9.781   1.193 -20.424  0.00  0.00     0.005 A 
BRANCH   9  12
ATOM     12  C   UNL d   1      12.154   3.936 -19.274  0.00  0.00     0.000 A 
ATOM     13  C   UNL d   1      12.869   3.403 -18.182  0.00  0.00     0.000 A 
ATOM     14  C   UNL d   1      14.005   4.062 -17.676  0.00  0.00     0.005 A 
ATOM     15  C   UNL d   1      14.461   5.259 -18.263  0.00  0.00     0.058 A 
ATOM     16  C   UNL d   1      13.748   5.802 -19.354  0.00  0.00     0.005 A 
ATOM     17  C   UNL d   1      12.606   5.143 -19.853  0.00  0.00     0.000 A 
BRANCH  15  18
ATOM     18  C   UNL d   1      15.670   5.949 -17.699  0.00  0.00     0.275 C 
ATOM     19  N   UNL d   1      16.502   6.485 -18.603  0.00  0.00    -0.232 NA
ATOM     20  C   UNL d   1      17.748   7.161 -18.273  0.00  0.00     0.155 C 
ATOM     21  O   UNL d   1      15.893   5.951 -16.487  0.00  0.00    -0.266 OA
ENDBRANCH  15  18
ENDBRANCH   9  12
ENDBRANCH   4   6
ENDBRANCH   2   3
ENDBRANCH   1   2
BRANCH   1  22
ATOM     22  C   UNL d   1       5.295  -0.994 -20.778  0.00  0.00     0.037 C 
BRANCH  22  23
ATOM     23  C   UNL d   1       4.771  -2.010 -19.742  0.00  0.00     0.251 C 
BRANCH  23  24
ATOM     24  N   UNL d   1       4.673  -1.380 -18.417  0.00  0.00     0.142 N 
ATOM     25  C   UNL d   1       6.005  -1.123 -17.853  0.00  0.00     0.277 C 
ATOM     26  C   UNL d   1       5.984  -0.607 -16.426  0.00  0.00     0.009 A 
ATOM     27  C   UNL d   1       4.870  -0.842 -15.599  0.00  0.00    -0.022 A 
ATOM     28  C   UNL d   1       7.112   0.062 -15.917  0.00  0.00     0.023 A 
ATOM     29  C   UNL d   1       3.659  -1.548 -16.180  0.00  0.00     0.061 C 
ATOM     30  C   UNL d   1       4.882  -0.405 -14.261  0.00  0.00    -0.002 A 
ATOM     31  C   UNL d   1       3.960  -2.277 -17.511  0.00  0.00     0.255 C 
ATOM     32  C   UNL d   1       6.015   0.267 -13.751  0.00  0.00     0.025 A 
ATOM     33  C   UNL d   1       7.132   0.506 -14.583  0.00  0.00     0.113 A 
BRANCH  33  34
ATOM     34  O   UNL d   1       8.242   1.142 -14.104  0.00  0.00    -0.224 OA
BRANCH  34  35
ATOM     35  S   UNL d   1       8.468   2.737 -14.610  0.00  0.00     0.374 S 
ATOM     36  O   UNL d   1       8.695   2.724 -16.063  0.00  0.00    -0.189 OA
ATOM     37  O   UNL d   1       7.387   3.543 -14.020  0.00  0.00    -0.189 OA
BRANCH  35  38
ATOM     38  C   UNL d   1      10.058   3.115 -13.761  0.00  0.00     0.524 C 
ATOM     39  F   UNL d   1      10.935   2.148 -14.030  0.00  0.00    -0.155 F 
ATOM     40  F   UNL d   1      10.517   4.277 -14.222  0.00  0.00    -0.155 F 
ATOM     41  F   UNL d   1       9.848   3.201 -12.448  0.00  0.00    -0.155 F 
ENDBRANCH  35  38
ENDBRANCH  34  35
ENDBRANCH  33  34
ENDBRANCH  23  24
ENDBRANCH  22  23
ENDBRANCH   1  22
TORSDOF 11
