REMARK  7 active torsions:
REMARK  status: ('A' for Active; 'I' for Inactive)
REMARK    1  A    between atoms: C_2  and  C_4 
REMARK       I    between atoms: C_4  and  N_6 
REMARK    2  A    between atoms: N_6  and  C_7 
REMARK    3  A    between atoms: C_11  and  C_12 
REMARK    4  A    between atoms: N_15  and  C_16 
REMARK    5  A    between atoms: C_16  and  C_17 
REMARK    6  A    between atoms: C_20  and  O_21 
REMARK    7  A    between atoms: O_21  and  C_22 
ROOT
ATOM      1  C   UNL d   1       7.095   3.274 -13.956  0.00  0.00     0.026 C 
ATOM      2  C   UNL d   1       8.631   3.122 -13.976  0.00  0.00     0.040 C 
ATOM      3  C   UNL d   1       9.328   4.435 -13.627  0.00  0.00     0.251 C 
ATOM      4  N   UNL d   1       8.838   4.884 -12.327  0.00  0.00     0.141 N 
ATOM      5  C   UNL d   1       7.416   5.231 -12.387  0.00  0.00     0.251 C 
ATOM      6  C   UNL d   1       6.630   3.962 -12.663  0.00  0.00     0.040 C 
ENDROOT
BRANCH   4   7
ATOM      7  C   UNL d   1       9.572   6.066 -11.915  0.00  0.00     0.277 C 
BRANCH   7   8
ATOM      8  C   UNL d   1       9.463   6.394 -10.443  0.00  0.00     0.011 A 
ATOM      9  C   UNL d   1       8.837   5.514  -9.517  0.00  0.00    -0.000 A 
ATOM     10  C   UNL d   1       8.759   5.898  -8.171  0.00  0.00     0.024 A 
ATOM     11  C   UNL d   1       9.347   7.116  -7.730  0.00  0.00     0.100 A 
ATOM     12  C   UNL d   1       9.971   7.994  -8.655  0.00  0.00     0.024 A 
ATOM     13  C   UNL d   1      10.020   7.622  -9.993  0.00  0.00    -0.000 A 
BRANCH  11  14
ATOM     14  O   UNL d   1       9.239   7.434  -6.402  0.00  0.00    -0.307 OA
BRANCH  14  15
ATOM     15  C   UNL d   1      10.316   8.011  -5.790  0.00  0.00     0.100 A 
ATOM     16  C   UNL d   1      11.082   7.297  -4.830  0.00  0.00     0.025 A 
ATOM     17  C   UNL d   1      12.193   7.901  -4.215  0.00  0.00     0.002 A 
ATOM     18  C   UNL d   1      12.587   9.204  -4.605  0.00  0.00     0.000 A 
ATOM     19  C   UNL d   1      11.828   9.907  -5.567  0.00  0.00     0.002 A 
ATOM     20  C   UNL d   1      10.667   9.339  -6.101  0.00  0.00     0.025 A 
ENDBRANCH  14  15
ENDBRANCH  11  14
ENDBRANCH   7   8
ENDBRANCH   4   7
BRANCH   1  21
ATOM     21  C   UNL d   1       6.395   1.957 -14.229  0.00  0.00    -0.021 A 
ATOM     22  C   UNL d   1       5.451   1.414 -13.329  0.00  0.00    -0.004 A 
ATOM     23  C   UNL d   1       4.826   0.199 -13.626  0.00  0.00     0.001 A 
ATOM     24  C   UNL d   1       5.122  -0.501 -14.809  0.00  0.00     0.019 A 
ATOM     25  C   UNL d   1       6.036   0.052 -15.730  0.00  0.00     0.084 A 
ATOM     26  C   UNL d   1       6.673   1.275 -15.430  0.00  0.00     0.015 A 
BRANCH  25  27
ATOM     27  N   UNL d   1       6.342  -0.673 -16.906  0.00  0.00    -0.212 NA
ATOM     28  C   UNL d   1       6.629  -0.156 -18.118  0.00  0.00     0.255 C 
ATOM     29  O   UNL d   1       6.593   1.044 -18.382  0.00  0.00    -0.270 OA
BRANCH  28  30
ATOM     30  C   UNL d   1       7.004  -1.165 -19.210  0.00  0.00     0.081 C 
ATOM     31  C   UNL d   1       8.489  -1.028 -19.591  0.00  0.00     0.010 C 
ATOM     32  C   UNL d   1       6.092  -0.993 -20.435  0.00  0.00     0.010 C 
ENDBRANCH  28  30
ENDBRANCH  25  27
ENDBRANCH   1  21
TORSDOF 7
