REMARK  4 active torsions:
REMARK  status: ('A' for Active; 'I' for Inactive)
REMARK    1  A    between atoms: C_2  and  C_3 
REMARK    2  A    between atoms: C_6  and  C_7 
REMARK    3  A    between atoms: N_17  and  C_18 
REMARK    4  A    between atoms: C_18  and  C_19 
ROOT
ATOM      1  O   UNL d   1       8.556   7.194 -11.888  0.00  0.00    -0.221 OA
ATOM      2  C   UNL d   1       8.760   6.034 -11.091  0.00  0.00     0.149 C 
ATOM      3  C   UNL d   1       7.404   5.313 -10.982  0.00  0.00     0.070 C 
ATOM      4  C   UNL d   1       6.873   4.788 -12.319  0.00  0.00     0.254 C 
ATOM      5  N   UNL d   1       7.851   3.863 -12.869  0.00  0.00     0.142 N 
ATOM      6  C   UNL d   1       9.105   4.559 -13.130  0.00  0.00     0.254 C 
ATOM      7  C   UNL d   1       9.710   5.092 -11.829  0.00  0.00     0.070 C 
ENDROOT
BRANCH   2   8
ATOM      8  C   UNL d   1       9.350   6.426  -9.724  0.00  0.00     0.005 A 
ATOM      9  C   UNL d   1       8.786   5.990  -8.503  0.00  0.00    -0.002 A 
ATOM     10  C   UNL d   1       9.304   6.432  -7.277  0.00  0.00    -0.000 A 
ATOM     11  C   UNL d   1      10.411   7.307  -7.235  0.00  0.00    -0.000 A 
ATOM     12  C   UNL d   1      10.973   7.746  -8.453  0.00  0.00    -0.000 A 
ATOM     13  C   UNL d   1      10.450   7.309  -9.683  0.00  0.00    -0.002 A 
BRANCH  11  14
ATOM     14  C   UNL d   1      10.964   7.752  -5.951  0.00  0.00    -0.000 A 
ATOM     15  C   UNL d   1      10.958   9.119  -5.607  0.00  0.00    -0.000 A 
ATOM     16  C   UNL d   1      11.465   9.539  -4.367  0.00  0.00     0.000 A 
ATOM     17  C   UNL d   1      11.989   8.600  -3.457  0.00  0.00     0.000 A 
ATOM     18  C   UNL d   1      11.996   7.232  -3.791  0.00  0.00     0.000 A 
ATOM     19  C   UNL d   1      11.504   6.816  -5.034  0.00  0.00    -0.000 A 
ENDBRANCH  11  14
ENDBRANCH   2   8
BRANCH   5  20
ATOM     20  C   UNL d   1       7.326   3.267 -14.095  0.00  0.00     0.278 C 
BRANCH  20  21
ATOM     21  C   UNL d   1       8.002   2.093 -14.734  0.00  0.00     0.032 A 
ATOM     22  C   UNL d   1       9.224   2.068 -15.507  0.00  0.00     0.017 A 
ATOM     23  C   UNL d   1       9.461   0.722 -15.906  0.00  0.00     0.081 A 
ATOM     24  C   UNL d   1      10.172   3.036 -15.923  0.00  0.00     0.001 A 
ATOM     25  N   UNL d   1       8.402  -0.011 -15.406  0.00  0.00    -0.244 NA
ATOM     26  C   UNL d   1      10.585   0.353 -16.667  0.00  0.00     0.019 A 
ATOM     27  C   UNL d   1       7.534   0.808 -14.708  0.00  0.00     0.097 A 
ATOM     28  C   UNL d   1      11.521   1.338 -17.038  0.00  0.00     0.002 A 
ATOM     29  C   UNL d   1      11.318   2.675 -16.659  0.00  0.00     0.000 A 
ENDBRANCH  20  21
ENDBRANCH   5  20
TORSDOF 4
