REMARK  5 active torsions:
REMARK  status: ('A' for Active; 'I' for Inactive)
REMARK    1  A    between atoms: C_4  and  O_5 
REMARK    2  A    between atoms: O_5  and  C_6 
REMARK    3  A    between atoms: C_6  and  C_7 
REMARK    4  A    between atoms: N_9  and  C_10 
REMARK    5  A    between atoms: C_10  and  C_11 
ROOT
ATOM      1  C   UNL d   1       8.421   5.315 -11.772  0.00  0.00     0.179 C 
ATOM      2  C   UNL d   1       7.777   4.009 -12.204  0.00  0.00     0.283 C 
ATOM      3  N   UNL d   1       6.841   4.197 -13.307  0.00  0.00     0.147 N 
ATOM      4  C   UNL d   1       5.806   5.146 -12.907  0.00  0.00     0.283 C 
ATOM      5  C   UNL d   1       6.438   6.463 -12.434  0.00  0.00     0.178 C 
ATOM      6  O   UNL d   1       7.352   6.152 -11.386  0.00  0.00    -0.350 OA
ENDROOT
BRANCH   3   7
ATOM      7  C   UNL d   1       6.270   2.926 -13.757  0.00  0.00     0.279 C 
BRANCH   7   8
ATOM      8  C   UNL d   1       7.152   1.922 -14.444  0.00  0.00     0.032 A 
ATOM      9  C   UNL d   1       8.502   2.103 -14.923  0.00  0.00     0.017 A 
ATOM     10  C   UNL d   1       8.943   0.861 -15.475  0.00  0.00     0.081 A 
ATOM     11  C   UNL d   1       9.421   3.180 -14.947  0.00  0.00     0.001 A 
ATOM     12  N   UNL d   1       7.880  -0.005 -15.338  0.00  0.00    -0.244 NA
ATOM     13  C   UNL d   1      10.234   0.710 -16.020  0.00  0.00     0.019 A 
ATOM     14  C   UNL d   1       6.811   0.624 -14.724  0.00  0.00     0.097 A 
ATOM     15  C   UNL d   1      11.124   1.798 -16.018  0.00  0.00     0.002 A 
ATOM     16  C   UNL d   1      10.717   3.031 -15.476  0.00  0.00     0.000 A 
ENDBRANCH   7   8
ENDBRANCH   3   7
BRANCH   1  17
ATOM     17  C   UNL d   1       9.276   5.087 -10.525  0.00  0.00     0.180 C 
BRANCH  17  18
ATOM     18  O   UNL d   1      10.153   6.201 -10.338  0.00  0.00    -0.328 OA
BRANCH  18  19
ATOM     19  C   UNL d   1      10.164   6.909  -9.157  0.00  0.00     0.094 A 
ATOM     20  C   UNL d   1      11.087   7.974  -9.054  0.00  0.00     0.024 A 
ATOM     21  C   UNL d   1      11.165   8.756  -7.884  0.00  0.00     0.002 A 
ATOM     22  C   UNL d   1      10.316   8.478  -6.798  0.00  0.00     0.000 A 
ATOM     23  C   UNL d   1       9.392   7.421  -6.886  0.00  0.00     0.002 A 
ATOM     24  C   UNL d   1       9.316   6.641  -8.057  0.00  0.00     0.024 A 
ENDBRANCH  18  19
ENDBRANCH  17  18
ENDBRANCH   1  17
TORSDOF 5
