REMARK  8 active torsions:
REMARK  status: ('A' for Active; 'I' for Inactive)
REMARK    1  A    between atoms: O_2  and  C_3 
REMARK    2  A    between atoms: C_6  and  C_7 
REMARK    3  A    between atoms: C_7  and  C_8 
REMARK       I    between atoms: C_8  and  N_10 
REMARK    4  A    between atoms: N_10  and  C_11 
REMARK    5  A    between atoms: C_14  and  C_15 
REMARK    6  A    between atoms: C_15  and  C_16 
REMARK    7  A    between atoms: C_16  and  N_17 
REMARK    8  A    between atoms: C_20  and  C_21 
ROOT
ATOM      1  C   UNL d   1      10.127   3.024 -15.145  0.00  0.00     0.106 C 
ATOM      2  C   UNL d   1       9.044   4.103 -15.269  0.00  0.00     0.024 C 
ATOM      3  C   UNL d   1       9.167   5.178 -14.195  0.00  0.00     0.002 C 
ATOM      4  C   UNL d   1       9.096   4.587 -12.788  0.00  0.00     0.002 C 
ATOM      5  C   UNL d   1      10.236   3.564 -12.683  0.00  0.00     0.002 C 
ATOM      6  C   UNL d   1      10.129   2.443 -13.725  0.00  0.00     0.024 C 
ENDROOT
BRANCH   4   7
ATOM      7  C   UNL d   1       9.235   5.701 -11.733  0.00  0.00     0.035 C 
BRANCH   7   8
ATOM      8  C   UNL d   1       8.759   5.285 -10.334  0.00  0.00     0.250 C 
BRANCH   8   9
ATOM      9  N   UNL d   1       9.184   6.220  -9.290  0.00  0.00     0.137 N 
ATOM     10  C   UNL d   1       8.654   5.753  -8.008  0.00  0.00     0.251 C 
ATOM     11  C   UNL d   1       9.021   6.738  -6.885  0.00  0.00     0.040 C 
ATOM     12  C   UNL d   1      10.540   6.927  -6.787  0.00  0.00     0.028 C 
ATOM     13  C   UNL d   1      11.101   7.290  -8.160  0.00  0.00     0.040 C 
ATOM     14  C   UNL d   1      10.644   6.277  -9.208  0.00  0.00     0.251 C 
BRANCH  12  15
ATOM     15  C   UNL d   1      10.905   7.968  -5.746  0.00  0.00     0.002 A 
ATOM     16  C   UNL d   1      11.503   7.614  -4.513  0.00  0.00     0.115 A 
ATOM     17  C   UNL d   1      11.833   8.566  -3.566  0.00  0.00     0.119 A 
ATOM     18  O   UNL d   1      11.830   6.390  -4.046  0.00  0.00    -0.300 OA
ATOM     19  C   UNL d   1      11.575   9.928  -3.772  0.00  0.00     0.026 A 
ATOM     20  O   UNL d   1      12.371   7.962  -2.475  0.00  0.00    -0.300 OA
ATOM     21  C   UNL d   1      11.007  10.309  -5.008  0.00  0.00     0.002 A 
ATOM     22  C   UNL d   1      10.661   9.344  -5.976  0.00  0.00    -0.002 A 
ATOM     23  C   UNL d   1      12.360   6.586  -2.763  0.00  0.00     0.304 A 
ENDBRANCH  12  15
ENDBRANCH   8   9
ENDBRANCH   7   8
ENDBRANCH   4   7
BRANCH   1  24
ATOM     24  N   UNL d   1       9.931   1.977 -16.144  0.00  0.00    -0.240 NA
ATOM     25  C   UNL d   1       8.855   1.191 -16.281  0.00  0.00     0.251 C 
ATOM     26  O   UNL d   1       7.886   1.209 -15.520  0.00  0.00    -0.271 OA
BRANCH  25  27
ATOM     27  C   UNL d   1       8.879   0.237 -17.473  0.00  0.00     0.090 C 
BRANCH  27  28
ATOM     28  C   UNL d   1       7.540  -0.466 -17.753  0.00  0.00     0.009 C 
ATOM     29  C   UNL d   1       6.422   0.501 -18.219  0.00  0.00     0.003 C 
ATOM     30  C   UNL d   1       5.108  -0.259 -18.447  0.00  0.00     0.030 C 
ATOM     31  C   UNL d   1       5.292  -1.433 -19.427  0.00  0.00     0.116 C 
ATOM     32  C   UNL d   1       6.453  -2.362 -19.017  0.00  0.00     0.030 C 
ATOM     33  C   UNL d   1       7.751  -1.585 -18.790  0.00  0.00     0.003 C 
BRANCH  31  34
ATOM     34  O   UNL d   1       4.075  -2.152 -19.606  0.00  0.00    -0.354 OA
ATOM     35  C   UNL d   1       3.576  -2.877 -18.485  0.00  0.00     0.174 C 
ENDBRANCH  31  34
ENDBRANCH  27  28
ENDBRANCH  25  27
ENDBRANCH   1  24
TORSDOF 8
