REMARK  5 active torsions:
REMARK  status: ('A' for Active; 'I' for Inactive)
REMARK    1  A    between atoms: C_2  and  C_3 
REMARK    2  A    between atoms: C_3  and  N_4 
REMARK    3  A    between atoms: C_8  and  C_9 
REMARK    4  A    between atoms: C_13  and  C_14 
REMARK    5  A    between atoms: C_14  and  O_16 
ROOT
ATOM      1  C   UNL d   1       9.405   6.965  -8.100  0.00  0.00    -0.020 C 
ATOM      2  C   UNL d   1       8.719   5.821  -7.671  0.00  0.00    -0.004 C 
ATOM      3  C   UNL d   1       8.370   4.803  -8.580  0.00  0.00    -0.000 C 
ATOM      4  C   UNL d   1       8.551   5.010  -9.957  0.00  0.00     0.005 C 
ATOM      5  C   UNL d   1       9.149   6.190 -10.421  0.00  0.00     0.063 C 
ATOM      6  C   UNL d   1       9.608   7.144  -9.488  0.00  0.00     0.001 C 
ENDROOT
BRANCH   1   7
ATOM      7  C   UNL d   1       9.861   7.981  -7.059  0.00  0.00     0.056 C 
ATOM      8  C   UNL d   1      10.569   9.153  -7.734  0.00  0.00     0.008 C 
ATOM      9  C   UNL d   1      11.088  10.129  -6.687  0.00  0.00     0.036 C 
ATOM     10  C   UNL d   1      11.999   9.404  -5.718  0.00  0.00     0.250 C 
ATOM     11  N   UNL d   1      11.264   8.355  -5.025  0.00  0.00     0.137 N 
ATOM     12  C   UNL d   1      10.780   7.350  -5.985  0.00  0.00     0.255 C 
BRANCH  11  13
ATOM     13  C   UNL d   1      12.059   7.686  -4.004  0.00  0.00     0.250 C 
BRANCH  13  14
ATOM     14  C   UNL d   1      12.789   8.618  -3.037  0.00  0.00     0.035 C 
ATOM     15  C   UNL d   1      11.864   9.237  -2.024  0.00  0.00     0.002 C 
ENDBRANCH  13  14
ENDBRANCH  11  13
ENDBRANCH   1   7
BRANCH   5  16
ATOM     16  C   UNL d   1       9.275   6.471 -11.864  0.00  0.00     0.296 C 
ATOM     17  O   UNL d   1       9.315   7.605 -12.338  0.00  0.00    -0.259 OA
BRANCH  16  18
ATOM     18  O   UNL d   1       9.416   5.337 -12.571  0.00  0.00    -0.296 OA
ATOM     19  C   UNL d   1       9.572   5.404 -13.972  0.00  0.00     0.185 C 
ENDBRANCH  16  18
ENDBRANCH   5  16
TORSDOF 5
