REMARK  3 active torsions:
REMARK  status: ('A' for Active; 'I' for Inactive)
REMARK    1  A    between atoms: C_8  and  N_9 
REMARK    2  A    between atoms: N_12  and  C_13 
REMARK    3  A    between atoms: C_13  and  C_14 
ROOT
ATOM      1  N   UNL d   1       7.975   3.746 -13.988  0.00  0.00    -0.343 N 
ATOM      2  C   UNL d   1       6.825   4.300 -13.268  0.00  0.00     0.137 C 
ATOM      3  C   UNL d   1       7.013   4.229 -11.741  0.00  0.00     0.274 C 
ATOM      4  N   UNL d   1       8.280   4.847 -11.363  0.00  0.00     0.141 N 
ATOM      5  C   UNL d   1       9.367   4.162 -12.063  0.00  0.00     0.274 C 
ATOM      6  C   UNL d   1       9.266   4.271 -13.589  0.00  0.00     0.137 C 
ENDROOT
BRANCH   4   7
ATOM      7  C   UNL d   1       8.543   4.796  -9.920  0.00  0.00     0.251 C 
BRANCH   7   8
ATOM      8  C   UNL d   1       9.062   6.141  -9.359  0.00  0.00     0.038 C 
ATOM      9  C   UNL d   1       9.734   5.974  -7.961  0.00  0.00     0.030 C 
ATOM     10  C   UNL d   1      10.471   7.213  -7.517  0.00  0.00    -0.007 A 
ATOM     11  C   UNL d   1      10.728   8.207  -8.409  0.00  0.00     0.055 A 
ATOM     12  C   UNL d   1      11.057   7.639  -6.259  0.00  0.00     0.017 A 
ATOM     13  C   UNL d   1      10.353   8.311  -9.828  0.00  0.00     0.046 C 
ATOM     14  N   UNL d   1      11.422   9.200  -7.798  0.00  0.00    -0.250 NA
ATOM     15  C   UNL d   1       9.884   6.983 -10.373  0.00  0.00     0.009 C 
ATOM     16  C   UNL d   1      11.629   8.932  -6.482  0.00  0.00     0.081 A 
ATOM     17  C   UNL d   1      12.278   9.675  -5.480  0.00  0.00     0.021 A 
ATOM     18  C   UNL d   1      12.394   9.147  -4.197  0.00  0.00     0.031 A 
ATOM     19  C   UNL d   1      11.846   7.863  -3.933  0.00  0.00     0.140 A 
ATOM     20  F   UNL d   1      11.934   7.336  -2.699  0.00  0.00    -0.204 F 
ATOM     21  C   UNL d   1      11.195   7.132  -4.950  0.00  0.00     0.031 A 
ENDBRANCH   7   8
ENDBRANCH   4   7
BRANCH   1  22
ATOM     22  C   UNL d   1       7.879   2.675 -14.890  0.00  0.00     0.081 A 
ATOM     23  C   UNL d   1       8.696   2.629 -16.051  0.00  0.00     0.019 A 
ATOM     24  C   UNL d   1       8.516   1.625 -17.038  0.00  0.00     0.003 A 
ATOM     25  C   UNL d   1       7.529   0.628 -16.878  0.00  0.00     0.021 A 
ATOM     26  C   UNL d   1       6.749   0.689 -15.716  0.00  0.00     0.111 A 
ATOM     27  N   UNL d   1       5.724  -0.124 -15.261  0.00  0.00    -0.184 NA
ATOM     28  C   UNL d   1       6.915   1.661 -14.751  0.00  0.00     0.138 A 
ATOM     29  C   UNL d   1       5.262   0.362 -14.045  0.00  0.00     0.392 A 
ATOM     30  O   UNL d   1       4.336  -0.066 -13.366  0.00  0.00    -0.236 OA
ATOM     31  O   UNL d   1       6.022   1.443 -13.742  0.00  0.00    -0.255 OA
ENDBRANCH   1  22
TORSDOF 3
