REMARK  3 active torsions:
REMARK  status: ('A' for Active; 'I' for Inactive)
REMARK    1  A    between atoms: C_2  and  C_3 
REMARK    2  A    between atoms: C_3  and  N_4 
REMARK    3  A    between atoms: C_12  and  O_13 
ROOT
ATOM      1  N   UNL d   1       8.870   2.782 -15.453  0.00  0.00     0.140 N 
ATOM      2  C   UNL d   1       8.365   3.228 -14.159  0.00  0.00     0.251 C 
ATOM      3  C   UNL d   1       7.003   2.546 -14.080  0.00  0.00     0.042 C 
ATOM      4  C   UNL d   1       7.328   1.150 -14.600  0.00  0.00     0.055 C 
ATOM      5  C   UNL d   1       6.120   0.329 -15.042  0.00  0.00    -0.023 A 
ATOM      6  C   UNL d   1       5.057   0.140 -14.133  0.00  0.00    -0.004 A 
ATOM      7  C   UNL d   1       3.931  -0.616 -14.504  0.00  0.00     0.002 A 
ATOM      8  C   UNL d   1       3.874  -1.214 -15.774  0.00  0.00     0.024 A 
ATOM      9  C   UNL d   1       4.931  -1.044 -16.703  0.00  0.00     0.090 A 
ATOM     10  C   UNL d   1       6.050  -0.259 -16.332  0.00  0.00    -0.004 A 
ATOM     11  C   UNL d   1       7.192  -0.065 -17.321  0.00  0.00     0.030 C 
ATOM     12  C   UNL d   1       7.913   1.266 -17.109  0.00  0.00     0.038 C 
ATOM     13  C   UNL d   1       8.414   1.404 -15.665  0.00  0.00     0.224 C 
ENDROOT
BRANCH   1  14
ATOM     14  C   UNL d   1      10.310   2.938 -15.620  0.00  0.00     0.276 C 
BRANCH  14  15
ATOM     15  C   UNL d   1      10.749   4.385 -15.526  0.00  0.00     0.009 C 
ATOM     16  C   UNL d   1      11.837   4.804 -14.862  0.00  0.00    -0.003 C 
ENDBRANCH  14  15
ENDBRANCH   1  14
BRANCH   9  17
ATOM     17  O   UNL d   1       4.928  -1.600 -17.968  0.00  0.00    -0.328 OA
ATOM     18  C   UNL d   1       3.881  -2.497 -18.309  0.00  0.00     0.181 C 
ENDBRANCH   9  17
TORSDOF 3
