REMARK  5 active torsions:
REMARK  status: ('A' for Active; 'I' for Inactive)
REMARK       I    between atoms: C_2  and  N_3 
REMARK    1  A    between atoms: C_2  and  C_24 
REMARK    2  A    between atoms: N_3  and  C_4 
REMARK    3  A    between atoms: C_4  and  C_5 
REMARK    4  A    between atoms: C_10  and  C_11 
REMARK    5  A    between atoms: C_11  and  N_12 
ROOT
ATOM      1  C   UNL d   1       9.147   6.436 -10.039  0.00  0.00     0.000 C 
ATOM      2  C   UNL d   1      10.022   7.554 -10.038  0.00  0.00    -0.003 C 
ATOM      3  C   UNL d   1      10.155   8.391 -11.143  0.00  0.00    -0.000 C 
ATOM      4  C   UNL d   1       9.377   8.181 -12.282  0.00  0.00    -0.000 C 
ATOM      5  C   UNL d   1       8.416   7.183 -12.257  0.00  0.00    -0.003 C 
ATOM      6  C   UNL d   1       8.367   6.221 -11.209  0.00  0.00     0.009 C 
ENDROOT
BRANCH   6   7
ATOM      7  C   UNL d   1       7.421   5.025 -11.358  0.00  0.00     0.277 C 
BRANCH   7   8
ATOM      8  N   UNL d   1       7.715   4.042 -12.408  0.00  0.00     0.146 N 
ATOM      9  C   UNL d   1       8.610   4.551 -13.430  0.00  0.00     0.277 C 
ATOM     10  C   UNL d   1       8.895   3.716 -14.596  0.00  0.00     0.009 A 
ATOM     11  C   UNL d   1       7.977   2.715 -14.939  0.00  0.00    -0.020 A 
ATOM     12  C   UNL d   1       9.948   4.082 -15.444  0.00  0.00     0.027 A 
ATOM     13  C   UNL d   1       6.765   2.461 -14.044  0.00  0.00     0.061 C 
ATOM     14  C   UNL d   1       8.185   1.982 -16.112  0.00  0.00     0.025 A 
ATOM     15  C   UNL d   1       6.473   3.607 -13.042  0.00  0.00     0.256 C 
ATOM     16  C   UNL d   1       9.289   2.283 -16.941  0.00  0.00     0.156 A 
ATOM     17  O   UNL d   1       9.505   1.544 -18.057  0.00  0.00    -0.188 OA
ATOM     18  C   UNL d   1      10.161   3.347 -16.621  0.00  0.00     0.156 A 
ATOM     19  O   UNL d   1      11.227   3.644 -17.421  0.00  0.00    -0.188 OA
ENDBRANCH   7   8
ENDBRANCH   6   7
BRANCH   1  20
ATOM     20  C   UNL d   1       9.013   5.584  -8.774  0.00  0.00     0.155 C 
BRANCH  20  21
ATOM     21  N   UNL d   1       9.307   6.308  -7.539  0.00  0.00    -0.229 NA
ATOM     22  C   UNL d   1      10.506   6.463  -6.997  0.00  0.00     0.275 C 
ATOM     23  O   UNL d   1      11.455   5.748  -7.217  0.00  0.00    -0.266 OA
BRANCH  22  24
ATOM     24  C   UNL d   1      10.710   7.616  -6.127  0.00  0.00     0.058 A 
ATOM     25  C   UNL d   1      11.276   7.459  -4.843  0.00  0.00     0.011 A 
ATOM     26  C   UNL d   1      11.508   8.594  -4.046  0.00  0.00     0.035 A 
ATOM     27  C   UNL d   1      11.189   9.872  -4.529  0.00  0.00     0.007 A 
ATOM     28 BR   UNL d   1      12.230   8.382  -2.304  0.00  0.00    -0.049 Br
ATOM     29  C   UNL d   1      10.701  10.023  -5.832  0.00  0.00     0.001 A 
ATOM     30  C   UNL d   1      10.447   8.903  -6.632  0.00  0.00     0.005 A 
ENDBRANCH  22  24
ENDBRANCH  20  21
ENDBRANCH   1  20
TORSDOF 5
