REMARK  7 active torsions:
REMARK  status: ('A' for Active; 'I' for Inactive)
REMARK    1  A    between atoms: C_2  and  C_3 
REMARK       I    between atoms: C_2  and  N_10 
REMARK    2  A    between atoms: C_3  and  C_4 
REMARK    3  A    between atoms: N_10  and  C_11 
REMARK    4  A    between atoms: C_14  and  C_15 
REMARK    5  A    between atoms: C_15  and  C_16 
REMARK    6  A    between atoms: C_16  and  N_17 
REMARK    7  A    between atoms: C_20  and  C_21 
ROOT
ATOM      1  C   UNL d   1       9.420   6.138 -11.435  0.00  0.00     0.035 C 
ENDROOT
BRANCH   1   2
ATOM      2  C   UNL d   1       9.486   7.296 -10.454  0.00  0.00     0.002 C 
ATOM      3  C   UNL d   1       9.242   6.814  -9.013  0.00  0.00     0.002 C 
ATOM      4  C   UNL d   1       9.383   7.974  -8.035  0.00  0.00     0.024 C 
ATOM      5  C   UNL d   1      10.795   8.615  -8.158  0.00  0.00     0.106 C 
ATOM      6  C   UNL d   1      10.982   9.156  -9.571  0.00  0.00     0.024 C 
ATOM      7  C   UNL d   1      10.830   8.000 -10.551  0.00  0.00     0.002 C 
BRANCH   5   8
ATOM      8  N   UNL d   1      10.970   9.709  -7.233  0.00  0.00    -0.240 NA
ATOM      9  C   UNL d   1      10.888   9.641  -5.904  0.00  0.00     0.251 C 
ATOM     10  O   UNL d   1      10.760  10.654  -5.229  0.00  0.00    -0.271 OA
BRANCH   9  11
ATOM     11  C   UNL d   1      10.881   8.260  -5.255  0.00  0.00     0.090 C 
BRANCH  11  12
ATOM     12  C   UNL d   1      11.928   8.108  -4.159  0.00  0.00     0.014 C 
ATOM     13  C   UNL d   1      11.777   9.121  -3.031  0.00  0.00     0.033 C 
ATOM     14  C   UNL d   1      12.770   8.810  -1.924  0.00  0.00     0.142 C 
ATOM     15  O   UNL d   1      12.644   7.466  -1.509  0.00  0.00    -0.354 OA
ATOM     16  C   UNL d   1      12.835   6.502  -2.517  0.00  0.00     0.142 C 
ATOM     17  C   UNL d   1      11.846   6.665  -3.653  0.00  0.00     0.033 C 
ENDBRANCH  11  12
ENDBRANCH   9  11
ENDBRANCH   5   8
ENDBRANCH   1   2
BRANCH   1  18
ATOM     18  C   UNL d   1       8.018   5.523 -11.556  0.00  0.00     0.250 C 
BRANCH  18  19
ATOM     19  N   UNL d   1       7.880   4.719 -12.768  0.00  0.00     0.137 N 
ATOM     20  C   UNL d   1       9.024   3.829 -12.988  0.00  0.00     0.251 C 
ATOM     21  C   UNL d   1       8.861   3.130 -14.333  0.00  0.00     0.040 C 
ATOM     22  C   UNL d   1       7.575   2.289 -14.411  0.00  0.00     0.026 C 
ATOM     23  C   UNL d   1       6.380   3.173 -13.968  0.00  0.00     0.040 C 
ATOM     24  C   UNL d   1       6.653   3.930 -12.656  0.00  0.00     0.251 C 
BRANCH  22  25
ATOM     25  C   UNL d   1       7.360   1.659 -15.787  0.00  0.00    -0.024 A 
ATOM     26  C   UNL d   1       6.393   0.644 -15.970  0.00  0.00    -0.001 A 
ATOM     27  C   UNL d   1       6.170   0.068 -17.216  0.00  0.00     0.090 A 
ATOM     28  C   UNL d   1       5.457   0.021 -14.975  0.00  0.00     0.061 C 
ATOM     29  C   UNL d   1       6.908   0.471 -18.340  0.00  0.00     0.024 A 
ATOM     30  O   UNL d   1       5.176  -0.876 -17.192  0.00  0.00    -0.331 OA
ATOM     31  C   UNL d   1       7.907   1.459 -18.174  0.00  0.00     0.002 A 
ATOM     32  C   UNL d   1       8.137   2.042 -16.908  0.00  0.00    -0.004 A 
ATOM     33  C   UNL d   1       4.757  -1.058 -15.830  0.00  0.00     0.154 C 
ENDBRANCH  22  25
ENDBRANCH  18  19
ENDBRANCH   1  18
TORSDOF 7
