REMARK  7 active torsions:
REMARK  status: ('A' for Active; 'I' for Inactive)
REMARK       I    between atoms: C_2  and  N_4 
REMARK    1  A    between atoms: N_4  and  C_5 
REMARK    2  A    between atoms: C_9  and  C_10 
REMARK    3  A    between atoms: N_13  and  C_14 
REMARK    4  A    between atoms: C_14  and  C_15 
REMARK    5  A    between atoms: C_15  and  C_16 
REMARK    6  A    between atoms: C_16  and  C_17 
REMARK    7  A    between atoms: C_17  and  C_19 
ROOT
ATOM      1  C   UNL d   1       8.404   5.366 -12.371  0.00  0.00     0.026 C 
ATOM      2  C   UNL d   1       9.565   6.366 -12.310  0.00  0.00     0.040 C 
ATOM      3  C   UNL d   1       9.526   7.280 -11.095  0.00  0.00     0.251 C 
ATOM      4  N   UNL d   1       9.546   6.478  -9.871  0.00  0.00     0.137 N 
ATOM      5  C   UNL d   1       8.370   5.605  -9.836  0.00  0.00     0.251 C 
ATOM      6  C   UNL d   1       8.376   4.634 -11.014  0.00  0.00     0.040 C 
ENDROOT
BRANCH   4   7
ATOM      7  C   UNL d   1       9.485   7.358  -8.714  0.00  0.00     0.251 C 
BRANCH   7   8
ATOM      8  C   UNL d   1      10.816   8.142  -8.552  0.00  0.00     0.043 C 
BRANCH   8   9
ATOM      9  C   UNL d   1      11.091   8.649  -7.129  0.00  0.00     0.071 C 
BRANCH   9  10
ATOM     10  C   UNL d   1      11.114   7.542  -6.071  0.00  0.00     0.173 C 
ATOM     11  O   UNL d   1      10.899   6.385  -6.389  0.00  0.00    -0.291 OA
BRANCH  10  12
ATOM     12  C   UNL d   1      11.493   7.927  -4.689  0.00  0.00     0.035 A 
ATOM     13  C   UNL d   1      11.856   6.919  -3.762  0.00  0.00     0.003 A 
ATOM     14  C   UNL d   1      12.257   7.247  -2.452  0.00  0.00     0.000 A 
ATOM     15  C   UNL d   1      12.267   8.598  -2.060  0.00  0.00     0.000 A 
ATOM     16  C   UNL d   1      11.865   9.601  -2.970  0.00  0.00     0.000 A 
ATOM     17  C   UNL d   1      11.491   9.276  -4.277  0.00  0.00     0.003 A 
ENDBRANCH  10  12
ENDBRANCH   9  10
ENDBRANCH   8   9
ENDBRANCH   7   8
ENDBRANCH   4   7
BRANCH   1  18
ATOM     18  C   UNL d   1       8.559   4.397 -13.548  0.00  0.00    -0.021 A 
ATOM     19  C   UNL d   1       9.590   4.528 -14.514  0.00  0.00    -0.004 A 
ATOM     20  C   UNL d   1       9.711   3.604 -15.562  0.00  0.00     0.001 A 
ATOM     21  C   UNL d   1       8.803   2.534 -15.665  0.00  0.00     0.019 A 
ATOM     22  C   UNL d   1       7.767   2.384 -14.721  0.00  0.00     0.084 A 
ATOM     23  C   UNL d   1       7.645   3.332 -13.669  0.00  0.00     0.015 A 
BRANCH  22  24
ATOM     24  N   UNL d   1       6.889   1.280 -14.898  0.00  0.00    -0.212 NA
ATOM     25  C   UNL d   1       5.857   0.857 -14.137  0.00  0.00     0.256 C 
ATOM     26  C   UNL d   1       5.115  -0.368 -14.649  0.00  0.00     0.100 C 
ATOM     27  O   UNL d   1       5.466   1.386 -13.098  0.00  0.00    -0.270 OA
ENDBRANCH  22  24
ENDBRANCH   1  18
TORSDOF 7
