REMARK  3 active torsions:
REMARK  status: ('A' for Active; 'I' for Inactive)
REMARK    1  A    between atoms: C_14  and  N_15 
REMARK    2  A    between atoms: N_18  and  C_19 
REMARK    3  A    between atoms: C_19  and  C_20 
ROOT
ATOM      1  C   UNL d   1      10.648   2.878 -21.927  0.00  0.00     0.023 C 
ATOM      2  C   UNL d   1      10.029   3.466 -20.641  0.00  0.00     0.075 C 
ATOM      3  C   UNL d   1      10.301   4.989 -20.575  0.00  0.00     0.023 C 
ATOM      4  C   UNL d   1       8.500   3.224 -20.628  0.00  0.00     0.049 C 
ATOM      5  C   UNL d   1       8.267   2.070 -19.680  0.00  0.00    -0.005 A 
ATOM      6  C   UNL d   1       7.127   1.294 -19.391  0.00  0.00    -0.003 A 
ATOM      7  C   UNL d   1       7.266   0.173 -18.538  0.00  0.00    -0.001 A 
ATOM      8  C   UNL d   1       8.542  -0.218 -18.069  0.00  0.00    -0.003 A 
ATOM      9  C   UNL d   1       9.693   0.541 -18.373  0.00  0.00    -0.006 A 
ATOM     10  C   UNL d   1       9.499   1.731 -19.118  0.00  0.00     0.054 A 
ATOM     11  N   UNL d   1      10.479   2.702 -19.458  0.00  0.00    -0.302 N 
ATOM     12  C   UNL d   1      11.606   2.983 -18.725  0.00  0.00     0.269 C 
ATOM     13  O   UNL d   1      12.540   3.630 -19.177  0.00  0.00    -0.270 OA
ATOM     14  C   UNL d   1      11.718   2.460 -17.270  0.00  0.00     0.297 C 
ATOM     15  C   UNL d   1      11.979   0.940 -17.284  0.00  0.00     0.048 C 
ATOM     16  C   UNL d   1      11.132   0.093 -18.236  0.00  0.00     0.030 C 
ENDROOT
BRANCH  14  17
ATOM     17  N   UNL d   1      10.649   2.950 -16.369  0.00  0.00     0.148 N 
ATOM     18  C   UNL d   1      10.364   2.064 -15.241  0.00  0.00     0.286 C 
ATOM     19  C   UNL d   1       9.225   2.621 -14.330  0.00  0.00     0.286 C 
ATOM     20  N   UNL d   1       9.588   3.902 -13.767  0.00  0.00     0.146 N 
ATOM     21  C   UNL d   1       9.862   4.807 -14.876  0.00  0.00     0.286 C 
ATOM     22  C   UNL d   1      10.948   4.290 -15.851  0.00  0.00     0.286 C 
BRANCH  20  23
ATOM     23  C   UNL d   1       8.527   4.414 -12.887  0.00  0.00     0.277 C 
BRANCH  23  24
ATOM     24  C   UNL d   1       9.000   5.457 -11.907  0.00  0.00     0.011 A 
ATOM     25  C   UNL d   1       8.982   6.825 -12.252  0.00  0.00    -0.002 A 
ATOM     26  C   UNL d   1       9.414   7.796 -11.335  0.00  0.00     0.011 A 
ATOM     27  C   UNL d   1       9.857   7.414 -10.046  0.00  0.00     0.058 A 
ATOM     28  C   UNL d   1       9.859   6.053  -9.693  0.00  0.00     0.011 A 
ATOM     29 CL   UNL d   1      10.450   8.602  -8.953  0.00  0.00    -0.082 Cl
ATOM     30  C   UNL d   1       9.459   5.080 -10.615  0.00  0.00    -0.002 A 
ENDBRANCH  23  24
ENDBRANCH  20  23
ENDBRANCH  14  17
TORSDOF 3
