REMARK  5 active torsions:
REMARK  status: ('A' for Active; 'I' for Inactive)
REMARK    1  A    between atoms: N_5  and  C_6 
REMARK    2  A    between atoms: C_6  and  C_7 
REMARK    3  A    between atoms: C_7  and  C_8 
REMARK    4  A    between atoms: C_8  and  N_9 
REMARK       I    between atoms: N_9  and  C_10 
REMARK    5  A    between atoms: C_10  and  C_12 
ROOT
ATOM      1  N   UNL d   1       9.745   7.396  -9.227  0.00  0.00    -0.233 NA
ATOM      2  C   UNL d   1       9.918   6.704  -8.096  0.00  0.00     0.293 C 
ATOM      3  O   UNL d   1       9.629   5.505  -8.032  0.00  0.00    -0.264 OA
ENDROOT
BRANCH   2   4
ATOM      4  C   UNL d   1      10.479   7.476  -6.984  0.00  0.00     0.142 A 
ATOM      5  N   UNL d   1      10.945   6.755  -5.902  0.00  0.00    -0.240 NA
ATOM      6  C   UNL d   1      11.459   7.366  -4.754  0.00  0.00     0.085 A 
ATOM      7  C   UNL d   1      11.525   8.767  -4.656  0.00  0.00     0.057 A 
ATOM      8  C   UNL d   1      11.884   6.599  -3.673  0.00  0.00     0.019 A 
ATOM      9  C   UNL d   1      11.054   9.575  -5.804  0.00  0.00     0.199 A 
ATOM     10  C   UNL d   1      12.030   9.340  -3.470  0.00  0.00     0.005 A 
ATOM     11  C   UNL d   1      10.508   8.835  -6.967  0.00  0.00     0.066 A 
ATOM     12  O   UNL d   1      11.098  10.786  -5.777  0.00  0.00    -0.286 OA
ATOM     13  C   UNL d   1      12.479   8.555  -2.392  0.00  0.00     0.000 A 
ATOM     14  C   UNL d   1      12.392   7.157  -2.495  0.00  0.00     0.002 A 
ENDBRANCH   2   4
BRANCH   1  15
ATOM     15  C   UNL d   1       9.059   6.895 -10.417  0.00  0.00     0.131 C 
BRANCH  15  16
ATOM     16  C   UNL d   1       9.950   5.971 -11.223  0.00  0.00     0.062 C 
BRANCH  16  17
ATOM     17  C   UNL d   1       9.542   5.859 -12.704  0.00  0.00     0.253 C 
BRANCH  17  18
ATOM     18  N   UNL d   1      10.239   4.811 -13.445  0.00  0.00     0.141 N 
ATOM     19  C   UNL d   1      10.172   5.026 -14.894  0.00  0.00     0.285 C 
ATOM     20  C   UNL d   1      10.853   3.903 -15.694  0.00  0.00     0.285 C 
ATOM     21  N   UNL d   1      10.249   2.606 -15.417  0.00  0.00     0.143 N 
ATOM     22  C   UNL d   1      10.888   1.540 -16.159  0.00  0.00     0.285 C 
ATOM     23  C   UNL d   1      10.308   2.369 -13.980  0.00  0.00     0.285 C 
ATOM     24  C   UNL d   1       9.641   3.496 -13.173  0.00  0.00     0.285 C 
ENDBRANCH  17  18
ENDBRANCH  16  17
ENDBRANCH  15  16
ENDBRANCH   1  15
TORSDOF 5
