REMARK  6 active torsions:
REMARK  status: ('A' for Active; 'I' for Inactive)
REMARK    1  A    between atoms: C_2  and  O_5 
REMARK    2  A    between atoms: O_5  and  C_6 
REMARK       I    between atoms: C_6  and  N_8 
REMARK    3  A    between atoms: N_8  and  C_9 
REMARK    4  A    between atoms: C_12  and  C_13 
REMARK    5  A    between atoms: C_13  and  C_14 
REMARK    6  A    between atoms: C_14  and  N_15 
ROOT
ATOM      1  C   UNL d   1      10.457   8.131  -7.229  0.00  0.00     0.109 C 
ATOM      2  C   UNL d   1       8.979   7.721  -7.246  0.00  0.00     0.025 C 
ATOM      3  C   UNL d   1       8.840   6.404  -8.026  0.00  0.00     0.002 C 
ATOM      4  C   UNL d   1       9.390   6.542  -9.459  0.00  0.00     0.002 C 
ATOM      5  C   UNL d   1      10.825   7.048  -9.427  0.00  0.00     0.002 C 
ATOM      6  C   UNL d   1      11.007   8.327  -8.632  0.00  0.00     0.025 C 
ENDROOT
BRANCH   4   7
ATOM      7  C   UNL d   1       9.295   5.220 -10.225  0.00  0.00     0.035 C 
BRANCH   7   8
ATOM      8  C   UNL d   1       7.877   5.011 -10.773  0.00  0.00     0.251 C 
BRANCH   8   9
ATOM      9  N   UNL d   1       7.597   5.677 -12.043  0.00  0.00     0.142 N 
ATOM     10  C   UNL d   1       8.283   5.089 -13.181  0.00  0.00     0.276 C 
ATOM     11  C   UNL d   1       7.720   3.743 -13.617  0.00  0.00     0.007 A 
ATOM     12  C   UNL d   1       6.415   3.355 -13.261  0.00  0.00    -0.022 A 
ATOM     13  C   UNL d   1       8.528   2.875 -14.386  0.00  0.00    -0.003 A 
ATOM     14  C   UNL d   1       5.561   4.262 -12.396  0.00  0.00     0.061 C 
ATOM     15  C   UNL d   1       5.912   2.095 -13.663  0.00  0.00    -0.004 A 
ATOM     16  C   UNL d   1       6.150   5.699 -12.287  0.00  0.00     0.255 C 
ATOM     17  C   UNL d   1       6.713   1.249 -14.456  0.00  0.00    -0.000 A 
ATOM     18  C   UNL d   1       8.019   1.635 -14.814  0.00  0.00    -0.000 A 
ENDBRANCH   8   9
ENDBRANCH   7   8
ENDBRANCH   4   7
BRANCH   1  19
ATOM     19  N   UNL d   1      10.618   9.397  -6.550  0.00  0.00    -0.214 NA
ATOM     20  C   UNL d   1      10.815   9.591  -5.185  0.00  0.00     0.383 C 
ATOM     21  O   UNL d   1      10.724  10.678  -4.648  0.00  0.00    -0.236 OA
BRANCH  20  22
ATOM     22  O   UNL d   1      11.075   8.402  -4.548  0.00  0.00    -0.289 OA
BRANCH  22  23
ATOM     23  C   UNL d   1      11.791   8.218  -3.305  0.00  0.00     0.103 C 
ATOM     24  C   UNL d   1      11.266   7.050  -2.447  0.00  0.00     0.030 C 
ATOM     25  C   UNL d   1      12.054   9.476  -2.463  0.00  0.00     0.030 C 
ATOM     26  C   UNL d   1      13.103   7.755  -3.838  0.00  0.00     0.030 C 
ENDBRANCH  22  23
ENDBRANCH  20  22
ENDBRANCH   1  19
TORSDOF 6
