REMARK  6 active torsions:
REMARK  status: ('A' for Active; 'I' for Inactive)
REMARK    1  A    between atoms: C_2  and  C_3 
REMARK    2  A    between atoms: C_3  and  C_4 
REMARK    3  A    between atoms: C_4  and  C_5 
REMARK    4  A    between atoms: C_5  and  C_6 
REMARK    5  A    between atoms: C_6  and  C_7 
REMARK    6  A    between atoms: C_20  and  C_21 
ROOT
ATOM      1  C   UNL d   1       8.995   5.889 -10.339  0.00  0.00    -0.022 A 
ATOM      2  C   UNL d   1       9.440   7.035 -11.022  0.00  0.00    -0.005 A 
ATOM      3  C   UNL d   1      10.274   7.959 -10.394  0.00  0.00    -0.004 A 
ATOM      4  C   UNL d   1      10.778   7.668  -9.108  0.00  0.00    -0.020 A 
ATOM      5  C   UNL d   1      10.367   6.503  -8.439  0.00  0.00    -0.022 A 
ATOM      6  C   UNL d   1       9.454   5.614  -9.037  0.00  0.00    -0.009 A 
ATOM      7  C   UNL d   1      10.918   6.221  -7.065  0.00  0.00     0.052 C 
ATOM      8  C   UNL d   1      11.232   7.481  -6.292  0.00  0.00    -0.021 C 
ATOM      9  C   UNL d   1      11.174   7.446  -4.897  0.00  0.00    -0.004 C 
ATOM     10  C   UNL d   1      11.386   8.645  -4.187  0.00  0.00    -0.000 C 
ATOM     11  C   UNL d   1      11.578   9.857  -4.862  0.00  0.00    -0.000 C 
ATOM     12  C   UNL d   1      11.807   9.858  -6.248  0.00  0.00    -0.004 C 
ATOM     13  C   UNL d   1      11.603   8.677  -6.973  0.00  0.00    -0.020 C 
ATOM     14  C   UNL d   1      11.752   8.646  -8.483  0.00  0.00     0.083 C 
ENDROOT
BRANCH   1  15
ATOM     15  C   UNL d   1       8.090   4.903 -11.018  0.00  0.00     0.026 C 
BRANCH  15  16
ATOM     16  C   UNL d   1       6.987   5.563 -11.889  0.00  0.00     0.005 C 
BRANCH  16  17
ATOM     17  C   UNL d   1       5.920   4.599 -12.372  0.00  0.00     0.000 C 
BRANCH  17  18
ATOM     18  C   UNL d   1       6.425   3.519 -13.341  0.00  0.00     0.000 C 
BRANCH  18  19
ATOM     19  C   UNL d   1       5.674   2.207 -13.141  0.00  0.00     0.000 C 
ATOM     20  C   UNL d   1       6.182   1.128 -14.092  0.00  0.00     0.000 C 
ENDBRANCH  18  19
ENDBRANCH  17  18
ENDBRANCH  16  17
ENDBRANCH  15  16
ENDBRANCH   1  15
BRANCH  14  21
ATOM     21  C   UNL d   1      13.205   8.263  -8.748  0.00  0.00     0.347 C 
ATOM     22  N   UNL d   1      13.484   7.985 -10.148  0.00  0.00     0.619 N 
ENDBRANCH  14  21
TORSDOF 6
