REMARK  8 active torsions:
REMARK  status: ('A' for Active; 'I' for Inactive)
REMARK       I    between atoms: N_2  and  C_3 
REMARK    1  A    between atoms: C_3  and  C_5 
REMARK    2  A    between atoms: C_9  and  O_10 
REMARK    3  A    between atoms: O_10  and  C_11 
REMARK    4  A    between atoms: C_11  and  C_12 
REMARK    5  A    between atoms: C_12  and  C_13 
REMARK    6  A    between atoms: C_13  and  C_14 
REMARK    7  A    between atoms: C_14  and  N_15 
REMARK    8  A    between atoms: N_18  and  C_19 
ROOT
ATOM      1  N   UNL d   1       8.647   4.417 -12.991  0.00  0.00     0.141 N 
ATOM      2  C   UNL d   1       7.281   4.073 -12.560  0.00  0.00     0.274 C 
ATOM      3  C   UNL d   1       6.437   3.603 -13.733  0.00  0.00     0.137 C 
ATOM      4  N   UNL d   1       7.114   2.510 -14.436  0.00  0.00    -0.343 N 
ATOM      5  C   UNL d   1       8.481   2.792 -14.866  0.00  0.00     0.137 C 
ATOM      6  C   UNL d   1       9.304   3.273 -13.652  0.00  0.00     0.274 C 
ENDROOT
BRANCH   1   7
ATOM      7  C   UNL d   1       9.509   4.792 -11.869  0.00  0.00     0.251 C 
BRANCH   7   8
ATOM      8  C   UNL d   1       8.922   5.879 -10.943  0.00  0.00     0.038 C 
BRANCH   8   9
ATOM      9  C   UNL d   1       9.729   6.048  -9.639  0.00  0.00     0.035 C 
BRANCH   9  10
ATOM     10  C   UNL d   1       8.780   6.309  -8.436  0.00  0.00     0.149 C 
BRANCH  10  11
ATOM     11  O   UNL d   1       9.431   6.197  -7.193  0.00  0.00    -0.331 OA
BRANCH  11  12
ATOM     12  C   UNL d   1      10.183   7.257  -6.766  0.00  0.00     0.094 A 
ATOM     13  C   UNL d   1      10.398   8.452  -7.504  0.00  0.00     0.024 A 
ATOM     14  C   UNL d   1      11.199   9.469  -6.969  0.00  0.00     0.002 A 
ATOM     15  C   UNL d   1      11.751   9.335  -5.689  0.00  0.00     0.005 A 
ATOM     16  C   UNL d   1      11.518   8.157  -4.944  0.00  0.00     0.059 A 
ATOM     17  C   UNL d   1      10.771   7.114  -5.503  0.00  0.00     0.029 A 
BRANCH  16  18
ATOM     18  C   UNL d   1      12.120   7.984  -3.598  0.00  0.00     0.275 C 
ATOM     19  N   UNL d   1      12.073   9.078  -2.841  0.00  0.00    -0.232 NA
ATOM     20  C   UNL d   1      12.493   9.087  -1.460  0.00  0.00     0.155 C 
ATOM     21  O   UNL d   1      12.540   6.893  -3.210  0.00  0.00    -0.266 OA
ENDBRANCH  16  18
ENDBRANCH  11  12
ENDBRANCH  10  11
ENDBRANCH   9  10
ENDBRANCH   8   9
ENDBRANCH   7   8
ENDBRANCH   1   7
BRANCH   4  22
ATOM     22  C   UNL d   1       6.444   1.333 -14.749  0.00  0.00     0.081 A 
ATOM     23  C   UNL d   1       6.614   0.670 -15.993  0.00  0.00     0.140 A 
ATOM     24  C   UNL d   1       5.920  -0.463 -16.328  0.00  0.00     0.126 A 
ATOM     25  O   UNL d   1       7.393   1.052 -17.040  0.00  0.00    -0.253 OA
ATOM     26  C   UNL d   1       4.990  -1.045 -15.449  0.00  0.00     0.027 A 
ATOM     27  O   UNL d   1       6.267  -0.856 -17.576  0.00  0.00    -0.255 OA
ATOM     28  C   UNL d   1       4.758  -0.396 -14.209  0.00  0.00     0.004 A 
ATOM     29  C   UNL d   1       5.491   0.762 -13.864  0.00  0.00     0.019 A 
ATOM     30  C   UNL d   1       7.221   0.070 -18.023  0.00  0.00     0.498 A 
ATOM     31  F   UNL d   1       6.818   0.647 -19.155  0.00  0.00    -0.147 F 
ATOM     32  F   UNL d   1       8.390  -0.526 -18.252  0.00  0.00    -0.147 F 
ENDBRANCH   4  22
TORSDOF 8
