REMARK  14 active torsions:
REMARK  status: ('A' for Active; 'I' for Inactive)
REMARK    1  A    between atoms: N_2  and  C_4 
REMARK    2  A    between atoms: C_4  and  C_5 
REMARK    3  A    between atoms: C_5  and  N_6 
REMARK    4  A    between atoms: N_6  and  C_7 
REMARK       I    between atoms: N_6  and  C_30 
REMARK    5  A    between atoms: C_7  and  C_8 
REMARK    6  A    between atoms: C_11  and  C_12 
REMARK    7  A    between atoms: C_15  and  C_16 
REMARK    8  A    between atoms: C_16  and  N_17 
REMARK    9  A    between atoms: N_17  and  C_18 
REMARK   10  A    between atoms: C_18  and  C_19 
REMARK   11  A    between atoms: C_19  and  C_20 
REMARK   12  A    between atoms: C_30  and  C_32 
REMARK   13  A    between atoms: C_32  and  C_33 
REMARK   14  A    between atoms: C_33  and  C_34 
ROOT
ATOM      1  C   UNL d   1       8.293   0.807 -17.543  0.00  0.00     0.000 A 
ATOM      2  C   UNL d   1       9.399   1.614 -17.187  0.00  0.00    -0.002 A 
ATOM      3  C   UNL d   1       9.360   2.400 -16.028  0.00  0.00    -0.000 A 
ATOM      4  C   UNL d   1       8.223   2.413 -15.192  0.00  0.00    -0.000 A 
ATOM      5  C   UNL d   1       7.121   1.601 -15.551  0.00  0.00    -0.000 A 
ATOM      6  C   UNL d   1       7.153   0.813 -16.716  0.00  0.00    -0.002 A 
ENDROOT
BRANCH   1   7
ATOM      7  C   UNL d   1       8.279  -0.072 -18.789  0.00  0.00     0.131 C 
BRANCH   7   8
ATOM      8  N   UNL d   1       9.459   0.046 -19.662  0.00  0.00    -0.314 N 
ATOM      9  C   UNL d   1      10.637  -0.525 -19.327  0.00  0.00     0.234 C 
ATOM     10  O   UNL d   1      10.779  -1.184 -18.293  0.00  0.00    -0.272 OA
BRANCH   8  11
ATOM     11  C   UNL d   1       9.242   0.792 -20.914  0.00  0.00     0.140 C 
BRANCH  11  12
ATOM     12  C   UNL d   1       9.618   2.279 -20.738  0.00  0.00     0.274 C 
BRANCH  12  13
ATOM     13  N   UNL d   1       9.406   3.049 -21.958  0.00  0.00     0.143 N 
ATOM     14  C   UNL d   1       7.990   3.127 -22.302  0.00  0.00     0.286 C 
ATOM     15  C   UNL d   1       9.901   4.403 -21.744  0.00  0.00     0.286 C 
ENDBRANCH  12  13
ENDBRANCH  11  12
ENDBRANCH   8  11
BRANCH   9  16
ATOM     16  C   UNL d   1      11.825  -0.335 -20.281  0.00  0.00     0.088 C 
BRANCH  16  17
ATOM     17  C   UNL d   1      13.202  -0.755 -19.737  0.00  0.00     0.010 C 
BRANCH  17  18
ATOM     18  C   UNL d   1      14.238  -1.040 -20.842  0.00  0.00     0.001 C 
ATOM     19  C   UNL d   1      13.917  -2.267 -21.714  0.00  0.00     0.000 C 
ATOM     20  C   UNL d   1      14.613  -2.017 -23.056  0.00  0.00     0.000 C 
ATOM     21  C   UNL d   1      15.099  -0.558 -23.056  0.00  0.00     0.000 C 
ATOM     22  C   UNL d   1      14.459   0.111 -21.836  0.00  0.00     0.000 C 
ENDBRANCH  17  18
ENDBRANCH  16  17
ENDBRANCH   9  16
ENDBRANCH   7   8
ENDBRANCH   1   7
BRANCH   4  23
ATOM     23  C   UNL d   1       8.186   3.273 -13.996  0.00  0.00    -0.000 A 
ATOM     24  C   UNL d   1       9.375   3.578 -13.289  0.00  0.00    -0.000 A 
ATOM     25  C   UNL d   1       9.347   4.385 -12.142  0.00  0.00    -0.002 A 
ATOM     26  C   UNL d   1       8.126   4.896 -11.668  0.00  0.00     0.014 A 
ATOM     27  C   UNL d   1       6.934   4.611 -12.361  0.00  0.00    -0.002 A 
ATOM     28  C   UNL d   1       6.966   3.810 -13.515  0.00  0.00    -0.000 A 
BRANCH  26  29
ATOM     29  C   UNL d   1       8.098   5.753 -10.424  0.00  0.00     0.317 C 
BRANCH  29  30
ATOM     30  N   UNL d   1       8.669   5.095  -9.262  0.00  0.00     0.344 N 
BRANCH  30  31
ATOM     31  C   UNL d   1       8.944   6.081  -8.220  0.00  0.00     0.295 C 
BRANCH  31  32
ATOM     32  C   UNL d   1      10.373   6.605  -8.344  0.00  0.00     0.065 C 
BRANCH  32  33
ATOM     33  C   UNL d   1      10.748   7.552  -7.219  0.00  0.00    -0.020 A 
ATOM     34  C   UNL d   1      10.768   8.944  -7.437  0.00  0.00    -0.004 A 
ATOM     35  C   UNL d   1      11.131   9.816  -6.390  0.00  0.00    -0.000 A 
ATOM     36  C   UNL d   1      11.471   9.303  -5.122  0.00  0.00    -0.000 A 
ATOM     37  C   UNL d   1      11.458   7.912  -4.904  0.00  0.00    -0.000 A 
ATOM     38  C   UNL d   1      11.084   7.044  -5.947  0.00  0.00    -0.004 A 
ENDBRANCH  32  33
ENDBRANCH  31  32
ENDBRANCH  30  31
ENDBRANCH  29  30
ENDBRANCH  26  29
ENDBRANCH   4  23
TORSDOF 14
