REMARK  2 active torsions:
REMARK  status: ('A' for Active; 'I' for Inactive)
REMARK    1  A    between atoms: C_8  and  N_9 
REMARK    2  A    between atoms: C_10  and  N_11 
ROOT
ATOM      1  N   UNL d   1       9.245   5.251 -10.947  0.00  0.00    -0.226 NA
ATOM      2  C   UNL d   1       8.155   5.513 -11.591  0.00  0.00     0.175 C 
ENDROOT
BRANCH   1   3
ATOM      3  C   UNL d   1       9.458   5.989  -9.780  0.00  0.00     0.083 A 
ATOM      4  C   UNL d   1       8.766   5.677  -8.578  0.00  0.00     0.019 A 
ATOM      5  C   UNL d   1       9.033   6.392  -7.388  0.00  0.00    -0.003 A 
ATOM      6  C   UNL d   1      10.015   7.398  -7.410  0.00  0.00    -0.024 A 
ATOM      7  C   UNL d   1      10.485   8.251  -6.262  0.00  0.00     0.029 C 
ATOM      8  C   UNL d   1      10.699   7.697  -8.579  0.00  0.00     0.005 A 
ATOM      9  C   UNL d   1      11.436   9.277  -6.925  0.00  0.00     0.042 C 
ATOM     10  C   UNL d   1      11.706   8.787  -8.373  0.00  0.00     0.174 C 
ATOM     11  O   UNL d   1      13.036   8.330  -8.491  0.00  0.00    -0.219 OA
ATOM     12  C   UNL d   1      10.437   7.011  -9.775  0.00  0.00     0.017 A 
ENDBRANCH   1   3
BRANCH   2  13
ATOM     13  N   UNL d   1       7.800   4.925 -12.799  0.00  0.00    -0.327 N 
ATOM     14  C   UNL d   1       6.590   4.121 -12.926  0.00  0.00     0.129 C 
ATOM     15  C   UNL d   1       6.777   2.803 -13.674  0.00  0.00    -0.004 A 
ATOM     16  C   UNL d   1       7.978   2.517 -14.372  0.00  0.00    -0.022 A 
ATOM     17  C   UNL d   1       5.756   1.836 -13.634  0.00  0.00    -0.003 A 
ATOM     18  C   UNL d   1       9.124   3.511 -14.365  0.00  0.00     0.050 C 
ATOM     19  C   UNL d   1       8.127   1.280 -15.035  0.00  0.00    -0.004 A 
ATOM     20  C   UNL d   1       8.677   4.928 -13.968  0.00  0.00     0.108 C 
ATOM     21  C   UNL d   1       7.086   0.331 -15.005  0.00  0.00    -0.000 A 
ATOM     22  C   UNL d   1       5.898   0.610 -14.307  0.00  0.00    -0.000 A 
ENDBRANCH   2  13
TORSDOF 2
