REMARK  4 active torsions:
REMARK  status: ('A' for Active; 'I' for Inactive)
REMARK    1  A    between atoms: C_5  and  O_6 
REMARK    2  A    between atoms: O_6  and  C_7 
REMARK    3  A    between atoms: C_7  and  C_8 
REMARK    4  A    between atoms: N_13  and  C_14 
ROOT
ATOM      1  C   UNL d   1       7.448   5.420 -12.606  0.00  0.00     0.064 C 
ATOM      2  C   UNL d   1       5.919   5.225 -12.602  0.00  0.00     0.007 C 
ATOM      3  C   UNL d   1       5.606   3.733 -12.544  0.00  0.00     0.035 C 
ATOM      4  C   UNL d   1       6.296   2.987 -13.706  0.00  0.00     0.242 C 
ATOM      5  C   UNL d   1       5.957   1.471 -13.598  0.00  0.00     0.153 C 
ATOM      6  N   UNL d   1       6.636   0.736 -14.653  0.00  0.00    -0.179 N 
ATOM      7  C   UNL d   1       8.077   0.949 -14.660  0.00  0.00     0.155 C 
ATOM      8  C   UNL d   1       8.391   2.462 -14.740  0.00  0.00     0.275 C 
ATOM      9  N   UNL d   1       7.738   3.200 -13.675  0.00  0.00     0.139 N 
ATOM     10  C   UNL d   1       8.104   4.606 -13.749  0.00  0.00     0.253 C 
ENDROOT
BRANCH   1  11
ATOM     11  C   UNL d   1       8.045   5.068 -11.232  0.00  0.00     0.151 C 
BRANCH  11  12
ATOM     12  O   UNL d   1       9.284   5.739 -11.052  0.00  0.00    -0.331 OA
BRANCH  12  13
ATOM     13  C   UNL d   1       9.547   6.310  -9.823  0.00  0.00     0.094 A 
ATOM     14  C   UNL d   1      10.543   7.307  -9.788  0.00  0.00     0.026 A 
ATOM     15  C   UNL d   1      10.867   7.969  -8.588  0.00  0.00     0.032 A 
ATOM     16  C   UNL d   1      10.183   7.642  -7.401  0.00  0.00     0.140 A 
ATOM     17  F   UNL d   1      10.483   8.279  -6.242  0.00  0.00    -0.204 F 
ATOM     18  C   UNL d   1       9.188   6.647  -7.420  0.00  0.00     0.032 A 
ATOM     19  C   UNL d   1       8.890   5.966  -8.614  0.00  0.00     0.026 A 
ENDBRANCH  12  13
ENDBRANCH  11  12
ENDBRANCH   1  11
BRANCH   6  20
ATOM     20  C   UNL d   1       5.957  -0.055 -15.587  0.00  0.00     0.728 A 
ATOM     21  N   UNL d   1       4.847  -0.667 -15.177  0.00  0.00    -0.057 NA
ATOM     22  C   UNL d   1       4.210  -1.458 -16.073  0.00  0.00     0.149 A 
ATOM     23  C   UNL d   1       4.686  -1.599 -17.392  0.00  0.00     0.179 A 
ATOM     24  C   UNL d   1       5.858  -0.899 -17.710  0.00  0.00     0.149 A 
ATOM     25  F   UNL d   1       4.044  -2.364 -18.307  0.00  0.00    -0.201 F 
ATOM     26  N   UNL d   1       6.493  -0.118 -16.812  0.00  0.00    -0.057 NA
ENDBRANCH   6  20
TORSDOF 4
