REMARK  3 active torsions:
REMARK  status: ('A' for Active; 'I' for Inactive)
REMARK    1  A    between atoms: N_2  and  N_4 
REMARK    2  A    between atoms: N_5  and  C_6 
REMARK    3  A    between atoms: C_10  and  C_11 
ROOT
ATOM      1  C   UNL d   1      11.190   7.911  -7.380  0.00  0.00     0.209 A 
ATOM      2  N   UNL d   1      12.161   8.574  -8.119  0.00  0.00    -0.202 NA
ATOM      3  C   UNL d   1      11.868   8.389  -9.409  0.00  0.00     0.201 A 
ATOM      4  N   UNL d   1      10.799   7.624  -9.595  0.00  0.00    -0.216 NA
ATOM      5  C   UNL d   1      10.361   7.308  -8.302  0.00  0.00     0.180 A 
ENDROOT
BRANCH   1   6
ATOM      6  N   UNL d   1      11.180   7.881  -5.994  0.00  0.00    -0.109 NA
ATOM      7  N   UNL d   1      11.686   8.767  -5.284  0.00  0.00    -0.067 NA
BRANCH   7   8
ATOM      8  N   UNL d   1      11.758   8.533  -3.932  0.00  0.00    -0.251 N 
ATOM      9  C   UNL d   1      11.841   7.154  -3.428  0.00  0.00     0.150 C 
ATOM     10  C   UNL d   1      12.025   9.702  -3.114  0.00  0.00     0.150 C 
ENDBRANCH   7   8
ENDBRANCH   1   6
BRANCH   5  11
ATOM     11  C   UNL d   1       9.166   6.468  -7.992  0.00  0.00     0.318 C 
ATOM     12  N   UNL d   1       8.695   5.778  -9.027  0.00  0.00    -0.101 N 
ATOM     13  O   UNL d   1       8.666   6.392  -6.875  0.00  0.00    -0.262 OA
ENDBRANCH   5  11
TORSDOF 3
