REMARK  7 active torsions:
REMARK  status: ('A' for Active; 'I' for Inactive)
REMARK    1  A    between atoms: C_6  and  O_7 
REMARK    2  A    between atoms: O_7  and  C_8 
REMARK    3  A    between atoms: C_8  and  C_9 
REMARK    4  A    between atoms: C_9  and  N_10 
REMARK    5  A    between atoms: C_13  and  C_14 
REMARK    6  A    between atoms: C_14  and  C_15 
REMARK    7  A    between atoms: C_19  and  N_20 
ROOT
ATOM      1  N   UNL d   1       9.625   3.449 -13.982  0.00  0.00     0.140 N 
ATOM      2  C   UNL d   1      10.599   2.400 -14.288  0.00  0.00     0.250 C 
ATOM      3  C   UNL d   1      10.459   1.952 -15.746  0.00  0.00     0.036 C 
ATOM      4  C   UNL d   1      10.655   3.121 -16.723  0.00  0.00     0.008 C 
ATOM      5  C   UNL d   1       9.735   4.274 -16.306  0.00  0.00     0.036 C 
ATOM      6  C   UNL d   1       9.889   4.623 -14.818  0.00  0.00     0.250 C 
ENDROOT
BRANCH   1   7
ATOM      7  C   UNL d   1       9.748   3.825 -12.575  0.00  0.00     0.283 C 
BRANCH   7   8
ATOM      8  C   UNL d   1       8.419   4.347 -11.995  0.00  0.00     0.184 C 
BRANCH   8   9
ATOM      9  O   UNL d   1       8.657   4.881 -10.704  0.00  0.00    -0.329 OA
BRANCH   9  10
ATOM     10  C   UNL d   1       9.107   6.178 -10.626  0.00  0.00     0.096 A 
ATOM     11  C   UNL d   1       9.608   6.643  -9.385  0.00  0.00     0.040 A 
ATOM     12  C   UNL d   1       9.657   5.811  -8.261  0.00  0.00     0.005 A 
ATOM     13  C   UNL d   1      10.085   7.967  -9.228  0.00  0.00     0.083 A 
ATOM     14  C   UNL d   1      10.176   6.340  -7.066  0.00  0.00     0.015 A 
ATOM     15  C   UNL d   1      10.621   7.659  -7.006  0.00  0.00     0.059 A 
ATOM     16  C   UNL d   1      11.180   8.223  -5.718  0.00  0.00     0.052 C 
ATOM     17  N   UNL d   1      10.582   8.469  -8.072  0.00  0.00    -0.250 NA
ATOM     18  C   UNL d   1      10.051   8.793 -10.338  0.00  0.00     0.019 A 
ATOM     19  C   UNL d   1       9.500   8.392 -11.565  0.00  0.00     0.004 A 
ATOM     20  C   UNL d   1       9.061   7.074 -11.721  0.00  0.00     0.024 A 
ENDBRANCH   9  10
ENDBRANCH   8   9
ENDBRANCH   7   8
ENDBRANCH   1   7
BRANCH   4  21
ATOM     21  C   UNL d   1      10.358   2.695 -18.169  0.00  0.00     0.026 C 
BRANCH  21  22
ATOM     22  C   UNL d   1      11.266   1.588 -18.652  0.00  0.00    -0.021 A 
ATOM     23  C   UNL d   1      12.504   1.897 -19.243  0.00  0.00     0.014 A 
ATOM     24  C   UNL d   1      13.380   0.876 -19.695  0.00  0.00     0.070 A 
ATOM     25  C   UNL d   1      12.972  -0.473 -19.533  0.00  0.00     0.018 A 
ATOM     26  C   UNL d   1      11.743  -0.774 -18.928  0.00  0.00     0.001 A 
ATOM     27  C   UNL d   1      10.892   0.244 -18.486  0.00  0.00    -0.004 A 
BRANCH  24  28
ATOM     28  N   UNL d   1      14.622   1.161 -20.303  0.00  0.00    -0.257 N 
ATOM     29  S   UNL d   1      15.905   0.056 -20.720  0.00  0.00     0.247 S 
ATOM     30  C   UNL d   1      16.786   1.292 -21.781  0.00  0.00     0.147 C 
ATOM     31  O   UNL d   1      16.671  -0.174 -19.461  0.00  0.00    -0.204 OA
ATOM     32  O   UNL d   1      15.334  -1.024 -21.580  0.00  0.00    -0.204 OA
ATOM     33  C   UNL d   1      15.901   2.543 -21.795  0.00  0.00     0.044 C 
ATOM     34  C   UNL d   1      15.009   2.530 -20.556  0.00  0.00     0.119 C 
ENDBRANCH  24  28
ENDBRANCH  21  22
ENDBRANCH   4  21
TORSDOF 7
