REMARK  6 active torsions:
REMARK  status: ('A' for Active; 'I' for Inactive)
REMARK    1  A    between atoms: C_2  and  C_4 
REMARK    2  A    between atoms: C_7  and  C_8 
REMARK       I    between atoms: C_8  and  N_10 
REMARK    3  A    between atoms: N_10  and  CA_11 
REMARK    4  A    between atoms: CA_11  and  CB_12 
REMARK    5  A    between atoms: CA_11  and  C_19 
REMARK    6  A    between atoms: CB_12  and  CG_13 
ROOT
ATOM      1  C   UNK d   0       9.707   6.325  -9.983  0.00  0.00     0.251 C 
ATOM      2  O   UNK d   0      10.635   6.778 -10.609  0.00  0.00    -0.271 OA
ATOM      3  N   PHE d   1       9.551   6.606  -8.701  0.00  0.00    -0.229 NA
ENDROOT
BRANCH   3   4
ATOM      4  CA  PHE d   1      10.590   7.275  -7.863  0.00  0.00     0.197 C 
BRANCH   4   5
ATOM      5  CB  PHE d   1      10.004   7.288  -6.447  0.00  0.00     0.062 C 
BRANCH   5   6
ATOM      6  CG  PHE d   1      10.906   7.720  -5.297  0.00  0.00    -0.020 A 
ATOM      7  CD1 PHE d   1      10.937   9.084  -4.912  0.00  0.00    -0.004 A 
ATOM      8  CE1 PHE d   1      11.774   9.497  -3.867  0.00  0.00    -0.000 A 
ATOM      9  CZ  PHE d   1      12.558   8.577  -3.177  0.00  0.00    -0.000 A 
ATOM     10  CE2 PHE d   1      12.478   7.202  -3.506  0.00  0.00    -0.000 A 
ATOM     11  CD2 PHE d   1      11.660   6.790  -4.575  0.00  0.00    -0.004 A 
ENDBRANCH   5   6
ENDBRANCH   4   5
BRANCH   4  12
ATOM     12  C   PHE d   1      11.119   8.681  -8.342  0.00  0.00     0.209 C 
ATOM     13  O   PHE d   1      11.488   9.553  -7.555  0.00  0.00    -0.646 OA
ATOM     14  OXT PHE d   1      11.257   8.967  -9.659  0.00  0.00    -0.646 OA
ENDBRANCH   4  12
ENDBRANCH   3   4
BRANCH   1  15
ATOM     15  C   UNK d   0       8.717   5.527 -10.789  0.00  0.00     0.081 C 
ATOM     16  C   UNK d   0       8.144   6.446 -11.870  0.00  0.00     0.009 C 
ATOM     17  C   UNK d   0       7.017   5.772 -12.596  0.00  0.00     0.001 C 
ATOM     18  C   UNK d   0       7.580   4.563 -13.388  0.00  0.00     0.000 C 
ATOM     19  C   UNK d   0       8.402   3.700 -12.408  0.00  0.00     0.001 C 
ATOM     20  C   UNK d   0       9.433   4.410 -11.565  0.00  0.00     0.009 C 
BRANCH  18  21
ATOM     21  C   UNK d   0       6.461   3.701 -14.045  0.00  0.00     0.000 C 
ATOM     22  C   UNK d   0       5.348   3.275 -13.068  0.00  0.00     0.000 C 
ATOM     23  C   UNK d   0       7.045   2.498 -14.829  0.00  0.00     0.000 C 
ENDBRANCH  18  21
ENDBRANCH   1  15
TORSDOF 6
