REMARK  7 active torsions:
REMARK  status: ('A' for Active; 'I' for Inactive)
REMARK    1  A    between atoms: S_2  and  C_4 
REMARK    2  A    between atoms: S_2  and  C_23 
REMARK    3  A    between atoms: C_4  and  C_5 
REMARK    4  A    between atoms: N_8  and  C_9 
REMARK    5  A    between atoms: C_9  and  C_10 
REMARK    6  A    between atoms: C_10  and  C_11 
REMARK    7  A    between atoms: C_11  and  C_12 
ROOT
ATOM      1  C   UNL d   1       8.832   4.755 -10.725  0.00  0.00     0.052 C 
ATOM      2  C   UNL d   1       9.472   4.191  -9.448  0.00  0.00     0.038 C 
ATOM      3  C   UNL d   1      10.026   5.394  -8.713  0.00  0.00     0.250 C 
ATOM      4  N   UNL d   1       9.183   6.486  -9.152  0.00  0.00     0.137 N 
ATOM      5  C   UNL d   1       9.058   6.266 -10.590  0.00  0.00     0.251 C 
ENDROOT
BRANCH   4   6
ATOM      6  C   UNL d   1       9.752   7.798  -8.875  0.00  0.00     0.251 C 
BRANCH   6   7
ATOM      7  C   UNL d   1       9.842   8.037  -7.357  0.00  0.00     0.042 C 
BRANCH   7   8
ATOM      8  C   UNL d   1      10.778   9.191  -7.012  0.00  0.00     0.050 C 
BRANCH   8   9
ATOM      9  C   UNL d   1      11.017   9.338  -5.552  0.00  0.00     0.088 A 
ATOM     10  C   UNL d   1      11.486   8.432  -4.596  0.00  0.00     0.041 A 
ATOM     11  C   UNL d   1      11.548   9.058  -3.357  0.00  0.00     0.129 A 
ATOM     12  C   UNL d   1      11.854   7.082  -4.722  0.00  0.00     0.006 A 
ATOM     13  O   UNL d   1      11.089  10.341  -3.585  0.00  0.00    -0.211 OA
ATOM     14  C   UNL d   1      11.972   8.399  -2.192  0.00  0.00     0.057 A 
ATOM     15  N   UNL d   1      10.734  10.484  -4.950  0.00  0.00    -0.131 NA
ATOM     16  C   UNL d   1      12.326   7.043  -2.319  0.00  0.00     0.142 A 
ATOM     17  F   UNL d   1      12.755   6.340  -1.251  0.00  0.00    -0.204 F 
ATOM     18  C   UNL d   1      12.260   6.405  -3.567  0.00  0.00     0.030 A 
ENDBRANCH   8   9
ENDBRANCH   7   8
ENDBRANCH   6   7
ENDBRANCH   4   6
BRANCH   1  19
ATOM     19  C   UNL d   1       9.435   4.175 -12.025  0.00  0.00     0.129 C 
BRANCH  19  20
ATOM     20  S   UNL d   1       8.446   4.560 -13.523  0.00  0.00     0.190 S 
ATOM     21  O   UNL d   1       7.460   5.588 -13.180  0.00  0.00    -0.222 OA
ATOM     22  O   UNL d   1       9.394   4.786 -14.627  0.00  0.00    -0.222 OA
BRANCH  20  23
ATOM     23  C   UNL d   1       7.551   3.057 -13.889  0.00  0.00     0.086 A 
ATOM     24  C   UNL d   1       8.188   2.045 -14.634  0.00  0.00     0.043 A 
ATOM     25  C   UNL d   1       7.520   0.832 -14.888  0.00  0.00     0.168 A 
ATOM     26  C   UNL d   1       6.224   0.619 -14.378  0.00  0.00     0.167 A 
ATOM     27  F   UNL d   1       8.129  -0.124 -15.628  0.00  0.00    -0.202 F 
ATOM     28  C   UNL d   1       5.604   1.618 -13.604  0.00  0.00     0.033 A 
ATOM     29  F   UNL d   1       5.566  -0.537 -14.635  0.00  0.00    -0.202 F 
ATOM     30  C   UNL d   1       6.259   2.846 -13.364  0.00  0.00     0.013 A 
ENDBRANCH  20  23
ENDBRANCH  19  20
ENDBRANCH   1  19
TORSDOF 7
