REMARK  7 active torsions:
REMARK  status: ('A' for Active; 'I' for Inactive)
REMARK    1  A    between atoms: C_8  and  O_9 
REMARK    2  A    between atoms: O_9  and  C_10 
REMARK    3  A    between atoms: C_10  and  C_11 
REMARK    4  A    between atoms: C_11  and  C_12 
REMARK    5  A    between atoms: C_12  and  C_13 
REMARK    6  A    between atoms: C_13  and  N_14 
REMARK    7  A    between atoms: N_17  and  C_18 
ROOT
ATOM      1  C   UNL d   1       9.067   6.707 -11.426  0.00  0.00     0.038 C 
ENDROOT
BRANCH   1   2
ATOM      2  C   UNL d   1       9.405   8.213 -11.392  0.00  0.00     0.035 C 
BRANCH   2   3
ATOM      3  C   UNL d   1      10.345   8.605 -10.229  0.00  0.00     0.151 C 
BRANCH   3   4
ATOM      4  O   UNL d   1       9.588   8.813  -9.034  0.00  0.00    -0.315 OA
BRANCH   4   5
ATOM      5  C   UNL d   1      10.161   8.282  -7.919  0.00  0.00     0.179 A 
ATOM      6  C   UNL d   1      10.516   6.924  -7.795  0.00  0.00     0.044 A 
ATOM      7  C   UNL d   1      11.139   6.526  -6.609  0.00  0.00     0.002 A 
ATOM      8  C   UNL d   1      11.300   7.427  -5.545  0.00  0.00     0.014 A 
ATOM      9  C   UNL d   1      11.956   6.993  -4.243  0.00  0.00     0.039 C 
ATOM     10  C   UNL d   1      10.914   8.762  -5.782  0.00  0.00     0.163 A 
ATOM     11  C   UNL d   1      11.771   7.941  -3.057  0.00  0.00     0.095 C 
ATOM     12  C   UNL d   1      11.624   9.394  -3.527  0.00  0.00     0.257 C 
ATOM     13  O   UNL d   1      11.839  10.289  -2.733  0.00  0.00    -0.270 OA
ATOM     14  N   UNL d   1      11.179   9.688  -4.763  0.00  0.00    -0.193 NA
ATOM     15  N   UNL d   1      10.357   9.185  -6.932  0.00  0.00    -0.204 NA
ENDBRANCH   4   5
ENDBRANCH   3   4
ENDBRANCH   2   3
ENDBRANCH   1   2
BRANCH   1  16
ATOM     16  C   UNL d   1       8.840   6.205 -12.850  0.00  0.00     0.251 C 
BRANCH  16  17
ATOM     17  N   UNL d   1       8.485   4.798 -12.844  0.00  0.00     0.141 N 
ATOM     18  C   UNL d   1       9.228   4.096 -13.901  0.00  0.00     0.274 C 
ATOM     19  C   UNL d   1       8.851   2.613 -13.949  0.00  0.00     0.137 C 
ATOM     20  N   UNL d   1       7.414   2.479 -14.123  0.00  0.00    -0.344 N 
ATOM     21  C   UNL d   1       6.569   3.218 -13.190  0.00  0.00     0.137 C 
ATOM     22  C   UNL d   1       7.044   4.670 -13.107  0.00  0.00     0.274 C 
BRANCH  20  23
ATOM     23  C   UNL d   1       6.891   1.596 -15.093  0.00  0.00     0.069 A 
ATOM     24  C   UNL d   1       5.904   0.613 -14.800  0.00  0.00     0.101 A 
ATOM     25  C   UNL d   1       5.380  -0.200 -15.821  0.00  0.00     0.152 A 
ATOM     26 CL   UNL d   1       5.332   0.392 -13.191  0.00  0.00    -0.079 Cl
ATOM     27  C   UNL d   1       5.828  -0.050 -17.144  0.00  0.00     0.031 A 
ATOM     28  F   UNL d   1       4.425  -1.111 -15.531  0.00  0.00    -0.203 F 
ATOM     29  C   UNL d   1       6.817   0.900 -17.447  0.00  0.00     0.004 A 
ATOM     30  C   UNL d   1       7.353   1.707 -16.427  0.00  0.00     0.018 A 
ENDBRANCH  20  23
ENDBRANCH  16  17
ENDBRANCH   1  16
TORSDOF 7
