REMARK  6 active torsions:
REMARK  status: ('A' for Active; 'I' for Inactive)
REMARK    1  A    between atoms: C_2  and  O_5 
REMARK    2  A    between atoms: O_5  and  C_6 
REMARK       I    between atoms: C_6  and  N_8 
REMARK    3  A    between atoms: N_8  and  C_9 
REMARK    4  A    between atoms: C_9  and  C_10 
REMARK    5  A    between atoms: C_13  and  C_14 
REMARK    6  A    between atoms: C_14  and  N_15 
ROOT
ATOM      1  C   UNL d   1       9.571   5.369 -12.525  0.00  0.00     0.025 C 
ATOM      2  C   UNL d   1       9.573   6.897 -12.234  0.00  0.00     0.002 C 
ATOM      3  C   UNL d   1      10.140   7.173 -10.837  0.00  0.00     0.002 C 
ATOM      4  C   UNL d   1       9.383   6.406  -9.735  0.00  0.00     0.033 C 
ATOM      5  C   UNL d   1       9.284   4.911 -10.021  0.00  0.00     0.002 C 
ATOM      6  C   UNL d   1       8.775   4.643 -11.432  0.00  0.00     0.002 C 
ENDROOT
BRANCH   4   7
ATOM      7  C   UNL d   1      10.120   6.626  -8.413  0.00  0.00     0.251 C 
BRANCH   7   8
ATOM      8  N   UNL d   1       9.188   7.121  -7.439  0.00  0.00     0.142 N 
ATOM      9  C   UNL d   1       9.629   6.802  -6.115  0.00  0.00     0.276 C 
ATOM     10  C   UNL d   1      10.736   7.661  -5.571  0.00  0.00     0.007 A 
ATOM     11  C   UNL d   1      10.979   8.912  -6.164  0.00  0.00    -0.022 A 
ATOM     12  C   UNL d   1      11.502   7.209  -4.489  0.00  0.00    -0.003 A 
ATOM     13  C   UNL d   1      10.113   9.371  -7.345  0.00  0.00     0.061 C 
ATOM     14  C   UNL d   1      12.021   9.720  -5.680  0.00  0.00    -0.004 A 
ATOM     15  C   UNL d   1       8.837   8.520  -7.508  0.00  0.00     0.255 C 
ATOM     16  C   UNL d   1      12.815   9.262  -4.603  0.00  0.00    -0.000 A 
ATOM     17  C   UNL d   1      12.536   8.026  -3.968  0.00  0.00    -0.000 A 
ENDBRANCH   7   8
ENDBRANCH   4   7
BRANCH   1  18
ATOM     18  C   UNL d   1       8.950   5.059 -13.908  0.00  0.00     0.131 C 
BRANCH  18  19
ATOM     19  N   UNL d   1       9.913   5.098 -14.987  0.00  0.00    -0.212 NA
ATOM     20  C   UNL d   1      10.771   4.072 -15.298  0.00  0.00     0.383 C 
ATOM     21  O   UNL d   1      10.971   3.065 -14.578  0.00  0.00    -0.236 OA
BRANCH  20  22
ATOM     22  O   UNL d   1      11.351   4.361 -16.483  0.00  0.00    -0.289 OA
BRANCH  22  23
ATOM     23  C   UNL d   1      12.387   3.604 -17.133  0.00  0.00     0.103 C 
ATOM     24  C   UNL d   1      12.156   3.785 -18.650  0.00  0.00     0.030 C 
ATOM     25  C   UNL d   1      12.361   2.092 -16.839  0.00  0.00     0.030 C 
ATOM     26  C   UNL d   1      13.729   4.236 -16.774  0.00  0.00     0.030 C 
ENDBRANCH  22  23
ENDBRANCH  20  22
ENDBRANCH  18  19
ENDBRANCH   1  18
TORSDOF 6
