REMARK  10 active torsions:
REMARK  status: ('A' for Active; 'I' for Inactive)
REMARK    1  A    between atoms: C_2  and  C_5 
REMARK    2  A    between atoms: C_5  and  N_6 
REMARK       I    between atoms: N_6  and  C_7 
REMARK       I    between atoms: C_7  and  N_9 
REMARK    3  A    between atoms: N_9  and  C_10 
REMARK    4  A    between atoms: C_10  and  C_11 
REMARK    5  A    between atoms: C_11  and  C_12 
REMARK    6  A    between atoms: C_12  and  C_13 
REMARK    7  A    between atoms: C_13  and  N_14 
REMARK    8  A    between atoms: N_17  and  C_18 
REMARK    9  A    between atoms: C_20  and  C_21 
REMARK   10  A    between atoms: C_26  and  C_27 
ROOT
ATOM      1  N   UNL d   1      11.067   4.071 -15.085  0.00  0.00     0.141 N 
ATOM      2  C   UNL d   1      10.203   5.008 -15.820  0.00  0.00     0.274 C 
ATOM      3  C   UNL d   1      11.022   6.093 -16.487  0.00  0.00     0.138 C 
ATOM      4  N   UNL d   1      12.035   5.531 -17.337  0.00  0.00    -0.330 N 
ATOM      5  C   UNL d   1      12.868   4.520 -16.714  0.00  0.00     0.138 C 
ATOM      6  C   UNL d   1      11.995   3.443 -16.016  0.00  0.00     0.274 C 
ENDROOT
BRANCH   4   7
ATOM      7  C   UNL d   1      12.100   5.894 -18.709  0.00  0.00     0.143 A 
ATOM      8  N   UNL d   1      11.012   6.459 -19.264  0.00  0.00    -0.214 NA
ATOM      9  C   UNL d   1      11.077   6.809 -20.551  0.00  0.00     0.140 A 
ATOM     10  N   UNL d   1      12.171   6.707 -21.308  0.00  0.00    -0.227 NA
ATOM     11  C   UNL d   1      13.275   6.152 -20.757  0.00  0.00     0.157 A 
ATOM     12  C   UNL d   1      13.286   5.719 -19.422  0.00  0.00     0.060 A 
BRANCH   9  13
ATOM     13  C   UNL d   1       9.867   7.536 -21.168  0.00  0.00     0.052 C 
ATOM     14  C   UNL d   1      10.104   9.054 -21.144  0.00  0.00     0.008 C 
ATOM     15  C   UNL d   1       8.560   7.244 -20.390  0.00  0.00     0.008 C 
ATOM     16  C   UNL d   1       9.651   7.066 -22.625  0.00  0.00     0.008 C 
ENDBRANCH   9  13
BRANCH  11  17
ATOM     17  C   UNL d   1      14.514   6.035 -21.622  0.00  0.00     0.435 C 
ATOM     18  F   UNL d   1      15.529   5.492 -20.943  0.00  0.00    -0.165 F 
ATOM     19  F   UNL d   1      14.244   5.261 -22.669  0.00  0.00    -0.165 F 
ATOM     20  F   UNL d   1      14.883   7.242 -22.042  0.00  0.00    -0.165 F 
ENDBRANCH  11  17
ENDBRANCH   4   7
BRANCH   1  21
ATOM     21  C   UNL d   1      10.246   3.036 -14.442  0.00  0.00     0.251 C 
BRANCH  21  22
ATOM     22  C   UNL d   1       9.435   3.623 -13.275  0.00  0.00     0.037 C 
BRANCH  22  23
ATOM     23  C   UNL d   1       8.065   4.316 -13.630  0.00  0.00     0.029 C 
BRANCH  23  24
ATOM     24  C   UNL d   1       7.170   4.662 -12.409  0.00  0.00     0.131 C 
BRANCH  24  25
ATOM     25  N   UNL d   1       7.748   5.741 -11.582  0.00  0.00    -0.217 NA
ATOM     26  C   UNL d   1       8.769   5.645 -10.715  0.00  0.00     0.360 C 
ATOM     27  N   UNL d   1       9.113   6.824 -10.204  0.00  0.00    -0.217 NA
ATOM     28  O   UNL d   1       9.372   4.599 -10.463  0.00  0.00    -0.243 OA
BRANCH  27  29
ATOM     29  C   UNL d   1      10.354   7.086  -9.477  0.00  0.00     0.130 C 
BRANCH  29  30
ATOM     30  C   UNL d   1      10.126   7.395  -7.978  0.00  0.00     0.023 C 
ATOM     31  C   UNL d   1       9.246   6.316  -7.316  0.00  0.00     0.002 C 
ATOM     32  C   UNL d   1       9.441   8.762  -7.838  0.00  0.00     0.002 C 
ATOM     33  C   UNL d   1      11.480   7.451  -7.247  0.00  0.00     0.002 C 
ENDBRANCH  29  30
ENDBRANCH  27  29
ENDBRANCH  24  25
ENDBRANCH  23  24
ENDBRANCH  22  23
ENDBRANCH  21  22
ENDBRANCH   1  21
TORSDOF 10
