REMARK  6 active torsions:
REMARK  status: ('A' for Active; 'I' for Inactive)
REMARK    1  A    between atoms: C_7  and  C_8 
REMARK    2  A    between atoms: C_8  and  C_9 
REMARK    3  A    between atoms: C_9  and  C_10 
REMARK    4  A    between atoms: C_10  and  N_11 
REMARK       I    between atoms: N_11  and  C_12 
REMARK       I    between atoms: N_14  and  C_15 
REMARK       I    between atoms: C_15  and  N_17 
REMARK    5  A    between atoms: N_17  and  C_18 
REMARK    6  A    between atoms: C_18  and  C_20 
ROOT
ATOM      1  N   UNL d   1       8.658   5.936  -9.872  0.00  0.00    -0.241 NA
ATOM      2  C   UNL d   1       8.435   5.463 -11.152  0.00  0.00     0.237 C 
ATOM      3  N   UNL d   1       7.251   5.975 -11.649  0.00  0.00    -0.060 NA
ATOM      4  N   UNL d   1       9.249   4.656 -11.774  0.00  0.00    -0.159 NA
ATOM      5  C   UNL d   1       9.014   4.239 -13.074  0.00  0.00     0.367 C 
ATOM      6  O   UNL d   1       8.123   4.588 -13.854  0.00  0.00    -0.243 OA
ATOM      7  N   UNL d   1       9.946   3.351 -13.428  0.00  0.00    -0.213 NA
ENDROOT
BRANCH   1   8
ATOM      8  C   UNL d   1       9.869   5.706  -9.097  0.00  0.00     0.129 C 
BRANCH   8   9
ATOM      9  C   UNL d   1       9.889   6.543  -7.809  0.00  0.00     0.032 C 
BRANCH   9  10
ATOM     10  C   UNL d   1      11.294   6.595  -7.160  0.00  0.00     0.036 C 
BRANCH  10  11
ATOM     11  C   UNL d   1      11.387   7.494  -5.972  0.00  0.00     0.024 A 
ATOM     12  C   UNL d   1      11.302   8.867  -5.955  0.00  0.00     0.064 A 
ATOM     13  C   UNL d   1      11.052   9.766  -7.116  0.00  0.00     0.052 C 
ATOM     14  N   UNL d   1      11.504   9.428  -4.692  0.00  0.00    -0.224 NA
ATOM     15  C   UNL d   1      11.764   8.503  -3.775  0.00  0.00     0.214 A 
ATOM     16  N   UNL d   1      12.027   8.781  -2.451  0.00  0.00    -0.120 N 
ATOM     17  S   UNL d   1      11.697   6.857  -4.379  0.00  0.00    -0.050 SA
ENDBRANCH  10  11
ENDBRANCH   9  10
ENDBRANCH   8   9
ENDBRANCH   1   8
BRANCH   7  18
ATOM     18  C   UNL d   1      10.088   2.742 -14.756  0.00  0.00     0.153 C 
ATOM     19  C   UNL d   1      10.458   1.266 -14.638  0.00  0.00     0.034 C 
BRANCH  18  20
ATOM     20  C   UNL d   1      11.040   3.531 -15.601  0.00  0.00     0.100 A 
ATOM     21  O   UNL d   1      10.781   4.864 -15.717  0.00  0.00    -0.307 OA
ATOM     22  C   UNL d   1      11.743   5.383 -16.523  0.00  0.00     0.122 A 
ATOM     23  C   UNL d   1      12.612   4.411 -16.922  0.00  0.00     0.029 A 
ATOM     24  C   UNL d   1      12.152   3.205 -16.331  0.00  0.00     0.024 A 
ENDBRANCH  18  20
ENDBRANCH   7  18
TORSDOF 6
