REMARK  9 active torsions:
REMARK  status: ('A' for Active; 'I' for Inactive)
REMARK    1  A    between atoms: C_2  and  S_3 
REMARK    2  A    between atoms: S_3  and  N_6 
REMARK    3  A    between atoms: N_6  and  C_7 
REMARK    4  A    between atoms: C_11  and  N_12 
REMARK    5  A    between atoms: N_15  and  C_16 
REMARK    6  A    between atoms: C_16  and  C_17 
REMARK    7  A    between atoms: C_17  and  C_18 
REMARK    8  A    between atoms: C_18  and  C_19 
REMARK    9  A    between atoms: C_19  and  N_20 
ROOT
ATOM      1  N   UNL d   1       9.239   6.260 -10.593  0.00  0.00    -0.344 N 
ATOM      2  C   UNL d   1       9.408   4.830 -10.416  0.00  0.00     0.137 C 
ATOM      3  C   UNL d   1       9.682   4.188 -11.796  0.00  0.00     0.274 C 
ATOM      4  N   UNL d   1       8.614   4.512 -12.754  0.00  0.00     0.141 N 
ATOM      5  C   UNL d   1       8.567   5.970 -12.922  0.00  0.00     0.274 C 
ATOM      6  C   UNL d   1       8.260   6.662 -11.593  0.00  0.00     0.137 C 
ENDROOT
BRANCH   4   7
ATOM      7  C   UNL d   1       8.899   3.904 -14.052  0.00  0.00     0.251 C 
BRANCH   7   8
ATOM      8  C   UNL d   1       8.430   2.444 -14.105  0.00  0.00     0.037 C 
BRANCH   8   9
ATOM      9  C   UNL d   1       8.284   1.917 -15.530  0.00  0.00     0.027 C 
BRANCH   9  10
ATOM     10  C   UNL d   1       8.092   0.389 -15.579  0.00  0.00     0.114 C 
BRANCH  10  11
ATOM     11  N   UNL d   1       6.958   0.008 -16.422  0.00  0.00    -0.251 N 
ATOM     12  C   UNL d   1       5.766  -0.407 -15.946  0.00  0.00     0.330 C 
ATOM     13  N   UNL d   1       5.027  -0.776 -17.003  0.00  0.00    -0.296 N 
ATOM     14  O   UNL d   1       5.442  -0.521 -14.769  0.00  0.00    -0.246 OA
ATOM     15  C   UNL d   1       5.651  -0.480 -18.266  0.00  0.00     0.165 C 
ATOM     16  C   UNL d   1       4.064  -1.863 -17.070  0.00  0.00     0.106 C 
ATOM     17  C   UNL d   1       7.006  -0.057 -17.763  0.00  0.00     0.261 C 
ATOM     18  C   UNL d   1       5.508  -1.791 -19.038  0.00  0.00     0.034 C 
ATOM     19  O   UNL d   1       7.962   0.202 -18.490  0.00  0.00    -0.270 OA
ATOM     20  C   UNL d   1       4.161  -2.334 -18.531  0.00  0.00     0.027 C 
ENDBRANCH  10  11
ENDBRANCH   9  10
ENDBRANCH   8   9
ENDBRANCH   7   8
ENDBRANCH   4   7
BRANCH   1  21
ATOM     21  C   UNL d   1       9.887   7.208  -9.805  0.00  0.00     0.058 A 
ATOM     22  C   UNL d   1      10.576   8.264 -10.435  0.00  0.00     0.017 A 
ATOM     23  C   UNL d   1      11.288   9.199  -9.677  0.00  0.00     0.003 A 
ATOM     24  C   UNL d   1      11.265   9.146  -8.278  0.00  0.00     0.020 A 
ATOM     25  C   UNL d   1      10.590   8.104  -7.620  0.00  0.00     0.095 A 
ATOM     26  C   UNL d   1       9.891   7.131  -8.384  0.00  0.00     0.037 A 
BRANCH  25  27
ATOM     27  N   UNL d   1      10.623   8.036  -6.222  0.00  0.00    -0.162 NA
BRANCH  27  28
ATOM     28  S   UNL d   1      11.428   9.075  -5.058  0.00  0.00     0.265 S 
ATOM     29  O   UNL d   1      10.439  10.030  -4.554  0.00  0.00    -0.203 OA
ATOM     30  O   UNL d   1      12.662   9.587  -5.660  0.00  0.00    -0.203 OA
BRANCH  28  31
ATOM     31  C   UNL d   1      11.889   7.886  -3.745  0.00  0.00     0.146 C 
ATOM     32  C   UNL d   1      12.334   8.646  -2.495  0.00  0.00     0.020 C 
ENDBRANCH  28  31
ENDBRANCH  27  28
ENDBRANCH  25  27
ENDBRANCH   1  21
TORSDOF 9
