REMARK  5 active torsions:
REMARK  status: ('A' for Active; 'I' for Inactive)
REMARK    1  A    between atoms: O_2  and  C_3 
REMARK    2  A    between atoms: C_8  and  N_9 
REMARK    3  A    between atoms: N_12  and  C_13 
REMARK    4  A    between atoms: C_13  and  C_14 
REMARK    5  A    between atoms: C_14  and  C_15 
ROOT
ATOM      1  N   UNL d   1       9.605   2.488 -16.099  0.00  0.00    -0.343 N 
ATOM      2  C   UNL d   1       9.325   3.900 -16.260  0.00  0.00     0.137 C 
ATOM      3  C   UNL d   1       8.675   4.459 -14.969  0.00  0.00     0.274 C 
ATOM      4  N   UNL d   1       9.507   4.186 -13.808  0.00  0.00     0.141 N 
ATOM      5  C   UNL d   1       9.669   2.732 -13.716  0.00  0.00     0.274 C 
ATOM      6  C   UNL d   1      10.361   2.109 -14.935  0.00  0.00     0.137 C 
ENDROOT
BRANCH   4   7
ATOM      7  C   UNL d   1       8.818   4.673 -12.617  0.00  0.00     0.251 C 
BRANCH   7   8
ATOM      8  C   UNL d   1       9.552   5.915 -12.129  0.00  0.00     0.038 C 
BRANCH   8   9
ATOM      9  C   UNL d   1       9.249   6.351 -10.666  0.00  0.00     0.037 C 
ATOM     10  C   UNL d   1      10.219   7.475 -10.191  0.00  0.00     0.174 C 
ATOM     11  C   UNL d   1      10.250   7.731  -8.686  0.00  0.00     0.005 A 
ATOM     12  O   UNL d   1       9.869   8.647 -10.899  0.00  0.00    -0.219 OA
ATOM     13  C   UNL d   1       9.641   6.830  -7.789  0.00  0.00    -0.024 A 
ATOM     14  C   UNL d   1      10.896   8.885  -8.181  0.00  0.00     0.012 A 
ATOM     15  C   UNL d   1       8.917   5.600  -8.269  0.00  0.00     0.026 C 
ATOM     16  C   UNL d   1       9.673   7.085  -6.405  0.00  0.00    -0.003 A 
ATOM     17  C   UNL d   1       9.241   5.163  -9.677  0.00  0.00     0.008 C 
ATOM     18  C   UNL d   1      10.311   8.233  -5.907  0.00  0.00     0.014 A 
ATOM     19  C   UNL d   1      10.906   9.140  -6.794  0.00  0.00     0.070 A 
ATOM     20  N   UNL d   1      11.469  10.310  -6.283  0.00  0.00    -0.101 NA
ENDBRANCH   8   9
ENDBRANCH   7   8
ENDBRANCH   4   7
BRANCH   1  21
ATOM     21  C   UNL d   1       9.198   1.543 -17.061  0.00  0.00     0.079 A 
ATOM     22  C   UNL d   1      10.162   0.819 -17.791  0.00  0.00     0.110 A 
ATOM     23  C   UNL d   1       9.711  -0.097 -18.772  0.00  0.00     0.026 A 
ATOM     24  C   UNL d   1       8.336  -0.285 -19.003  0.00  0.00     0.002 A 
ATOM     25  C   UNL d   1       7.389   0.448 -18.257  0.00  0.00     0.002 A 
ATOM     26  C   UNL d   1       7.830   1.366 -17.287  0.00  0.00     0.019 A 
BRANCH  22  27
ATOM     27  O   UNL d   1      11.498   1.064 -17.532  0.00  0.00    -0.327 OA
ATOM     28  C   UNL d   1      12.461   0.507 -18.405  0.00  0.00     0.181 C 
ENDBRANCH  22  27
ENDBRANCH   1  21
TORSDOF 5
