REMARK  10 active torsions:
REMARK  status: ('A' for Active; 'I' for Inactive)
REMARK    1  A    between atoms: C_2  and  C_3 
REMARK       I    between atoms: C_2  and  N_11 
REMARK    2  A    between atoms: C_4  and  C_5 
REMARK    3  A    between atoms: N_11  and  C_12 
REMARK    4  A    between atoms: C_12  and  C_13 
REMARK    5  A    between atoms: C_13  and  C_14 
REMARK    6  A    between atoms: C_14  and  C_15 
REMARK    7  A    between atoms: C_15  and  N_16 
REMARK    8  A    between atoms: N_19  and  C_20 
REMARK    9  A    between atoms: C_20  and  C_21 
REMARK   10  A    between atoms: C_20  and  C_27 
ROOT
ATOM      1  N   UNL d   1       8.411   4.528 -13.426  0.00  0.00     0.141 N 
ATOM      2  C   UNL d   1       8.005   3.417 -14.284  0.00  0.00     0.285 C 
ATOM      3  C   UNL d   1       8.984   3.243 -15.462  0.00  0.00     0.286 C 
ATOM      4  N   UNL d   1      10.329   2.889 -14.948  0.00  0.00     0.147 N 
ATOM      5  C   UNL d   1      10.774   3.968 -14.047  0.00  0.00     0.286 C 
ATOM      6  C   UNL d   1       9.766   4.238 -12.924  0.00  0.00     0.285 C 
ENDROOT
BRANCH   1   7
ATOM      7  C   UNL d   1       7.436   4.744 -12.361  0.00  0.00     0.251 C 
BRANCH   7   8
ATOM      8  C   UNL d   1       7.581   6.112 -11.691  0.00  0.00     0.037 C 
BRANCH   8   9
ATOM      9  C   UNL d   1       8.650   6.140 -10.592  0.00  0.00     0.029 C 
BRANCH   9  10
ATOM     10  C   UNL d   1       9.474   7.461 -10.569  0.00  0.00     0.129 C 
BRANCH  10  11
ATOM     11  N   UNL d   1       9.897   7.821  -9.226  0.00  0.00    -0.234 NA
ATOM     12  C   UNL d   1      10.271   6.979  -8.248  0.00  0.00     0.275 C 
ATOM     13  O   UNL d   1      10.309   5.751  -8.362  0.00  0.00    -0.266 OA
BRANCH  12  14
ATOM     14  C   UNL d   1      10.615   7.685  -7.045  0.00  0.00     0.062 C 
ATOM     15  C   UNL d   1      11.079   7.002  -5.978  0.00  0.00     0.005 C 
BRANCH  15  16
ATOM     16  C   UNL d   1      11.473   7.607  -4.703  0.00  0.00     0.000 A 
ATOM     17  C   UNL d   1      11.474   9.015  -4.540  0.00  0.00     0.000 A 
ATOM     18  C   UNL d   1      11.852   9.582  -3.325  0.00  0.00     0.000 A 
ATOM     19  C   UNL d   1      12.289   8.785  -2.259  0.00  0.00     0.000 A 
ATOM     20  C   UNL d   1      12.265   7.380  -2.404  0.00  0.00     0.000 A 
ATOM     21  C   UNL d   1      11.868   6.792  -3.620  0.00  0.00     0.000 A 
ENDBRANCH  15  16
ENDBRANCH  12  14
ENDBRANCH  10  11
ENDBRANCH   9  10
ENDBRANCH   8   9
ENDBRANCH   7   8
ENDBRANCH   1   7
BRANCH   4  22
ATOM     22  C   UNL d   1      11.341   2.611 -15.988  0.00  0.00     0.264 C 
BRANCH  22  23
ATOM     23  C   UNL d   1      11.688   3.856 -16.828  0.00  0.00     0.013 A 
ATOM     24  C   UNL d   1      12.870   4.591 -16.550  0.00  0.00    -0.002 A 
ATOM     25  C   UNL d   1      13.175   5.762 -17.276  0.00  0.00    -0.000 A 
ATOM     26  C   UNL d   1      12.299   6.217 -18.281  0.00  0.00    -0.000 A 
ATOM     27  C   UNL d   1      11.117   5.504 -18.553  0.00  0.00    -0.000 A 
ATOM     28  C   UNL d   1      10.822   4.327 -17.837  0.00  0.00    -0.002 A 
ENDBRANCH  22  23
BRANCH  22  29
ATOM     29  C   UNL d   1      11.052   1.349 -16.826  0.00  0.00     0.013 C 
ATOM     30  C   UNL d   1      12.090   0.880 -17.694  0.00  0.00    -0.002 C 
ATOM     31  C   UNL d   1      11.883  -0.280 -18.473  0.00  0.00    -0.000 C 
ATOM     32  C   UNL d   1      10.643  -0.949 -18.458  0.00  0.00    -0.000 C 
ATOM     33  C   UNL d   1       9.617  -0.469 -17.592  0.00  0.00    -0.000 C 
ATOM     34  C   UNL d   1       9.849   0.594 -16.742  0.00  0.00    -0.002 C 
ENDBRANCH  22  29
ENDBRANCH   4  22
TORSDOF 10
