REMARK  5 active torsions:
REMARK  status: ('A' for Active; 'I' for Inactive)
REMARK    1  A    between atoms: C_8  and  O_9 
REMARK    2  A    between atoms: O_9  and  C_10 
REMARK    3  A    between atoms: C_10  and  C_11 
REMARK    4  A    between atoms: N_14  and  C_15 
REMARK    5  A    between atoms: C_15  and  C_16 
ROOT
ATOM      1  C   UNL d   1       9.533   6.760  -8.809  0.00  0.00     0.034 C 
ATOM      2  C   UNL d   1       9.573   5.252  -8.622  0.00  0.00     0.038 C 
ATOM      3  C   UNL d   1       8.420   4.613  -9.379  0.00  0.00     0.250 C 
ATOM      4  N   UNL d   1       8.570   4.828 -10.826  0.00  0.00     0.137 N 
ATOM      5  C   UNL d   1       8.424   6.256 -11.059  0.00  0.00     0.250 C 
ATOM      6  C   UNL d   1       9.511   7.056 -10.316  0.00  0.00     0.038 C 
ENDROOT
BRANCH   4   7
ATOM      7  C   UNL d   1       7.489   4.174 -11.568  0.00  0.00     0.251 C 
BRANCH   7   8
ATOM      8  C   UNL d   1       8.058   3.584 -12.877  0.00  0.00     0.038 C 
ATOM      9  C   UNL d   1       8.822   4.589 -13.771  0.00  0.00     0.030 C 
ATOM     10  C   UNL d   1       9.210   3.977 -15.085  0.00  0.00    -0.007 A 
ATOM     11  C   UNL d   1       8.626   2.807 -15.523  0.00  0.00     0.055 A 
ATOM     12  C   UNL d   1      10.153   4.410 -16.116  0.00  0.00     0.017 A 
ATOM     13  C   UNL d   1       7.586   1.995 -14.852  0.00  0.00     0.046 C 
ATOM     14  N   UNL d   1       9.121   2.495 -16.755  0.00  0.00    -0.250 NA
ATOM     15  C   UNL d   1       6.984   2.743 -13.667  0.00  0.00     0.009 C 
ATOM     16  C   UNL d   1      10.044   3.424 -17.151  0.00  0.00     0.081 A 
ATOM     17  C   UNL d   1      10.784   3.464 -18.336  0.00  0.00     0.021 A 
ATOM     18  C   UNL d   1      11.693   4.512 -18.543  0.00  0.00     0.031 A 
ATOM     19  C   UNL d   1      11.835   5.511 -17.555  0.00  0.00     0.140 A 
ATOM     20  F   UNL d   1      12.722   6.520 -17.769  0.00  0.00    -0.204 F 
ATOM     21  C   UNL d   1      11.072   5.461 -16.359  0.00  0.00     0.031 A 
ENDBRANCH   7   8
ENDBRANCH   4   7
BRANCH   1  22
ATOM     22  C   UNL d   1      10.714   7.430  -8.128  0.00  0.00     0.149 C 
BRANCH  22  23
ATOM     23  O   UNL d   1      10.634   7.183  -6.736  0.00  0.00    -0.329 OA
BRANCH  23  24
ATOM     24  C   UNL d   1      11.378   7.991  -5.919  0.00  0.00     0.118 A 
ATOM     25  C   UNL d   1      12.050   9.177  -6.342  0.00  0.00     0.026 A 
ATOM     26  C   UNL d   1      12.753   9.941  -5.398  0.00  0.00     0.004 A 
ATOM     27  C   UNL d   1      12.841   9.591  -4.052  0.00  0.00     0.021 A 
ATOM     28  C   UNL d   1      12.210   8.452  -3.673  0.00  0.00     0.111 A 
ATOM     29  N   UNL d   1      12.217   7.900  -2.454  0.00  0.00    -0.184 NA
ATOM     30  C   UNL d   1      11.536   7.637  -4.563  0.00  0.00     0.145 A 
ATOM     31  C   UNL d   1      11.366   6.811  -2.582  0.00  0.00     0.392 C 
ATOM     32  O   UNL d   1      10.771   6.319  -1.652  0.00  0.00    -0.236 OA
ATOM     33  O   UNL d   1      11.124   6.573  -3.874  0.00  0.00    -0.254 OA
ENDBRANCH  23  24
ENDBRANCH  22  23
ENDBRANCH   1  22
TORSDOF 5
