REMARK  8 active torsions:
REMARK  status: ('A' for Active; 'I' for Inactive)
REMARK    1  A    between atoms: C_2  and  C_3 
REMARK    2  A    between atoms: C_9  and  N_10 
REMARK    3  A    between atoms: C_12  and  C_13 
REMARK    4  A    between atoms: C_13  and  C_14 
REMARK    5  A    between atoms: C_14  and  C_15 
REMARK    6  A    between atoms: C_15  and  C_16 
REMARK    7  A    between atoms: C_16  and  N_17 
REMARK    8  A    between atoms: N_20  and  C_21 
ROOT
ATOM      1  C   UNL d   1       5.611   1.391 -13.432  0.00  0.00     0.049 C 
ENDROOT
BRANCH   1   2
ATOM      2  C   UNL d   1       5.467   0.376 -14.541  0.00  0.00     0.101 A 
ATOM      3  C   UNL d   1       5.981   0.382 -15.811  0.00  0.00     0.119 A 
ATOM      4  N   UNL d   1       5.524  -0.800 -16.368  0.00  0.00    -0.209 N 
ATOM      5  N   UNL d   1       4.762  -1.480 -15.472  0.00  0.00    -0.060 NA
ATOM      6  N   UNL d   1       4.720  -0.787 -14.377  0.00  0.00    -0.133 NA
BRANCH   4   7
ATOM      7  C   UNL d   1       5.767  -1.313 -17.673  0.00  0.00     0.088 A 
ATOM      8  C   UNL d   1       5.500  -2.677 -17.981  0.00  0.00     0.040 A 
ATOM      9  C   UNL d   1       5.747  -3.184 -19.235  0.00  0.00     0.102 A 
ATOM     10  N   UNL d   1       6.248  -2.360 -20.193  0.00  0.00    -0.228 N 
ATOM     11  N   UNL d   1       6.538  -2.730 -21.482  0.00  0.00    -0.164 NA
ATOM     12  C   UNL d   1       6.530  -0.998 -19.962  0.00  0.00     0.089 A 
ATOM     13  C   UNL d   1       6.974  -1.623 -22.040  0.00  0.00     0.125 A 
ATOM     14  C   UNL d   1       7.006  -0.516 -21.157  0.00  0.00     0.081 A 
ATOM     15  C   UNL d   1       6.279  -0.483 -18.660  0.00  0.00     0.039 A 
BRANCH  14  16
ATOM     16  C   UNL d   1       7.426   0.849 -21.413  0.00  0.00     0.237 C 
ATOM     17  O   UNL d   1       7.455   1.766 -20.593  0.00  0.00    -0.283 OA
ENDBRANCH  14  16
ENDBRANCH   4   7
ENDBRANCH   1   2
BRANCH   1  18
ATOM     18  C   UNL d   1       6.750   2.398 -13.686  0.00  0.00     0.009 C 
BRANCH  18  19
ATOM     19  C   UNL d   1       6.816   3.565 -12.677  0.00  0.00     0.036 C 
BRANCH  19  20
ATOM     20  C   UNL d   1       8.216   4.195 -12.695  0.00  0.00     0.250 C 
BRANCH  20  21
ATOM     21  N   UNL d   1       8.265   5.294 -11.749  0.00  0.00     0.141 N 
ATOM     22  C   UNL d   1       9.256   6.272 -12.200  0.00  0.00     0.274 C 
ATOM     23  C   UNL d   1       9.326   7.462 -11.227  0.00  0.00     0.137 C 
ATOM     24  N   UNL d   1       9.568   6.998  -9.868  0.00  0.00    -0.344 N 
ATOM     25  C   UNL d   1       8.683   5.958  -9.395  0.00  0.00     0.137 C 
ATOM     26  C   UNL d   1       8.626   4.805 -10.404  0.00  0.00     0.274 C 
BRANCH  24  27
ATOM     27  C   UNL d   1      10.498   7.655  -9.035  0.00  0.00     0.068 A 
ATOM     28  C   UNL d   1      10.267   8.061  -7.686  0.00  0.00     0.084 A 
ATOM     29  C   UNL d   1      11.329   8.630  -6.955  0.00  0.00     0.070 A 
ATOM     30 CL   UNL d   1       8.751   7.885  -6.857  0.00  0.00    -0.080 Cl
ATOM     31  C   UNL d   1      12.589   8.795  -7.547  0.00  0.00     0.012 A 
ATOM     32 CL   UNL d   1      11.127   9.155  -5.324  0.00  0.00    -0.081 Cl
ATOM     33  C   UNL d   1      12.815   8.383  -8.860  0.00  0.00     0.002 A 
ATOM     34  C   UNL d   1      11.765   7.853  -9.601  0.00  0.00     0.018 A 
ENDBRANCH  24  27
ENDBRANCH  20  21
ENDBRANCH  19  20
ENDBRANCH  18  19
ENDBRANCH   1  18
TORSDOF 8
