REMARK  5 active torsions:
REMARK  status: ('A' for Active; 'I' for Inactive)
REMARK    1  A    between atoms: C_2  and  C_3 
REMARK    2  A    between atoms: C_7  and  N_8 
REMARK       I    between atoms: N_8  and  C_9 
REMARK    3  A    between atoms: C_9  and  C_11 
REMARK    4  A    between atoms: C_11  and  N_12 
REMARK    5  A    between atoms: N_15  and  C_16 
ROOT
ATOM      1  N   UNL d   1      10.098   7.002 -10.593  0.00  0.00     0.151 N 
ATOM      2  C   UNL d   1      10.819   8.242 -10.264  0.00  0.00     0.275 C 
ATOM      3  C   UNL d   1      11.884   7.936  -9.201  0.00  0.00     0.138 C 
ATOM      4  N   UNL d   1      11.248   7.312  -8.048  0.00  0.00    -0.330 N 
ATOM      5  C   UNL d   1      10.398   6.163  -8.276  0.00  0.00     0.138 C 
ATOM      6  C   UNL d   1       9.401   6.473  -9.406  0.00  0.00     0.275 C 
ENDROOT
BRANCH   1   7
ATOM      7  C   UNL d   1       9.188   7.232 -11.742  0.00  0.00     0.339 C 
BRANCH   7   8
ATOM      8  C   UNL d   1       8.888   5.960 -12.530  0.00  0.00     0.290 C 
ATOM      9  N   UNL d   1       7.644   5.465 -12.385  0.00  0.00    -0.210 NA
ATOM     10  O   UNL d   1       9.781   5.467 -13.213  0.00  0.00    -0.268 OA
BRANCH   9  11
ATOM     11  C   UNL d   1       7.090   4.269 -12.933  0.00  0.00     0.084 A 
ATOM     12  C   UNL d   1       5.841   3.872 -12.410  0.00  0.00     0.019 A 
ATOM     13  C   UNL d   1       5.231   2.682 -12.836  0.00  0.00     0.001 A 
ATOM     14  C   UNL d   1       5.867   1.863 -13.794  0.00  0.00    -0.004 A 
ATOM     15  C   UNL d   1       7.099   2.263 -14.356  0.00  0.00    -0.021 A 
ATOM     16  C   UNL d   1       7.703   3.470 -13.925  0.00  0.00     0.015 A 
BRANCH  15  17
ATOM     17  C   UNL d   1       7.786   1.398 -15.399  0.00  0.00     0.026 C 
ATOM     18  C   UNL d   1       9.048   0.712 -14.857  0.00  0.00     0.005 C 
ENDBRANCH  15  17
ENDBRANCH   9  11
ENDBRANCH   7   8
ENDBRANCH   1   7
BRANCH   4  19
ATOM     19  C   UNL d   1      11.340   7.868  -6.774  0.00  0.00     0.140 A 
ATOM     20  N   UNL d   1      11.375   7.002  -5.734  0.00  0.00    -0.226 NA
ATOM     21  C   UNL d   1      11.559   7.504  -4.499  0.00  0.00     0.112 A 
ATOM     22  C   UNL d   1      11.670   8.882  -4.249  0.00  0.00     0.077 A 
ATOM     23  C   UNL d   1      11.576   9.783  -5.322  0.00  0.00     0.016 A 
ATOM     24 CL   UNL d   1      11.895   9.436  -2.648  0.00  0.00    -0.081 Cl
ATOM     25  C   UNL d   1      11.436   9.271  -6.616  0.00  0.00     0.038 A 
ENDBRANCH   4  19
TORSDOF 5
