REMARK  7 active torsions:
REMARK  status: ('A' for Active; 'I' for Inactive)
REMARK    1  A    between atoms: O_2  and  C_3 
REMARK    2  A    between atoms: C_8  and  N_9 
REMARK    3  A    between atoms: N_12  and  C_13 
REMARK    4  A    between atoms: C_13  and  C_14 
REMARK    5  A    between atoms: C_14  and  C_16 
REMARK    6  A    between atoms: C_16  and  N_17 
REMARK    7  A    between atoms: C_21  and  C_23 
ROOT
ATOM      1  C   UNL d   1       9.943   4.029 -19.684  0.00  0.00     0.208 C 
ATOM      2  O   UNL d   1      10.518   4.777 -20.737  0.00  0.00    -0.219 OA
ENDROOT
BRANCH   1   3
ATOM      3  C   UNL d   1       8.963   3.006 -20.318  0.00  0.00     0.285 C 
BRANCH   3   4
ATOM      4  N   UNL d   1       8.664   1.841 -19.486  0.00  0.00     0.144 N 
ATOM      5  C   UNL d   1       8.135   2.210 -18.173  0.00  0.00     0.274 C 
ATOM      6  C   UNL d   1       7.931   0.986 -17.294  0.00  0.00     0.137 C 
ATOM      7  N   UNL d   1       7.064   0.014 -17.957  0.00  0.00    -0.343 N 
ATOM      8  C   UNL d   1       7.471  -0.353 -19.323  0.00  0.00     0.137 C 
ATOM      9  C   UNL d   1       7.717   0.929 -20.157  0.00  0.00     0.274 C 
BRANCH   7  10
ATOM     10  C   UNL d   1       5.935  -0.496 -17.322  0.00  0.00     0.079 A 
ATOM     11  C   UNL d   1       5.863  -0.657 -15.896  0.00  0.00     0.110 A 
ATOM     12  C   UNL d   1       4.673  -1.134 -15.312  0.00  0.00     0.026 A 
ATOM     13  C   UNL d   1       3.570  -1.483 -16.116  0.00  0.00     0.002 A 
ATOM     14  C   UNL d   1       3.639  -1.345 -17.510  0.00  0.00     0.002 A 
ATOM     15  C   UNL d   1       4.798  -0.838 -18.108  0.00  0.00     0.019 A 
BRANCH  11  16
ATOM     16  O   UNL d   1       6.979  -0.360 -15.124  0.00  0.00    -0.327 OA
ATOM     17  C   UNL d   1       6.873  -0.407 -13.705  0.00  0.00     0.181 C 
ENDBRANCH  11  16
ENDBRANCH   7  10
ENDBRANCH   3   4
ENDBRANCH   1   3
BRANCH   1  18
ATOM     18  C   UNL d   1      11.098   3.401 -18.847  0.00  0.00     0.148 C 
BRANCH  18  19
ATOM     19  N   UNL d   1      11.030   3.779 -17.416  0.00  0.00    -0.247 N 
ATOM     20  C   UNL d   1      10.788   2.928 -16.416  0.00  0.00     0.265 C 
ATOM     21  C   UNL d   1      10.653   3.724 -15.113  0.00  0.00     0.179 C 
ATOM     22  O   UNL d   1      10.692   1.692 -16.487  0.00  0.00    -0.269 OA
ATOM     23  N   UNL d   1      11.068   5.029 -15.623  0.00  0.00    -0.209 NA
ATOM     24  C   UNL d   1      11.684   3.194 -14.129  0.00  0.00     0.039 C 
ATOM     25  C   UNL d   1      11.235   5.046 -16.960  0.00  0.00     0.348 C 
ATOM     26  O   UNL d   1      11.518   6.037 -17.618  0.00  0.00    -0.245 OA
BRANCH  21  27
ATOM     27  C   UNL d   1       9.228   3.721 -14.493  0.00  0.00     0.006 C 
ATOM     28  C   UNL d   1       8.387   2.591 -14.632  0.00  0.00    -0.002 C 
ATOM     29  C   UNL d   1       7.051   2.636 -14.202  0.00  0.00    -0.004 C 
ATOM     30  C   UNL d   1       6.583   3.720 -13.450  0.00  0.00    -0.022 C 
ATOM     31  C   UNL d   1       7.426   4.832 -13.228  0.00  0.00    -0.004 C 
ATOM     32  C   UNL d   1       5.180   3.674 -12.859  0.00  0.00     0.031 C 
ATOM     33  C   UNL d   1       8.739   4.853 -13.773  0.00  0.00    -0.002 C 
ENDBRANCH  21  27
ENDBRANCH  18  19
ENDBRANCH   1  18
TORSDOF 7
