REMARK  5 active torsions:
REMARK  status: ('A' for Active; 'I' for Inactive)
REMARK    1  A    between atoms: C_4  and  N_5 
REMARK    2  A    between atoms: N_8  and  C_9 
REMARK    3  A    between atoms: C_9  and  C_10 
REMARK    4  A    between atoms: C_10  and  O_11 
REMARK    5  A    between atoms: O_11  and  C_12 
ROOT
ATOM      1  N   UNL d   1       8.815   4.939 -11.737  0.00  0.00    -0.344 N 
ATOM      2  C   UNL d   1       9.607   5.976 -12.346  0.00  0.00     0.137 C 
ATOM      3  C   UNL d   1       9.446   7.286 -11.537  0.00  0.00     0.274 C 
ATOM      4  N   UNL d   1       9.817   7.100 -10.124  0.00  0.00     0.144 N 
ATOM      5  C   UNL d   1       8.928   6.065  -9.563  0.00  0.00     0.274 C 
ATOM      6  C   UNL d   1       9.036   4.732 -10.312  0.00  0.00     0.137 C 
ENDROOT
BRANCH   4   7
ATOM      7  C   UNL d   1       9.613   8.344  -9.367  0.00  0.00     0.283 C 
BRANCH   7   8
ATOM      8  C   UNL d   1      10.937   8.783  -8.692  0.00  0.00     0.184 C 
BRANCH   8   9
ATOM      9  O   UNL d   1      10.730   9.474  -7.453  0.00  0.00    -0.329 OA
BRANCH   9  10
ATOM     10  C   UNL d   1      11.016   8.801  -6.284  0.00  0.00     0.096 A 
ATOM     11  C   UNL d   1      10.981   7.384  -6.141  0.00  0.00     0.026 A 
ATOM     12  C   UNL d   1      11.444   6.773  -4.955  0.00  0.00     0.025 A 
ATOM     13  C   UNL d   1      11.863   7.586  -3.909  0.00  0.00     0.124 A 
ATOM     14  N   UNL d   1      12.297   7.192  -2.718  0.00  0.00    -0.127 NA
ATOM     15  C   UNL d   1      11.809   8.960  -3.998  0.00  0.00     0.126 A 
ATOM     16  N   UNL d   1      12.509   8.408  -2.123  0.00  0.00    -0.042 NA
ATOM     17  N   UNL d   1      12.217   9.520  -2.874  0.00  0.00    -0.127 NA
ATOM     18  C   UNL d   1      11.379   9.601  -5.180  0.00  0.00     0.047 A 
ENDBRANCH   9  10
ENDBRANCH   8   9
ENDBRANCH   7   8
ENDBRANCH   4   7
BRANCH   1  19
ATOM     19  C   UNL d   1       7.950   4.176 -12.506  0.00  0.00     0.056 A 
ATOM     20  C   UNL d   1       6.593   4.044 -12.129  0.00  0.00     0.017 A 
ATOM     21  C   UNL d   1       5.724   3.248 -12.876  0.00  0.00     0.002 A 
ATOM     22  C   UNL d   1       6.199   2.559 -14.013  0.00  0.00     0.000 A 
ATOM     23  C   UNL d   1       7.538   2.708 -14.420  0.00  0.00     0.002 A 
ATOM     24  C   UNL d   1       8.407   3.511 -13.673  0.00  0.00     0.017 A 
ENDBRANCH   1  19
TORSDOF 5
