REMARK  8 active torsions:
REMARK  status: ('A' for Active; 'I' for Inactive)
REMARK    1  A    between atoms: C_2  and  C_3 
REMARK    2  A    between atoms: C_3  and  C_4 
REMARK    3  A    between atoms: C_4  and  O_5 
REMARK    4  A    between atoms: O_5  and  C_6 
REMARK    5  A    between atoms: C_6  and  C_8 
REMARK    6  A    between atoms: C_19  and  C_20 
REMARK    7  A    between atoms: C_20  and  N_21 
REMARK    8  A    between atoms: N_31  and  C_32 
ROOT
ATOM      1  C   UNL d   1       9.465   6.584  -9.580  0.00  0.00     0.144 A 
ATOM      2  C   UNL d   1      10.147   6.648 -10.783  0.00  0.00     0.028 A 
ATOM      3  C   UNL d   1       9.489   5.756 -11.751  0.00  0.00     0.044 A 
ATOM      4  C   UNL d   1       9.609   5.234 -13.125  0.00  0.00     0.118 A 
ATOM      5  C   UNL d   1       8.640   4.370 -13.640  0.00  0.00     0.116 A 
ATOM      6  C   UNL d   1       7.547   3.965 -12.873  0.00  0.00     0.028 A 
ATOM      7  C   UNL d   1       7.418   4.393 -11.550  0.00  0.00     0.021 A 
ATOM      8  C   UNL d   1       8.369   5.226 -11.022  0.00  0.00     0.084 A 
ATOM      9  N   UNL d   1       8.443   5.696  -9.733  0.00  0.00    -0.240 NA
ATOM     10  O   UNL d   1       8.720   3.822 -14.903  0.00  0.00    -0.326 OA
ATOM     11  C   UNL d   1       9.532   4.540 -15.812  0.00  0.00     0.181 C 
ATOM     12  C   UNL d   1      10.877   4.796 -15.142  0.00  0.00     0.185 C 
ATOM     13  O   UNL d   1      10.667   5.588 -13.941  0.00  0.00    -0.327 OA
ENDROOT
BRANCH  12  14
ATOM     14  C   UNL d   1      11.809   5.551 -16.109  0.00  0.00     0.283 C 
BRANCH  14  15
ATOM     15  N   UNL d   1      12.141   4.741 -17.284  0.00  0.00     0.140 N 
ATOM     16  C   UNL d   1      11.671   5.400 -18.507  0.00  0.00     0.253 C 
ATOM     17  C   UNL d   1      11.897   4.497 -19.738  0.00  0.00     0.065 C 
ATOM     18  C   UNL d   1      13.366   4.043 -19.885  0.00  0.00     0.142 A 
ATOM     19  C   UNL d   1      13.896   3.550 -18.508  0.00  0.00     0.065 C 
ATOM     20  N   UNL d   1      13.509   3.004 -20.923  0.00  0.00    -0.323 N 
ATOM     21  C   UNL d   1      14.232   5.159 -20.459  0.00  0.00     0.271 A 
ATOM     22  C   UNL d   1      13.586   4.512 -17.356  0.00  0.00     0.253 C 
ATOM     23  C   UNL d   1      14.331   3.488 -22.036  0.00  0.00     0.234 A 
ATOM     24  N   UNL d   1      14.744   4.825 -21.609  0.00  0.00    -0.211 NA
ATOM     25  O   UNL d   1      14.441   6.255 -19.885  0.00  0.00    -0.269 OA
BRANCH  20  26
ATOM     26  C   UNL d   1      13.564   1.646 -20.531  0.00  0.00     0.058 A 
ATOM     27  C   UNL d   1      12.383   1.040 -20.063  0.00  0.00     0.017 A 
ATOM     28  C   UNL d   1      12.397  -0.287 -19.601  0.00  0.00     0.002 A 
ATOM     29  C   UNL d   1      13.591  -1.017 -19.614  0.00  0.00     0.000 A 
ATOM     30  C   UNL d   1      14.779  -0.418 -20.063  0.00  0.00     0.002 A 
ATOM     31  C   UNL d   1      14.774   0.916 -20.518  0.00  0.00     0.017 A 
ENDBRANCH  20  26
ENDBRANCH  14  15
ENDBRANCH  12  14
BRANCH   1  32
ATOM     32  C   UNL d   1       9.617   7.279  -8.312  0.00  0.00     0.314 C 
ATOM     33  O   UNL d   1       9.806   8.495  -8.218  0.00  0.00    -0.257 OA
BRANCH  32  34
ATOM     34  O   UNL d   1       9.581   6.427  -7.241  0.00  0.00    -0.297 OA
BRANCH  34  35
ATOM     35  C   UNL d   1       9.856   6.896  -5.925  0.00  0.00     0.152 C 
BRANCH  35  36
ATOM     36  C   UNL d   1      11.364   7.105  -5.715  0.00  0.00     0.033 C 
BRANCH  36  37
ATOM     37  C   UNL d   1      11.715   7.773  -4.373  0.00  0.00     0.003 C 
ATOM     38  C   UNL d   1      11.653   6.803  -3.185  0.00  0.00     0.000 C 
ENDBRANCH  36  37
ENDBRANCH  35  36
ENDBRANCH  34  35
ENDBRANCH  32  34
ENDBRANCH   1  32
TORSDOF 8
