REMARK  6 active torsions:
REMARK  status: ('A' for Active; 'I' for Inactive)
REMARK    1  A    between atoms: C_4  and  N_5 
REMARK    2  A    between atoms: N_8  and  C_9 
REMARK    3  A    between atoms: C_9  and  C_10 
REMARK    4  A    between atoms: C_10  and  C_11 
REMARK    5  A    between atoms: C_11  and  C_12 
REMARK    6  A    between atoms: C_12  and  C_13 
ROOT
ATOM      1  C   UNL d   1      12.658   2.393 -17.297  0.00  0.00     0.250 C 
ENDROOT
BRANCH   1   2
ATOM      2  N   UNL d   1      11.422   3.100 -16.952  0.00  0.00     0.141 N 
ATOM      3  C   UNL d   1      11.714   4.302 -16.149  0.00  0.00     0.275 C 
ATOM      4  C   UNL d   1      10.429   5.071 -15.867  0.00  0.00     0.155 C 
ATOM      5  N   UNL d   1       9.500   4.235 -15.143  0.00  0.00    -0.179 N 
ATOM      6  C   UNL d   1       9.237   2.961 -15.802  0.00  0.00     0.155 C 
ATOM      7  C   UNL d   1      10.563   2.234 -16.133  0.00  0.00     0.275 C 
BRANCH   5   8
ATOM      8  C   UNL d   1       8.958   4.617 -13.913  0.00  0.00     0.727 A 
ATOM      9  N   UNL d   1       7.807   4.045 -13.573  0.00  0.00    -0.060 NA
ATOM     10  C   UNL d   1       7.263   4.435 -12.399  0.00  0.00     0.120 A 
ATOM     11  C   UNL d   1       7.880   5.392 -11.585  0.00  0.00     0.043 A 
ATOM     12  C   UNL d   1       9.085   5.935 -12.047  0.00  0.00     0.120 A 
ATOM     13  N   UNL d   1       9.629   5.530 -13.221  0.00  0.00    -0.060 NA
ENDBRANCH   5   8
ENDBRANCH   1   2
BRANCH   1  14
ATOM     14  C   UNL d   1      13.355   2.968 -18.546  0.00  0.00     0.036 C 
BRANCH  14  15
ATOM     15  C   UNL d   1      14.254   4.209 -18.292  0.00  0.00     0.009 C 
BRANCH  15  16
ATOM     16  C   UNL d   1      14.889   4.788 -19.556  0.00  0.00     0.053 C 
BRANCH  16  17
ATOM     17  C   UNL d   1      15.676   6.015 -19.230  0.00  0.00     0.088 A 
ATOM     18  S   UNL d   1      14.943   7.628 -19.112  0.00  0.00    -0.071 SA
ATOM     19  C   UNL d   1      16.533   8.269 -18.699  0.00  0.00     0.048 A 
ATOM     20  C   UNL d   1      17.476   7.205 -18.633  0.00  0.00     0.087 A 
ATOM     21  C   UNL d   1      16.918   9.594 -18.441  0.00  0.00     0.008 A 
ATOM     22  N   UNL d   1      16.971   5.945 -18.910  0.00  0.00    -0.243 NA
ATOM     23  C   UNL d   1      18.811   7.510 -18.299  0.00  0.00     0.020 A 
ATOM     24  C   UNL d   1      19.205   8.838 -18.044  0.00  0.00     0.002 A 
ATOM     25  C   UNL d   1      18.260   9.876 -18.115  0.00  0.00     0.001 A 
ENDBRANCH  16  17
ENDBRANCH  15  16
ENDBRANCH  14  15
ENDBRANCH   1  14
TORSDOF 6
