REMARK  5 active torsions:
REMARK  status: ('A' for Active; 'I' for Inactive)
REMARK    1  A    between atoms: C_2  and  C_3 
REMARK    2  A    between atoms: C_3  and  C_4 
REMARK    3  A    between atoms: C_4  and  C_5 
REMARK    4  A    between atoms: C_5  and  N_6 
REMARK    5  A    between atoms: C_9  and  C_10 
ROOT
ATOM      1  N   UNL d   1      11.168   8.420  -5.999  0.00  0.00     0.137 N 
ATOM      2  C   UNL d   1       9.915   9.068  -6.354  0.00  0.00     0.251 C 
ATOM      3  C   UNL d   1       9.006   7.960  -6.866  0.00  0.00     0.042 C 
ATOM      4  C   UNL d   1       9.989   6.919  -7.406  0.00  0.00     0.058 C 
ATOM      5  C   UNL d   1      11.383   7.514  -7.126  0.00  0.00     0.255 C 
ENDROOT
BRANCH   4   6
ATOM      6  C   UNL d   1       9.787   6.587  -8.865  0.00  0.00    -0.018 A 
ATOM      7  C   UNL d   1       9.775   7.630  -9.808  0.00  0.00     0.023 A 
ATOM      8  C   UNL d   1       9.497   7.359 -11.160  0.00  0.00     0.131 A 
ATOM      9  C   UNL d   1       9.336   6.035 -11.598  0.00  0.00     0.027 A 
ATOM     10  O   UNL d   1       9.431   8.383 -12.046  0.00  0.00    -0.190 OA
ATOM     11  C   UNL d   1       9.381   4.995 -10.655  0.00  0.00     0.002 A 
ATOM     12  C   UNL d   1       9.588   5.260  -9.291  0.00  0.00    -0.004 A 
ENDBRANCH   4   6
BRANCH   1  13
ATOM     13  C   UNL d   1      12.235   9.400  -5.821  0.00  0.00     0.250 C 
BRANCH  13  14
ATOM     14  C   UNL d   1      12.946   9.183  -4.476  0.00  0.00     0.035 C 
BRANCH  14  15
ATOM     15  C   UNL d   1      12.046   9.373  -3.241  0.00  0.00     0.002 C 
BRANCH  15  16
ATOM     16  C   UNL d   1      12.500   8.543  -2.033  0.00  0.00     0.000 C 
ATOM     17  C   UNL d   1      12.357   7.016  -2.217  0.00  0.00     0.000 C 
ENDBRANCH  15  16
ENDBRANCH  14  15
ENDBRANCH  13  14
ENDBRANCH   1  13
TORSDOF 5
