REMARK  4 active torsions:
REMARK  status: ('A' for Active; 'I' for Inactive)
REMARK    1  A    between atoms: C_4  and  C_5 
REMARK    2  A    between atoms: N_8  and  C_9 
REMARK    3  A    between atoms: C_9  and  C_10 
REMARK    4  A    between atoms: N_12  and  C_13 
ROOT
ATOM      1  C   UNL d   1       8.656   4.492 -12.289  0.00  0.00     0.026 C 
ATOM      2  C   UNL d   1       9.819   3.942 -13.123  0.00  0.00     0.040 C 
ATOM      3  C   UNL d   1       9.382   2.707 -13.920  0.00  0.00     0.251 C 
ATOM      4  N   UNL d   1       8.260   3.040 -14.801  0.00  0.00     0.143 N 
ATOM      5  C   UNL d   1       7.098   3.421 -13.986  0.00  0.00     0.251 C 
ATOM      6  C   UNL d   1       7.428   4.691 -13.189  0.00  0.00     0.040 C 
ENDROOT
BRANCH   4   7
ATOM      7  C   UNL d   1       7.895   1.900 -15.637  0.00  0.00     0.299 C 
BRANCH   7   8
ATOM      8  C   UNL d   1       8.903   1.288 -16.561  0.00  0.00     0.135 A 
ATOM      9  N   UNL d   1       8.741   0.016 -17.101  0.00  0.00    -0.131 NA
ATOM     10  N   UNL d   1       9.781  -0.282 -17.814  0.00  0.00    -0.060 NA
ATOM     11  N   UNL d   1      10.629   0.780 -17.770  0.00  0.00    -0.209 N 
ATOM     12  C   UNL d   1      10.094   1.793 -16.994  0.00  0.00     0.121 A 
BRANCH  11  13
ATOM     13  C   UNL d   1      11.872   0.763 -18.457  0.00  0.00     0.085 A 
ATOM     14  C   UNL d   1      12.360  -0.431 -19.041  0.00  0.00     0.019 A 
ATOM     15  C   UNL d   1      13.589  -0.442 -19.726  0.00  0.00     0.002 A 
ATOM     16  C   UNL d   1      14.346   0.741 -19.835  0.00  0.00     0.000 A 
ATOM     17  C   UNL d   1      13.873   1.932 -19.252  0.00  0.00     0.002 A 
ATOM     18  C   UNL d   1      12.645   1.942 -18.565  0.00  0.00     0.019 A 
ENDBRANCH  11  13
ENDBRANCH   7   8
ENDBRANCH   4   7
BRANCH   1  19
ATOM     19  C   UNL d   1       9.059   5.748 -11.526  0.00  0.00    -0.022 A 
ATOM     20  C   UNL d   1       9.061   7.006 -12.172  0.00  0.00    -0.004 A 
ATOM     21  C   UNL d   1       9.463   8.163 -11.480  0.00  0.00    -0.000 A 
ATOM     22  C   UNL d   1       9.868   8.078 -10.134  0.00  0.00    -0.000 A 
ATOM     23  C   UNL d   1       9.853   6.831  -9.472  0.00  0.00    -0.000 A 
ATOM     24  C   UNL d   1       9.454   5.668 -10.171  0.00  0.00    -0.004 A 
ENDBRANCH   1  19
TORSDOF 4
