REMARK  10 active torsions:
REMARK  status: ('A' for Active; 'I' for Inactive)
REMARK    1  A    between atoms: C_11  and  C_12 
REMARK    2  A    between atoms: C_12  and  N_13 
REMARK    3  A    between atoms: N_13  and  C_14 
REMARK    4  A    between atoms: C_17  and  C_18 
REMARK       I    between atoms: C_18  and  N_20 
REMARK    5  A    between atoms: N_20  and  CA_21 
REMARK    6  A    between atoms: CA_21  and  CB_22 
REMARK    7  A    between atoms: CA_21  and  C_27 
REMARK    8  A    between atoms: CB_22  and  CG_23 
REMARK    9  A    between atoms: CG_23  and  CD_24 
REMARK   10  A    between atoms: N_32  and  C_33 
ROOT
ATOM      1  C   UNK d   0       6.885   4.678 -12.808  0.00  0.00     0.076 C 
ATOM      2  C   UNK d   0       6.539   6.041 -12.770  0.00  0.00     0.019 C 
ATOM      3  C   UNK d   0       7.468   6.933 -12.201  0.00  0.00     0.006 C 
ATOM      4  C   UNK d   0       8.620   6.475 -11.526  0.00  0.00     0.058 C 
ATOM      5  C   UNK d   0       8.909   5.111 -11.481  0.00  0.00     0.006 C 
ATOM      6  C   UNK d   0       8.052   4.234 -12.145  0.00  0.00     0.019 C 
ENDROOT
BRANCH   1   7
ATOM      7  N   UNK d   0       6.082   3.782 -13.515  0.00  0.00    -0.269 NA
BRANCH   7   8
ATOM      8  C   UNK d   0       6.680   2.944 -14.555  0.00  0.00     0.150 C 
BRANCH   8   9
ATOM      9  C   UNK d   0       7.427   1.698 -14.082  0.00  0.00     0.137 C 
ATOM     10  C   UNK d   0       6.490   0.758 -13.267  0.00  0.00     0.152 C 
ATOM     11  N   UNK d   0       5.544   0.037 -14.098  0.00  0.00    -0.249 NA
ATOM     12  C   UNK d   0       5.926  -0.305 -15.399  0.00  0.00     0.196 A 
ATOM     13  C   UNK d   0       7.130   0.167 -15.986  0.00  0.00     0.144 A 
ATOM     14  N   UNK d   0       5.045  -1.058 -16.073  0.00  0.00    -0.037 NA
ATOM     15  C   UNK d   0       7.318  -0.173 -17.354  0.00  0.00     0.249 A 
ATOM     16  N   UNK d   0       8.018   0.984 -15.219  0.00  0.00    -0.284 N 
ATOM     17  N   UNK d   0       6.428  -0.943 -18.011  0.00  0.00    -0.029 NA
ATOM     18  O   UNK d   0       8.353   0.340 -18.084  0.00  0.00    -0.167 OA
ATOM     19  C   UNK d   0       5.360  -1.343 -17.328  0.00  0.00     0.772 A 
ATOM     20  N   UNK d   0       4.456  -2.092 -18.015  0.00  0.00     0.062 N 
BRANCH  16  21
ATOM     21  C   UNK d   0       9.373   0.921 -15.290  0.00  0.00     0.318 C 
ATOM     22  O   UNK d   0      10.021   0.055 -15.877  0.00  0.00    -0.262 OA
ENDBRANCH  16  21
ENDBRANCH   8   9
ENDBRANCH   7   8
ENDBRANCH   1   7
BRANCH   4  23
ATOM     23  C   UNK d   0       9.468   7.459 -10.795  0.00  0.00     0.275 C 
ATOM     24  O   UNK d   0       9.573   8.605 -11.241  0.00  0.00    -0.266 OA
ATOM     25  N   GLU d   1       9.967   7.034  -9.610  0.00  0.00    -0.225 NA
BRANCH  25  26
ATOM     26  CA  GLU d   1      10.716   7.829  -8.643  0.00  0.00     0.194 C 
BRANCH  26  27
ATOM     27  CB  GLU d   1      11.000   6.994  -7.360  0.00  0.00     0.047 C 
BRANCH  27  28
ATOM     28  CG  GLU d   1      11.742   7.768  -6.232  0.00  0.00     0.100 C 
BRANCH  28  29
ATOM     29  CD  GLU d   1      10.896   8.767  -5.515  0.00  0.00     0.185 C 
ATOM     30  OE1 GLU d   1       9.857   9.182  -5.993  0.00  0.00    -0.647 OA
ATOM     31  OE2 GLU d   1      11.483   9.234  -4.380  0.00  0.00    -0.647 OA
ENDBRANCH  28  29
ENDBRANCH  27  28
ENDBRANCH  26  27
BRANCH  26  32
ATOM     32  C   GLU d   1      11.998   8.389  -9.286  0.00  0.00     0.209 C 
ATOM     33  O   GLU d   1      13.103   7.972  -8.960  0.00  0.00    -0.646 OA
ATOM     34  OXT GLU d   1      11.858   9.358 -10.221  0.00  0.00    -0.646 OA
ENDBRANCH  26  32
ENDBRANCH  25  26
ENDBRANCH   4  23
TORSDOF 10
