REMARK  6 active torsions:
REMARK  status: ('A' for Active; 'I' for Inactive)
REMARK    1  A    between atoms: N_11  and  C_12 
REMARK    2  A    between atoms: C_12  and  C_13 
REMARK    3  A    between atoms: C_13  and  C_14 
REMARK    4  A    between atoms: C_14  and  C_15 
REMARK    5  A    between atoms: C_15  and  N_16 
REMARK    6  A    between atoms: N_19  and  C_20 
ROOT
ATOM      1  C   UNL d   1       9.227   3.910 -14.492  0.00  0.00     0.251 C 
ENDROOT
BRANCH   1   2
ATOM      2  C   UNL d   1       8.987   2.392 -14.515  0.00  0.00     0.037 C 
BRANCH   2   3
ATOM      3  C   UNL d   1       7.498   2.020 -14.411  0.00  0.00     0.027 C 
BRANCH   3   4
ATOM      4  C   UNL d   1       7.288   0.495 -14.298  0.00  0.00     0.112 C 
BRANCH   4   5
ATOM      5  N   UNL d   1       6.498  -0.028 -15.410  0.00  0.00    -0.264 N 
ATOM      6  C   UNL d   1       6.925  -0.011 -16.702  0.00  0.00     0.263 A 
ATOM      7  O   UNL d   1       7.982   0.426 -17.158  0.00  0.00    -0.267 OA
ATOM      8  C   UNL d   1       5.848  -0.629 -17.502  0.00  0.00     0.061 A 
ATOM      9  C   UNL d   1       4.849  -0.990 -16.631  0.00  0.00     0.061 A 
ATOM     10  C   UNL d   1       5.761  -0.861 -18.885  0.00  0.00     0.005 A 
ATOM     11  C   UNL d   1       3.676  -1.611 -17.067  0.00  0.00     0.005 A 
ATOM     12  C   UNL d   1       5.275  -0.599 -15.265  0.00  0.00     0.263 A 
ATOM     13  C   UNL d   1       3.553  -1.862 -18.455  0.00  0.00     0.000 A 
ATOM     14  C   UNL d   1       4.583  -1.489 -19.357  0.00  0.00     0.000 A 
ATOM     15  O   UNL d   1       4.615  -0.762 -14.235  0.00  0.00    -0.267 OA
ENDBRANCH   4   5
ENDBRANCH   3   4
ENDBRANCH   2   3
ENDBRANCH   1   2
BRANCH   1  16
ATOM     16  N   UNL d   1       8.755   4.518 -13.251  0.00  0.00     0.141 N 
ATOM     17  C   UNL d   1       8.835   5.976 -13.371  0.00  0.00     0.274 C 
ATOM     18  C   UNL d   1       8.333   6.685 -12.106  0.00  0.00     0.137 C 
ATOM     19  N   UNL d   1       9.116   6.206 -10.981  0.00  0.00    -0.344 N 
ATOM     20  C   UNL d   1       9.144   4.758 -10.838  0.00  0.00     0.137 C 
ATOM     21  C   UNL d   1       9.616   4.114 -12.141  0.00  0.00     0.274 C 
BRANCH  19  22
ATOM     22  C   UNL d   1       9.686   7.090 -10.041  0.00  0.00     0.068 A 
ATOM     23  C   UNL d   1       9.569   6.900  -8.644  0.00  0.00     0.084 A 
ATOM     24  C   UNL d   1      10.192   7.801  -7.748  0.00  0.00     0.070 A 
ATOM     25 CL   UNL d   1       8.620   5.598  -8.034  0.00  0.00    -0.080 Cl
ATOM     26  C   UNL d   1      10.928   8.894  -8.236  0.00  0.00     0.012 A 
ATOM     27 CL   UNL d   1      10.078   7.587  -6.043  0.00  0.00    -0.081 Cl
ATOM     28  C   UNL d   1      11.033   9.101  -9.619  0.00  0.00     0.002 A 
ATOM     29  C   UNL d   1      10.395   8.220 -10.507  0.00  0.00     0.018 A 
ENDBRANCH  19  22
ENDBRANCH   1  16
TORSDOF 6
