REMARK  8 active torsions:
REMARK  status: ('A' for Active; 'I' for Inactive)
REMARK    1  A    between atoms: C_2  and  C_3 
REMARK    2  A    between atoms: C_7  and  N_8 
REMARK    3  A    between atoms: N_11  and  C_12 
REMARK    4  A    between atoms: C_12  and  C_13 
REMARK    5  A    between atoms: C_13  and  C_15 
REMARK    6  A    between atoms: C_15  and  C_16 
REMARK    7  A    between atoms: C_16  and  N_17 
REMARK       I    between atoms: N_17  and  C_18 
REMARK    8  A    between atoms: C_18  and  C_20 
ROOT
ATOM      1  C   UNL d   1       8.634   5.919 -13.086  0.00  0.00     0.283 C 
ENDROOT
BRANCH   1   2
ATOM      2  N   UNL d   1       8.205   4.512 -13.073  0.00  0.00     0.144 N 
ATOM      3  C   UNL d   1       9.059   3.764 -14.016  0.00  0.00     0.274 C 
ATOM      4  C   UNL d   1       8.659   2.287 -14.163  0.00  0.00     0.137 C 
ATOM      5  N   UNL d   1       7.207   2.185 -14.398  0.00  0.00    -0.344 N 
ATOM      6  C   UNL d   1       6.285   2.977 -13.565  0.00  0.00     0.137 C 
ATOM      7  C   UNL d   1       6.804   4.411 -13.538  0.00  0.00     0.274 C 
BRANCH   5   8
ATOM      8  C   UNL d   1       6.750   1.351 -15.415  0.00  0.00     0.067 A 
ATOM      9  C   UNL d   1       7.209   1.565 -16.730  0.00  0.00     0.018 A 
ATOM     10  C   UNL d   1       6.772   0.738 -17.774  0.00  0.00     0.001 A 
ATOM     11  C   UNL d   1       5.899  -0.327 -17.512  0.00  0.00    -0.003 A 
ATOM     12  C   UNL d   1       5.471  -0.566 -16.193  0.00  0.00    -0.010 A 
ATOM     13  C   UNL d   1       5.869   0.283 -15.139  0.00  0.00     0.069 A 
ATOM     14 CL   UNL d   1       5.297  -0.009 -13.522  0.00  0.00    -0.081 Cl
BRANCH  12  15
ATOM     15  C   UNL d   1       4.518  -1.716 -15.955  0.00  0.00     0.027 C 
ATOM     16  C   UNL d   1       3.083  -1.240 -16.142  0.00  0.00     0.005 C 
ENDBRANCH  12  15
ENDBRANCH   5   8
ENDBRANCH   1   2
BRANCH   1  17
ATOM     17  C   UNL d   1       8.090   6.787 -11.922  0.00  0.00     0.188 C 
ATOM     18  O   UNL d   1       8.394   8.130 -12.184  0.00  0.00    -0.221 OA
BRANCH  17  19
ATOM     19  C   UNL d   1       8.698   6.373 -10.562  0.00  0.00     0.061 C 
BRANCH  19  20
ATOM     20  C   UNL d   1      10.208   6.559 -10.515  0.00  0.00     0.132 C 
BRANCH  20  21
ATOM     21  N   UNL d   1      10.663   6.794  -9.156  0.00  0.00    -0.233 NA
ATOM     22  C   UNL d   1      10.886   8.005  -8.627  0.00  0.00     0.294 C 
ATOM     23  O   UNL d   1      10.823   9.060  -9.268  0.00  0.00    -0.264 OA
BRANCH  22  24
ATOM     24  C   UNL d   1      11.202   7.985  -7.179  0.00  0.00     0.158 A 
ATOM     25  N   UNL d   1      11.322   6.833  -6.407  0.00  0.00    -0.222 NA
ATOM     26  C   UNL d   1      11.567   7.256  -5.174  0.00  0.00     0.148 A 
ATOM     27  N   UNL d   1      11.608   8.668  -5.109  0.00  0.00    -0.288 N 
ATOM     28  C   UNL d   1      11.856   6.575  -3.962  0.00  0.00     0.037 A 
ATOM     29  C   UNL d   1      11.376   9.096  -6.410  0.00  0.00     0.106 A 
ATOM     30  C   UNL d   1      11.859   9.352  -3.959  0.00  0.00     0.082 A 
ATOM     31  C   UNL d   1      12.133   8.654  -2.795  0.00  0.00     0.019 A 
ATOM     32  C   UNL d   1      12.117   7.238  -2.798  0.00  0.00     0.005 A 
ENDBRANCH  22  24
ENDBRANCH  20  21
ENDBRANCH  19  20
ENDBRANCH  17  19
ENDBRANCH   1  17
TORSDOF 8
