REMARK  1 active torsions:
REMARK  status: ('A' for Active; 'I' for Inactive)
REMARK    1  A    between atoms: C_12  and  C_13 
ROOT
ATOM      1  C   UNL d   1      13.007  -0.690 -19.982  0.00  0.00     0.285 C 
ATOM      2  N   UNL d   1      11.841  -0.367 -19.162  0.00  0.00     0.135 N 
ATOM      3  C   UNL d   1      10.781   0.289 -19.933  0.00  0.00     0.222 C 
ATOM      4  C   UNL d   1      11.249   1.745 -20.103  0.00  0.00     0.035 C 
ATOM      5  C   UNL d   1      12.155   1.978 -18.895  0.00  0.00     0.035 C 
ATOM      6  C   UNL d   1      12.125   0.641 -18.142  0.00  0.00     0.222 C 
ATOM      7  C   UNL d   1      10.992   0.567 -17.091  0.00  0.00     0.061 C 
ATOM      8  C   UNL d   1       9.582   0.824 -17.676  0.00  0.00     0.110 C 
ATOM      9  C   UNL d   1       8.466   0.241 -16.808  0.00  0.00     0.097 C 
ATOM     10  C   UNL d   1       8.373   0.971 -15.481  0.00  0.00     0.177 C 
ATOM     11  O   UNL d   1       8.113   0.348 -14.452  0.00  0.00    -0.291 OA
ATOM     12  C   UNL d   1       8.579   2.425 -15.521  0.00  0.00     0.059 C 
ATOM     13  C   UNL d   1       9.057   2.946 -16.679  0.00  0.00     0.119 C 
ATOM     14  O   UNL d   1       9.394   2.231 -17.807  0.00  0.00    -0.333 OA
ATOM     15  C   UNL d   1       9.483   0.169 -19.087  0.00  0.00     0.061 C 
ENDROOT
BRANCH  12  16
ATOM     16  C   UNL d   1       8.307   3.273 -14.357  0.00  0.00     0.005 A 
ATOM     17  C   UNL d   1       7.003   3.275 -13.806  0.00  0.00     0.000 A 
ATOM     18  C   UNL d   1       6.713   4.042 -12.659  0.00  0.00     0.000 A 
ATOM     19  C   UNL d   1       7.729   4.800 -12.051  0.00  0.00     0.000 A 
ATOM     20  C   UNL d   1       9.031   4.806 -12.592  0.00  0.00     0.000 A 
ATOM     21  C   UNL d   1       9.323   4.045 -13.745  0.00  0.00     0.000 A 
ENDBRANCH  12  16
TORSDOF 1
