REMARK  9 active torsions:
REMARK  status: ('A' for Active; 'I' for Inactive)
REMARK    1  A    between atoms: S_2  and  C_3 
REMARK    2  A    between atoms: S_2  and  C_20 
REMARK    3  A    between atoms: C_3  and  C_4 
REMARK    4  A    between atoms: C_4  and  N_5 
REMARK    5  A    between atoms: N_5  and  C_6 
REMARK    6  A    between atoms: N_9  and  C_10 
REMARK    7  A    between atoms: C_10  and  C_11 
REMARK    8  A    between atoms: C_20  and  C_21 
REMARK    9  A    between atoms: C_20  and  C_28 
ROOT
ATOM      1  O   UNL d   1      11.394   4.759 -13.653  0.00  0.00    -0.256 OA
ATOM      2  S   UNL d   1      10.155   3.995 -13.160  0.00  0.00     0.051 S 
ENDROOT
BRANCH   2   3
ATOM      3  C   UNL d   1       9.063   5.157 -12.193  0.00  0.00     0.131 C 
BRANCH   3   4
ATOM      4  C   UNL d   1       9.860   5.810 -11.093  0.00  0.00     0.304 C 
BRANCH   4   5
ATOM      5  N   UNL d   1       9.109   6.760 -10.321  0.00  0.00     0.338 N 
BRANCH   5   6
ATOM      6  C   UNL d   1      10.004   7.542  -9.476  0.00  0.00     0.261 C 
ATOM      7  C   UNL d   1       9.250   8.680  -8.815  0.00  0.00     0.071 C 
ATOM      8  C   UNL d   1      10.102   9.399  -7.789  0.00  0.00     0.253 C 
ATOM      9  N   UNL d   1      10.547   8.496  -6.740  0.00  0.00     0.141 N 
ATOM     10  C   UNL d   1      11.451   7.555  -7.398  0.00  0.00     0.253 C 
ATOM     11  C   UNL d   1      10.557   6.704  -8.299  0.00  0.00     0.071 C 
BRANCH   9  12
ATOM     12  C   UNL d   1      11.121   9.297  -5.681  0.00  0.00     0.277 C 
BRANCH  12  13
ATOM     13  C   UNL d   1      11.574   8.538  -4.448  0.00  0.00     0.011 C 
ATOM     14  C   UNL d   1      11.270   7.165  -4.370  0.00  0.00    -0.000 C 
ATOM     15  C   UNL d   1      11.864   6.461  -3.330  0.00  0.00     0.029 C 
ATOM     16  C   UNL d   1      12.575   7.024  -2.339  0.00  0.00     0.140 C 
ATOM     17  C   UNL d   1      12.792   8.415  -2.306  0.00  0.00     0.029 C 
ATOM     18  F   UNL d   1      13.007   6.131  -1.405  0.00  0.00    -0.204 F 
ATOM     19  C   UNL d   1      12.303   9.146  -3.406  0.00  0.00    -0.000 C 
ENDBRANCH  12  13
ENDBRANCH   9  12
ENDBRANCH   5   6
ENDBRANCH   4   5
ENDBRANCH   3   4
ENDBRANCH   2   3
BRANCH   2  20
ATOM     20  C   UNL d   1       9.034   3.723 -14.622  0.00  0.00     0.124 C 
BRANCH  20  21
ATOM     21  C   UNL d   1       7.882   2.760 -14.289  0.00  0.00    -0.006 A 
ATOM     22  C   UNL d   1       6.790   3.206 -13.501  0.00  0.00    -0.001 A 
ATOM     23  C   UNL d   1       5.762   2.312 -13.137  0.00  0.00     0.029 A 
ATOM     24  C   UNL d   1       5.769   0.988 -13.604  0.00  0.00     0.140 A 
ATOM     25  C   UNL d   1       6.816   0.541 -14.427  0.00  0.00     0.029 A 
ATOM     26  F   UNL d   1       4.778   0.131 -13.254  0.00  0.00    -0.204 F 
ATOM     27  C   UNL d   1       7.867   1.419 -14.755  0.00  0.00    -0.001 A 
ENDBRANCH  20  21
BRANCH  20  28
ATOM     28  C   UNL d   1       9.890   3.284 -15.806  0.00  0.00    -0.006 A 
ATOM     29  C   UNL d   1       9.689   3.891 -17.062  0.00  0.00    -0.001 A 
ATOM     30  C   UNL d   1      10.424   3.465 -18.182  0.00  0.00     0.029 A 
ATOM     31  C   UNL d   1      11.374   2.435 -18.051  0.00  0.00     0.140 A 
ATOM     32  C   UNL d   1      11.589   1.831 -16.799  0.00  0.00     0.029 A 
ATOM     33  F   UNL d   1      12.083   2.032 -19.132  0.00  0.00    -0.204 F 
ATOM     34  C   UNL d   1      10.858   2.259 -15.678  0.00  0.00    -0.001 A 
ENDBRANCH  20  28
ENDBRANCH   2  20
TORSDOF 9
