REMARK  3 active torsions:
REMARK  status: ('A' for Active; 'I' for Inactive)
REMARK    1  A    between atoms: C_5  and  C_6 
REMARK    2  A    between atoms: C_6  and  N_7 
REMARK    3  A    between atoms: C_10  and  C_11 
ROOT
ATOM      1  N   UNL d   1      10.107   8.021  -8.272  0.00  0.00     0.146 N 
ATOM      2  C   UNL d   1       9.014   7.051  -8.067  0.00  0.00     0.277 C 
ATOM      3  C   UNL d   1       8.825   6.114  -9.236  0.00  0.00     0.008 C 
ATOM      4  C   UNL d   1       9.305   6.358 -10.451  0.00  0.00     0.019 C 
ATOM      5  C   UNL d   1      10.062   7.653 -10.693  0.00  0.00     0.065 C 
ATOM      6  C   UNL d   1       9.903   8.690  -9.559  0.00  0.00     0.256 C 
ENDROOT
BRANCH   4   7
ATOM      7  C   UNL d   1       9.028   5.453 -11.562  0.00  0.00     0.178 A 
ATOM      8  O   UNL d   1       7.799   4.858 -11.653  0.00  0.00    -0.288 OA
ATOM      9  C   UNL d   1       7.917   4.096 -12.803  0.00  0.00     0.119 A 
ATOM     10  C   UNL d   1       9.242   4.227 -13.277  0.00  0.00     0.107 A 
ATOM     11  C   UNL d   1       6.967   3.285 -13.422  0.00  0.00     0.027 A 
ATOM     12  N   UNL d   1       9.919   5.137 -12.504  0.00  0.00    -0.220 NA
ATOM     13  C   UNL d   1       9.638   3.466 -14.395  0.00  0.00     0.033 A 
ATOM     14  C   UNL d   1       8.705   2.620 -15.019  0.00  0.00     0.059 A 
ATOM     15 CL   UNL d   1       9.175   1.721 -16.410  0.00  0.00    -0.082 Cl
ATOM     16  C   UNL d   1       7.378   2.525 -14.538  0.00  0.00     0.013 A 
ENDBRANCH   4   7
BRANCH   1  17
ATOM     17  C   UNL d   1      10.126   9.010  -7.198  0.00  0.00     0.277 C 
BRANCH  17  18
ATOM     18  C   UNL d   1      10.795   8.563  -5.902  0.00  0.00     0.011 A 
ATOM     19  C   UNL d   1      11.257   9.527  -4.983  0.00  0.00    -0.002 A 
ATOM     20  C   UNL d   1      11.863   9.111  -3.761  0.00  0.00     0.011 A 
ATOM     21  C   UNL d   1      11.941   7.730  -3.471  0.00  0.00     0.058 A 
ATOM     22 CL   UNL d   1      12.610   7.151  -2.025  0.00  0.00    -0.082 Cl
ATOM     23  C   UNL d   1      11.484   6.789  -4.373  0.00  0.00     0.011 A 
ATOM     24  C   UNL d   1      10.972   7.187  -5.610  0.00  0.00    -0.002 A 
ENDBRANCH  17  18
ENDBRANCH   1  17
TORSDOF 3
