REMARK  6 active torsions:
REMARK  status: ('A' for Active; 'I' for Inactive)
REMARK       I    between atoms: C_2  and  N_3 
REMARK    1  A    between atoms: C_2  and  C_20 
REMARK    2  A    between atoms: N_3  and  C_4 
REMARK    3  A    between atoms: N_7  and  C_8 
REMARK    4  A    between atoms: C_8  and  C_9 
REMARK    5  A    between atoms: C_12  and  C_13 
REMARK    6  A    between atoms: C_24  and  C_25 
ROOT
ATOM      1  C   UNL d   1       9.033   4.904 -11.091  0.00  0.00     0.142 C 
ATOM      2  C   UNL d   1       7.550   4.939 -11.425  0.00  0.00     0.062 C 
ATOM      3  C   UNL d   1       7.525   4.960 -12.950  0.00  0.00     0.253 C 
ATOM      4  N   UNL d   1       8.765   4.306 -13.343  0.00  0.00     0.143 N 
ATOM      5  C   UNL d   1       9.735   4.902 -12.445  0.00  0.00     0.275 C 
ENDROOT
BRANCH   1   6
ATOM      6  N   UNL d   1       9.460   6.019 -10.272  0.00  0.00    -0.234 NA
ATOM      7  C   UNL d   1       9.469   6.029  -8.932  0.00  0.00     0.275 C 
ATOM      8  O   UNL d   1       9.029   5.113  -8.243  0.00  0.00    -0.266 OA
BRANCH   7   9
ATOM      9  C   UNL d   1      10.136   7.221  -8.313  0.00  0.00     0.058 A 
ATOM     10  C   UNL d   1      10.479   7.210  -6.939  0.00  0.00     0.005 A 
ATOM     11  C   UNL d   1      11.113   8.319  -6.329  0.00  0.00     0.006 A 
ATOM     12  C   UNL d   1      11.393   9.446  -7.131  0.00  0.00     0.001 A 
ATOM     13  C   UNL d   1      11.064   9.444  -8.504  0.00  0.00     0.000 A 
ATOM     14  C   UNL d   1      10.417   8.361  -9.087  0.00  0.00     0.005 A 
BRANCH  11  15
ATOM     15  C   UNL d   1      11.471   8.313  -4.909  0.00  0.00     0.029 A 
ATOM     16  S   UNL d   1      11.834   6.798  -4.110  0.00  0.00    -0.086 SA
ATOM     17  C   UNL d   1      12.123   7.608  -2.602  0.00  0.00     0.035 A 
ATOM     18  C   UNL d   1      11.980   8.966  -2.724  0.00  0.00     0.007 A 
ATOM     19  C   UNL d   1      11.606   9.370  -4.042  0.00  0.00     0.007 A 
ENDBRANCH  11  15
ENDBRANCH   7   9
ENDBRANCH   1   6
BRANCH   4  20
ATOM     20  C   UNL d   1       9.129   4.547 -14.730  0.00  0.00     0.277 C 
BRANCH  20  21
ATOM     21  C   UNL d   1       9.482   3.271 -15.473  0.00  0.00     0.011 A 
ATOM     22  C   UNL d   1      10.739   3.144 -16.102  0.00  0.00    -0.002 A 
ATOM     23  C   UNL d   1      11.063   1.974 -16.818  0.00  0.00     0.004 A 
ATOM     24  C   UNL d   1      10.136   0.914 -16.912  0.00  0.00     0.071 A 
ATOM     25  C   UNL d   1       8.876   1.042 -16.288  0.00  0.00     0.004 A 
ATOM     26  C   UNL d   1       8.552   2.213 -15.571  0.00  0.00    -0.002 A 
BRANCH  24  27
ATOM     27  C   UNL d   1      10.479  -0.358 -17.671  0.00  0.00     0.419 C 
ATOM     28  F   UNL d   1       9.707  -0.450 -18.753  0.00  0.00    -0.166 F 
ATOM     29  F   UNL d   1      11.757  -0.400 -18.052  0.00  0.00    -0.166 F 
ATOM     30  F   UNL d   1      10.246  -1.403 -16.886  0.00  0.00    -0.166 F 
ENDBRANCH  24  27
ENDBRANCH  20  21
ENDBRANCH   4  20
TORSDOF 6
