REMARK  7 active torsions:
REMARK  status: ('A' for Active; 'I' for Inactive)
REMARK    1  A    between atoms: C_15  and  N_16 
REMARK    2  A    between atoms: N_16  and  C_17 
REMARK    3  A    between atoms: C_17  and  C_18 
REMARK    4  A    between atoms: C_18  and  C_19 
REMARK    5  A    between atoms: C_19  and  C_20 
REMARK    6  A    between atoms: C_20  and  N_21 
REMARK    7  A    between atoms: N_24  and  C_25 
ROOT
ATOM      1  C   UNL d   1       9.336  -1.326 -21.933  0.00  0.00     0.033 C 
ATOM      2  C   UNL d   1      10.508  -0.397 -21.761  0.00  0.00    -0.005 A 
ATOM      3  C   UNL d   1      11.412   0.016 -22.783  0.00  0.00     0.009 A 
ATOM      4  C   UNL d   1      12.333   0.867 -22.239  0.00  0.00     0.029 A 
ATOM      5  C   UNL d   1      13.492   1.572 -22.868  0.00  0.00     0.049 C 
ATOM      6  N   UNL d   1      12.019   1.001 -20.897  0.00  0.00    -0.309 N 
ATOM      7  C   UNL d   1      10.914   0.221 -20.604  0.00  0.00     0.065 A 
ATOM      8  C   UNL d   1      10.422   0.208 -19.251  0.00  0.00     0.097 C 
ATOM      9  N   UNL d   1      10.941   0.954 -18.327  0.00  0.00    -0.250 N 
ATOM     10  N   UNL d   1      11.961   1.832 -18.520  0.00  0.00    -0.240 N 
ATOM     11  C   UNL d   1      12.100   2.615 -17.434  0.00  0.00     0.122 A 
ATOM     12  C   UNL d   1      13.053   3.647 -17.280  0.00  0.00     0.034 A 
ATOM     13  C   UNL d   1      13.030   4.369 -16.150  0.00  0.00     0.006 A 
ATOM     14  C   UNL d   1      12.020   4.080 -15.151  0.00  0.00     0.036 A 
ATOM     15  C   UNL d   1      11.120   3.087 -15.310  0.00  0.00     0.132 A 
ATOM     16  N   UNL d   1      11.207   2.318 -16.469  0.00  0.00    -0.278 N 
ATOM     17  B   UNL d   1      10.332   1.075 -16.859  0.00  0.00     0.789 B 
ATOM     18  F   UNL d   1       8.987   1.337 -16.890  0.00  0.00    -0.252 F 
ATOM     19  F   UNL d   1      10.654  -0.051 -16.139  0.00  0.00    -0.252 F 
ATOM     20  B   UNL d   1      12.800   1.904 -19.855  0.00  0.00     0.788 B 
ATOM     21  F   UNL d   1      14.062   1.409 -19.655  0.00  0.00    -0.252 F 
ATOM     22  F   UNL d   1      12.848   3.196 -20.315  0.00  0.00    -0.252 F 
ENDROOT
BRANCH  15  23
ATOM     23  N   UNL d   1      10.066   2.794 -14.464  0.00  0.00    -0.255 NA
BRANCH  23  24
ATOM     24  C   UNL d   1       9.835   3.364 -13.145  0.00  0.00     0.127 C 
BRANCH  24  25
ATOM     25  C   UNL d   1       8.670   4.355 -13.121  0.00  0.00     0.028 C 
BRANCH  25  26
ATOM     26  C   UNL d   1       8.416   4.937 -11.730  0.00  0.00     0.037 C 
BRANCH  26  27
ATOM     27  C   UNL d   1       9.356   6.107 -11.420  0.00  0.00     0.251 C 
BRANCH  27  28
ATOM     28  N   UNL d   1       9.162   6.598 -10.059  0.00  0.00     0.141 N 
ATOM     29  C   UNL d   1       9.543   8.010  -9.978  0.00  0.00     0.274 C 
ATOM     30  C   UNL d   1       9.329   8.549  -8.547  0.00  0.00     0.137 C 
ATOM     31  N   UNL d   1      10.095   7.750  -7.585  0.00  0.00    -0.344 N 
ATOM     32  C   UNL d   1       9.793   6.325  -7.700  0.00  0.00     0.137 C 
ATOM     33  C   UNL d   1       9.995   5.836  -9.140  0.00  0.00     0.274 C 
BRANCH  31  34
ATOM     34  C   UNL d   1      10.884   8.344  -6.626  0.00  0.00     0.068 A 
ATOM     35  C   UNL d   1      11.170   7.837  -5.328  0.00  0.00     0.084 A 
ATOM     36  C   UNL d   1      12.005   8.449  -4.383  0.00  0.00     0.070 A 
ATOM     37 CL   UNL d   1      10.520   6.391  -4.853  0.00  0.00    -0.080 Cl
ATOM     38  C   UNL d   1      12.665   9.606  -4.769  0.00  0.00     0.012 A 
ATOM     39 CL   UNL d   1      12.285   7.790  -2.793  0.00  0.00    -0.081 Cl
ATOM     40  C   UNL d   1      12.397  10.170  -6.023  0.00  0.00     0.002 A 
ATOM     41  C   UNL d   1      11.529   9.548  -6.939  0.00  0.00     0.018 A 
ENDBRANCH  31  34
ENDBRANCH  27  28
ENDBRANCH  26  27
ENDBRANCH  25  26
ENDBRANCH  24  25
ENDBRANCH  23  24
ENDBRANCH  15  23
TORSDOF 7
