REMARK  2 active torsions:
REMARK  status: ('A' for Active; 'I' for Inactive)
REMARK    1  A    between atoms: C_2  and  C_3 
REMARK    2  A    between atoms: C_3  and  N_4 
ROOT
ATOM      1  N   UNL d   1       8.682   6.186 -11.553  0.00  0.00     0.140 N 
ATOM      2  C   UNL d   1       9.204   7.280 -12.346  0.00  0.00     0.282 C 
ATOM      3  C   UNL d   1       9.254   8.593 -11.548  0.00  0.00     0.178 C 
ATOM      4  O   UNL d   1      10.058   8.496 -10.388  0.00  0.00    -0.348 OA
ATOM      5  C   UNL d   1       9.577   7.474  -9.573  0.00  0.00     0.169 C 
ATOM      6  C   UNL d   1      10.255   7.502  -8.239  0.00  0.00     0.003 A 
ATOM      7  C   UNL d   1      10.543   8.708  -7.591  0.00  0.00     0.003 A 
ATOM      8  C   UNL d   1      11.095   8.703  -6.271  0.00  0.00     0.058 A 
ATOM      9  C   UNL d   1      11.559   9.940  -5.631  0.00  0.00     0.279 A 
ATOM     10  O   UNL d   1      11.487  11.000  -6.219  0.00  0.00    -0.265 OA
ATOM     11  N   UNL d   1      12.051   9.778  -4.358  0.00  0.00    -0.206 NA
ATOM     12  C   UNL d   1      12.263   8.570  -3.700  0.00  0.00     0.102 A 
ATOM     13  C   UNL d   1      11.910   7.415  -4.271  0.00  0.00     0.021 A 
ATOM     14  C   UNL d   1      11.299   7.501  -5.612  0.00  0.00     0.006 A 
ATOM     15  C   UNL d   1      10.967   6.346  -6.261  0.00  0.00    -0.004 A 
ATOM     16  C   UNL d   1      10.400   6.295  -7.550  0.00  0.00    -0.024 A 
ATOM     17  C   UNL d   1       9.992   4.969  -8.227  0.00  0.00     0.028 C 
ATOM     18  C   UNL d   1       8.992   5.047  -9.356  0.00  0.00     0.041 C 
ATOM     19  C   UNL d   1       9.486   6.098 -10.326  0.00  0.00     0.251 C 
ENDROOT
BRANCH   1  20
ATOM     20  C   UNL d   1       8.621   4.928 -12.309  0.00  0.00     0.250 C 
BRANCH  20  21
ATOM     21  C   UNL d   1       7.578   4.959 -13.427  0.00  0.00     0.035 C 
ATOM     22  C   UNL d   1       6.129   5.082 -12.878  0.00  0.00     0.002 C 
ENDBRANCH  20  21
ENDBRANCH   1  20
TORSDOF 2
