REMARK  6 active torsions:
REMARK  status: ('A' for Active; 'I' for Inactive)
REMARK    1  A    between atoms: S_2  and  N_4 
REMARK    2  A    between atoms: S_2  and  C_22 
REMARK    3  A    between atoms: N_4  and  C_5 
REMARK    4  A    between atoms: N_13  and  C_14 
REMARK    5  A    between atoms: C_14  and  C_15 
REMARK    6  A    between atoms: C_25  and  C_26 
ROOT
ATOM      1  C   UNL d   1       8.847   5.481 -10.847  0.00  0.00     0.093 A 
ATOM      2  C   UNL d   1       7.713   4.712 -10.761  0.00  0.00     0.020 A 
ATOM      3  C   UNL d   1       7.111   4.049 -11.817  0.00  0.00    -0.003 A 
ATOM      4  C   UNL d   1       7.771   4.023 -13.060  0.00  0.00    -0.024 A 
ATOM      5  C   UNL d   1       8.973   4.788 -13.165  0.00  0.00    -0.022 A 
ATOM      6  C   UNL d   1       9.495   5.512 -12.065  0.00  0.00     0.015 A 
ATOM      7  C   UNL d   1       9.787   4.877 -14.411  0.00  0.00     0.061 C 
ATOM      8  C   UNL d   1      10.224   3.534 -14.964  0.00  0.00     0.255 C 
ATOM      9  N   UNL d   1       9.138   2.888 -15.702  0.00  0.00     0.144 N 
ATOM     10  C   UNL d   1       8.194   2.215 -14.803  0.00  0.00     0.255 C 
ATOM     11  C   UNL d   1       7.199   3.169 -14.139  0.00  0.00     0.061 C 
ENDROOT
BRANCH   1  12
ATOM     12  N   UNL d   1       9.346   6.146  -9.706  0.00  0.00    -0.158 NA
BRANCH  12  13
ATOM     13  S   UNL d   1      10.414   7.512  -9.732  0.00  0.00     0.291 S 
ATOM     14  O   UNL d   1      11.761   7.048 -10.022  0.00  0.00    -0.198 OA
ATOM     15  O   UNL d   1       9.814   8.568 -10.535  0.00  0.00    -0.198 OA
BRANCH  13  16
ATOM     16  C   UNL d   1      10.559   8.006  -8.064  0.00  0.00     0.135 A 
ATOM     17  S   UNL d   1      11.380   7.002  -6.909  0.00  0.00    -0.072 SA
ATOM     18  C   UNL d   1      11.187   8.257  -5.714  0.00  0.00     0.048 A 
ATOM     19  C   UNL d   1      10.553   9.361  -6.223  0.00  0.00     0.009 A 
ATOM     20  C   UNL d   1      10.163   9.199  -7.573  0.00  0.00     0.020 A 
BRANCH  18  21
ATOM     21  C   UNL d   1      11.662   8.088  -4.362  0.00  0.00     0.087 A 
ATOM     22  N   UNL d   1      11.979   6.822  -4.026  0.00  0.00    -0.244 NA
ATOM     23  C   UNL d   1      12.439   6.605  -2.783  0.00  0.00     0.099 A 
ATOM     24  C   UNL d   1      12.607   7.626  -1.833  0.00  0.00     0.021 A 
ATOM     25  C   UNL d   1      12.229   8.934  -2.164  0.00  0.00     0.003 A 
ATOM     26  C   UNL d   1      11.745   9.177  -3.462  0.00  0.00     0.020 A 
ENDBRANCH  18  21
ENDBRANCH  13  16
ENDBRANCH  12  13
ENDBRANCH   1  12
BRANCH   9  27
ATOM     27  C   UNL d   1       9.776   1.914 -16.579  0.00  0.00     0.297 C 
BRANCH  27  28
ATOM     28  C   UNL d   1       8.850   1.355 -17.602  0.00  0.00     0.116 A 
ATOM     29  N   UNL d   1       8.602   2.004 -18.787  0.00  0.00    -0.150 NA
ATOM     30  N   UNL d   1       7.720   1.350 -19.566  0.00  0.00    -0.147 NA
ATOM     31  C   UNL d   1       7.421   0.267 -18.861  0.00  0.00     0.123 A 
ATOM     32  C   UNL d   1       8.085   0.226 -17.605  0.00  0.00     0.041 A 
ENDBRANCH  27  28
ENDBRANCH   9  27
TORSDOF 6
