REMARK  6 active torsions:
REMARK  status: ('A' for Active; 'I' for Inactive)
REMARK    1  A    between atoms: C_2  and  C_3 
REMARK       I    between atoms: C_2  and  N_5 
REMARK    2  A    between atoms: N_5  and  C_6 
REMARK    3  A    between atoms: C_9  and  C_10 
REMARK    4  A    between atoms: C_10  and  C_11 
REMARK    5  A    between atoms: C_11  and  N_12 
REMARK    6  A    between atoms: C_15  and  C_16 
ROOT
ATOM      1  N   UNL d   1       8.978   6.169  -9.389  0.00  0.00     0.137 N 
ATOM      2  C   UNL d   1      10.403   6.410  -9.504  0.00  0.00     0.251 C 
ATOM      3  C   UNL d   1      10.856   7.411  -8.459  0.00  0.00     0.040 C 
ATOM      4  C   UNL d   1      10.511   6.926  -7.031  0.00  0.00     0.026 C 
ATOM      5  C   UNL d   1       9.025   6.538  -6.966  0.00  0.00     0.040 C 
ATOM      6  C   UNL d   1       8.661   5.565  -8.101  0.00  0.00     0.251 C 
ENDROOT
BRANCH   1   7
ATOM      7  C   UNL d   1       8.514   5.279 -10.424  0.00  0.00     0.250 C 
BRANCH   7   8
ATOM      8  C   UNL d   1       8.421   5.958 -11.807  0.00  0.00     0.035 C 
BRANCH   8   9
ATOM      9  C   UNL d   1       7.881   5.024 -12.908  0.00  0.00     0.002 C 
ATOM     10  C   UNL d   1       8.759   3.759 -13.074  0.00  0.00     0.002 C 
ATOM     11  C   UNL d   1       8.207   2.795 -14.119  0.00  0.00     0.024 C 
ATOM     12  C   UNL d   1       6.721   2.447 -13.851  0.00  0.00     0.106 C 
ATOM     13  C   UNL d   1       5.854   3.707 -13.769  0.00  0.00     0.024 C 
ATOM     14  C   UNL d   1       6.389   4.668 -12.705  0.00  0.00     0.002 C 
BRANCH  12  15
ATOM     15  N   UNL d   1       6.265   1.522 -14.876  0.00  0.00    -0.238 NA
ATOM     16  C   UNL d   1       5.611   0.371 -14.665  0.00  0.00     0.285 C 
ATOM     17  O   UNL d   1       5.298  -0.018 -13.539  0.00  0.00    -0.268 OA
BRANCH  16  18
ATOM     18  C   UNL d   1       5.256  -0.434 -15.914  0.00  0.00     0.271 C 
ATOM     19  O   UNL d   1       4.095  -1.219 -15.700  0.00  0.00    -0.210 OA
ENDBRANCH  16  18
ENDBRANCH  12  15
ENDBRANCH   8   9
ENDBRANCH   7   8
ENDBRANCH   1   7
BRANCH   4  20
ATOM     20  C   UNL d   1      10.867   7.948  -5.969  0.00  0.00    -0.024 A 
ATOM     21  C   UNL d   1      11.473   7.606  -4.749  0.00  0.00    -0.001 A 
ATOM     22  C   UNL d   1      11.786   8.545  -3.772  0.00  0.00     0.090 A 
ATOM     23  C   UNL d   1      11.861   6.272  -4.258  0.00  0.00     0.061 A 
ATOM     24  C   UNL d   1      11.455   9.887  -3.953  0.00  0.00     0.024 A 
ATOM     25  O   UNL d   1      12.352   8.002  -2.658  0.00  0.00    -0.331 OA
ATOM     26  C   UNL d   1      10.870  10.262  -5.170  0.00  0.00     0.002 A 
ATOM     27  C   UNL d   1      10.567   9.315  -6.167  0.00  0.00    -0.004 A 
ATOM     28  C   UNL d   1      12.429   6.584  -2.852  0.00  0.00     0.154 A 
ENDBRANCH   4  20
TORSDOF 6
