REMARK  8 active torsions:
REMARK  status: ('A' for Active; 'I' for Inactive)
REMARK    1  A    between atoms: O_2  and  C_3 
REMARK    2  A    between atoms: C_6  and  N_7 
REMARK    3  A    between atoms: N_10  and  C_11 
REMARK    4  A    between atoms: C_11  and  C_12 
REMARK    5  A    between atoms: C_12  and  C_13 
REMARK    6  A    between atoms: C_13  and  C_14 
REMARK    7  A    between atoms: C_14  and  N_15 
REMARK       I    between atoms: N_15  and  C_16 
REMARK    8  A    between atoms: C_16  and  C_18 
ROOT
ATOM      1  C   UNL d   1       9.563   4.699 -11.802  0.00  0.00     0.251 C 
ENDROOT
BRANCH   1   2
ATOM      2  N   UNL d   1       8.754   4.395 -12.975  0.00  0.00     0.141 N 
ATOM      3  C   UNL d   1       7.372   4.071 -12.563  0.00  0.00     0.274 C 
ATOM      4  C   UNL d   1       6.522   3.698 -13.773  0.00  0.00     0.137 C 
ATOM      5  N   UNL d   1       7.177   2.617 -14.491  0.00  0.00    -0.344 N 
ATOM      6  C   UNL d   1       8.558   2.859 -14.893  0.00  0.00     0.137 C 
ATOM      7  C   UNL d   1       9.371   3.242 -13.656  0.00  0.00     0.274 C 
BRANCH   5   8
ATOM      8  C   UNL d   1       6.490   1.462 -14.868  0.00  0.00     0.056 A 
ATOM      9  C   UNL d   1       5.521   0.857 -14.036  0.00  0.00     0.019 A 
ATOM     10  C   UNL d   1       4.806  -0.283 -14.480  0.00  0.00     0.026 A 
ATOM     11  C   UNL d   1       5.061  -0.834 -15.750  0.00  0.00     0.094 A 
ATOM     12  C   UNL d   1       6.025  -0.216 -16.581  0.00  0.00     0.026 A 
ATOM     13  C   UNL d   1       6.727   0.916 -16.144  0.00  0.00     0.019 A 
BRANCH  11  14
ATOM     14  O   UNL d   1       4.338  -1.952 -16.110  0.00  0.00    -0.328 OA
ATOM     15  C   UNL d   1       4.595  -2.508 -17.392  0.00  0.00     0.181 C 
ENDBRANCH  11  14
ENDBRANCH   5   8
ENDBRANCH   1   2
BRANCH   1  16
ATOM     16  C   UNL d   1       9.236   6.074 -11.197  0.00  0.00     0.037 C 
BRANCH  16  17
ATOM     17  C   UNL d   1      10.028   6.337  -9.902  0.00  0.00     0.029 C 
BRANCH  17  18
ATOM     18  C   UNL d   1       9.242   7.217  -8.933  0.00  0.00     0.129 C 
BRANCH  18  19
ATOM     19  N   UNL d   1       9.879   7.331  -7.637  0.00  0.00    -0.234 NA
ATOM     20  C   UNL d   1      10.680   8.351  -7.316  0.00  0.00     0.275 C 
ATOM     21  O   UNL d   1      11.041   9.221  -8.104  0.00  0.00    -0.266 OA
BRANCH  20  22
ATOM     22  C   UNL d   1      11.062   8.418  -5.878  0.00  0.00     0.059 A 
ATOM     23  C   UNL d   1      11.454   7.250  -5.197  0.00  0.00     0.028 A 
ATOM     24  C   UNL d   1      11.856   7.342  -3.877  0.00  0.00     0.130 A 
ATOM     25  C   UNL d   1      11.874   8.605  -3.210  0.00  0.00     0.130 A 
ATOM     26  N   UNL d   1      12.261   6.400  -3.044  0.00  0.00    -0.102 NA
ATOM     27  C   UNL d   1      11.459   9.751  -3.874  0.00  0.00     0.023 A 
ATOM     28  N   UNL d   1      12.293   8.450  -1.959  0.00  0.00    -0.102 NA
ATOM     29  C   UNL d   1      11.076   9.665  -5.221  0.00  0.00     0.006 A 
ATOM     30  O   UNL d   1      12.549   7.076  -1.865  0.00  0.00    -0.106 OA
ENDBRANCH  20  22
ENDBRANCH  18  19
ENDBRANCH  17  18
ENDBRANCH  16  17
ENDBRANCH   1  16
TORSDOF 8
