REMARK  5 active torsions:
REMARK  status: ('A' for Active; 'I' for Inactive)
REMARK    1  A    between atoms: C_2  and  C_3 
REMARK    2  A    between atoms: C_3  and  N_4 
REMARK    3  A    between atoms: N_4  and  C_5 
REMARK    4  A    between atoms: N_4  and  C_8 
REMARK    5  A    between atoms: C_5  and  C_6 
ROOT
ATOM      1  C   UNL d   1       9.944   6.377 -10.369  0.00  0.00     0.224 C 
ATOM      2  C   UNL d   1       9.350   5.611  -9.178  0.00  0.00     0.038 C 
ATOM      3  C   UNL d   1      10.190   5.801  -7.928  0.00  0.00     0.030 C 
ATOM      4  C   UNL d   1      10.629   7.212  -7.652  0.00  0.00     0.001 A 
ATOM      5  C   UNL d   1      11.050   7.557  -6.345  0.00  0.00     0.136 A 
ATOM      6  F   UNL d   1      11.095   6.626  -5.362  0.00  0.00    -0.205 F 
ATOM      7  C   UNL d   1      11.449   8.867  -6.055  0.00  0.00     0.029 A 
ATOM      8  C   UNL d   1      11.455   9.822  -7.082  0.00  0.00     0.002 A 
ATOM      9  C   UNL d   1      11.074   9.470  -8.386  0.00  0.00    -0.004 A 
ATOM     10  C   UNL d   1      10.636   8.175  -8.688  0.00  0.00    -0.022 A 
ATOM     11  C   UNL d   1      10.104   7.885 -10.088  0.00  0.00     0.059 C 
ENDROOT
BRANCH   1  12
ATOM     12  N   UNL d   1       9.314   6.040 -11.655  0.00  0.00     0.135 N 
BRANCH  12  13
ATOM     13  C   UNL d   1       9.517   4.627 -12.014  0.00  0.00     0.250 C 
BRANCH  13  14
ATOM     14  C   UNL d   1      10.248   4.538 -13.368  0.00  0.00     0.035 C 
ATOM     15  C   UNL d   1      10.140   3.127 -13.946  0.00  0.00     0.002 C 
ENDBRANCH  13  14
ENDBRANCH  12  13
BRANCH  12  16
ATOM     16  C   UNL d   1       7.927   6.506 -11.665  0.00  0.00     0.250 C 
BRANCH  16  17
ATOM     17  C   UNL d   1       7.084   5.915 -12.782  0.00  0.00     0.035 C 
ATOM     18  C   UNL d   1       5.636   6.402 -12.752  0.00  0.00     0.002 C 
ENDBRANCH  16  17
ENDBRANCH  12  16
ENDBRANCH   1  12
TORSDOF 5
