REMARK  5 active torsions:
REMARK  status: ('A' for Active; 'I' for Inactive)
REMARK    1  A    between atoms: C_2  and  C_3 
REMARK       I    between atoms: C_2  and  N_12 
REMARK    2  A    between atoms: N_15  and  C_16 
REMARK    3  A    between atoms: C_16  and  C_17 
REMARK    4  A    between atoms: C_17  and  O_18 
REMARK    5  A    between atoms: O_18  and  C_19 
ROOT
ATOM      1  O   UNL d   1      10.938   9.048 -10.359  0.00  0.00    -0.266 OA
ATOM      2  C   UNL d   1      10.409   8.093  -9.792  0.00  0.00     0.275 C 
ATOM      3  N   UNL d   1       9.547   7.255 -10.420  0.00  0.00    -0.311 N 
ATOM      4  C   UNL d   1       9.070   7.497 -11.811  0.00  0.00     0.140 C 
ATOM      5  C   UNL d   1       9.221   6.202 -12.626  0.00  0.00     0.274 C 
ATOM      6  N   UNL d   1       8.536   5.081 -11.982  0.00  0.00     0.144 N 
ATOM      7  C   UNL d   1       9.131   4.878 -10.671  0.00  0.00     0.274 C 
ATOM      8  C   UNL d   1       8.844   6.102  -9.822  0.00  0.00     0.140 C 
ENDROOT
BRANCH   2   9
ATOM      9  C   UNL d   1      10.722   7.947  -8.337  0.00  0.00     0.137 A 
ATOM     10  N   UNL d   1      11.199   9.062  -7.657  0.00  0.00    -0.241 NA
ATOM     11  C   UNL d   1      11.446   8.783  -6.324  0.00  0.00     0.082 A 
ATOM     12  C   UNL d   1      11.084   7.421  -6.178  0.00  0.00     0.019 A 
ATOM     13  C   UNL d   1      11.946   9.521  -5.245  0.00  0.00     0.019 A 
ATOM     14  C   UNL d   1      10.701   6.897  -7.421  0.00  0.00     0.025 A 
ATOM     15  C   UNL d   1      11.206   6.820  -4.904  0.00  0.00     0.002 A 
ATOM     16  C   UNL d   1      11.708   7.545  -3.809  0.00  0.00     0.000 A 
ATOM     17  C   UNL d   1      12.074   8.889  -3.984  0.00  0.00     0.002 A 
ENDBRANCH   2   9
BRANCH   6  18
ATOM     18  C   UNL d   1       8.807   3.881 -12.744  0.00  0.00     0.283 C 
BRANCH  18  19
ATOM     19  C   UNL d   1       7.590   3.481 -13.613  0.00  0.00     0.186 C 
BRANCH  19  20
ATOM     20  O   UNL d   1       7.726   2.168 -14.163  0.00  0.00    -0.313 OA
BRANCH  20  21
ATOM     21  C   UNL d   1       8.802   1.878 -14.977  0.00  0.00     0.178 A 
ATOM     22  N   UNL d   1       9.659   2.881 -15.291  0.00  0.00    -0.221 NA
ATOM     23  C   UNL d   1      10.787   2.565 -15.968  0.00  0.00     0.101 A 
ATOM     24  C   UNL d   1      11.066   1.280 -16.456  0.00  0.00     0.021 A 
ATOM     25  C   UNL d   1      10.132   0.252 -16.186  0.00  0.00     0.005 A 
ATOM     26  C   UNL d   1       8.988   0.547 -15.405  0.00  0.00     0.044 A 
ENDBRANCH  20  21
ENDBRANCH  19  20
ENDBRANCH  18  19
ENDBRANCH   6  18
TORSDOF 5
