REMARK  7 active torsions:
REMARK  status: ('A' for Active; 'I' for Inactive)
REMARK    1  A    between atoms: C_2  and  C_3 
REMARK       I    between atoms: C_2  and  N_10 
REMARK    2  A    between atoms: C_3  and  C_4 
REMARK    3  A    between atoms: N_10  and  C_11 
REMARK    4  A    between atoms: C_14  and  C_15 
REMARK    5  A    between atoms: C_15  and  C_16 
REMARK    6  A    between atoms: C_16  and  N_17 
REMARK    7  A    between atoms: C_20  and  C_21 
ROOT
ATOM      1  C   UNL d   1       9.078   6.372 -11.689  0.00  0.00     0.035 C 
ENDROOT
BRANCH   1   2
ATOM      2  C   UNL d   1       9.316   7.453 -10.636  0.00  0.00     0.002 C 
ATOM      3  C   UNL d   1       9.121   6.940  -9.201  0.00  0.00     0.002 C 
ATOM      4  C   UNL d   1       9.360   8.072  -8.216  0.00  0.00     0.024 C 
ATOM      5  C   UNL d   1      10.810   8.582  -8.363  0.00  0.00     0.106 C 
ATOM      6  C   UNL d   1      11.052   9.121  -9.783  0.00  0.00     0.024 C 
ATOM      7  C   UNL d   1      10.708   7.997 -10.745  0.00  0.00     0.002 C 
BRANCH   5   8
ATOM      8  N   UNL d   1      11.022   9.660  -7.427  0.00  0.00    -0.240 NA
ATOM      9  C   UNL d   1      11.086   9.615  -6.106  0.00  0.00     0.251 C 
ATOM     10  O   UNL d   1      11.147  10.641  -5.435  0.00  0.00    -0.271 OA
BRANCH   9  11
ATOM     11  C   UNL d   1      11.043   8.234  -5.487  0.00  0.00     0.092 C 
BRANCH  11  12
ATOM     12  C   UNL d   1      11.413   8.194  -4.030  0.00  0.00     0.039 C 
ATOM     13  C   UNL d   1      11.245   6.724  -3.563  0.00  0.00     0.143 C 
ATOM     14  O   UNL d   1      11.428   6.667  -2.159  0.00  0.00    -0.354 OA
ATOM     15  C   UNL d   1      12.768   7.002  -1.885  0.00  0.00     0.142 C 
ATOM     16  C   UNL d   1      13.030   8.487  -2.217  0.00  0.00     0.032 C 
ATOM     17  C   UNL d   1      12.809   8.717  -3.709  0.00  0.00     0.006 C 
ENDBRANCH  11  12
ENDBRANCH   9  11
ENDBRANCH   5   8
ENDBRANCH   1   2
BRANCH   1  18
ATOM     18  C   UNL d   1       7.631   5.841 -11.690  0.00  0.00     0.250 C 
BRANCH  18  19
ATOM     19  N   UNL d   1       7.376   4.927 -12.803  0.00  0.00     0.137 N 
ATOM     20  C   UNL d   1       8.385   3.867 -12.828  0.00  0.00     0.251 C 
ATOM     21  C   UNL d   1       8.138   2.939 -14.014  0.00  0.00     0.040 C 
ATOM     22  C   UNL d   1       6.729   2.311 -14.015  0.00  0.00     0.028 C 
ATOM     23  C   UNL d   1       5.687   3.427 -13.783  0.00  0.00     0.040 C 
ATOM     24  C   UNL d   1       6.049   4.340 -12.601  0.00  0.00     0.251 C 
BRANCH  22  25
ATOM     25  C   UNL d   1       6.484   1.459 -15.257  0.00  0.00     0.002 A 
ATOM     26  C   UNL d   1       5.557   0.388 -15.237  0.00  0.00     0.115 A 
ATOM     27  C   UNL d   1       5.255  -0.335 -16.373  0.00  0.00     0.119 A 
ATOM     28  O   UNL d   1       4.751  -0.024 -14.221  0.00  0.00    -0.300 OA
ATOM     29  C   UNL d   1       5.875  -0.062 -17.608  0.00  0.00     0.026 A 
ATOM     30  O   UNL d   1       4.256  -1.215 -16.110  0.00  0.00    -0.300 OA
ATOM     31  C   UNL d   1       6.828   0.982 -17.646  0.00  0.00     0.002 A 
ATOM     32  C   UNL d   1       7.133   1.734 -16.486  0.00  0.00    -0.002 A 
ATOM     33  C   UNL d   1       3.952  -1.051 -14.754  0.00  0.00     0.304 A 
ENDBRANCH  22  25
ENDBRANCH  18  19
ENDBRANCH   1  18
TORSDOF 7
