REMARK  2 active torsions:
REMARK  status: ('A' for Active; 'I' for Inactive)
REMARK    1  A    between atoms: C_3  and  C_4 
REMARK       I    between atoms: C_4  and  N_6 
REMARK    2  A    between atoms: N_6  and  C_7 
ROOT
ATOM      1  C   UNL d   1      10.089   3.220 -15.327  0.00  0.00     0.144 C 
ATOM      2  N   UNL d   1       8.759   2.656 -15.020  0.00  0.00    -0.245 N 
ATOM      3  C   UNL d   1       7.880   3.238 -14.041  0.00  0.00     0.154 C 
ATOM      4  C   UNL d   1       6.695   2.642 -13.713  0.00  0.00     0.159 C 
ATOM      5  O   UNL d   1       5.808   3.166 -12.842  0.00  0.00    -0.188 OA
ATOM      6  C   UNL d   1       6.254   1.404 -14.278  0.00  0.00     0.069 A 
ATOM      7  S   UNL d   1       4.989   0.391 -13.621  0.00  0.00    -0.084 SA
ATOM      8  C   UNL d   1       5.182  -0.772 -14.915  0.00  0.00     0.036 A 
ATOM      9  C   UNL d   1       6.205  -0.421 -15.759  0.00  0.00     0.020 A 
ATOM     10  C   UNL d   1       6.800   0.809 -15.369  0.00  0.00     0.112 A 
ATOM     11  S   UNL d   1       8.158   1.522 -16.198  0.00  0.00     0.268 S 
ATOM     12  O   UNL d   1       7.618   2.281 -17.337  0.00  0.00    -0.200 OA
ATOM     13  O   UNL d   1       9.169   0.473 -16.398  0.00  0.00    -0.200 OA
ENDROOT
BRANCH   3  14
ATOM     14  C   UNL d   1       8.304   4.474 -13.375  0.00  0.00     0.299 C 
ATOM     15  O   UNL d   1       8.673   5.469 -13.988  0.00  0.00    -0.263 OA
ATOM     16  N   UNL d   1       8.289   4.385 -12.030  0.00  0.00    -0.188 NA
BRANCH  16  17
ATOM     17  C   UNL d   1       8.808   5.303 -11.080  0.00  0.00     0.166 A 
ATOM     18  N   UNL d   1       9.454   6.445 -11.411  0.00  0.00    -0.225 NA
ATOM     19  C   UNL d   1       9.923   7.244 -10.429  0.00  0.00     0.101 A 
ATOM     20  C   UNL d   1       9.817   6.928  -9.063  0.00  0.00     0.021 A 
ATOM     21  C   UNL d   1       9.154   5.741  -8.709  0.00  0.00     0.005 A 
ATOM     22  C   UNL d   1       8.659   4.915  -9.730  0.00  0.00     0.039 A 
ENDBRANCH  16  17
ENDBRANCH   3  14
TORSDOF 2
