REMARK  2 active torsions:
REMARK  status: ('A' for Active; 'I' for Inactive)
REMARK    1  A    between atoms: N_10  and  C_11 
REMARK    2  A    between atoms: C_14  and  C_15 
ROOT
ATOM      1  O   UNL d   1      10.177  -0.768 -16.755  0.00  0.00    -0.263 OA
ATOM      2  C   UNL d   1      10.018   0.382 -16.341  0.00  0.00     0.301 A 
ATOM      3  N   UNL d   1      10.905   1.421 -16.384  0.00  0.00    -0.184 NA
ATOM      4  C   UNL d   1      10.588   2.675 -15.871  0.00  0.00     0.203 A 
ATOM      5  N   UNL d   1       9.482   3.034 -15.322  0.00  0.00    -0.205 NA
ATOM      6  C   UNL d   1       8.510   2.027 -15.210  0.00  0.00     0.171 A 
ATOM      7  C   UNL d   1       8.716   0.756 -15.698  0.00  0.00     0.175 A 
ATOM      8  N   UNL d   1       7.608  -0.007 -15.470  0.00  0.00    -0.217 NA
ATOM      9  C   UNL d   1       6.774   0.833 -14.861  0.00  0.00     0.182 A 
ATOM     10  N   UNL d   1       7.261   2.090 -14.648  0.00  0.00    -0.272 N 
ENDROOT
BRANCH  10  11
ATOM     11  C   UNL d   1       6.534   3.240 -14.019  0.00  0.00     0.207 C 
ATOM     12  O   UNL d   1       7.455   4.103 -13.442  0.00  0.00    -0.336 OA
ATOM     13  C   UNL d   1       6.733   4.930 -12.546  0.00  0.00     0.150 C 
ATOM     14  C   UNL d   1       5.778   3.934 -11.886  0.00  0.00     0.037 C 
ATOM     15  C   UNL d   1       5.647   2.784 -12.870  0.00  0.00     0.057 C 
BRANCH  13  16
ATOM     16  C   UNL d   1       7.669   5.650 -11.551  0.00  0.00     0.212 C 
ATOM     17  O   UNL d   1       8.023   6.927 -12.039  0.00  0.00    -0.218 OA
ENDBRANCH  13  16
ENDBRANCH  10  11
TORSDOF 2
