REMARK  7 active torsions:
REMARK  status: ('A' for Active; 'I' for Inactive)
REMARK    1  A    between atoms: C_2  and  C_4 
REMARK       I    between atoms: C_4  and  N_6 
REMARK    2  A    between atoms: N_6  and  C_7 
REMARK    3  A    between atoms: C_11  and  C_12 
REMARK    4  A    between atoms: N_15  and  C_16 
REMARK    5  A    between atoms: C_16  and  C_17 
REMARK    6  A    between atoms: C_21  and  O_22 
REMARK    7  A    between atoms: O_22  and  C_23 
ROOT
ATOM      1  C   UNL d   1       8.953   6.426 -10.140  0.00  0.00     0.026 C 
ATOM      2  C   UNL d   1       9.277   4.976 -10.454  0.00  0.00     0.040 C 
ATOM      3  C   UNL d   1       8.230   4.390 -11.398  0.00  0.00     0.251 C 
ATOM      4  N   UNL d   1       8.135   5.140 -12.638  0.00  0.00     0.141 N 
ATOM      5  C   UNL d   1       7.656   6.483 -12.358  0.00  0.00     0.251 C 
ATOM      6  C   UNL d   1       8.716   7.167 -11.500  0.00  0.00     0.040 C 
ENDROOT
BRANCH   4   7
ATOM      7  C   UNL d   1       7.237   4.452 -13.543  0.00  0.00     0.277 C 
BRANCH   7   8
ATOM      8  C   UNL d   1       7.674   3.094 -14.043  0.00  0.00     0.013 A 
ATOM      9  C   UNL d   1       6.700   2.113 -14.321  0.00  0.00     0.022 A 
ATOM     10  C   UNL d   1       7.087   0.828 -14.748  0.00  0.00     0.100 A 
ATOM     11  C   UNL d   1       8.459   0.526 -14.904  0.00  0.00     0.025 A 
ATOM     12  C   UNL d   1       9.431   1.508 -14.639  0.00  0.00     0.002 A 
ATOM     13  C   UNL d   1       9.041   2.788 -14.216  0.00  0.00    -0.002 A 
BRANCH  10  14
ATOM     14  O   UNL d   1       6.129  -0.103 -15.061  0.00  0.00    -0.307 OA
BRANCH  14  15
ATOM     15  C   UNL d   1       5.942  -0.431 -16.385  0.00  0.00     0.102 A 
ATOM     16  C   UNL d   1       5.440  -1.713 -16.704  0.00  0.00     0.036 A 
ATOM     17  C   UNL d   1       5.264  -2.096 -18.045  0.00  0.00     0.061 A 
ATOM     18  C   UNL d   1       5.577  -1.200 -19.083  0.00  0.00     0.023 A 
ATOM     19 CL   UNL d   1       4.683  -3.671 -18.440  0.00  0.00    -0.082 Cl
ATOM     20  C   UNL d   1       6.069   0.080 -18.777  0.00  0.00     0.061 A 
ATOM     21  C   UNL d   1       6.244   0.466 -17.440  0.00  0.00     0.036 A 
ATOM     22 CL   UNL d   1       6.475   1.177 -20.044  0.00  0.00    -0.082 Cl
ENDBRANCH  14  15
ENDBRANCH  10  14
ENDBRANCH   7   8
ENDBRANCH   4   7
BRANCH   1  23
ATOM     23  C   UNL d   1      10.018   7.075  -9.255  0.00  0.00    -0.021 A 
ATOM     24  C   UNL d   1      11.048   7.825  -9.848  0.00  0.00    -0.004 A 
ATOM     25  C   UNL d   1      12.060   8.404  -9.097  0.00  0.00     0.001 A 
ATOM     26  C   UNL d   1      12.039   8.303  -7.705  0.00  0.00     0.019 A 
ATOM     27  C   UNL d   1      11.001   7.556  -7.068  0.00  0.00     0.084 A 
ATOM     28  C   UNL d   1      10.006   6.929  -7.851  0.00  0.00     0.015 A 
BRANCH  27  29
ATOM     29  N   UNL d   1      10.996   7.368  -5.651  0.00  0.00    -0.212 NA
ATOM     30  C   UNL d   1      11.489   8.234  -4.761  0.00  0.00     0.255 C 
ATOM     31  O   UNL d   1      11.767   9.410  -5.036  0.00  0.00    -0.270 OA
BRANCH  30  32
ATOM     32  C   UNL d   1      11.676   7.742  -3.313  0.00  0.00     0.081 C 
ATOM     33  C   UNL d   1      11.874   8.914  -2.338  0.00  0.00     0.010 C 
ATOM     34  C   UNL d   1      12.831   6.778  -3.211  0.00  0.00     0.010 C 
ENDBRANCH  30  32
ENDBRANCH  27  29
ENDBRANCH   1  23
TORSDOF 7
