REMARK  7 active torsions:
REMARK  status: ('A' for Active; 'I' for Inactive)
REMARK    1  A    between atoms: C_6  and  S_7 
REMARK    2  A    between atoms: S_7  and  N_10 
REMARK    3  A    between atoms: N_10  and  C_11 
REMARK    4  A    between atoms: N_14  and  C_15 
REMARK    5  A    between atoms: C_15  and  C_16 
REMARK    6  A    between atoms: C_16  and  C_17 
REMARK    7  A    between atoms: C_17  and  C_18 
ROOT
ATOM      1  C   UNL d   1       9.493   6.324 -10.893  0.00  0.00     0.151 C 
ATOM      2  C   UNL d   1       9.673   7.747 -11.460  0.00  0.00     0.063 C 
ATOM      3  C   UNL d   1      10.471   8.422 -10.380  0.00  0.00     0.252 C 
ATOM      4  N   UNL d   1      11.166   7.351  -9.674  0.00  0.00     0.139 N 
ATOM      5  C   UNL d   1      10.162   6.309  -9.516  0.00  0.00     0.275 C 
ENDROOT
BRANCH   1   6
ATOM      6  N   UNL d   1       8.084   5.951 -10.785  0.00  0.00    -0.185 NA
BRANCH   6   7
ATOM      7  S   UNL d   1       7.110   5.851 -12.191  0.00  0.00     0.281 S 
ATOM      8  O   UNL d   1       7.103   7.210 -12.763  0.00  0.00    -0.199 OA
ATOM      9  O   UNL d   1       5.834   5.247 -11.809  0.00  0.00    -0.199 OA
BRANCH   7  10
ATOM     10  C   UNL d   1       8.025   4.741 -13.291  0.00  0.00     0.106 A 
ATOM     11  C   UNL d   1       7.452   3.504 -13.683  0.00  0.00     0.029 A 
ATOM     12  C   UNL d   1       6.185   2.847 -13.487  0.00  0.00     0.021 A 
ATOM     13  C   UNL d   1       8.270   2.638 -14.468  0.00  0.00     0.061 A 
ATOM     14  C   UNL d   1       6.260   1.657 -14.150  0.00  0.00     0.076 A 
ATOM     15  N   UNL d   1       7.503   1.518 -14.745  0.00  0.00    -0.324 N 
ATOM     16  C   UNL d   1       7.928   0.388 -15.533  0.00  0.00     0.131 C 
ATOM     17  C   UNL d   1       9.592   2.967 -14.843  0.00  0.00     0.017 A 
ATOM     18  C   UNL d   1      10.114   4.217 -14.461  0.00  0.00     0.002 A 
ATOM     19  C   UNL d   1       9.318   5.109 -13.735  0.00  0.00     0.013 A 
ENDBRANCH   7  10
ENDBRANCH   6   7
ENDBRANCH   1   6
BRANCH   4  20
ATOM     20  C   UNL d   1      11.816   7.725  -8.421  0.00  0.00     0.251 C 
BRANCH  20  21
ATOM     21  C   UNL d   1      11.321   9.039  -7.781  0.00  0.00     0.042 C 
BRANCH  21  22
ATOM     22  C   UNL d   1      10.216   8.745  -6.764  0.00  0.00     0.050 C 
BRANCH  22  23
ATOM     23  C   UNL d   1      10.738   9.116  -5.417  0.00  0.00     0.088 A 
ATOM     24  C   UNL d   1      11.377   8.325  -4.446  0.00  0.00     0.041 A 
ATOM     25  C   UNL d   1      11.695   9.129  -3.345  0.00  0.00     0.126 A 
ATOM     26  C   UNL d   1      11.661   6.944  -4.413  0.00  0.00     0.003 A 
ATOM     27  O   UNL d   1      11.245  10.389  -3.692  0.00  0.00    -0.211 OA
ATOM     28  C   UNL d   1      12.281   8.632  -2.180  0.00  0.00     0.027 A 
ATOM     29  N   UNL d   1      10.666  10.371  -4.985  0.00  0.00    -0.131 NA
ATOM     30  C   UNL d   1      12.565   7.255  -2.143  0.00  0.00     0.002 A 
ATOM     31  C   UNL d   1      12.260   6.432  -3.247  0.00  0.00     0.000 A 
ENDBRANCH  22  23
ENDBRANCH  21  22
ENDBRANCH  20  21
ENDBRANCH   4  20
TORSDOF 7
