REMARK  4 active torsions:
REMARK  status: ('A' for Active; 'I' for Inactive)
REMARK    1  A    between atoms: C_4  and  C_5 
REMARK    2  A    between atoms: C_7  and  C_8 
REMARK    3  A    between atoms: C_8  and  N_9 
REMARK    4  A    between atoms: N_12  and  C_13 
ROOT
ATOM      1  N   UNL d   1       9.870   7.425  -9.191  0.00  0.00     0.147 N 
ATOM      2  C   UNL d   1      10.812   8.485  -8.823  0.00  0.00     0.275 C 
ATOM      3  C   UNL d   1      10.403   9.102  -7.475  0.00  0.00     0.137 C 
ATOM      4  N   UNL d   1      10.309   8.062  -6.453  0.00  0.00    -0.344 N 
ATOM      5  C   UNL d   1       9.469   6.926  -6.829  0.00  0.00     0.137 C 
ATOM      6  C   UNL d   1       9.921   6.364  -8.184  0.00  0.00     0.275 C 
ENDROOT
BRANCH   1   7
ATOM      7  C   UNL d   1      10.225   6.888 -10.501  0.00  0.00     0.296 C 
BRANCH   7   8
ATOM      8  C   UNL d   1       9.334   5.901 -11.202  0.00  0.00     0.100 A 
ATOM      9  N   UNL d   1       9.797   5.193 -12.319  0.00  0.00    -0.241 NA
ATOM     10  C   UNL d   1       8.878   4.366 -12.832  0.00  0.00     0.110 A 
ATOM     11  S   UNL d   1       7.340   4.428 -11.977  0.00  0.00    -0.066 SA
ATOM     12  C   UNL d   1       8.036   5.586 -10.880  0.00  0.00     0.054 A 
BRANCH  10  13
ATOM     13  C   UNL d   1       9.076   3.472 -13.971  0.00  0.00     0.024 A 
ATOM     14  C   UNL d   1      10.345   3.389 -14.588  0.00  0.00     0.002 A 
ATOM     15  C   UNL d   1      10.544   2.543 -15.695  0.00  0.00     0.000 A 
ATOM     16  C   UNL d   1       9.478   1.770 -16.191  0.00  0.00     0.000 A 
ATOM     17  C   UNL d   1       8.215   1.835 -15.575  0.00  0.00     0.000 A 
ATOM     18  C   UNL d   1       8.015   2.679 -14.468  0.00  0.00     0.002 A 
ENDBRANCH  10  13
ENDBRANCH   7   8
ENDBRANCH   1   7
BRANCH   4  19
ATOM     19  C   UNL d   1      11.028   8.125  -5.253  0.00  0.00     0.056 A 
ATOM     20  C   UNL d   1      11.475   6.944  -4.607  0.00  0.00     0.017 A 
ATOM     21  C   UNL d   1      12.159   7.011  -3.375  0.00  0.00     0.002 A 
ATOM     22  C   UNL d   1      12.392   8.253  -2.765  0.00  0.00     0.000 A 
ATOM     23  C   UNL d   1      11.945   9.430  -3.387  0.00  0.00     0.002 A 
ATOM     24  C   UNL d   1      11.273   9.370  -4.625  0.00  0.00     0.017 A 
ENDBRANCH   4  19
TORSDOF 4
