REMARK  4 active torsions:
REMARK  status: ('A' for Active; 'I' for Inactive)
REMARK    1  A    between atoms: S_2  and  C_4 
REMARK    2  A    between atoms: S_2  and  C_19 
REMARK    3  A    between atoms: C_7  and  C_8 
REMARK    4  A    between atoms: C_9  and  C_10 
ROOT
ATOM      1  C   UNL d   1       8.634   5.839 -10.879  0.00  0.00     0.107 A 
ATOM      2  C   UNL d   1       9.479   6.956 -10.755  0.00  0.00     0.015 A 
ATOM      3  C   UNL d   1      10.104   7.176  -9.516  0.00  0.00     0.020 A 
ATOM      4  C   UNL d   1       9.861   6.269  -8.466  0.00  0.00     0.082 A 
ATOM      5  N   UNL d   1       9.075   5.183  -8.604  0.00  0.00    -0.243 NA
ATOM      6  C   UNL d   1       8.442   5.000  -9.777  0.00  0.00     0.110 A 
ENDROOT
BRANCH   1   7
ATOM      7  S   UNL d   1       7.806   5.516 -12.418  0.00  0.00     0.214 S 
ATOM      8  O   UNL d   1       6.508   4.894 -12.137  0.00  0.00    -0.217 OA
ATOM      9  O   UNL d   1       7.877   6.739 -13.235  0.00  0.00    -0.217 OA
BRANCH   7  10
ATOM     10  C   UNL d   1       8.887   4.345 -13.237  0.00  0.00     0.115 A 
ATOM     11  C   UNL d   1       8.409   3.177 -13.875  0.00  0.00     0.151 A 
ATOM     12  C   UNL d   1       9.333   2.301 -14.471  0.00  0.00     0.030 A 
ATOM     13  F   UNL d   1       7.094   2.870 -13.919  0.00  0.00    -0.203 F 
ATOM     14  C   UNL d   1      10.707   2.607 -14.495  0.00  0.00     0.002 A 
ATOM     15  C   UNL d   1      11.166   3.812 -13.936  0.00  0.00     0.001 A 
ATOM     16  C   UNL d   1      10.251   4.674 -13.306  0.00  0.00     0.014 A 
ENDBRANCH   7  10
ENDBRANCH   1   7
BRANCH   4  17
ATOM     17  C   UNL d   1      10.470   6.458  -7.166  0.00  0.00     0.019 C 
ATOM     18  C   UNL d   1      10.517   7.627  -6.503  0.00  0.00     0.004 C 
BRANCH  18  19
ATOM     19  C   UNL d   1      11.166   7.860  -5.198  0.00  0.00     0.028 A 
ATOM     20  C   UNL d   1      11.271   9.180  -4.699  0.00  0.00     0.140 A 
ATOM     21  C   UNL d   1      11.867   9.425  -3.448  0.00  0.00     0.030 A 
ATOM     22  F   UNL d   1      10.763  10.221  -5.400  0.00  0.00    -0.204 F 
ATOM     23  C   UNL d   1      12.397   8.374  -2.685  0.00  0.00     0.002 A 
ATOM     24  C   UNL d   1      12.301   7.057  -3.167  0.00  0.00     0.000 A 
ATOM     25  C   UNL d   1      11.697   6.806  -4.416  0.00  0.00     0.002 A 
ENDBRANCH  18  19
ENDBRANCH   4  17
TORSDOF 4
