REMARK  7 active torsions:
REMARK  status: ('A' for Active; 'I' for Inactive)
REMARK    1  A    between atoms: O_2  and  C_3 
REMARK    2  A    between atoms: C_12  and  C_13 
REMARK    3  A    between atoms: C_13  and  O_15 
REMARK    4  A    between atoms: O_15  and  C_16 
REMARK    5  A    between atoms: C_16  and  C_17 
REMARK    6  A    between atoms: N_20  and  C_21 
REMARK    7  A    between atoms: C_21  and  C_22 
ROOT
ATOM      1  C   UNL d   1       9.279   4.891 -13.339  0.00  0.00     0.298 C 
ATOM      2  O   UNL d   1      10.269   5.552 -13.633  0.00  0.00    -0.259 OA
ENDROOT
BRANCH   1   3
ATOM      3  C   UNL d   1       8.821   3.675 -14.080  0.00  0.00     0.085 A 
ATOM      4  C   UNL d   1       9.622   3.087 -15.100  0.00  0.00     0.099 A 
ATOM      5  C   UNL d   1       9.121   1.950 -15.785  0.00  0.00     0.024 A 
ATOM      6  C   UNL d   1       7.871   1.397 -15.456  0.00  0.00     0.002 A 
ATOM      7  C   UNL d   1       7.090   1.973 -14.431  0.00  0.00     0.000 A 
ATOM      8  C   UNL d   1       7.396   0.256 -16.131  0.00  0.00     0.000 A 
ATOM      9  C   UNL d   1       5.870   1.388 -14.052  0.00  0.00     0.000 A 
ATOM     10  C   UNL d   1       7.558   3.124 -13.771  0.00  0.00     0.007 A 
ATOM     11  C   UNL d   1       5.401   0.243 -14.729  0.00  0.00     0.000 A 
ATOM     12  C   UNL d   1       6.161  -0.315 -15.773  0.00  0.00     0.000 A 
BRANCH   4  13
ATOM     13  O   UNL d   1      10.849   3.648 -15.403  0.00  0.00    -0.328 OA
ATOM     14  C   UNL d   1      11.680   3.014 -16.363  0.00  0.00     0.181 C 
ENDBRANCH   4  13
ENDBRANCH   1   3
BRANCH   1  15
ATOM     15  O   UNL d   1       8.473   5.207 -12.311  0.00  0.00    -0.298 OA
BRANCH  15  16
ATOM     16  C   UNL d   1       8.641   6.441 -11.633  0.00  0.00     0.154 C 
BRANCH  16  17
ATOM     17  C   UNL d   1       9.704   6.373 -10.525  0.00  0.00     0.066 C 
ATOM     18  C   UNL d   1       9.973   7.727  -9.860  0.00  0.00     0.253 C 
ATOM     19  N   UNL d   1      10.336   7.375  -8.491  0.00  0.00     0.141 N 
ATOM     20  C   UNL d   1       9.370   6.330  -8.147  0.00  0.00     0.251 C 
ATOM     21  C   UNL d   1       9.319   5.447  -9.379  0.00  0.00     0.040 C 
BRANCH  19  22
ATOM     22  C   UNL d   1      10.275   8.543  -7.606  0.00  0.00     0.277 C 
BRANCH  22  23
ATOM     23  C   UNL d   1      10.981   8.373  -6.258  0.00  0.00     0.011 A 
ATOM     24  C   UNL d   1      10.742   7.237  -5.440  0.00  0.00    -0.002 A 
ATOM     25  C   UNL d   1      11.471   7.080  -4.237  0.00  0.00    -0.000 A 
ATOM     26  C   UNL d   1      12.381   8.062  -3.801  0.00  0.00    -0.000 A 
ATOM     27  C   UNL d   1      12.587   9.212  -4.596  0.00  0.00    -0.000 A 
ATOM     28  C   UNL d   1      11.893   9.366  -5.823  0.00  0.00    -0.002 A 
ENDBRANCH  22  23
ENDBRANCH  19  22
ENDBRANCH  16  17
ENDBRANCH  15  16
ENDBRANCH   1  15
TORSDOF 7
