REMARK  6 active torsions:
REMARK  status: ('A' for Active; 'I' for Inactive)
REMARK    1  A    between atoms: S_2  and  C_4 
REMARK    2  A    between atoms: S_2  and  N_14 
REMARK    3  A    between atoms: C_18  and  C_19 
REMARK    4  A    between atoms: C_19  and  C_20 
REMARK    5  A    between atoms: C_20  and  N_21 
REMARK    6  A    between atoms: C_24  and  C_25 
ROOT
ATOM      1  N   UNL d   1       7.526   1.146 -15.145  0.00  0.00    -0.276 N 
ATOM      2  C   UNL d   1       7.217   0.031 -14.246  0.00  0.00     0.113 C 
ATOM      3  C   UNL d   1       5.841   0.357 -13.681  0.00  0.00     0.027 C 
ATOM      4  C   UNL d   1       5.893   1.862 -13.541  0.00  0.00     0.025 C 
ATOM      5  C   UNL d   1       6.877   2.358 -14.619  0.00  0.00     0.094 C 
ENDROOT
BRANCH   5   6
ATOM      6  C   UNL d   1       7.900   3.366 -14.068  0.00  0.00     0.058 C 
BRANCH   6   7
ATOM      7  C   UNL d   1       7.224   4.539 -13.306  0.00  0.00     0.252 C 
BRANCH   7   8
ATOM      8  N   UNL d   1       8.187   5.315 -12.544  0.00  0.00     0.137 N 
ATOM      9  C   UNL d   1       7.628   6.632 -12.265  0.00  0.00     0.251 C 
ATOM     10  C   UNL d   1       8.691   7.471 -11.554  0.00  0.00     0.041 C 
ATOM     11  C   UNL d   1       9.080   6.836 -10.185  0.00  0.00     0.047 C 
ATOM     12  C   UNL d   1       9.467   5.400 -10.462  0.00  0.00     0.041 C 
ATOM     13  C   UNL d   1       8.441   4.624 -11.280  0.00  0.00     0.251 C 
BRANCH  11  14
ATOM     14  C   UNL d   1      10.194   7.630  -9.529  0.00  0.00     0.087 A 
ATOM     15  C   UNL d   1      10.480   7.886  -8.182  0.00  0.00     0.041 A 
ATOM     16  C   UNL d   1      11.643   8.653  -8.102  0.00  0.00     0.129 A 
ATOM     17  C   UNL d   1       9.808   7.525  -6.997  0.00  0.00     0.006 A 
ATOM     18  O   UNL d   1      12.090   8.786  -9.398  0.00  0.00    -0.211 OA
ATOM     19  C   UNL d   1      12.153   9.135  -6.903  0.00  0.00     0.057 A 
ATOM     20  N   UNL d   1      11.158   8.169 -10.269  0.00  0.00    -0.131 NA
ATOM     21  C   UNL d   1      11.509   8.768  -5.715  0.00  0.00     0.142 A 
ATOM     22  F   UNL d   1      12.016   9.172  -4.529  0.00  0.00    -0.204 F 
ATOM     23  C   UNL d   1      10.362   7.955  -5.782  0.00  0.00     0.030 A 
ENDBRANCH  11  14
ENDBRANCH   7   8
ENDBRANCH   6   7
ENDBRANCH   5   6
BRANCH   1  24
ATOM     24  S   UNL d   1       7.580   0.836 -16.873  0.00  0.00     0.264 S 
ATOM     25  O   UNL d   1       7.018   1.989 -17.594  0.00  0.00    -0.200 OA
ATOM     26  O   UNL d   1       7.015  -0.485 -17.120  0.00  0.00    -0.200 OA
BRANCH  24  27
ATOM     27  C   UNL d   1       9.319   0.820 -17.324  0.00  0.00     0.105 A 
ATOM     28  C   UNL d   1       9.726   0.406 -18.624  0.00  0.00     0.030 A 
ATOM     29  C   UNL d   1      11.106   0.426 -18.980  0.00  0.00     0.082 A 
ATOM     30  C   UNL d   1       8.805  -0.025 -19.609  0.00  0.00     0.004 A 
ATOM     31  C   UNL d   1      12.038   0.878 -18.029  0.00  0.00     0.019 A 
ATOM     32  N   UNL d   1      11.553   0.031 -20.194  0.00  0.00    -0.244 NA
ATOM     33  C   UNL d   1      11.633   1.301 -16.751  0.00  0.00     0.002 A 
ATOM     34  C   UNL d   1      10.276   1.267 -16.392  0.00  0.00     0.013 A 
ATOM     35  C   UNL d   1      10.660  -0.388 -21.111  0.00  0.00     0.099 A 
ATOM     36  C   UNL d   1       9.279  -0.434 -20.867  0.00  0.00     0.021 A 
ENDBRANCH  24  27
ENDBRANCH   1  24
TORSDOF 6
