REMARK  12 active torsions:
REMARK  status: ('A' for Active; 'I' for Inactive)
REMARK    1  A    between atoms: C_2  and  O_3 
REMARK    2  A    between atoms: O_3  and  C_4 
REMARK    3  A    between atoms: C_10  and  C_11 
REMARK    4  A    between atoms: C_13  and  C_14 
REMARK    5  A    between atoms: C_14  and  N_15 
REMARK    6  A    between atoms: N_15  and  C_16 
REMARK    7  A    between atoms: N_15  and  C_18 
REMARK    8  A    between atoms: C_18  and  C_19 
REMARK    9  A    between atoms: C_19  and  C_20 
REMARK   10  A    between atoms: C_20  and  S_21 
REMARK   11  A    between atoms: S_21  and  C_22 
REMARK   12  A    between atoms: C_25  and  C_26 
ROOT
ATOM      1  N   UNL d   1      11.140   3.191 -15.198  0.00  0.00     0.137 N 
ENDROOT
BRANCH   1   2
ATOM      2  C   UNL d   1      11.513   2.737 -16.536  0.00  0.00     0.251 C 
BRANCH   2   3
ATOM      3  C   UNL d   1      10.640   1.652 -17.159  0.00  0.00     0.038 A 
ATOM      4  C   UNL d   1      10.994   1.140 -18.541  0.00  0.00     0.026 A 
ATOM      5  C   UNL d   1      11.156   0.251 -17.312  0.00  0.00     0.007 A 
BRANCH   4   6
ATOM      6  C   UNL d   1      12.216   1.665 -19.274  0.00  0.00     0.002 A 
ATOM      7  C   UNL d   1      13.261   0.780 -19.620  0.00  0.00     0.090 A 
ATOM      8  C   UNL d   1      14.429   1.301 -20.233  0.00  0.00     0.026 A 
ATOM      9  C   UNL d   1      14.531   2.679 -20.524  0.00  0.00     0.032 A 
ATOM     10  C   UNL d   1      13.486   3.546 -20.186  0.00  0.00     0.140 A 
ATOM     11  F   UNL d   1      13.611   4.878 -20.407  0.00  0.00    -0.204 F 
ATOM     12  C   UNL d   1      12.312   3.035 -19.583  0.00  0.00     0.027 A 
BRANCH   7  13
ATOM     13  O   UNL d   1      13.085  -0.554 -19.338  0.00  0.00    -0.331 OA
BRANCH  13  14
ATOM     14  C   UNL d   1      14.074  -1.488 -19.734  0.00  0.00     0.149 C 
ATOM     15  C   UNL d   1      14.030  -1.705 -21.258  0.00  0.00     0.035 C 
ENDBRANCH  13  14
ENDBRANCH   7  13
ENDBRANCH   4   6
ENDBRANCH   2   3
ENDBRANCH   1   2
BRANCH   1  16
ATOM     16  C   UNL d   1      12.169   4.134 -14.723  0.00  0.00     0.250 C 
ATOM     17  C   UNL d   1      12.256   5.468 -15.505  0.00  0.00     0.037 C 
ENDBRANCH   1  16
BRANCH   1  18
ATOM     18  C   UNL d   1       9.791   3.734 -15.142  0.00  0.00     0.251 C 
BRANCH  18  19
ATOM     19  C   UNL d   1       9.319   3.874 -13.700  0.00  0.00     0.047 C 
BRANCH  19  20
ATOM     20  C   UNL d   1       7.905   4.431 -13.610  0.00  0.00     0.067 C 
BRANCH  20  21
ATOM     21  S   UNL d   1       7.361   4.572 -11.883  0.00  0.00    -0.075 SA
BRANCH  21  22
ATOM     22  C   UNL d   1       8.392   5.896 -11.350  0.00  0.00     0.193 A 
ATOM     23  N   UNL d   1       8.910   5.973 -10.103  0.00  0.00    -0.289 N 
ATOM     24  C   UNL d   1       9.548   7.162 -10.137  0.00  0.00     0.167 A 
ATOM     25  C   UNL d   1       8.778   5.042  -8.995  0.00  0.00     0.134 C 
ATOM     26  N   UNL d   1       9.472   7.760 -11.335  0.00  0.00    -0.128 NA
ATOM     27  N   UNL d   1       8.734   6.917 -12.133  0.00  0.00    -0.122 NA
BRANCH  24  28
ATOM     28  C   UNL d   1      10.241   7.773  -9.006  0.00  0.00     0.036 A 
ATOM     29  C   UNL d   1      11.579   8.192  -9.143  0.00  0.00     0.003 A 
ATOM     30  C   UNL d   1      12.258   8.769  -8.055  0.00  0.00     0.000 A 
ATOM     31  C   UNL d   1      11.595   8.956  -6.825  0.00  0.00     0.000 A 
ATOM     32  C   UNL d   1      10.254   8.546  -6.684  0.00  0.00     0.000 A 
ATOM     33  C   UNL d   1       9.577   7.959  -7.771  0.00  0.00     0.003 A 
ENDBRANCH  24  28
ENDBRANCH  21  22
ENDBRANCH  20  21
ENDBRANCH  19  20
ENDBRANCH  18  19
ENDBRANCH   1  18
TORSDOF 12
