REMARK  8 active torsions:
REMARK  status: ('A' for Active; 'I' for Inactive)
REMARK    1  A    between atoms: N_13  and  C_14 
REMARK    2  A    between atoms: C_14  and  C_15 
REMARK    3  A    between atoms: C_15  and  C_16 
REMARK    4  A    between atoms: C_16  and  C_17 
REMARK    5  A    between atoms: C_17  and  C_18 
REMARK    6  A    between atoms: C_18  and  C_19 
REMARK    7  A    between atoms: C_19  and  N_20 
REMARK    8  A    between atoms: N_23  and  C_24 
ROOT
ATOM      1  C   UNL d   1       7.812   3.747 -13.509  0.00  0.00     0.002 C 
ENDROOT
BRANCH   1   2
ATOM      2  C   UNL d   1       6.508   3.028 -13.873  0.00  0.00     0.025 C 
BRANCH   2   3
ATOM      3  C   UNL d   1       6.709   1.561 -14.403  0.00  0.00     0.109 C 
BRANCH   3   4
ATOM      4  N   UNL d   1       7.541   1.432 -15.613  0.00  0.00    -0.296 N 
ATOM      5  C   UNL d   1       7.072   1.111 -16.856  0.00  0.00     0.261 A 
ATOM      6  O   UNL d   1       5.929   0.791 -17.217  0.00  0.00    -0.267 OA
ATOM      7  C   UNL d   1       8.277   1.237 -17.746  0.00  0.00     0.058 A 
ATOM      8  C   UNL d   1       9.369   1.596 -16.974  0.00  0.00     0.021 A 
ATOM      9  C   UNL d   1       8.456   0.988 -19.114  0.00  0.00     0.005 A 
ATOM     10  C   UNL d   1      10.674   1.817 -17.482  0.00  0.00     0.002 A 
ATOM     11  C   UNL d   1       8.956   1.663 -15.662  0.00  0.00     0.063 A 
ATOM     12  C   UNL d   1      10.853   1.568 -18.849  0.00  0.00     0.000 A 
ATOM     13  C   UNL d   1      11.629   2.235 -16.503  0.00  0.00     0.000 C 
ATOM     14  C   UNL d   1       9.760   1.153 -19.659  0.00  0.00     0.000 A 
ATOM     15  C   UNL d   1      11.229   2.321 -15.131  0.00  0.00     0.002 C 
ATOM     16  C   UNL d   1       9.954   1.954 -14.694  0.00  0.00     0.017 C 
ENDBRANCH   3   4
ENDBRANCH   2   3
ENDBRANCH   1   2
BRANCH   1  17
ATOM     17  C   UNL d   1       7.782   5.029 -12.725  0.00  0.00     0.002 C 
BRANCH  17  18
ATOM     18  C   UNL d   1       9.094   5.186 -11.898  0.00  0.00     0.035 C 
BRANCH  18  19
ATOM     19  C   UNL d   1       9.071   6.522 -11.162  0.00  0.00     0.250 C 
BRANCH  19  20
ATOM     20  N   UNL d   1      10.102   6.604 -10.129  0.00  0.00     0.141 N 
ATOM     21  C   UNL d   1       9.555   6.124  -8.852  0.00  0.00     0.274 C 
ATOM     22  C   UNL d   1      10.627   6.202  -7.750  0.00  0.00     0.137 C 
ATOM     23  N   UNL d   1      11.159   7.552  -7.657  0.00  0.00    -0.344 N 
ATOM     24  C   UNL d   1      11.607   8.139  -8.914  0.00  0.00     0.137 C 
ATOM     25  C   UNL d   1      10.495   8.009  -9.971  0.00  0.00     0.274 C 
BRANCH  23  26
ATOM     26  C   UNL d   1      11.205   8.226  -6.424  0.00  0.00     0.057 A 
ATOM     27  C   UNL d   1      11.472   7.520  -5.237  0.00  0.00     0.028 A 
ATOM     28  C   UNL d   1      11.550   8.184  -4.001  0.00  0.00     0.059 A 
ATOM     29  C   UNL d   1      11.355   9.578  -3.938  0.00  0.00     0.011 A 
ATOM     30 CL   UNL d   1      11.880   7.293  -2.561  0.00  0.00    -0.082 Cl
ATOM     31  C   UNL d   1      11.059  10.288  -5.117  0.00  0.00     0.002 A 
ATOM     32  C   UNL d   1      11.027   9.620  -6.352  0.00  0.00     0.017 A 
ENDBRANCH  23  26
ENDBRANCH  19  20
ENDBRANCH  18  19
ENDBRANCH  17  18
ENDBRANCH   1  17
TORSDOF 8
