REMARK  5 active torsions:
REMARK  status: ('A' for Active; 'I' for Inactive)
REMARK    1  A    between atoms: C_2  and  N_3 
REMARK    2  A    between atoms: C_7  and  C_8 
REMARK    3  A    between atoms: C_8  and  N_9 
REMARK       I    between atoms: N_9  and  C_10 
REMARK    4  A    between atoms: C_10  and  C_12 
REMARK    5  A    between atoms: C_19  and  O_20 
ROOT
ATOM      1  N   UNL d   1       9.195   7.014  -7.734  0.00  0.00    -0.232 NA
ATOM      2  C   UNL d   1      10.381   6.696  -7.199  0.00  0.00     0.277 C 
ATOM      3  O   UNL d   1      11.054   5.741  -7.485  0.00  0.00    -0.266 OA
ENDROOT
BRANCH   2   4
ATOM      4  C   UNL d   1      10.939   7.642  -6.234  0.00  0.00     0.082 A 
ATOM      5  C   UNL d   1      11.183   8.959  -6.647  0.00  0.00     0.124 A 
ATOM      6  C   UNL d   1      11.655   9.858  -5.699  0.00  0.00     0.154 A 
ATOM      7  C   UNL d   1      11.967   9.441  -4.390  0.00  0.00     0.036 A 
ATOM      8  O   UNL d   1      11.837  11.146  -6.104  0.00  0.00    -0.188 OA
ATOM      9  C   UNL d   1      11.831   8.091  -4.032  0.00  0.00     0.037 A 
ATOM     10  C   UNL d   1      11.303   7.182  -4.953  0.00  0.00     0.014 A 
ATOM     11 BR   UNL d   1      12.242   7.538  -2.276  0.00  0.00    -0.049 Br
BRANCH   5  12
ATOM     12  O   UNL d   1      10.939   9.394  -7.934  0.00  0.00    -0.326 OA
ATOM     13  C   UNL d   1      11.808   8.903  -8.956  0.00  0.00     0.181 C 
ENDBRANCH   5  12
ENDBRANCH   2   4
BRANCH   1  14
ATOM     14  C   UNL d   1       8.502   6.105  -8.654  0.00  0.00     0.162 C 
BRANCH  14  15
ATOM     15  C   UNL d   1       9.255   5.833  -9.986  0.00  0.00     0.243 C 
ATOM     16  N   UNL d   1       9.072   4.435 -10.331  0.00  0.00     0.137 N 
ATOM     17  C   UNL d   1       9.488   4.368 -11.755  0.00  0.00     0.250 C 
ATOM     18  C   UNL d   1       8.894   5.611 -12.386  0.00  0.00     0.037 C 
ATOM     19  C   UNL d   1       8.694   6.554 -11.217  0.00  0.00     0.037 C 
BRANCH  16  20
ATOM     20  C   UNL d   1       9.862   3.579  -9.438  0.00  0.00     0.250 C 
ATOM     21  C   UNL d   1       9.048   2.838  -8.288  0.00  0.00     0.037 C 
ENDBRANCH  16  20
ENDBRANCH  14  15
ENDBRANCH   1  14
TORSDOF 5
