REMARK  5 active torsions:
REMARK  status: ('A' for Active; 'I' for Inactive)
REMARK    1  A    between atoms: C_2  and  C_3 
REMARK    2  A    between atoms: C_2  and  C_16 
REMARK    3  A    between atoms: C_3  and  C_4 
REMARK    4  A    between atoms: C_4  and  C_5 
REMARK    5  A    between atoms: C_5  and  N_6 
ROOT
ATOM      1  C   UNL d   1       9.343   6.534  -9.210  0.00  0.00     0.251 C 
ENDROOT
BRANCH   1   2
ATOM      2  C   UNL d   1       9.594   6.940 -10.677  0.00  0.00     0.043 C 
BRANCH   2   3
ATOM      3  C   UNL d   1       8.550   6.325 -11.624  0.00  0.00     0.071 C 
BRANCH   3   4
ATOM      4  C   UNL d   1       9.056   5.207 -12.546  0.00  0.00     0.173 C 
ATOM      5  O   UNL d   1      10.245   5.180 -12.877  0.00  0.00    -0.291 OA
BRANCH   4   6
ATOM      6  C   UNL d   1       8.062   4.222 -13.064  0.00  0.00     0.035 A 
ATOM      7  C   UNL d   1       6.705   4.221 -12.651  0.00  0.00     0.003 A 
ATOM      8  C   UNL d   1       5.814   3.248 -13.136  0.00  0.00     0.000 A 
ATOM      9  C   UNL d   1       6.259   2.266 -14.040  0.00  0.00     0.000 A 
ATOM     10  C   UNL d   1       7.598   2.263 -14.473  0.00  0.00     0.000 A 
ATOM     11  C   UNL d   1       8.493   3.233 -13.985  0.00  0.00     0.003 A 
ENDBRANCH   4   6
ENDBRANCH   3   4
ENDBRANCH   2   3
ENDBRANCH   1   2
BRANCH   1  12
ATOM     12  N   UNL d   1      10.234   7.239  -8.291  0.00  0.00     0.142 N 
ATOM     13  C   UNL d   1      10.151   6.609  -6.969  0.00  0.00     0.276 C 
ATOM     14  C   UNL d   1      10.956   7.321  -5.889  0.00  0.00     0.007 A 
ATOM     15  C   UNL d   1      11.300   8.677  -6.055  0.00  0.00    -0.022 A 
ATOM     16  C   UNL d   1      11.328   6.658  -4.705  0.00  0.00    -0.003 A 
ATOM     17  C   UNL d   1      10.926   9.379  -7.339  0.00  0.00     0.061 C 
ATOM     18  C   UNL d   1      12.008   9.359  -5.052  0.00  0.00    -0.004 A 
ATOM     19  C   UNL d   1       9.840   8.642  -8.143  0.00  0.00     0.255 C 
ATOM     20  C   UNL d   1      12.371   8.695  -3.865  0.00  0.00    -0.000 A 
ATOM     21  C   UNL d   1      12.033   7.337  -3.693  0.00  0.00    -0.000 A 
ENDBRANCH   1  12
TORSDOF 5
