REMARK  6 active torsions:
REMARK  status: ('A' for Active; 'I' for Inactive)
REMARK    1  A    between atoms: C_5  and  C_6 
REMARK    2  A    between atoms: C_6  and  C_7 
REMARK    3  A    between atoms: C_7  and  C_8 
REMARK    4  A    between atoms: C_8  and  C_9 
REMARK    5  A    between atoms: C_9  and  N_10 
REMARK    6  A    between atoms: N_13  and  C_14 
ROOT
ATOM      1  N   UNL d   1       7.928   5.187 -11.991  0.00  0.00     0.141 N 
ATOM      2  C   UNL d   1       6.649   4.510 -11.756  0.00  0.00     0.274 C 
ATOM      3  C   UNL d   1       6.007   4.091 -13.090  0.00  0.00     0.138 C 
ATOM      4  N   UNL d   1       6.940   3.269 -13.852  0.00  0.00    -0.330 N 
ATOM      5  C   UNL d   1       8.272   3.834 -14.033  0.00  0.00     0.138 C 
ATOM      6  C   UNL d   1       8.848   4.266 -12.672  0.00  0.00     0.274 C 
ENDROOT
BRANCH   1   7
ATOM      7  C   UNL d   1       8.475   5.591 -10.697  0.00  0.00     0.250 C 
BRANCH   7   8
ATOM      8  C   UNL d   1       9.540   6.689 -10.851  0.00  0.00     0.036 C 
BRANCH   8   9
ATOM      9  C   UNL d   1      10.318   6.946  -9.552  0.00  0.00     0.007 C 
BRANCH   9  10
ATOM     10  C   UNL d   1       9.490   7.695  -8.498  0.00  0.00     0.026 C 
BRANCH  10  11
ATOM     11  C   UNL d   1      10.310   8.050  -7.273  0.00  0.00    -0.022 A 
ATOM     12  C   UNL d   1      11.064   9.240  -7.249  0.00  0.00    -0.002 A 
ATOM     13  C   UNL d   1      11.809   9.587  -6.105  0.00  0.00     0.029 A 
ATOM     14  C   UNL d   1      11.813   8.734  -4.986  0.00  0.00     0.140 A 
ATOM     15  F   UNL d   1      12.532   9.062  -3.885  0.00  0.00    -0.204 F 
ATOM     16  C   UNL d   1      11.082   7.529  -5.019  0.00  0.00     0.029 A 
ATOM     17  C   UNL d   1      10.324   7.192  -6.156  0.00  0.00    -0.002 A 
ENDBRANCH  10  11
ENDBRANCH   9  10
ENDBRANCH   8   9
ENDBRANCH   7   8
ENDBRANCH   1   7
BRANCH   4  18
ATOM     18  C   UNL d   1       6.608   1.981 -14.322  0.00  0.00     0.140 A 
ATOM     19  N   UNL d   1       7.195   1.572 -15.470  0.00  0.00    -0.227 NA
ATOM     20  C   UNL d   1       6.850   0.370 -15.976  0.00  0.00     0.101 A 
ATOM     21  C   UNL d   1       5.910  -0.483 -15.371  0.00  0.00     0.021 A 
ATOM     22  C   UNL d   1       5.313  -0.069 -14.171  0.00  0.00     0.005 A 
ATOM     23  C   UNL d   1       5.668   1.179 -13.633  0.00  0.00     0.037 A 
ENDBRANCH   4  18
TORSDOF 6
