REMARK  1 active torsions:
REMARK  status: ('A' for Active; 'I' for Inactive)
REMARK    1  A    between atoms: C_2  and  C_3 
ROOT
ATOM      1  C   UNL d   1      10.341   3.129 -15.521  0.00  0.00    -0.022 C 
ATOM      2  C   UNL d   1      10.786   3.974 -14.475  0.00  0.00    -0.004 C 
ATOM      3  C   UNL d   1       9.925   4.363 -13.435  0.00  0.00    -0.001 C 
ATOM      4  C   UNL d   1       8.616   3.866 -13.400  0.00  0.00    -0.004 C 
ATOM      5  C   UNL d   1       8.159   3.022 -14.432  0.00  0.00    -0.020 C 
ATOM      6  C   UNL d   1       8.974   2.711 -15.549  0.00  0.00    -0.008 C 
ATOM      7  C   UNL d   1       8.320   1.949 -16.648  0.00  0.00    -0.003 A 
ATOM      8  C   UNL d   1       8.656   2.098 -18.018  0.00  0.00    -0.000 A 
ATOM      9  C   UNL d   1       8.072   1.325 -19.039  0.00  0.00    -0.000 A 
ATOM     10  C   UNL d   1       7.054   0.408 -18.741  0.00  0.00    -0.004 A 
ATOM     11  C   UNL d   1       6.613   0.279 -17.416  0.00  0.00    -0.022 A 
ATOM     12  C   UNL d   1       7.238   1.062 -16.407  0.00  0.00     0.005 A 
ATOM     13  C   UNL d   1       6.744   0.989 -14.947  0.00  0.00     0.246 C 
ATOM     14  C   UNL d   1       6.780   2.405 -14.315  0.00  0.00     0.064 C 
ATOM     15  N   UNL d   1       5.418   0.382 -14.777  0.00  0.00     0.142 N 
ATOM     16  C   UNL d   1       5.092   0.128 -13.378  0.00  0.00     0.286 C 
ATOM     17  C   UNL d   1       5.406  -0.896 -15.471  0.00  0.00     0.255 C 
ATOM     18  C   UNL d   1       5.458  -0.602 -16.971  0.00  0.00     0.061 C 
ENDROOT
BRANCH   1  19
ATOM     19  C   UNL d   1      11.389   2.690 -16.546  0.00  0.00     0.026 C 
ATOM     20  C   UNL d   1      11.511   1.160 -16.721  0.00  0.00     0.005 C 
ENDBRANCH   1  19
TORSDOF 1
