REMARK  7 active torsions:
REMARK  status: ('A' for Active; 'I' for Inactive)
REMARK    1  A    between atoms: N_2  and  S_4 
REMARK    2  A    between atoms: S_4  and  N_7 
REMARK    3  A    between atoms: N_7  and  C_8 
REMARK    4  A    between atoms: C_11  and  C_12 
REMARK    5  A    between atoms: C_12  and  C_13 
REMARK    6  A    between atoms: C_13  and  N_14 
REMARK    7  A    between atoms: C_17  and  C_18 
ROOT
ATOM      1  N   UNL d   1       9.062   4.309 -13.268  0.00  0.00     0.137 N 
ATOM      2  C   UNL d   1      10.287   3.555 -13.019  0.00  0.00     0.251 C 
ATOM      3  C   UNL d   1      10.421   2.394 -13.991  0.00  0.00     0.040 C 
ATOM      4  C   UNL d   1      10.418   2.882 -15.438  0.00  0.00     0.028 C 
ATOM      5  C   UNL d   1       9.217   3.811 -15.661  0.00  0.00     0.040 C 
ATOM      6  C   UNL d   1       9.150   4.910 -14.595  0.00  0.00     0.251 C 
ENDROOT
BRANCH   1   7
ATOM      7  C   UNL d   1       8.910   5.386 -12.289  0.00  0.00     0.250 C 
BRANCH   7   8
ATOM      8  C   UNL d   1       8.921   4.883 -10.827  0.00  0.00     0.035 C 
BRANCH   8   9
ATOM      9  C   UNL d   1       8.788   5.997  -9.776  0.00  0.00     0.002 C 
ATOM     10  C   UNL d   1       8.911   5.392  -8.358  0.00  0.00     0.002 C 
ATOM     11  C   UNL d   1       8.783   6.489  -7.299  0.00  0.00     0.025 C 
ATOM     12  C   UNL d   1       9.865   7.568  -7.524  0.00  0.00     0.117 C 
ATOM     13  C   UNL d   1       9.733   8.222  -8.900  0.00  0.00     0.025 C 
ATOM     14  C   UNL d   1       9.828   7.133  -9.984  0.00  0.00     0.002 C 
BRANCH  12  15
ATOM     15  N   UNL d   1       9.777   8.563  -6.455  0.00  0.00    -0.173 NA
BRANCH  15  16
ATOM     16  S   UNL d   1      11.171   9.133  -5.636  0.00  0.00     0.340 S 
ATOM     17  O   UNL d   1      10.799  10.305  -4.835  0.00  0.00    -0.181 OA
ATOM     18  O   UNL d   1      12.262   9.226  -6.635  0.00  0.00    -0.181 OA
BRANCH  16  19
ATOM     19  N   UNL d   1      11.475   7.796  -4.557  0.00  0.00    -0.257 N 
ATOM     20  C   UNL d   1      11.477   6.407  -5.064  0.00  0.00     0.140 C 
ATOM     21  C   UNL d   1      12.501   8.013  -3.530  0.00  0.00     0.140 C 
ENDBRANCH  16  19
ENDBRANCH  15  16
ENDBRANCH  12  15
ENDBRANCH   8   9
ENDBRANCH   7   8
ENDBRANCH   1   7
BRANCH   4  22
ATOM     22  C   UNL d   1      10.379   1.702 -16.395  0.00  0.00     0.002 A 
ATOM     23  C   UNL d   1      11.365   1.507 -17.375  0.00  0.00     0.115 A 
ATOM     24  C   UNL d   1      11.324   0.439 -18.245  0.00  0.00     0.119 A 
ATOM     25  O   UNL d   1      12.458   2.270 -17.651  0.00  0.00    -0.300 OA
ATOM     26  C   UNL d   1      10.285  -0.514 -18.201  0.00  0.00     0.026 A 
ATOM     27  O   UNL d   1      12.383   0.493 -19.094  0.00  0.00    -0.300 OA
ATOM     28  C   UNL d   1       9.276  -0.337 -17.227  0.00  0.00     0.002 A 
ATOM     29  C   UNL d   1       9.329   0.755 -16.330  0.00  0.00    -0.002 A 
ATOM     30  C   UNL d   1      13.100   1.644 -18.729  0.00  0.00     0.304 A 
ENDBRANCH   4  22
TORSDOF 7
