REMARK  13 active torsions:
REMARK  status: ('A' for Active; 'I' for Inactive)
REMARK    1  A    between atoms: C_9  and  C_10 
REMARK    2  A    between atoms: C_10  and  C_12 
REMARK    3  A    between atoms: C_12  and  N_13 
REMARK    4  A    between atoms: N_13  and  C_14 
REMARK    5  A    between atoms: C_14  and  C_15 
REMARK    6  A    between atoms: C_15  and  C_16 
REMARK    7  A    between atoms: C_16  and  S_17 
REMARK    8  A    between atoms: S_17  and  C_18 
REMARK    9  A    between atoms: C_18  and  C_19 
REMARK   10  A    between atoms: C_19  and  O_20 
REMARK   11  A    between atoms: O_20  and  C_21 
REMARK   12  A    between atoms: C_21  and  C_22 
REMARK   13  A    between atoms: C_22  and  C_23 
ROOT
ATOM      1  N   UNL d   1       7.247   2.809 -13.750  0.00  0.00    -0.292 NA
ENDROOT
BRANCH   1   2
ATOM      2  C   UNL d   1       6.222   1.822 -14.070  0.00  0.00     0.157 C 
BRANCH   2   3
ATOM      3  C   UNL d   1       6.793   0.494 -14.611  0.00  0.00     0.199 C 
ATOM      4  O   UNL d   1       6.962  -0.411 -13.546  0.00  0.00    -0.216 OA
BRANCH   3   5
ATOM      5  C   UNL d   1       8.048   0.655 -15.463  0.00  0.00     0.018 A 
ATOM      6  C   UNL d   1       9.328   0.663 -14.855  0.00  0.00     0.001 A 
ATOM      7  C   UNL d   1      10.502   0.869 -15.616  0.00  0.00     0.029 A 
ATOM      8  C   UNL d   1      10.418   1.059 -17.011  0.00  0.00     0.149 A 
ATOM      9  C   UNL d   1       9.146   1.039 -17.610  0.00  0.00     0.116 A 
ATOM     10  O   UNL d   1      11.543   1.254 -17.763  0.00  0.00    -0.189 OA
ATOM     11  N   UNL d   1       8.872   1.222 -18.978  0.00  0.00    -0.200 NA
ATOM     12  C   UNL d   1       7.990   0.845 -16.854  0.00  0.00     0.052 A 
ATOM     13  C   UNL d   1       7.532   1.187 -19.334  0.00  0.00     0.311 A 
ATOM     14  O   UNL d   1       7.040   1.345 -20.447  0.00  0.00    -0.258 OA
ATOM     15  S   UNL d   1       6.553   0.887 -17.845  0.00  0.00    -0.024 SA
ENDBRANCH   3   5
ENDBRANCH   2   3
ENDBRANCH   1   2
BRANCH   1  16
ATOM     16  C   UNL d   1       6.769   3.970 -13.014  0.00  0.00     0.121 C 
BRANCH  16  17
ATOM     17  C   UNL d   1       7.960   4.798 -12.522  0.00  0.00     0.037 C 
BRANCH  17  18
ATOM     18  C   UNL d   1       7.589   6.261 -12.308  0.00  0.00     0.060 C 
BRANCH  18  19
ATOM     19  S   UNL d   1       9.062   7.276 -12.036  0.00  0.00    -0.138 SA
BRANCH  19  20
ATOM     20  C   UNL d   1       9.526   6.784 -10.348  0.00  0.00     0.090 C 
BRANCH  20  21
ATOM     21  C   UNL d   1      10.739   7.586  -9.857  0.00  0.00     0.154 C 
BRANCH  21  22
ATOM     22  O   UNL d   1      10.619   7.765  -8.453  0.00  0.00    -0.353 OA
BRANCH  22  23
ATOM     23  C   UNL d   1      11.327   8.880  -7.940  0.00  0.00     0.147 C 
BRANCH  23  24
ATOM     24  C   UNL d   1      10.611   9.365  -6.671  0.00  0.00     0.058 C 
BRANCH  24  25
ATOM     25  C   UNL d   1      11.121   8.740  -5.388  0.00  0.00    -0.020 A 
ATOM     26  C   UNL d   1      11.479   9.571  -4.306  0.00  0.00    -0.004 A 
ATOM     27  C   UNL d   1      12.004   9.013  -3.127  0.00  0.00    -0.000 A 
ATOM     28  C   UNL d   1      12.163   7.616  -3.021  0.00  0.00    -0.000 A 
ATOM     29  C   UNL d   1      11.791   6.788  -4.094  0.00  0.00    -0.000 A 
ATOM     30  C   UNL d   1      11.261   7.340  -5.272  0.00  0.00    -0.004 A 
ENDBRANCH  24  25
ENDBRANCH  23  24
ENDBRANCH  22  23
ENDBRANCH  21  22
ENDBRANCH  20  21
ENDBRANCH  19  20
ENDBRANCH  18  19
ENDBRANCH  17  18
ENDBRANCH  16  17
ENDBRANCH   1  16
TORSDOF 13
