REMARK  7 active torsions:
REMARK  status: ('A' for Active; 'I' for Inactive)
REMARK    1  A    between atoms: C_8  and  O_9 
REMARK    2  A    between atoms: O_9  and  C_10 
REMARK    3  A    between atoms: C_10  and  C_11 
REMARK    4  A    between atoms: C_11  and  C_12 
REMARK    5  A    between atoms: C_12  and  C_13 
REMARK    6  A    between atoms: C_13  and  N_14 
REMARK    7  A    between atoms: N_17  and  C_18 
ROOT
ATOM      1  N   UNL d   1       8.025   4.081 -12.864  0.00  0.00     0.141 N 
ATOM      2  C   UNL d   1       8.764   2.897 -13.303  0.00  0.00     0.274 C 
ATOM      3  C   UNL d   1      10.005   3.221 -14.132  0.00  0.00     0.137 C 
ATOM      4  N   UNL d   1       9.562   4.023 -15.252  0.00  0.00    -0.344 N 
ATOM      5  C   UNL d   1       8.713   5.170 -14.946  0.00  0.00     0.137 C 
ATOM      6  C   UNL d   1       7.528   4.750 -14.036  0.00  0.00     0.274 C 
ENDROOT
BRANCH   1   7
ATOM      7  C   UNL d   1       8.816   5.017 -12.067  0.00  0.00     0.251 C 
BRANCH   7   8
ATOM      8  C   UNL d   1       8.745   4.622 -10.593  0.00  0.00     0.038 C 
BRANCH   8   9
ATOM      9  C   UNL d   1       8.590   5.846  -9.701  0.00  0.00     0.035 C 
BRANCH   9  10
ATOM     10  C   UNL d   1       8.660   5.490  -8.209  0.00  0.00     0.151 C 
BRANCH  10  11
ATOM     11  O   UNL d   1       8.353   6.599  -7.378  0.00  0.00    -0.315 OA
BRANCH  11  12
ATOM     12  C   UNL d   1       9.393   7.444  -7.106  0.00  0.00     0.179 A 
ATOM     13  C   UNL d   1       9.857   8.369  -8.067  0.00  0.00     0.044 A 
ATOM     14  C   UNL d   1      10.916   9.209  -7.688  0.00  0.00     0.002 A 
ATOM     15  C   UNL d   1      11.415   9.130  -6.370  0.00  0.00     0.014 A 
ATOM     16  C   UNL d   1      12.486  10.074  -5.890  0.00  0.00     0.039 C 
ATOM     17  C   UNL d   1      10.917   8.145  -5.497  0.00  0.00     0.163 A 
ATOM     18  C   UNL d   1      13.294   9.568  -4.640  0.00  0.00     0.095 C 
ATOM     19  C   UNL d   1      12.444   8.737  -3.676  0.00  0.00     0.257 C 
ATOM     20  O   UNL d   1      12.706   8.685  -2.480  0.00  0.00    -0.270 OA
ATOM     21  N   UNL d   1      11.432   8.045  -4.189  0.00  0.00    -0.193 NA
ATOM     22  N   UNL d   1       9.921   7.321  -5.866  0.00  0.00    -0.204 NA
ENDBRANCH  11  12
ENDBRANCH  10  11
ENDBRANCH   9  10
ENDBRANCH   8   9
ENDBRANCH   7   8
ENDBRANCH   1   7
BRANCH   4  23
ATOM     23  C   UNL d   1       9.984   3.709 -16.548  0.00  0.00     0.054 A 
ATOM     24  C   UNL d   1      10.668   4.662 -17.345  0.00  0.00     0.016 A 
ATOM     25  C   UNL d   1      11.068   4.338 -18.660  0.00  0.00     0.091 A 
ATOM     26  C   UNL d   1      10.965   6.046 -16.795  0.00  0.00     0.032 C 
ATOM     27  C   UNL d   1      10.819   3.042 -19.158  0.00  0.00     0.024 A 
ATOM     28  O   UNL d   1      11.724   5.239 -19.476  0.00  0.00    -0.331 OA
ATOM     29  C   UNL d   1      10.161   2.085 -18.362  0.00  0.00     0.004 A 
ATOM     30  C   UNL d   1       9.744   2.419 -17.064  0.00  0.00     0.017 A 
ATOM     31  C   UNL d   1      11.646   6.614 -19.101  0.00  0.00     0.149 C 
ATOM     32  C   UNL d   1      11.991   6.798 -17.622  0.00  0.00     0.037 C 
ENDBRANCH   4  23
TORSDOF 7
