REMARK  9 active torsions:
REMARK  status: ('A' for Active; 'I' for Inactive)
REMARK    1  A    between atoms: C_8  and  O_9 
REMARK    2  A    between atoms: O_9  and  C_10 
REMARK    3  A    between atoms: C_10  and  C_11 
REMARK    4  A    between atoms: C_11  and  C_12 
REMARK    5  A    between atoms: C_12  and  C_13 
REMARK    6  A    between atoms: C_13  and  N_14 
REMARK    7  A    between atoms: N_17  and  C_18 
REMARK    8  A    between atoms: N_26  and  C_27 
REMARK    9  A    between atoms: C_27  and  C_28 
ROOT
ATOM      1  N   UNL d   1       9.219   4.093 -14.336  0.00  0.00     0.141 N 
ATOM      2  C   UNL d   1       9.435   3.255 -13.177  0.00  0.00     0.274 C 
ATOM      3  C   UNL d   1      10.084   4.049 -12.074  0.00  0.00     0.137 C 
ATOM      4  N   UNL d   1       9.400   5.292 -11.762  0.00  0.00    -0.344 N 
ATOM      5  C   UNL d   1       9.040   6.114 -12.885  0.00  0.00     0.137 C 
ATOM      6  C   UNL d   1       8.345   5.208 -13.915  0.00  0.00     0.274 C 
ENDROOT
BRANCH   4   7
ATOM      7  C   UNL d   1       9.287   5.726 -10.436  0.00  0.00     0.058 A 
ATOM      8  C   UNL d   1       9.665   7.001  -9.946  0.00  0.00     0.033 A 
ATOM      9  C   UNL d   1       9.362   7.290  -8.584  0.00  0.00     0.062 A 
ATOM     10  C   UNL d   1      10.208   8.175 -10.553  0.00  0.00     0.021 A 
ATOM     11  C   UNL d   1       8.648   6.395  -7.741  0.00  0.00     0.017 A 
ATOM     12  N   UNL d   1       9.809   8.566  -8.358  0.00  0.00    -0.322 N 
ATOM     13  C   UNL d   1       8.354   5.131  -8.219  0.00  0.00     0.003 A 
ATOM     14  C   UNL d   1       8.640   4.856  -9.539  0.00  0.00     0.017 A 
ATOM     15  C   UNL d   1      10.290   9.101  -9.553  0.00  0.00     0.076 A 
BRANCH  12  16
ATOM     16  C   UNL d   1       9.711   9.211  -7.085  0.00  0.00     0.133 C 
BRANCH  16  17
ATOM     17  C   UNL d   1      10.743   8.781  -6.086  0.00  0.00     0.003 A 
ATOM     18  C   UNL d   1      10.610   7.555  -5.391  0.00  0.00     0.027 A 
ATOM     19  C   UNL d   1      11.502   7.207  -4.395  0.00  0.00     0.140 A 
ATOM     20  C   UNL d   1      12.546   8.088  -4.071  0.00  0.00     0.030 A 
ATOM     21  F   UNL d   1      11.432   6.011  -3.840  0.00  0.00    -0.204 F 
ATOM     22  C   UNL d   1      12.708   9.329  -4.763  0.00  0.00     0.002 A 
ATOM     23  C   UNL d   1      11.792   9.702  -5.774  0.00  0.00    -0.002 A 
ENDBRANCH  16  17
ENDBRANCH  12  16
ENDBRANCH   4   7
BRANCH   1  24
ATOM     24  C   UNL d   1       8.527   3.212 -15.267  0.00  0.00     0.251 C 
BRANCH  24  25
ATOM     25  C   UNL d   1       8.999   3.577 -16.687  0.00  0.00     0.038 C 
BRANCH  25  26
ATOM     26  C   UNL d   1      10.450   3.201 -16.954  0.00  0.00     0.035 C 
BRANCH  26  27
ATOM     27  C   UNL d   1      10.786   3.381 -18.440  0.00  0.00     0.149 C 
BRANCH  27  28
ATOM     28  O   UNL d   1      12.196   3.239 -18.592  0.00  0.00    -0.331 OA
BRANCH  28  29
ATOM     29  C   UNL d   1      12.973   4.375 -18.585  0.00  0.00     0.096 A 
ATOM     30  C   UNL d   1      12.604   5.554 -19.277  0.00  0.00     0.024 A 
ATOM     31  C   UNL d   1      13.421   6.693 -19.227  0.00  0.00    -0.001 A 
ATOM     32  C   UNL d   1      14.641   6.656 -18.533  0.00  0.00    -0.004 A 
ATOM     33  C   UNL d   1      15.527   7.880 -18.470  0.00  0.00     0.038 C 
ATOM     34  C   UNL d   1      15.042   5.475 -17.872  0.00  0.00     0.082 A 
ATOM     35  C   UNL d   1      17.013   7.492 -18.325  0.00  0.00     0.095 C 
ATOM     36  C   UNL d   1      17.227   6.385 -17.281  0.00  0.00     0.256 C 
ATOM     37  O   UNL d   1      18.243   6.378 -16.585  0.00  0.00    -0.270 OA
ATOM     38  N   UNL d   1      16.277   5.440 -17.174  0.00  0.00    -0.212 NA
ATOM     39  C   UNL d   1      14.208   4.338 -17.895  0.00  0.00     0.043 A 
ENDBRANCH  28  29
ENDBRANCH  27  28
ENDBRANCH  26  27
ENDBRANCH  25  26
ENDBRANCH  24  25
ENDBRANCH   1  24
TORSDOF 9
