REMARK  0 active torsions:
REMARK  status: ('A' for Active; 'I' for Inactive)
ROOT
ATOM      1  C   UNL d   1      11.969   6.639  -2.779  0.00  0.00     0.034 C 
ATOM      2  C   UNL d   1      11.858   7.606  -3.919  0.00  0.00     0.020 A 
ATOM      3  C   UNL d   1      12.097   9.011  -3.903  0.00  0.00     0.119 A 
ATOM      4  N   UNL d   1      11.846   9.588  -5.068  0.00  0.00    -0.147 NA
ATOM      5  N   UNL d   1      11.446   8.574  -5.854  0.00  0.00    -0.147 NA
ATOM      6  C   UNL d   1      11.426   7.368  -5.194  0.00  0.00     0.119 A 
ENDROOT
TORSDOF 0
