REMARK  6 active torsions:
REMARK  status: ('A' for Active; 'I' for Inactive)
REMARK    1  A    between atoms: C_2  and  C_3 
REMARK    2  A    between atoms: C_3  and  N_4 
REMARK    3  A    between atoms: N_4  and  C_5 
REMARK    4  A    between atoms: N_4  and  C_8 
REMARK    5  A    between atoms: C_5  and  C_6 
REMARK    6  A    between atoms: C_14  and  O_15 
ROOT
ATOM      1  C   UNL d   1       8.593   3.895 -12.904  0.00  0.00     0.224 C 
ATOM      2  C   UNL d   1       9.533   3.819 -14.128  0.00  0.00     0.038 C 
ATOM      3  C   UNL d   1       9.671   2.391 -14.642  0.00  0.00     0.028 C 
ATOM      4  C   UNL d   1       8.338   1.682 -14.784  0.00  0.00    -0.026 A 
ATOM      5  C   UNL d   1       8.253   0.562 -15.630  0.00  0.00    -0.003 A 
ATOM      6  C   UNL d   1       7.020  -0.090 -15.796  0.00  0.00     0.024 A 
ATOM      7  C   UNL d   1       5.871   0.285 -15.062  0.00  0.00     0.094 A 
ATOM      8  C   UNL d   1       5.976   1.415 -14.197  0.00  0.00     0.020 A 
ATOM      9  C   UNL d   1       7.186   2.115 -14.088  0.00  0.00    -0.022 A 
ATOM     10  C   UNL d   1       7.174   3.362 -13.240  0.00  0.00     0.059 C 
ENDROOT
BRANCH   1  11
ATOM     11  N   UNL d   1       8.548   5.225 -12.269  0.00  0.00     0.135 N 
BRANCH  11  12
ATOM     12  C   UNL d   1       9.796   5.615 -11.618  0.00  0.00     0.250 C 
BRANCH  12  13
ATOM     13  C   UNL d   1       9.796   5.173 -10.139  0.00  0.00     0.035 C 
ATOM     14  C   UNL d   1       8.623   5.696  -9.315  0.00  0.00     0.002 C 
ENDBRANCH  12  13
ENDBRANCH  11  12
BRANCH  11  15
ATOM     15  C   UNL d   1       8.014   6.250 -13.145  0.00  0.00     0.250 C 
BRANCH  15  16
ATOM     16  C   UNL d   1       7.762   7.594 -12.470  0.00  0.00     0.035 C 
ATOM     17  C   UNL d   1       6.285   8.007 -12.560  0.00  0.00     0.002 C 
ENDBRANCH  15  16
ENDBRANCH  11  15
ENDBRANCH   1  11
BRANCH   7  18
ATOM     18  O   UNL d   1       4.727  -0.443 -15.235  0.00  0.00    -0.328 OA
ATOM     19  C   UNL d   1       3.717  -0.366 -14.233  0.00  0.00     0.181 C 
ENDBRANCH   7  18
TORSDOF 6
