REMARK  9 active torsions:
REMARK  status: ('A' for Active; 'I' for Inactive)
REMARK    1  A    between atoms: C_4  and  C_5 
REMARK    2  A    between atoms: C_7  and  C_8 
REMARK    3  A    between atoms: C_8  and  C_9 
REMARK    4  A    between atoms: C_9  and  C_10 
REMARK    5  A    between atoms: C_10  and  C_11 
REMARK    6  A    between atoms: C_11  and  N_12 
REMARK    7  A    between atoms: N_15  and  C_16 
REMARK    8  A    between atoms: C_16  and  C_17 
REMARK    9  A    between atoms: C_16  and  C_23 
ROOT
ATOM      1  N   UNL d   1       9.011   5.059 -12.745  0.00  0.00     0.141 N 
ATOM      2  C   UNL d   1      10.253   4.813 -13.487  0.00  0.00     0.285 C 
ATOM      3  C   UNL d   1      10.336   3.374 -14.019  0.00  0.00     0.286 C 
ATOM      4  N   UNL d   1       9.206   3.048 -14.897  0.00  0.00     0.147 N 
ATOM      5  C   UNL d   1       7.974   3.312 -14.143  0.00  0.00     0.286 C 
ATOM      6  C   UNL d   1       7.907   4.751 -13.633  0.00  0.00     0.285 C 
ENDROOT
BRANCH   1   7
ATOM      7  C   UNL d   1       8.911   6.435 -12.261  0.00  0.00     0.250 C 
BRANCH   7   8
ATOM      8  C   UNL d   1       9.674   6.702 -10.959  0.00  0.00     0.036 C 
BRANCH   8   9
ATOM      9  C   UNL d   1       9.911   8.201 -10.680  0.00  0.00     0.009 C 
BRANCH   9  10
ATOM     10  C   UNL d   1      11.226   8.484  -9.933  0.00  0.00     0.054 C 
BRANCH  10  11
ATOM     11  C   UNL d   1      11.208   8.134  -8.480  0.00  0.00     0.104 A 
ATOM     12  C   UNL d   1      11.653   8.773  -7.361  0.00  0.00     0.044 A 
ATOM     13  C   UNL d   1      11.334   7.878  -6.305  0.00  0.00     0.110 A 
ATOM     14  N   UNL d   1      10.766   6.778  -6.760  0.00  0.00    -0.127 NA
ATOM     15  O   UNL d   1      10.692   6.925  -8.145  0.00  0.00    -0.215 OA
BRANCH  13  16
ATOM     16  C   UNL d   1      11.595   8.044  -4.880  0.00  0.00     0.020 A 
ATOM     17  C   UNL d   1      11.650   9.336  -4.327  0.00  0.00     0.002 A 
ATOM     18  C   UNL d   1      11.915   9.502  -2.954  0.00  0.00     0.000 A 
ATOM     19  C   UNL d   1      12.183   8.380  -2.147  0.00  0.00     0.000 A 
ATOM     20  C   UNL d   1      12.138   7.086  -2.696  0.00  0.00     0.000 A 
ATOM     21  C   UNL d   1      11.848   6.920  -4.062  0.00  0.00     0.002 A 
ENDBRANCH  13  16
ENDBRANCH  10  11
ENDBRANCH   9  10
ENDBRANCH   8   9
ENDBRANCH   7   8
ENDBRANCH   1   7
BRANCH   4  22
ATOM     22  C   UNL d   1       9.317   1.664 -15.409  0.00  0.00     0.264 C 
BRANCH  22  23
ATOM     23  C   UNL d   1      10.418   1.481 -16.469  0.00  0.00     0.013 A 
ATOM     24  C   UNL d   1      10.741   0.173 -16.898  0.00  0.00    -0.002 A 
ATOM     25  C   UNL d   1      11.703  -0.033 -17.909  0.00  0.00    -0.000 A 
ATOM     26  C   UNL d   1      12.362   1.065 -18.493  0.00  0.00    -0.000 A 
ATOM     27  C   UNL d   1      12.043   2.369 -18.083  0.00  0.00    -0.000 A 
ATOM     28  C   UNL d   1      11.061   2.577 -17.093  0.00  0.00    -0.002 A 
ENDBRANCH  22  23
BRANCH  22  29
ATOM     29  C   UNL d   1       8.000   1.115 -15.956  0.00  0.00     0.013 A 
ATOM     30  C   UNL d   1       7.243   0.215 -15.172  0.00  0.00    -0.002 A 
ATOM     31  C   UNL d   1       6.024  -0.298 -15.654  0.00  0.00    -0.000 A 
ATOM     32  C   UNL d   1       5.548   0.092 -16.920  0.00  0.00    -0.000 A 
ATOM     33  C   UNL d   1       6.289   1.000 -17.700  0.00  0.00    -0.000 A 
ATOM     34  C   UNL d   1       7.505   1.520 -17.216  0.00  0.00    -0.002 A 
ENDBRANCH  22  29
ENDBRANCH   4  22
TORSDOF 9
