REMARK  6 active torsions:
REMARK  status: ('A' for Active; 'I' for Inactive)
REMARK       I    between atoms: C_2  and  N_3 
REMARK    1  A    between atoms: C_2  and  C_27 
REMARK    2  A    between atoms: N_3  and  C_4 
REMARK    3  A    between atoms: C_7  and  C_8 
REMARK    4  A    between atoms: C_8  and  C_9 
REMARK    5  A    between atoms: C_9  and  N_10 
REMARK    6  A    between atoms: N_13  and  C_14 
ROOT
ATOM      1  C   UNL d   1       9.530   5.305 -11.056  0.00  0.00     0.250 C 
ENDROOT
BRANCH   1   2
ATOM      2  C   UNL d   1       8.333   5.401 -12.010  0.00  0.00     0.035 C 
BRANCH   2   3
ATOM      3  C   UNL d   1       7.980   4.065 -12.693  0.00  0.00     0.002 C 
ATOM      4  C   UNL d   1       6.447   3.899 -12.791  0.00  0.00     0.002 C 
ATOM      5  C   UNL d   1       6.024   2.571 -13.446  0.00  0.00     0.024 C 
ATOM      6  C   UNL d   1       6.686   2.377 -14.817  0.00  0.00     0.106 C 
ATOM      7  C   UNL d   1       8.219   2.541 -14.719  0.00  0.00     0.024 C 
ATOM      8  C   UNL d   1       8.630   3.877 -14.070  0.00  0.00     0.002 C 
BRANCH   6   9
ATOM      9  N   UNL d   1       6.343   1.080 -15.381  0.00  0.00    -0.238 NA
ATOM     10  C   UNL d   1       6.457   0.768 -16.685  0.00  0.00     0.279 C 
ATOM     11  O   UNL d   1       6.926   1.525 -17.529  0.00  0.00    -0.268 OA
BRANCH  10  12
ATOM     12  C   UNL d   1       5.940  -0.607 -17.089  0.00  0.00     0.195 C 
ATOM     13  O   UNL d   1       5.033  -1.081 -16.115  0.00  0.00    -0.347 OA
ATOM     14  C   UNL d   1       4.335  -2.147 -16.714  0.00  0.00     0.143 C 
ATOM     15  C   UNL d   1       4.040  -1.652 -18.128  0.00  0.00     0.035 C 
ATOM     16  C   UNL d   1       5.132  -0.619 -18.396  0.00  0.00     0.042 C 
ENDBRANCH  10  12
ENDBRANCH   6   9
ENDBRANCH   2   3
ENDBRANCH   1   2
BRANCH   1  17
ATOM     17  N   UNL d   1       9.223   6.001  -9.810  0.00  0.00     0.141 N 
ATOM     18  C   UNL d   1       9.653   7.400  -9.911  0.00  0.00     0.274 C 
ATOM     19  C   UNL d   1       9.354   8.179  -8.612  0.00  0.00     0.137 C 
ATOM     20  N   UNL d   1       9.998   7.512  -7.490  0.00  0.00    -0.343 N 
ATOM     21  C   UNL d   1       9.621   6.113  -7.372  0.00  0.00     0.137 C 
ATOM     22  C   UNL d   1       9.910   5.379  -8.686  0.00  0.00     0.274 C 
BRANCH  20  23
ATOM     23  C   UNL d   1      10.790   8.198  -6.539  0.00  0.00     0.081 A 
ATOM     24  C   UNL d   1      11.069   7.680  -5.252  0.00  0.00     0.135 A 
ATOM     25  C   UNL d   1      11.883   8.343  -4.350  0.00  0.00     0.121 A 
ATOM     26  O   UNL d   1      10.668   6.521  -4.663  0.00  0.00    -0.298 OA
ATOM     27  C   UNL d   1      12.499   9.551  -4.658  0.00  0.00     0.026 A 
ATOM     28  O   UNL d   1      12.000   7.637  -3.201  0.00  0.00    -0.299 OA
ATOM     29  C   UNL d   1      12.212  10.120  -5.919  0.00  0.00     0.004 A 
ATOM     30  C   UNL d   1      11.373   9.456  -6.842  0.00  0.00     0.019 A 
ATOM     31  C   UNL d   1      11.278   6.465  -3.405  0.00  0.00     0.304 A 
ENDBRANCH  20  23
ENDBRANCH   1  17
TORSDOF 6
