REMARK  4 active torsions:
REMARK  status: ('A' for Active; 'I' for Inactive)
REMARK       I    between atoms: C_2  and  N_3 
REMARK       I    between atoms: C_2  and  N_14 
REMARK    1  A    between atoms: N_3  and  C_4 
REMARK    2  A    between atoms: N_14  and  C_15 
REMARK    3  A    between atoms: N_18  and  C_19 
REMARK    4  A    between atoms: C_19  and  C_20 
ROOT
ATOM      1  O   UNL d   1      10.172   5.537 -12.747  0.00  0.00    -0.243 OA
ATOM      2  C   UNL d   1       9.248   5.372 -11.945  0.00  0.00     0.366 C 
ATOM      3  N   UNL d   1       9.173   5.845 -10.706  0.00  0.00    -0.172 NA
ATOM      4  N   UNL d   1       8.170   4.696 -12.289  0.00  0.00    -0.219 NA
ENDROOT
BRANCH   4   5
ATOM      5  C   UNL d   1       7.734   4.627 -13.676  0.00  0.00     0.112 C 
ATOM      6  C   UNL d   1       8.595   3.685 -14.568  0.00  0.00     0.060 C 
ATOM      7  C   UNL d   1       8.361   2.237 -14.218  0.00  0.00     0.253 C 
ATOM      8  N   UNL d   1       6.921   1.897 -14.237  0.00  0.00     0.141 N 
ATOM      9  C   UNL d   1       6.073   2.736 -13.354  0.00  0.00     0.253 C 
ATOM     10  C   UNL d   1       6.236   4.213 -13.694  0.00  0.00     0.060 C 
BRANCH   8  11
ATOM     11  C   UNL d   1       6.779   0.486 -13.881  0.00  0.00     0.277 C 
BRANCH  11  12
ATOM     12  C   UNL d   1       5.614  -0.180 -14.571  0.00  0.00     0.011 A 
ATOM     13  C   UNL d   1       4.335  -0.164 -13.987  0.00  0.00    -0.002 A 
ATOM     14  C   UNL d   1       3.261  -0.801 -14.634  0.00  0.00    -0.000 A 
ATOM     15  C   UNL d   1       3.477  -1.459 -15.856  0.00  0.00    -0.000 A 
ATOM     16  C   UNL d   1       4.758  -1.485 -16.436  0.00  0.00    -0.000 A 
ATOM     17  C   UNL d   1       5.824  -0.823 -15.804  0.00  0.00    -0.002 A 
ENDBRANCH  11  12
ENDBRANCH   8  11
ENDBRANCH   4   5
BRANCH   3  18
ATOM     18  C   UNL d   1       9.769   7.000 -10.134  0.00  0.00     0.167 C 
ATOM     19  C   UNL d   1       9.694   7.098  -8.734  0.00  0.00     0.036 C 
ATOM     20  C   UNL d   1      10.329   8.217  -8.104  0.00  0.00     0.004 C 
ATOM     21  C   UNL d   1       8.961   6.176  -7.970  0.00  0.00     0.003 C 
ATOM     22  C   UNL d   1      11.025   9.140  -8.839  0.00  0.00     0.021 C 
ATOM     23  C   UNL d   1      10.286   8.398  -6.732  0.00  0.00     0.000 C 
ATOM     24  C   UNL d   1      11.064   8.936 -10.222  0.00  0.00     0.101 C 
ATOM     25  N   UNL d   1      10.367   7.961 -10.841  0.00  0.00    -0.225 NA
ATOM     26  C   UNL d   1       9.598   7.442  -6.008  0.00  0.00     0.000 C 
ATOM     27  C   UNL d   1       8.851   6.432  -6.614  0.00  0.00     0.000 C 
ENDBRANCH   3  18
TORSDOF 4
