REMARK  6 active torsions:
REMARK  status: ('A' for Active; 'I' for Inactive)
REMARK    1  A    between atoms: C_5  and  S_6 
REMARK    2  A    between atoms: S_6  and  C_7 
REMARK    3  A    between atoms: C_7  and  C_8 
REMARK    4  A    between atoms: C_8  and  C_9 
REMARK    5  A    between atoms: C_9  and  N_10 
REMARK    6  A    between atoms: N_13  and  C_14 
ROOT
ATOM      1  N   UNL d   1       8.923   5.533 -11.570  0.00  0.00     0.141 N 
ATOM      2  C   UNL d   1       9.616   4.604 -12.475  0.00  0.00     0.274 C 
ATOM      3  C   UNL d   1       8.787   4.354 -13.768  0.00  0.00     0.138 C 
ATOM      4  N   UNL d   1       7.438   3.914 -13.434  0.00  0.00    -0.330 N 
ATOM      5  C   UNL d   1       6.752   4.745 -12.457  0.00  0.00     0.138 C 
ATOM      6  C   UNL d   1       7.629   4.939 -11.212  0.00  0.00     0.274 C 
ENDROOT
BRANCH   1   7
ATOM      7  C   UNL d   1       9.728   5.755 -10.378  0.00  0.00     0.251 C 
BRANCH   7   8
ATOM      8  C   UNL d   1       9.109   6.711  -9.344  0.00  0.00     0.047 C 
BRANCH   8   9
ATOM      9  C   UNL d   1       9.874   6.756  -8.022  0.00  0.00     0.064 C 
BRANCH   9  10
ATOM     10  S   UNL d   1      10.063   8.451  -7.407  0.00  0.00    -0.114 SA
BRANCH  10  11
ATOM     11  C   UNL d   1      10.854   8.348  -5.837  0.00  0.00     0.025 A 
ATOM     12  C   UNL d   1      11.252   7.108  -5.294  0.00  0.00     0.009 A 
ATOM     13  C   UNL d   1      11.861   7.061  -4.027  0.00  0.00     0.030 A 
ATOM     14  C   UNL d   1      12.078   8.245  -3.304  0.00  0.00     0.140 A 
ATOM     15  F   UNL d   1      12.659   8.197  -2.086  0.00  0.00    -0.204 F 
ATOM     16  C   UNL d   1      11.680   9.486  -3.848  0.00  0.00     0.030 A 
ATOM     17  C   UNL d   1      11.069   9.540  -5.111  0.00  0.00     0.009 A 
ENDBRANCH  10  11
ENDBRANCH   9  10
ENDBRANCH   8   9
ENDBRANCH   7   8
ENDBRANCH   1   7
BRANCH   4  18
ATOM     18  C   UNL d   1       6.874   2.703 -13.947  0.00  0.00     0.140 A 
ATOM     19  N   UNL d   1       7.374   2.236 -15.109  0.00  0.00    -0.227 NA
ATOM     20  C   UNL d   1       6.873   1.092 -15.626  0.00  0.00     0.101 A 
ATOM     21  C   UNL d   1       5.843   0.358 -15.014  0.00  0.00     0.021 A 
ATOM     22  C   UNL d   1       5.343   0.818 -13.786  0.00  0.00     0.005 A 
ATOM     23  C   UNL d   1       5.849   2.019 -13.255  0.00  0.00     0.037 A 
ENDBRANCH   4  18
TORSDOF 6
