REMARK  10 active torsions:
REMARK  status: ('A' for Active; 'I' for Inactive)
REMARK    1  A    between atoms: S_2  and  N_4 
REMARK    2  A    between atoms: S_2  and  C_29 
REMARK    3  A    between atoms: N_4  and  C_5 
REMARK    4  A    between atoms: C_8  and  N_9 
REMARK    5  A    between atoms: C_12  and  C_13 
REMARK    6  A    between atoms: C_18  and  O_19 
REMARK    7  A    between atoms: O_19  and  C_20 
REMARK    8  A    between atoms: C_20  and  C_21 
REMARK    9  A    between atoms: C_32  and  O_33 
REMARK   10  A    between atoms: O_33  and  C_34 
ROOT
ATOM      1  C   UNL d   1       9.586   6.104 -10.647  0.00  0.00     0.116 C 
ATOM      2  C   UNL d   1       9.519   4.577 -10.512  0.00  0.00     0.027 C 
ATOM      3  C   UNL d   1       9.617   3.988 -11.946  0.00  0.00     0.035 C 
ATOM      4  C   UNL d   1       8.375   4.433 -12.767  0.00  0.00     0.219 C 
ATOM      5  C   UNL d   1       8.306   5.976 -12.812  0.00  0.00     0.035 C 
ATOM      6  C   UNL d   1       8.362   6.600 -11.415  0.00  0.00     0.027 C 
ENDROOT
BRANCH   4   7
ATOM      7  N   UNL d   1       8.322   3.847 -14.120  0.00  0.00     0.135 N 
ATOM      8  C   UNL d   1       9.577   4.035 -14.864  0.00  0.00     0.251 C 
ATOM      9  C   UNL d   1       9.460   3.506 -16.295  0.00  0.00     0.040 C 
ATOM     10  C   UNL d   1       9.073   2.014 -16.275  0.00  0.00     0.028 C 
ATOM     11  C   UNL d   1       7.808   1.815 -15.415  0.00  0.00     0.040 C 
ATOM     12  C   UNL d   1       7.993   2.417 -14.033  0.00  0.00     0.251 C 
BRANCH  10  13
ATOM     13  C   UNL d   1       8.888   1.461 -17.687  0.00  0.00    -0.000 A 
ATOM     14  C   UNL d   1       9.911   0.757 -18.353  0.00  0.00     0.090 A 
ATOM     15  C   UNL d   1       9.695   0.289 -19.671  0.00  0.00     0.024 A 
ATOM     16  C   UNL d   1       8.476   0.560 -20.328  0.00  0.00     0.002 A 
ATOM     17  C   UNL d   1       7.471   1.281 -19.671  0.00  0.00    -0.000 A 
ATOM     18  C   UNL d   1       7.670   1.733 -18.362  0.00  0.00    -0.002 A 
BRANCH  14  19
ATOM     19  O   UNL d   1      11.117   0.563 -17.696  0.00  0.00    -0.322 OA
BRANCH  19  20
ATOM     20  C   UNL d   1      12.220   0.084 -18.446  0.00  0.00     0.252 C 
BRANCH  20  21
ATOM     21  C   UNL d   1      12.837   1.113 -19.426  0.00  0.00     0.425 C 
ATOM     22  F   UNL d   1      11.958   1.523 -20.335  0.00  0.00    -0.168 F 
ATOM     23  F   UNL d   1      13.359   2.130 -18.710  0.00  0.00    -0.168 F 
ATOM     24  F   UNL d   1      13.891   0.509 -20.009  0.00  0.00    -0.168 F 
ENDBRANCH  20  21
ENDBRANCH  19  20
ENDBRANCH  14  19
ENDBRANCH  10  13
ENDBRANCH   4   7
BRANCH   1  25
ATOM     25  N   UNL d   1       9.621   6.667  -9.308  0.00  0.00    -0.187 NA
BRANCH  25  26
ATOM     26  S   UNL d   1      10.433   8.135  -8.963  0.00  0.00     0.281 S 
ATOM     27  O   UNL d   1      11.642   8.205  -9.804  0.00  0.00    -0.199 OA
ATOM     28  O   UNL d   1       9.447   9.204  -8.960  0.00  0.00    -0.199 OA
BRANCH  26  29
ATOM     29  C   UNL d   1      10.973   7.880  -7.287  0.00  0.00     0.105 A 
ATOM     30  C   UNL d   1      10.933   8.959  -6.386  0.00  0.00     0.015 A 
ATOM     31  C   UNL d   1      11.356   8.757  -5.058  0.00  0.00     0.025 A 
ATOM     32  C   UNL d   1      11.784   7.459  -4.648  0.00  0.00     0.100 A 
ATOM     33  C   UNL d   1      11.817   6.400  -5.569  0.00  0.00     0.025 A 
ATOM     34  C   UNL d   1      11.412   6.601  -6.902  0.00  0.00     0.015 A 
BRANCH  32  35
ATOM     35  O   UNL d   1      12.252   7.189  -3.378  0.00  0.00    -0.275 OA
BRANCH  35  36
ATOM     36  C   UNL d   1      11.639   7.718  -2.294  0.00  0.00     0.455 C 
ATOM     37  F   UNL d   1      10.845   6.786  -1.714  0.00  0.00    -0.166 F 
ATOM     38  F   UNL d   1      12.577   8.081  -1.386  0.00  0.00    -0.166 F 
ENDBRANCH  35  36
ENDBRANCH  32  35
ENDBRANCH  26  29
ENDBRANCH  25  26
ENDBRANCH   1  25
TORSDOF 10
