REMARK  0 active torsions:
REMARK  status: ('A' for Active; 'I' for Inactive)
ROOT
ATOM      1  N   UNL d   1      12.237   8.388  -9.764  0.00  0.00    -0.124 N 
ATOM      2  C   UNL d   1      11.312   8.220  -8.808  0.00  0.00     0.217 A 
ATOM      3  N   UNL d   1      11.438   8.893  -7.681  0.00  0.00    -0.168 NA
ATOM      4  C   UNL d   1      10.537   8.789  -6.654  0.00  0.00     0.370 A 
ATOM      5  O   UNL d   1      10.660   9.419  -5.609  0.00  0.00    -0.242 OA
ATOM      6  N   UNL d   1       9.457   7.920  -6.840  0.00  0.00    -0.187 NA
ATOM      7  C   UNL d   1       9.303   7.198  -8.007  0.00  0.00     0.137 A 
ATOM      8  C   UNL d   1      10.196   7.316  -9.014  0.00  0.00     0.197 A 
ATOM      9  F   UNL d   1      10.065   6.616 -10.157  0.00  0.00    -0.199 F 
ENDROOT
TORSDOF 0
