REMARK  7 active torsions:
REMARK  status: ('A' for Active; 'I' for Inactive)
REMARK    1  A    between atoms: C_6  and  C_7 
REMARK    2  A    between atoms: C_10  and  S_11 
REMARK    3  A    between atoms: S_11  and  C_12 
REMARK    4  A    between atoms: C_12  and  C_13 
REMARK    5  A    between atoms: C_13  and  C_14 
REMARK    6  A    between atoms: C_14  and  N_15 
REMARK    7  A    between atoms: C_19  and  C_20 
ROOT
ATOM      1  C   UNL d   1       9.391   4.786 -12.553  0.00  0.00     0.047 C 
ENDROOT
BRANCH   1   2
ATOM      2  C   UNL d   1       8.683   5.804 -11.647  0.00  0.00     0.067 C 
BRANCH   2   3
ATOM      3  S   UNL d   1       8.730   5.240  -9.918  0.00  0.00    -0.075 SA
BRANCH   3   4
ATOM      4  C   UNL d   1       9.699   6.510  -9.154  0.00  0.00     0.193 A 
ATOM      5  N   UNL d   1      10.709   7.156  -9.750  0.00  0.00    -0.122 NA
ATOM      6  N   UNL d   1      11.199   8.020  -8.807  0.00  0.00    -0.126 NA
ATOM      7  C   UNL d   1      10.471   7.813  -7.700  0.00  0.00     0.191 A 
ATOM      8  N   UNL d   1       9.495   6.897  -7.886  0.00  0.00    -0.287 N 
ATOM      9  C   UNL d   1       8.463   6.465  -6.947  0.00  0.00     0.134 C 
BRANCH   7  10
ATOM     10  C   UNL d   1      10.755   8.555  -6.496  0.00  0.00     0.151 A 
ATOM     11  C   UNL d   1      11.106   8.208  -5.201  0.00  0.00     0.087 A 
ATOM     12  C   UNL d   1      11.353   6.874  -4.557  0.00  0.00     0.054 C 
ATOM     13  N   UNL d   1      11.262   9.380  -4.478  0.00  0.00    -0.221 NA
ATOM     14  C   UNL d   1      11.055  10.357  -5.356  0.00  0.00     0.225 A 
ATOM     15  O   UNL d   1      10.753   9.917  -6.598  0.00  0.00    -0.282 OA
ENDBRANCH   7  10
ENDBRANCH   3   4
ENDBRANCH   2   3
ENDBRANCH   1   2
BRANCH   1  16
ATOM     16  C   UNL d   1       9.903   5.431 -13.842  0.00  0.00     0.251 C 
BRANCH  16  17
ATOM     17  N   UNL d   1      10.994   4.714 -14.504  0.00  0.00     0.143 N 
ATOM     18  C   UNL d   1      10.486   3.547 -15.217  0.00  0.00     0.284 C 
ATOM     19  C   UNL d   1      11.601   2.790 -15.968  0.00  0.00     0.171 C 
ATOM     20  O   UNL d   1      12.311   3.680 -16.826  0.00  0.00    -0.348 OA
ATOM     21  C   UNL d   1      12.848   4.811 -16.147  0.00  0.00     0.178 C 
ATOM     22  C   UNL d   1      11.708   5.570 -15.446  0.00  0.00     0.282 C 
BRANCH  19  23
ATOM     23  C   UNL d   1      11.042   1.613 -16.765  0.00  0.00     0.007 A 
ATOM     24  C   UNL d   1      10.892   1.702 -18.169  0.00  0.00     0.000 A 
ATOM     25  C   UNL d   1      10.371   0.615 -18.906  0.00  0.00     0.029 A 
ATOM     26  C   UNL d   1       9.993  -0.558 -18.233  0.00  0.00     0.140 A 
ATOM     27  C   UNL d   1      10.141  -0.653 -16.846  0.00  0.00     0.029 A 
ATOM     28  F   UNL d   1       9.483  -1.607 -18.932  0.00  0.00    -0.204 F 
ATOM     29  C   UNL d   1      10.655   0.432 -16.101  0.00  0.00     0.000 A 
ENDBRANCH  19  23
ENDBRANCH  16  17
ENDBRANCH   1  16
TORSDOF 7
