REMARK  8 active torsions:
REMARK  status: ('A' for Active; 'I' for Inactive)
REMARK    1  A    between atoms: N_2  and  C_3 
REMARK    2  A    between atoms: C_3  and  C_4 
REMARK    3  A    between atoms: C_9  and  C_10 
REMARK    4  A    between atoms: C_13  and  C_14 
REMARK    5  A    between atoms: C_14  and  N_16 
REMARK    6  A    between atoms: N_16  and  C_17 
REMARK    7  A    between atoms: C_24  and  O_25 
REMARK    8  A    between atoms: C_27  and  O_28 
ROOT
ATOM      1  C   UNL d   1       8.415   6.655 -12.847  0.00  0.00     0.133 C 
ATOM      2  C   UNL d   1       7.135   7.514 -12.876  0.00  0.00     0.032 C 
ENDROOT
BRANCH   1   3
ATOM      3  C   UNL d   1       8.951   6.482 -11.498  0.00  0.00     0.029 A 
ATOM      4  S   UNL d   1       8.617   5.080 -10.543  0.00  0.00    -0.089 SA
ATOM      5  C   UNL d   1       9.575   5.726  -9.259  0.00  0.00     0.035 A 
ATOM      6  C   UNL d   1      10.054   6.978  -9.536  0.00  0.00     0.006 A 
ATOM      7  C   UNL d   1       9.709   7.410 -10.835  0.00  0.00     0.005 A 
BRANCH   6   8
ATOM      8  C   UNL d   1      10.834   7.833  -8.676  0.00  0.00    -0.002 A 
ATOM      9  C   UNL d   1      10.291   8.492  -7.547  0.00  0.00     0.014 A 
ATOM     10  C   UNL d   1      11.106   9.236  -6.687  0.00  0.00    -0.002 A 
ATOM     11  C   UNL d   1      12.465   9.331  -6.975  0.00  0.00    -0.000 A 
ATOM     12  C   UNL d   1      13.016   8.755  -8.142  0.00  0.00    -0.000 A 
ATOM     13  C   UNL d   1      12.204   7.991  -8.977  0.00  0.00    -0.000 A 
BRANCH   9  14
ATOM     14  C   UNL d   1       8.845   8.389  -7.172  0.00  0.00     0.317 C 
BRANCH  14  15
ATOM     15  N   UNL d   1       8.474   7.064  -6.817  0.00  0.00     0.346 N 
ATOM     16  C   UNL d   1       9.208   6.563  -5.662  0.00  0.00     0.329 C 
ENDBRANCH  14  15
ENDBRANCH   9  14
ENDBRANCH   6   8
ENDBRANCH   1   3
BRANCH   1  17
ATOM     17  N   UNL d   1       8.265   5.386 -13.574  0.00  0.00    -0.250 NA
BRANCH  17  18
ATOM     18  C   UNL d   1       9.356   4.745 -14.202  0.00  0.00     0.161 A 
ATOM     19  C   UNL d   1       9.234   3.429 -14.696  0.00  0.00     0.055 A 
ATOM     20  C   UNL d   1      10.359   2.910 -15.395  0.00  0.00     0.088 A 
ATOM     21  C   UNL d   1       8.075   2.643 -14.497  0.00  0.00     0.031 A 
ATOM     22  N   UNL d   1      11.457   3.649 -15.632  0.00  0.00    -0.231 NA
ATOM     23  C   UNL d   1      10.316   1.595 -15.854  0.00  0.00     0.045 A 
ATOM     24  C   UNL d   1      11.464   4.868 -15.118  0.00  0.00     0.141 A 
ATOM     25  N   UNL d   1      10.510   5.422 -14.381  0.00  0.00    -0.212 NA
ATOM     26  C   UNL d   1      12.666   5.732 -15.401  0.00  0.00     0.074 C 
ATOM     27  C   UNL d   1       9.165   0.812 -15.655  0.00  0.00     0.118 A 
ATOM     28  C   UNL d   1       8.048   1.310 -14.959  0.00  0.00     0.117 A 
BRANCH  27  29
ATOM     29  O   UNL d   1       9.054  -0.452 -16.132  0.00  0.00    -0.326 OA
ATOM     30  C   UNL d   1      10.018  -0.943 -17.050  0.00  0.00     0.181 C 
ENDBRANCH  27  29
BRANCH  28  31
ATOM     31  O   UNL d   1       6.986   0.446 -14.782  0.00  0.00    -0.326 OA
ATOM     32  C   UNL d   1       5.878   0.897 -14.019  0.00  0.00     0.181 C 
ENDBRANCH  28  31
ENDBRANCH  17  18
ENDBRANCH   1  17
TORSDOF 8
