REMARK  7 active torsions:
REMARK  status: ('A' for Active; 'I' for Inactive)
REMARK    1  A    between atoms: O_2  and  C_3 
REMARK    2  A    between atoms: C_9  and  C_10 
REMARK    3  A    between atoms: C_12  and  N_13 
REMARK    4  A    between atoms: N_13  and  C_14 
REMARK    5  A    between atoms: C_14  and  C_15 
REMARK    6  A    between atoms: N_22  and  S_23 
REMARK    7  A    between atoms: S_23  and  C_26 
ROOT
ATOM      1  C   UNL d   1       5.508   0.647 -14.265  0.00  0.00     0.094 A 
ATOM      2  C   UNL d   1       6.034  -0.160 -15.315  0.00  0.00     0.026 A 
ATOM      3  C   UNL d   1       7.281   0.169 -15.855  0.00  0.00     0.020 A 
ATOM      4  C   UNL d   1       8.012   1.283 -15.402  0.00  0.00     0.075 A 
ATOM      5  C   UNL d   1       7.497   2.131 -14.354  0.00  0.00     0.022 A 
ATOM      6  C   UNL d   1       6.228   1.765 -13.777  0.00  0.00     0.026 A 
ATOM      7  C   UNL d   1       8.496   3.166 -14.119  0.00  0.00     0.039 A 
ATOM      8  C   UNL d   1       9.530   2.916 -14.993  0.00  0.00     0.093 A 
ATOM      9  N   UNL d   1       9.247   1.794 -15.759  0.00  0.00    -0.231 N 
ENDROOT
BRANCH   7  10
ATOM     10  C   UNL d   1       8.397   4.263 -13.122  0.00  0.00     0.115 A 
ATOM     11  N   UNL d   1       9.530   5.032 -12.798  0.00  0.00    -0.058 NA
ATOM     12  C   UNL d   1       9.118   5.901 -11.875  0.00  0.00     0.746 A 
ATOM     13  N   UNL d   1       7.824   5.769 -11.590  0.00  0.00    -0.062 NA
ATOM     14  C   UNL d   1       7.330   4.755 -12.376  0.00  0.00     0.096 A 
ATOM     15  C   UNL d   1       5.894   4.413 -12.273  0.00  0.00     0.054 C 
BRANCH  12  16
ATOM     16  N   UNL d   1       9.852   6.869 -11.232  0.00  0.00    -0.080 NA
BRANCH  16  17
ATOM     17  C   UNL d   1       9.542   7.772 -10.144  0.00  0.00     0.217 C 
BRANCH  17  18
ATOM     18  C   UNL d   1      10.790   8.231  -9.389  0.00  0.00     0.343 C 
ATOM     19  F   UNL d   1      10.461   9.151  -8.484  0.00  0.00    -0.196 F 
ATOM     20  F   UNL d   1      11.362   7.197  -8.772  0.00  0.00    -0.196 F 
ENDBRANCH  17  18
ENDBRANCH  16  17
ENDBRANCH  12  16
ENDBRANCH   7  10
BRANCH   9  21
ATOM     21  S   UNL d   1      10.255   1.136 -16.984  0.00  0.00     0.271 S 
ATOM     22  O   UNL d   1      11.535   1.853 -16.860  0.00  0.00    -0.200 OA
ATOM     23  O   UNL d   1      10.175  -0.324 -16.825  0.00  0.00    -0.200 OA
BRANCH  21  24
ATOM     24  C   UNL d   1       9.427   1.634 -18.493  0.00  0.00     0.104 A 
ATOM     25  C   UNL d   1       8.405   0.822 -19.028  0.00  0.00     0.013 A 
ATOM     26  C   UNL d   1       7.747   1.204 -20.210  0.00  0.00     0.001 A 
ATOM     27  C   UNL d   1       8.121   2.393 -20.866  0.00  0.00     0.000 A 
ATOM     28  C   UNL d   1       9.144   3.203 -20.333  0.00  0.00     0.001 A 
ATOM     29  C   UNL d   1       9.798   2.828 -19.141  0.00  0.00     0.013 A 
ENDBRANCH  21  24
ENDBRANCH   9  21
BRANCH   1  30
ATOM     30  O   UNL d   1       4.302   0.373 -13.668  0.00  0.00    -0.328 OA
ATOM     31  C   UNL d   1       3.514  -0.684 -14.184  0.00  0.00     0.181 C 
ENDBRANCH   1  30
TORSDOF 7
