REMARK  9 active torsions:
REMARK  status: ('A' for Active; 'I' for Inactive)
REMARK    1  A    between atoms: C_2  and  C_3 
REMARK       I    between atoms: C_2  and  N_17 
REMARK    2  A    between atoms: C_3  and  N_4 
REMARK       I    between atoms: N_4  and  C_5 
REMARK    3  A    between atoms: C_5  and  C_7 
REMARK    4  A    between atoms: C_11  and  C_12 
REMARK    5  A    between atoms: N_17  and  C_18 
REMARK    6  A    between atoms: N_21  and  C_22 
REMARK    7  A    between atoms: C_22  and  C_23 
REMARK    8  A    between atoms: C_23  and  C_24 
REMARK       I    between atoms: N_27  and  C_28 
REMARK    9  A    between atoms: C_28  and  C_30 
ROOT
ATOM      1  C   UNL d   1       9.553   3.220 -13.470  0.00  0.00     0.142 C 
ATOM      2  C   UNL d   1       8.388   3.884 -14.204  0.00  0.00     0.062 C 
ATOM      3  C   UNL d   1       8.097   5.128 -13.372  0.00  0.00     0.252 C 
ATOM      4  N   UNL d   1       8.534   4.763 -12.031  0.00  0.00     0.139 N 
ATOM      5  C   UNL d   1       9.810   4.095 -12.234  0.00  0.00     0.274 C 
ENDROOT
BRANCH   4   6
ATOM      6  C   UNL d   1       8.677   5.961 -11.203  0.00  0.00     0.250 C 
BRANCH   6   7
ATOM      7  C   UNL d   1       9.241   5.604  -9.822  0.00  0.00     0.035 C 
BRANCH   7   8
ATOM      8  C   UNL d   1       9.275   6.790  -8.851  0.00  0.00     0.006 C 
ATOM      9  C   UNL d   1       9.572   6.344  -7.427  0.00  0.00     0.024 C 
ATOM     10  C   UNL d   1       9.493   7.546  -6.466  0.00  0.00     0.104 C 
ATOM     11  N   UNL d   1      10.511   8.547  -6.867  0.00  0.00    -0.317 N 
ATOM     12  C   UNL d   1      10.251   9.059  -8.230  0.00  0.00     0.104 C 
ATOM     13  C   UNL d   1      11.474   9.064  -6.085  0.00  0.00     0.259 C 
ATOM     14  C   UNL d   1      10.245   7.923  -9.263  0.00  0.00     0.024 C 
ATOM     15  O   UNL d   1      12.166  10.044  -6.425  0.00  0.00    -0.267 OA
BRANCH  13  16
ATOM     16  C   UNL d   1      11.719   8.461  -4.720  0.00  0.00     0.086 A 
ATOM     17  C   UNL d   1      11.867   7.075  -4.557  0.00  0.00     0.145 A 
ATOM     18  C   UNL d   1      12.171   6.573  -3.281  0.00  0.00     0.032 A 
ATOM     19  F   UNL d   1      11.851   6.234  -5.610  0.00  0.00    -0.204 F 
ATOM     20  C   UNL d   1      12.299   7.434  -2.183  0.00  0.00     0.032 A 
ATOM     21  C   UNL d   1      12.160   8.804  -2.344  0.00  0.00     0.141 A 
ATOM     22  C   UNL d   1      11.897   9.320  -3.630  0.00  0.00     0.037 A 
ATOM     23  F   UNL d   1      12.213   9.619  -1.277  0.00  0.00    -0.204 F 
ENDBRANCH  13  16
ENDBRANCH   7   8
ENDBRANCH   6   7
ENDBRANCH   4   6
BRANCH   1  24
ATOM     24  N   UNL d   1      10.730   3.013 -14.299  0.00  0.00    -0.236 NA
ATOM     25  C   UNL d   1      11.396   3.993 -14.917  0.00  0.00     0.276 C 
ATOM     26  O   UNL d   1      11.202   5.187 -14.675  0.00  0.00    -0.268 OA
BRANCH  25  27
ATOM     27  C   UNL d   1      12.391   3.561 -16.000  0.00  0.00     0.218 C 
BRANCH  27  28
ATOM     28  N   UNL d   1      13.213   4.654 -16.492  0.00  0.00    -0.224 NA
ATOM     29  C   UNL d   1      12.787   5.660 -17.273  0.00  0.00     0.275 C 
ATOM     30  O   UNL d   1      11.618   5.802 -17.634  0.00  0.00    -0.266 OA
BRANCH  29  31
ATOM     31  C   UNL d   1      13.840   6.645 -17.675  0.00  0.00     0.058 A 
ATOM     32  C   UNL d   1      15.208   6.288 -17.649  0.00  0.00     0.009 A 
ATOM     33  C   UNL d   1      16.193   7.191 -18.083  0.00  0.00     0.072 A 
ATOM     34  C   UNL d   1      15.810   8.464 -18.560  0.00  0.00     0.004 A 
ATOM     35  C   UNL d   1      14.451   8.828 -18.589  0.00  0.00     0.000 A 
ATOM     36  C   UNL d   1      13.469   7.924 -18.145  0.00  0.00     0.005 A 
BRANCH  33  37
ATOM     37  C   UNL d   1      17.652   6.782 -18.014  0.00  0.00     0.419 C 
ATOM     38  F   UNL d   1      17.874   6.112 -16.882  0.00  0.00    -0.166 F 
ATOM     39  F   UNL d   1      17.937   5.988 -19.046  0.00  0.00    -0.166 F 
ATOM     40  F   UNL d   1      18.457   7.843 -18.040  0.00  0.00    -0.166 F 
ENDBRANCH  33  37
ENDBRANCH  29  31
ENDBRANCH  27  28
ENDBRANCH  25  27
ENDBRANCH   1  24
TORSDOF 9
