REMARK  7 active torsions:
REMARK  status: ('A' for Active; 'I' for Inactive)
REMARK    1  A    between atoms: C_8  and  O_9 
REMARK    2  A    between atoms: O_9  and  C_10 
REMARK    3  A    between atoms: C_10  and  C_11 
REMARK    4  A    between atoms: C_11  and  C_12 
REMARK    5  A    between atoms: C_12  and  C_13 
REMARK    6  A    between atoms: C_13  and  N_14 
REMARK    7  A    between atoms: N_17  and  C_18 
ROOT
ATOM      1  C   UNL d   1       9.796   6.902 -11.049  0.00  0.00     0.038 C 
ENDROOT
BRANCH   1   2
ATOM      2  C   UNL d   1       9.664   8.201 -10.235  0.00  0.00     0.035 C 
BRANCH   2   3
ATOM      3  C   UNL d   1      11.031   8.891 -10.003  0.00  0.00     0.151 C 
BRANCH   3   4
ATOM      4  O   UNL d   1      11.070   9.562  -8.744  0.00  0.00    -0.315 OA
BRANCH   4   5
ATOM      5  C   UNL d   1      11.228   8.771  -7.623  0.00  0.00     0.179 A 
ATOM      6  C   UNL d   1      11.150   7.362  -7.658  0.00  0.00     0.044 A 
ATOM      7  C   UNL d   1      11.220   6.665  -6.471  0.00  0.00     0.002 A 
ATOM      8  C   UNL d   1      11.443   7.353  -5.275  0.00  0.00     0.014 A 
ATOM      9  C   UNL d   1      11.581   6.564  -3.996  0.00  0.00     0.039 C 
ATOM     10  C   UNL d   1      11.566   8.764  -5.307  0.00  0.00     0.163 A 
ATOM     11  C   UNL d   1      12.355   7.295  -2.913  0.00  0.00     0.095 C 
ATOM     12  C   UNL d   1      12.127   8.802  -2.936  0.00  0.00     0.257 C 
ATOM     13  O   UNL d   1      12.225   9.411  -1.869  0.00  0.00    -0.270 OA
ATOM     14  N   UNL d   1      11.834   9.423  -4.085  0.00  0.00    -0.193 NA
ATOM     15  N   UNL d   1      11.431   9.454  -6.463  0.00  0.00    -0.204 NA
ENDBRANCH   4   5
ENDBRANCH   3   4
ENDBRANCH   2   3
ENDBRANCH   1   2
BRANCH   1  16
ATOM     16  C   UNL d   1       8.651   5.903 -10.790  0.00  0.00     0.251 C 
BRANCH  16  17
ATOM     17  N   UNL d   1       8.078   5.425 -12.036  0.00  0.00     0.141 N 
ATOM     18  C   UNL d   1       8.982   4.476 -12.692  0.00  0.00     0.274 C 
ATOM     19  C   UNL d   1       8.380   4.012 -14.025  0.00  0.00     0.137 C 
ATOM     20  N   UNL d   1       7.053   3.444 -13.813  0.00  0.00    -0.343 N 
ATOM     21  C   UNL d   1       6.135   4.287 -13.049  0.00  0.00     0.137 C 
ATOM     22  C   UNL d   1       6.806   4.752 -11.745  0.00  0.00     0.274 C 
BRANCH  20  23
ATOM     23  C   UNL d   1       6.698   2.162 -14.287  0.00  0.00     0.085 A 
ATOM     24  C   UNL d   1       7.240   1.631 -15.495  0.00  0.00     0.166 A 
ATOM     25  C   UNL d   1       6.873   0.352 -15.938  0.00  0.00     0.087 A 
ATOM     26  F   UNL d   1       8.088   2.359 -16.262  0.00  0.00    -0.202 F 
ATOM     27  C   UNL d   1       5.957  -0.423 -15.208  0.00  0.00     0.014 A 
ATOM     28 CL   UNL d   1       7.543  -0.252 -17.413  0.00  0.00    -0.080 Cl
ATOM     29  C   UNL d   1       5.400   0.092 -14.027  0.00  0.00     0.003 A 
ATOM     30  C   UNL d   1       5.773   1.363 -13.567  0.00  0.00     0.019 A 
ENDBRANCH  20  23
ENDBRANCH  16  17
ENDBRANCH   1  16
TORSDOF 7
