REMARK  11 active torsions:
REMARK  status: ('A' for Active; 'I' for Inactive)
REMARK    1  A    between atoms: C_2  and  N_3 
REMARK    2  A    between atoms: N_3  and  C_4 
REMARK    3  A    between atoms: N_3  and  C_20 
REMARK    4  A    between atoms: C_4  and  C_5 
REMARK    5  A    between atoms: C_5  and  C_6 
REMARK    6  A    between atoms: C_6  and  S_7 
REMARK    7  A    between atoms: S_7  and  C_8 
REMARK    8  A    between atoms: C_11  and  C_12 
REMARK    9  A    between atoms: C_20  and  C_21 
REMARK   10  A    between atoms: C_23  and  C_24 
REMARK   11  A    between atoms: C_30  and  O_31 
ROOT
ATOM      1  N   UNL d   1       8.128   5.631 -13.102  0.00  0.00     0.137 N 
ENDROOT
BRANCH   1   2
ATOM      2  C   UNL d   1       6.924   4.787 -13.139  0.00  0.00     0.250 C 
ATOM      3  C   UNL d   1       5.629   5.458 -12.650  0.00  0.00     0.037 C 
ENDBRANCH   1   2
BRANCH   1   4
ATOM      4  C   UNL d   1       8.157   6.425 -11.866  0.00  0.00     0.251 C 
BRANCH   4   5
ATOM      5  C   UNL d   1       9.501   7.106 -11.556  0.00  0.00     0.047 C 
BRANCH   5   6
ATOM      6  C   UNL d   1       9.475   7.947 -10.285  0.00  0.00     0.067 C 
BRANCH   6   7
ATOM      7  S   UNL d   1      11.152   8.341  -9.729  0.00  0.00    -0.075 SA
BRANCH   7   8
ATOM      8  C   UNL d   1      11.057   7.716  -8.083  0.00  0.00     0.193 A 
ATOM      9  N   UNL d   1      11.426   8.454  -7.028  0.00  0.00    -0.289 N 
ATOM     10  C   UNL d   1      11.281   7.591  -5.996  0.00  0.00     0.167 A 
ATOM     11  C   UNL d   1      11.931   9.799  -7.054  0.00  0.00     0.134 C 
ATOM     12  N   UNL d   1      10.834   6.410  -6.407  0.00  0.00    -0.128 NA
ATOM     13  N   UNL d   1      10.660   6.490  -7.762  0.00  0.00    -0.122 NA
BRANCH  10  14
ATOM     14  C   UNL d   1      11.599   7.866  -4.601  0.00  0.00     0.036 A 
ATOM     15  C   UNL d   1      11.444   9.162  -4.050  0.00  0.00     0.003 A 
ATOM     16  C   UNL d   1      11.858   9.420  -2.737  0.00  0.00     0.000 A 
ATOM     17  C   UNL d   1      12.292   8.377  -1.897  0.00  0.00     0.000 A 
ATOM     18  C   UNL d   1      12.388   7.071  -2.410  0.00  0.00     0.000 A 
ATOM     19  C   UNL d   1      12.075   6.822  -3.765  0.00  0.00     0.003 A 
ENDBRANCH  10  14
ENDBRANCH   7   8
ENDBRANCH   6   7
ENDBRANCH   5   6
ENDBRANCH   4   5
ENDBRANCH   1   4
BRANCH   1  20
ATOM     20  C   UNL d   1       9.315   4.779 -13.197  0.00  0.00     0.251 C 
BRANCH  20  21
ATOM     21  C   UNL d   1       9.379   3.996 -14.480  0.00  0.00     0.038 A 
ATOM     22  C   UNL d   1       9.052   2.528 -14.491  0.00  0.00     0.026 A 
ATOM     23  C   UNL d   1      10.488   2.970 -14.638  0.00  0.00     0.007 A 
BRANCH  22  24
ATOM     24  C   UNL d   1       8.283   1.940 -15.635  0.00  0.00     0.002 A 
ATOM     25  C   UNL d   1       7.284   0.958 -15.429  0.00  0.00     0.090 A 
ATOM     26  C   UNL d   1       6.604   0.426 -16.556  0.00  0.00     0.026 A 
ATOM     27  C   UNL d   1       6.913   0.869 -17.855  0.00  0.00     0.032 A 
ATOM     28  C   UNL d   1       7.900   1.847 -18.047  0.00  0.00     0.140 A 
ATOM     29  C   UNL d   1       8.571   2.382 -16.945  0.00  0.00     0.027 A 
ATOM     30  F   UNL d   1       8.193   2.304 -19.286  0.00  0.00    -0.204 F 
BRANCH  25  31
ATOM     31  O   UNL d   1       7.028   0.559 -14.133  0.00  0.00    -0.328 OA
ATOM     32  C   UNL d   1       6.014  -0.408 -13.912  0.00  0.00     0.181 C 
ENDBRANCH  25  31
ENDBRANCH  22  24
ENDBRANCH  20  21
ENDBRANCH   1  20
TORSDOF 11
