REMARK  4 active torsions:
REMARK  status: ('A' for Active; 'I' for Inactive)
REMARK    1  A    between atoms: C_2  and  C_3 
REMARK       I    between atoms: C_2  and  N_18 
REMARK    2  A    between atoms: C_3  and  N_4 
REMARK    3  A    between atoms: N_7  and  C_8 
REMARK    4  A    between atoms: C_8  and  C_9 
ROOT
ATOM      1  N   UNL d   1       8.957   4.492 -13.538  0.00  0.00     0.151 N 
ATOM      2  C   UNL d   1      10.292   3.903 -13.326  0.00  0.00     0.286 C 
ATOM      3  C   UNL d   1      10.928   3.410 -14.646  0.00  0.00     0.286 C 
ATOM      4  N   UNL d   1      10.073   2.435 -15.330  0.00  0.00     0.146 N 
ATOM      5  C   UNL d   1       8.762   3.056 -15.524  0.00  0.00     0.286 C 
ATOM      6  C   UNL d   1       8.127   3.521 -14.222  0.00  0.00     0.286 C 
ENDROOT
BRANCH   1   7
ATOM      7  C   UNL d   1       8.306   4.914 -12.298  0.00  0.00     0.337 C 
BRANCH   7   8
ATOM      8  C   UNL d   1       8.940   6.167 -11.686  0.00  0.00     0.272 C 
ATOM      9  O   UNL d   1       9.226   7.087 -12.445  0.00  0.00    -0.270 OA
ATOM     10  N   UNL d   1       9.134   6.228 -10.356  0.00  0.00    -0.298 N 
ATOM     11  C   UNL d   1       9.861   7.223  -9.653  0.00  0.00     0.058 A 
ATOM     12  C   UNL d   1       8.556   5.290  -9.390  0.00  0.00     0.114 A 
ATOM     13  C   UNL d   1       9.864   6.940  -8.298  0.00  0.00    -0.004 A 
ATOM     14  C   UNL d   1      10.507   8.366 -10.149  0.00  0.00     0.017 A 
ATOM     15  C   UNL d   1       9.098   5.693  -8.010  0.00  0.00     0.052 A 
ATOM     16  C   UNL d   1      10.534   7.760  -7.362  0.00  0.00    -0.003 A 
ATOM     17  C   UNL d   1      11.195   8.908  -7.850  0.00  0.00    -0.000 A 
ATOM     18  C   UNL d   1      11.176   9.196  -9.231  0.00  0.00     0.002 A 
ENDBRANCH   7   8
ENDBRANCH   1   7
BRANCH   4  19
ATOM     19  C   UNL d   1      10.680   1.994 -16.591  0.00  0.00     0.277 C 
BRANCH  19  20
ATOM     20  C   UNL d   1       9.848   0.991 -17.384  0.00  0.00     0.011 A 
ATOM     21  C   UNL d   1      10.189  -0.375 -17.384  0.00  0.00    -0.002 A 
ATOM     22  C   UNL d   1       9.400  -1.303 -18.092  0.00  0.00     0.011 A 
ATOM     23  C   UNL d   1       8.260  -0.875 -18.798  0.00  0.00     0.058 A 
ATOM     24  C   UNL d   1       7.915   0.489 -18.809  0.00  0.00     0.011 A 
ATOM     25 CL   UNL d   1       7.291  -2.017 -19.655  0.00  0.00    -0.082 Cl
ATOM     26  C   UNL d   1       8.725   1.419 -18.131  0.00  0.00    -0.002 A 
ENDBRANCH  19  20
ENDBRANCH   4  19
TORSDOF 4
