REMARK  6 active torsions:
REMARK  status: ('A' for Active; 'I' for Inactive)
REMARK    1  A    between atoms: C_2  and  C_3 
REMARK    2  A    between atoms: N_13  and  C_14 
REMARK    3  A    between atoms: C_14  and  C_15 
REMARK    4  A    between atoms: C_15  and  C_17 
REMARK    5  A    between atoms: C_17  and  N_18 
REMARK    6  A    between atoms: N_21  and  C_22 
ROOT
ATOM      1  C   UNL d   1       6.505   4.203 -13.705  0.00  0.00     0.148 C 
ENDROOT
BRANCH   1   2
ATOM      2  N   UNL d   1       6.861   2.847 -14.170  0.00  0.00    -0.247 N 
ATOM      3  C   UNL d   1       7.988   2.571 -14.849  0.00  0.00     0.348 A 
ATOM      4  N   UNL d   1       7.976   1.268 -15.197  0.00  0.00    -0.209 NA
ATOM      5  O   UNL d   1       8.896   3.355 -15.140  0.00  0.00    -0.245 OA
ATOM      6  C   UNL d   1       6.778   0.607 -14.685  0.00  0.00     0.179 A 
ATOM      7  C   UNL d   1       7.125  -0.441 -13.648  0.00  0.00     0.039 C 
ATOM      8  C   UNL d   1       6.110   1.747 -13.981  0.00  0.00     0.265 A 
ATOM      9  O   UNL d   1       5.057   1.593 -13.316  0.00  0.00    -0.269 OA
BRANCH   6  10
ATOM     10  C   UNL d   1       5.839   0.049 -15.754  0.00  0.00     0.006 A 
ATOM     11  C   UNL d   1       4.754  -0.772 -15.378  0.00  0.00     0.000 A 
ATOM     12  C   UNL d   1       3.890  -1.323 -16.342  0.00  0.00     0.029 A 
ATOM     13  C   UNL d   1       4.110  -1.055 -17.705  0.00  0.00     0.140 A 
ATOM     14  C   UNL d   1       5.159  -0.202 -18.094  0.00  0.00     0.029 A 
ATOM     15  F   UNL d   1       3.305  -1.602 -18.642  0.00  0.00    -0.204 F 
ATOM     16  C   UNL d   1       6.029   0.345 -17.126  0.00  0.00     0.000 A 
ENDBRANCH   6  10
ENDBRANCH   1   2
BRANCH   1  17
ATOM     17  C   UNL d   1       6.657   4.467 -12.250  0.00  0.00     0.208 C 
ATOM     18  O   UNL d   1       5.815   3.565 -11.601  0.00  0.00    -0.219 OA
BRANCH  17  19
ATOM     19  C   UNL d   1       8.122   4.383 -11.781  0.00  0.00     0.285 C 
BRANCH  19  20
ATOM     20  N   UNL d   1       8.337   4.630 -10.347  0.00  0.00     0.144 N 
ATOM     21  C   UNL d   1       7.995   5.988  -9.983  0.00  0.00     0.274 C 
ATOM     22  C   UNL d   1       8.248   6.335  -8.485  0.00  0.00     0.137 C 
ATOM     23  N   UNL d   1       9.589   6.062  -8.141  0.00  0.00    -0.344 N 
ATOM     24  C   UNL d   1      10.009   4.754  -8.544  0.00  0.00     0.137 C 
ATOM     25  C   UNL d   1       9.748   4.497 -10.020  0.00  0.00     0.274 C 
BRANCH  23  26
ATOM     26  C   UNL d   1      10.352   7.002  -7.464  0.00  0.00     0.056 A 
ATOM     27  C   UNL d   1      10.085   7.284  -6.118  0.00  0.00     0.019 A 
ATOM     28  C   UNL d   1      10.837   8.275  -5.454  0.00  0.00     0.031 A 
ATOM     29  C   UNL d   1      11.833   8.980  -6.146  0.00  0.00     0.140 A 
ATOM     30  C   UNL d   1      12.085   8.701  -7.503  0.00  0.00     0.031 A 
ATOM     31  F   UNL d   1      12.583   9.890  -5.485  0.00  0.00    -0.204 F 
ATOM     32  C   UNL d   1      11.327   7.716  -8.167  0.00  0.00     0.019 A 
ENDBRANCH  23  26
ENDBRANCH  19  20
ENDBRANCH  17  19
ENDBRANCH   1  17
TORSDOF 6
