REMARK  10 active torsions:
REMARK  status: ('A' for Active; 'I' for Inactive)
REMARK    1  A    between atoms: C_2  and  C_3 
REMARK       I    between atoms: C_2  and  N_11 
REMARK    2  A    between atoms: C_4  and  C_5 
REMARK    3  A    between atoms: N_11  and  C_12 
REMARK    4  A    between atoms: C_12  and  C_13 
REMARK    5  A    between atoms: C_13  and  C_14 
REMARK    6  A    between atoms: C_14  and  C_15 
REMARK    7  A    between atoms: C_15  and  N_16 
REMARK    8  A    between atoms: C_22  and  O_23 
REMARK    9  A    between atoms: O_23  and  S_24 
REMARK   10  A    between atoms: S_24  and  C_27 
ROOT
ATOM      1  N   UNL d   1       9.394   3.541 -14.723  0.00  0.00     0.142 N 
ATOM      2  C   UNL d   1      10.388   3.782 -15.769  0.00  0.00     0.255 C 
ATOM      3  C   UNL d   1       9.730   3.636 -17.156  0.00  0.00     0.061 C 
ATOM      4  C   UNL d   1       8.925   2.355 -17.294  0.00  0.00    -0.022 A 
ATOM      5  C   UNL d   1       8.531   1.895 -18.565  0.00  0.00    -0.002 A 
ATOM      6  C   UNL d   1       7.766   0.718 -18.680  0.00  0.00     0.025 A 
ATOM      7  C   UNL d   1       7.393  -0.000 -17.527  0.00  0.00     0.113 A 
ATOM      8  C   UNL d   1       7.790   0.459 -16.254  0.00  0.00     0.023 A 
ATOM      9  C   UNL d   1       8.547   1.643 -16.133  0.00  0.00     0.009 A 
ATOM     10  C   UNL d   1       9.012   2.123 -14.764  0.00  0.00     0.277 C 
ENDROOT
BRANCH   1  11
ATOM     11  C   UNL d   1       9.942   3.869 -13.405  0.00  0.00     0.251 C 
BRANCH  11  12
ATOM     12  C   UNL d   1       8.858   4.443 -12.478  0.00  0.00     0.037 C 
BRANCH  12  13
ATOM     13  C   UNL d   1       9.437   4.857 -11.117  0.00  0.00     0.029 C 
BRANCH  13  14
ATOM     14  C   UNL d   1       8.407   5.477 -10.164  0.00  0.00     0.129 C 
BRANCH  14  15
ATOM     15  N   UNL d   1       8.980   5.764  -8.848  0.00  0.00    -0.234 NA
ATOM     16  C   UNL d   1       9.839   6.762  -8.579  0.00  0.00     0.275 C 
ATOM     17  O   UNL d   1      10.281   7.517  -9.447  0.00  0.00    -0.266 OA
BRANCH  16  18
ATOM     18  C   UNL d   1      10.183   6.818  -7.170  0.00  0.00     0.062 C 
ATOM     19  C   UNL d   1      10.906   7.840  -6.671  0.00  0.00     0.005 C 
BRANCH  19  20
ATOM     20  C   UNL d   1      11.350   7.952  -5.269  0.00  0.00     0.000 A 
ATOM     21  C   UNL d   1      11.465   6.811  -4.443  0.00  0.00     0.000 A 
ATOM     22  C   UNL d   1      11.867   6.925  -3.099  0.00  0.00     0.000 A 
ATOM     23  C   UNL d   1      12.146   8.193  -2.557  0.00  0.00     0.000 A 
ATOM     24  C   UNL d   1      12.013   9.338  -3.363  0.00  0.00     0.000 A 
ATOM     25  C   UNL d   1      11.621   9.221  -4.714  0.00  0.00     0.000 A 
ENDBRANCH  19  20
ENDBRANCH  16  18
ENDBRANCH  14  15
ENDBRANCH  13  14
ENDBRANCH  12  13
ENDBRANCH  11  12
ENDBRANCH   1  11
BRANCH   7  26
ATOM     26  O   UNL d   1       6.658  -1.146 -17.654  0.00  0.00    -0.224 OA
BRANCH  26  27
ATOM     27  S   UNL d   1       4.981  -0.956 -17.634  0.00  0.00     0.374 S 
ATOM     28  O   UNL d   1       4.572  -0.813 -16.226  0.00  0.00    -0.189 OA
ATOM     29  O   UNL d   1       4.646   0.069 -18.634  0.00  0.00    -0.189 OA
BRANCH  27  30
ATOM     30  C   UNL d   1       4.486  -2.606 -18.279  0.00  0.00     0.524 C 
ATOM     31  F   UNL d   1       3.165  -2.730 -18.155  0.00  0.00    -0.155 F 
ATOM     32  F   UNL d   1       4.822  -2.688 -19.565  0.00  0.00    -0.155 F 
ATOM     33  F   UNL d   1       5.096  -3.554 -17.570  0.00  0.00    -0.155 F 
ENDBRANCH  27  30
ENDBRANCH  26  27
ENDBRANCH   7  26
TORSDOF 10
