REMARK  5 active torsions:
REMARK  status: ('A' for Active; 'I' for Inactive)
REMARK    1  A    between atoms: O_2  and  C_3 
REMARK    2  A    between atoms: C_10  and  C_11 
REMARK       I    between atoms: C_11  and  N_13 
REMARK    3  A    between atoms: N_13  and  C_14 
REMARK    4  A    between atoms: N_17  and  C_18 
REMARK    5  A    between atoms: C_18  and  C_19 
ROOT
ATOM      1  C   UNL d   1      10.223   6.390 -10.673  0.00  0.00     0.111 C 
ATOM      2  C   UNL d   1      10.305   6.043  -9.207  0.00  0.00     0.060 C 
ATOM      3  C   UNL d   1      11.075   7.093  -8.465  0.00  0.00     0.253 C 
ATOM      4  N   UNL d   1      10.463   8.386  -8.540  0.00  0.00     0.141 N 
ATOM      5  C   UNL d   1      10.506   8.813  -9.951  0.00  0.00     0.253 C 
ATOM      6  C   UNL d   1       9.717   7.812 -10.850  0.00  0.00     0.060 C 
ENDROOT
BRANCH   1   7
ATOM      7  N   UNL d   1       9.416   5.414 -11.398  0.00  0.00    -0.236 NA
ATOM      8  C   UNL d   1       9.650   4.909 -12.621  0.00  0.00     0.277 C 
ATOM      9  O   UNL d   1      10.623   5.159 -13.338  0.00  0.00    -0.266 OA
BRANCH   8  10
ATOM     10  C   UNL d   1       8.642   3.954 -13.102  0.00  0.00     0.081 A 
ATOM     11  C   UNL d   1       9.046   2.822 -13.840  0.00  0.00     0.100 A 
ATOM     12  C   UNL d   1       8.057   1.932 -14.306  0.00  0.00     0.039 A 
ATOM     13  C   UNL d   1       6.706   2.156 -14.011  0.00  0.00     0.083 A 
ATOM     14  N   UNL d   1       5.782   1.159 -14.306  0.00  0.00    -0.100 NA
ATOM     15  C   UNL d   1       6.335   3.307 -13.286  0.00  0.00     0.071 A 
ATOM     16 CL   UNL d   1       4.717   3.588 -12.826  0.00  0.00    -0.081 Cl
ATOM     17  C   UNL d   1       7.291   4.219 -12.836  0.00  0.00     0.019 A 
BRANCH  11  18
ATOM     18  O   UNL d   1      10.390   2.601 -14.046  0.00  0.00    -0.328 OA
ATOM     19  C   UNL d   1      10.780   1.496 -14.848  0.00  0.00     0.181 C 
ENDBRANCH  11  18
ENDBRANCH   8  10
ENDBRANCH   1   7
BRANCH   4  20
ATOM     20  C   UNL d   1      11.246   9.322  -7.703  0.00  0.00     0.277 C 
BRANCH  20  21
ATOM     21  C   UNL d   1      11.264   9.108  -6.208  0.00  0.00     0.011 A 
ATOM     22  C   UNL d   1      11.786   7.938  -5.669  0.00  0.00    -0.002 A 
ATOM     23  C   UNL d   1      11.893   7.692  -4.308  0.00  0.00    -0.000 A 
ATOM     24  C   UNL d   1      11.501   8.715  -3.417  0.00  0.00    -0.000 A 
ATOM     25  C   UNL d   1      10.971   9.899  -3.944  0.00  0.00    -0.000 A 
ATOM     26  C   UNL d   1      10.787  10.119  -5.319  0.00  0.00    -0.002 A 
ENDBRANCH  20  21
ENDBRANCH   4  20
TORSDOF 5
