REMARK  9 active torsions:
REMARK  status: ('A' for Active; 'I' for Inactive)
REMARK    1  A    between atoms: O_2  and  C_3 
REMARK    2  A    between atoms: C_8  and  N_9 
REMARK    3  A    between atoms: N_12  and  C_13 
REMARK    4  A    between atoms: C_13  and  C_14 
REMARK    5  A    between atoms: C_14  and  C_15 
REMARK    6  A    between atoms: C_15  and  C_16 
REMARK    7  A    between atoms: C_16  and  N_17 
REMARK    8  A    between atoms: C_19  and  C_20 
REMARK    9  A    between atoms: C_23  and  C_24 
ROOT
ATOM      1  C   UNL d   1       9.966   5.220 -13.331  0.00  0.00     0.029 C 
ENDROOT
BRANCH   1   2
ATOM      2  C   UNL d   1       9.461   4.287 -14.418  0.00  0.00     0.037 C 
BRANCH   2   3
ATOM      3  C   UNL d   1      10.574   3.436 -15.081  0.00  0.00     0.251 C 
BRANCH   3   4
ATOM      4  N   UNL d   1      10.084   2.385 -15.996  0.00  0.00     0.141 N 
ATOM      5  C   UNL d   1       8.973   2.849 -16.839  0.00  0.00     0.274 C 
ATOM      6  C   UNL d   1       8.488   1.779 -17.828  0.00  0.00     0.137 C 
ATOM      7  N   UNL d   1       8.169   0.562 -17.093  0.00  0.00    -0.343 N 
ATOM      8  C   UNL d   1       9.221   0.082 -16.203  0.00  0.00     0.137 C 
ATOM      9  C   UNL d   1       9.677   1.196 -15.239  0.00  0.00     0.274 C 
BRANCH   7  10
ATOM     10  C   UNL d   1       6.889  -0.023 -17.153  0.00  0.00     0.079 A 
ATOM     11  C   UNL d   1       6.173  -0.397 -15.987  0.00  0.00     0.110 A 
ATOM     12  C   UNL d   1       4.901  -1.041 -16.130  0.00  0.00     0.026 A 
ATOM     13  C   UNL d   1       4.363  -1.283 -17.402  0.00  0.00     0.002 A 
ATOM     14  C   UNL d   1       5.063  -0.898 -18.550  0.00  0.00     0.002 A 
ATOM     15  C   UNL d   1       6.327  -0.267 -18.422  0.00  0.00     0.019 A 
BRANCH  11  16
ATOM     16  O   UNL d   1       6.715  -0.094 -14.758  0.00  0.00    -0.327 OA
ATOM     17  C   UNL d   1       6.194  -0.739 -13.610  0.00  0.00     0.181 C 
ENDBRANCH  11  16
ENDBRANCH   7  10
ENDBRANCH   3   4
ENDBRANCH   2   3
ENDBRANCH   1   2
BRANCH   1  18
ATOM     18  C   UNL d   1       8.816   5.993 -12.663  0.00  0.00     0.129 C 
BRANCH  18  19
ATOM     19  N   UNL d   1       9.279   6.756 -11.524  0.00  0.00    -0.231 N 
ATOM     20  N   UNL d   1       9.444   8.091 -11.629  0.00  0.00    -0.064 NA
ATOM     21  N   UNL d   1       9.891   8.507 -10.485  0.00  0.00    -0.129 NA
ATOM     22  C   UNL d   1       9.992   7.438  -9.594  0.00  0.00     0.123 A 
ATOM     23  C   UNL d   1       9.613   6.303 -10.265  0.00  0.00     0.118 A 
BRANCH  22  24
ATOM     24  C   UNL d   1      10.431   7.634  -8.205  0.00  0.00     0.021 A 
ATOM     25  C   UNL d   1      11.079   8.823  -7.807  0.00  0.00     0.002 A 
ATOM     26  C   UNL d   1      11.506   9.002  -6.475  0.00  0.00     0.002 A 
ATOM     27  C   UNL d   1      11.315   7.978  -5.523  0.00  0.00     0.024 A 
ATOM     28  C   UNL d   1      10.662   6.796  -5.915  0.00  0.00     0.002 A 
ATOM     29  C   UNL d   1      10.221   6.623  -7.245  0.00  0.00     0.002 A 
BRANCH  27  30
ATOM     30  C   UNL d   1      11.788   8.132  -4.155  0.00  0.00     0.121 A 
ATOM     31  O   UNL d   1      11.755   9.379  -3.598  0.00  0.00    -0.285 OA
ATOM     32  C   UNL d   1      12.222   9.186  -2.336  0.00  0.00     0.225 A 
ATOM     33  N   UNL d   1      12.529   7.922  -2.060  0.00  0.00    -0.215 NA
ATOM     34  C   UNL d   1      12.257   7.233  -3.231  0.00  0.00     0.126 A 
ENDBRANCH  27  30
ENDBRANCH  22  24
ENDBRANCH  18  19
ENDBRANCH   1  18
TORSDOF 9
