REMARK  9 active torsions:
REMARK  status: ('A' for Active; 'I' for Inactive)
REMARK    1  A    between atoms: C_2  and  C_3 
REMARK    2  A    between atoms: C_3  and  N_4 
REMARK    3  A    between atoms: N_4  and  C_5 
REMARK    4  A    between atoms: N_4  and  C_25 
REMARK    5  A    between atoms: C_5  and  C_6 
REMARK    6  A    between atoms: C_6  and  C_7 
REMARK    7  A    between atoms: C_10  and  N_11 
REMARK       I    between atoms: N_11  and  C_12 
REMARK    8  A    between atoms: C_12  and  C_14 
REMARK    9  A    between atoms: C_27  and  C_28 
ROOT
ATOM      1  C   UNL d   1       9.260   4.585 -13.741  0.00  0.00     0.133 C 
ATOM      2  O   UNL d   1      10.260   5.563 -13.711  0.00  0.00    -0.226 OA
ATOM      3  C   UNL d   1       9.297   3.614 -12.570  0.00  0.00     0.055 C 
ATOM      4  C   UNL d   1       8.247   4.453 -11.829  0.00  0.00     0.112 C 
ATOM      5  C   UNL d   1       7.910   5.086 -13.184  0.00  0.00     0.055 C 
ENDROOT
BRANCH   1   6
ATOM      6  C   UNL d   1       9.325   4.024 -15.149  0.00  0.00     0.066 C 
BRANCH   6   7
ATOM      7  C   UNL d   1      10.464   2.994 -15.419  0.00  0.00     0.253 C 
BRANCH   7   8
ATOM      8  N   UNL d   1       9.989   1.887 -16.265  0.00  0.00     0.135 N 
BRANCH   8   9
ATOM      9  C   UNL d   1      10.801   0.675 -16.033  0.00  0.00     0.250 C 
BRANCH   9  10
ATOM     10  C   UNL d   1      10.206  -0.620 -16.662  0.00  0.00     0.035 C 
ATOM     11  C   UNL d   1      10.773  -0.961 -18.058  0.00  0.00     0.002 C 
ENDBRANCH   9  10
ENDBRANCH   8   9
BRANCH   8  12
ATOM     12  C   UNL d   1       9.995   2.256 -17.685  0.00  0.00     0.224 A 
ATOM     13  C   UNL d   1       8.819   1.813 -18.576  0.00  0.00     0.056 A 
ATOM     14  C   UNL d   1       9.015   3.262 -18.241  0.00  0.00     0.040 A 
BRANCH  13  15
ATOM     15  C   UNL d   1       7.646   0.996 -18.071  0.00  0.00    -0.021 A 
ATOM     16  C   UNL d   1       7.042   1.277 -16.830  0.00  0.00    -0.003 A 
ATOM     17  C   UNL d   1       6.070   0.451 -16.259  0.00  0.00     0.011 A 
ATOM     18  C   UNL d   1       5.630  -0.684 -16.958  0.00  0.00     0.058 A 
ATOM     19  C   UNL d   1       6.208  -1.006 -18.203  0.00  0.00     0.011 A 
ATOM     20 CL   UNL d   1       4.383  -1.637 -16.258  0.00  0.00    -0.082 Cl
ATOM     21  C   UNL d   1       7.225  -0.177 -18.754  0.00  0.00    -0.003 A 
ENDBRANCH  13  15
ENDBRANCH   8  12
ENDBRANCH   7   8
ENDBRANCH   6   7
ENDBRANCH   1   6
BRANCH   4  22
ATOM     22  N   UNL d   1       8.878   5.420 -10.939  0.00  0.00    -0.236 NA
ATOM     23  C   UNL d   1       8.998   5.332  -9.610  0.00  0.00     0.275 C 
ATOM     24  O   UNL d   1       8.644   4.367  -8.944  0.00  0.00    -0.266 OA
BRANCH  23  25
ATOM     25  C   UNL d   1       9.684   6.482  -8.946  0.00  0.00     0.058 A 
ATOM     26  C   UNL d   1      10.018   6.350  -7.587  0.00  0.00     0.005 A 
ATOM     27  C   UNL d   1      10.574   7.408  -6.858  0.00  0.00     0.000 A 
ATOM     28  C   UNL d   1      10.785   8.643  -7.507  0.00  0.00     0.000 A 
ATOM     29  C   UNL d   1      10.903   7.231  -5.494  0.00  0.00     0.000 A 
ATOM     30  C   UNL d   1      10.454   8.793  -8.876  0.00  0.00     0.000 A 
ATOM     31  C   UNL d   1      11.318   9.714  -6.773  0.00  0.00     0.000 A 
ATOM     32  C   UNL d   1       9.901   7.718  -9.591  0.00  0.00     0.005 A 
ATOM     33  C   UNL d   1      11.678   9.535  -5.428  0.00  0.00     0.000 A 
ATOM     34  C   UNL d   1      11.464   8.306  -4.785  0.00  0.00     0.000 A 
ENDBRANCH  23  25
ENDBRANCH   4  22
TORSDOF 9
