REMARK  6 active torsions:
REMARK  status: ('A' for Active; 'I' for Inactive)
REMARK    1  A    between atoms: C_4  and  C_5 
REMARK       I    between atoms: C_5  and  N_7 
REMARK    2  A    between atoms: N_7  and  C_8 
REMARK    3  A    between atoms: C_11  and  C_12 
REMARK    4  A    between atoms: C_12  and  C_13 
REMARK    5  A    between atoms: C_13  and  N_14 
REMARK    6  A    between atoms: N_17  and  C_18 
ROOT
ATOM      1  C   UNL d   1       8.567   4.998 -11.899  0.00  0.00     0.035 C 
ENDROOT
BRANCH   1   2
ATOM      2  C   UNL d   1       9.068   3.964 -12.925  0.00  0.00     0.002 C 
ATOM      3  C   UNL d   1       7.982   3.658 -13.964  0.00  0.00     0.002 C 
ATOM      4  C   UNL d   1       8.470   2.665 -15.024  0.00  0.00     0.024 C 
ATOM      5  C   UNL d   1       9.743   3.175 -15.714  0.00  0.00     0.107 C 
ATOM      6  C   UNL d   1      10.845   3.457 -14.672  0.00  0.00     0.024 C 
ATOM      7  C   UNL d   1      10.358   4.446 -13.607  0.00  0.00     0.002 C 
BRANCH   5   8
ATOM      8  N   UNL d   1      10.203   2.182 -16.681  0.00  0.00    -0.234 NA
ATOM      9  C   UNL d   1      10.929   2.459 -17.773  0.00  0.00     0.300 C 
ATOM     10  O   UNL d   1      11.146   3.603 -18.172  0.00  0.00    -0.263 OA
BRANCH   9  11
ATOM     11  C   UNL d   1      11.504   1.289 -18.461  0.00  0.00     0.183 A 
ATOM     12  C   UNL d   1      12.285   1.354 -19.577  0.00  0.00     0.049 A 
ATOM     13  C   UNL d   1      12.602  -0.016 -19.812  0.00  0.00     0.088 A 
ATOM     14  C   UNL d   1      13.417  -0.599 -20.925  0.00  0.00     0.055 C 
ATOM     15  N   UNL d   1      12.075  -0.811 -18.893  0.00  0.00    -0.131 NA
ATOM     16  O   UNL d   1      11.364   0.013 -18.017  0.00  0.00    -0.206 OA
ENDBRANCH   9  11
ENDBRANCH   5   8
ENDBRANCH   1   2
BRANCH   1  17
ATOM     17  C   UNL d   1       9.190   4.788 -10.508  0.00  0.00     0.250 C 
BRANCH  17  18
ATOM     18  N   UNL d   1       9.057   6.000  -9.710  0.00  0.00     0.141 N 
ATOM     19  C   UNL d   1      10.143   6.955  -9.984  0.00  0.00     0.274 C 
ATOM     20  C   UNL d   1       9.972   8.235  -9.136  0.00  0.00     0.138 C 
ATOM     21  N   UNL d   1       9.847   7.853  -7.715  0.00  0.00    -0.330 N 
ATOM     22  C   UNL d   1       8.815   6.874  -7.413  0.00  0.00     0.138 C 
ATOM     23  C   UNL d   1       9.079   5.629  -8.285  0.00  0.00     0.274 C 
BRANCH  21  24
ATOM     24  C   UNL d   1      10.671   8.424  -6.732  0.00  0.00     0.138 A 
ATOM     25  C   UNL d   1      11.024   7.763  -5.536  0.00  0.00     0.036 A 
ATOM     26  C   UNL d   1      11.851   8.349  -4.601  0.00  0.00     0.095 A 
ATOM     27  C   UNL d   1      10.707   6.426  -5.018  0.00  0.00     0.064 C 
ATOM     28  C   UNL d   1      12.356   9.589  -4.858  0.00  0.00     0.045 A 
ATOM     29  O   UNL d   1      12.133   7.623  -3.489  0.00  0.00    -0.331 OA
ATOM     30  C   UNL d   1      11.940  10.245  -6.042  0.00  0.00     0.103 A 
ATOM     31  N   UNL d   1      11.128   9.674  -6.957  0.00  0.00    -0.228 NA
ATOM     32  C   UNL d   1      11.563   6.341  -3.736  0.00  0.00     0.154 C 
ENDBRANCH  21  24
ENDBRANCH  17  18
ENDBRANCH   1  17
TORSDOF 6
