REMARK  8 active torsions:
REMARK  status: ('A' for Active; 'I' for Inactive)
REMARK    1  A    between atoms: N_5  and  C_6 
REMARK    2  A    between atoms: C_6  and  C_7 
REMARK    3  A    between atoms: C_7  and  C_8 
REMARK    4  A    between atoms: C_8  and  C_9 
REMARK    5  A    between atoms: C_9  and  N_10 
REMARK    6  A    between atoms: N_13  and  C_14 
REMARK    7  A    between atoms: C_16  and  C_17 
REMARK    8  A    between atoms: C_22  and  C_23 
ROOT
ATOM      1  N   UNL d   1       8.664   5.973 -10.292  0.00  0.00     0.141 N 
ATOM      2  C   UNL d   1       8.711   4.549 -10.583  0.00  0.00     0.274 C 
ATOM      3  C   UNL d   1       8.290   4.304 -12.038  0.00  0.00     0.138 C 
ATOM      4  N   UNL d   1       9.127   5.070 -12.947  0.00  0.00    -0.330 N 
ATOM      5  C   UNL d   1       9.135   6.506 -12.646  0.00  0.00     0.138 C 
ATOM      6  C   UNL d   1       9.539   6.736 -11.183  0.00  0.00     0.274 C 
ENDROOT
BRANCH   4   7
ATOM      7  C   UNL d   1       9.878   4.462 -13.973  0.00  0.00     0.143 A 
ATOM      8  N   UNL d   1      10.788   5.224 -14.610  0.00  0.00    -0.214 NA
ATOM      9  C   UNL d   1      11.452   4.706 -15.657  0.00  0.00     0.140 A 
ATOM     10  N   UNL d   1      11.305   3.463 -16.118  0.00  0.00    -0.227 NA
ATOM     11  C   UNL d   1      10.456   2.652 -15.450  0.00  0.00     0.157 A 
ATOM     12  C   UNL d   1       9.678   3.121 -14.369  0.00  0.00     0.060 A 
BRANCH   9  13
ATOM     13  C   UNL d   1      12.335   5.653 -16.494  0.00  0.00     0.052 C 
ATOM     14  C   UNL d   1      11.667   5.944 -17.854  0.00  0.00     0.008 C 
ATOM     15  C   UNL d   1      13.716   5.002 -16.710  0.00  0.00     0.008 C 
ATOM     16  C   UNL d   1      12.560   7.015 -15.796  0.00  0.00     0.008 C 
ENDBRANCH   9  13
BRANCH  11  17
ATOM     17  C   UNL d   1      10.318   1.219 -15.937  0.00  0.00     0.435 C 
ATOM     18  F   UNL d   1       9.966   0.417 -14.932  0.00  0.00    -0.165 F 
ATOM     19  F   UNL d   1       9.368   1.180 -16.869  0.00  0.00    -0.165 F 
ATOM     20  F   UNL d   1      11.458   0.764 -16.454  0.00  0.00    -0.165 F 
ENDBRANCH  11  17
ENDBRANCH   4   7
BRANCH   1  21
ATOM     21  C   UNL d   1       8.945   6.220  -8.882  0.00  0.00     0.251 C 
BRANCH  21  22
ATOM     22  C   UNL d   1      10.433   5.985  -8.558  0.00  0.00     0.037 C 
BRANCH  22  23
ATOM     23  C   UNL d   1      10.795   6.333  -7.140  0.00  0.00     0.027 C 
BRANCH  23  24
ATOM     24  C   UNL d   1      10.852   7.831  -6.848  0.00  0.00     0.111 C 
BRANCH  24  25
ATOM     25  N   UNL d   1      11.248   8.119  -5.461  0.00  0.00    -0.279 N 
ATOM     26  C   UNL d   1      11.540   7.050  -4.581  0.00  0.00     0.081 A 
ATOM     27  C   UNL d   1      11.931   7.295  -3.327  0.00  0.00     0.034 A 
ATOM     28  C   UNL d   1      12.020   8.703  -2.929  0.00  0.00     0.066 A 
ATOM     29  C   UNL d   1      12.457   8.943  -1.517  0.00  0.00     0.052 C 
ATOM     30  N   UNL d   1      11.730   9.668  -3.720  0.00  0.00    -0.197 NA
ATOM     31  C   UNL d   1      11.334   9.417  -5.042  0.00  0.00     0.350 A 
ATOM     32  O   UNL d   1      11.065  10.342  -5.817  0.00  0.00    -0.244 OA
ENDBRANCH  24  25
ENDBRANCH  23  24
ENDBRANCH  22  23
ENDBRANCH  21  22
ENDBRANCH   1  21
TORSDOF 8
