REMARK  7 active torsions:
REMARK  status: ('A' for Active; 'I' for Inactive)
REMARK       I    between atoms: C_2  and  N_3 
REMARK    1  A    between atoms: C_2  and  C_23 
REMARK    2  A    between atoms: N_3  and  C_4 
REMARK    3  A    between atoms: C_4  and  C_5 
REMARK    4  A    between atoms: C_5  and  C_6 
REMARK    5  A    between atoms: C_6  and  C_7 
REMARK    6  A    between atoms: C_6  and  N_9 
REMARK    7  A    between atoms: N_12  and  C_13 
ROOT
ATOM      1  C   UNL d   1       8.199   4.845 -11.925  0.00  0.00     0.256 C 
ENDROOT
BRANCH   1   2
ATOM      2  C   UNL d   1       8.846   5.081 -10.540  0.00  0.00     0.063 C 
BRANCH   2   3
ATOM      3  C   UNL d   1       9.455   6.482 -10.386  0.00  0.00     0.131 C 
BRANCH   3   4
ATOM      4  N   UNL d   1       9.956   6.684  -9.036  0.00  0.00    -0.233 NA
ATOM      5  C   UNL d   1      10.126   7.886  -8.458  0.00  0.00     0.298 C 
ATOM      6  O   UNL d   1       9.899   8.953  -9.025  0.00  0.00    -0.263 OA
BRANCH   5   7
ATOM      7  C   UNL d   1      10.620   7.848  -7.068  0.00  0.00     0.157 A 
ATOM      8  O   UNL d   1      10.723   9.033  -6.380  0.00  0.00    -0.302 OA
ATOM      9  C   UNL d   1      11.209   8.732  -5.126  0.00  0.00     0.100 A 
ATOM     10  C   UNL d   1      11.421   7.339  -5.019  0.00  0.00     0.025 A 
ATOM     11  C   UNL d   1      11.460   9.625  -4.072  0.00  0.00     0.025 A 
ATOM     12  C   UNL d   1      11.050   6.791  -6.291  0.00  0.00     0.032 A 
ATOM     13  C   UNL d   1      11.908   6.854  -3.784  0.00  0.00     0.002 A 
ATOM     14  C   UNL d   1      12.185   7.736  -2.715  0.00  0.00     0.000 A 
ATOM     15  C   UNL d   1      11.962   9.121  -2.860  0.00  0.00     0.002 A 
ENDBRANCH   5   7
ENDBRANCH   3   4
ENDBRANCH   2   3
ENDBRANCH   1   2
BRANCH   1  16
ATOM     16  C   UNL d   1       7.096   5.904 -12.187  0.00  0.00     0.227 C 
ATOM     17  F   UNL d   1       6.076   5.342 -12.834  0.00  0.00    -0.232 F 
ENDBRANCH   1  16
BRANCH   1  18
ATOM     18  N   UNL d   1       9.239   4.749 -12.970  0.00  0.00     0.142 N 
ATOM     19  C   UNL d   1       8.714   4.946 -14.328  0.00  0.00     0.274 C 
ATOM     20  C   UNL d   1       9.851   4.889 -15.370  0.00  0.00     0.137 C 
ATOM     21  N   UNL d   1      10.567   3.623 -15.275  0.00  0.00    -0.344 N 
ATOM     22  C   UNL d   1      11.034   3.295 -13.935  0.00  0.00     0.137 C 
ATOM     23  C   UNL d   1       9.865   3.413 -12.930  0.00  0.00     0.274 C 
BRANCH  21  24
ATOM     24  C   UNL d   1      10.693   2.775 -16.367  0.00  0.00     0.068 A 
ATOM     25  C   UNL d   1      10.340   1.388 -16.334  0.00  0.00     0.084 A 
ATOM     26  C   UNL d   1      10.516   0.592 -17.485  0.00  0.00     0.070 A 
ATOM     27 CL   UNL d   1       9.632   0.646 -14.935  0.00  0.00    -0.080 Cl
ATOM     28  C   UNL d   1      11.018   1.149 -18.669  0.00  0.00     0.012 A 
ATOM     29 CL   UNL d   1      10.105  -1.086 -17.474  0.00  0.00    -0.081 Cl
ATOM     30  C   UNL d   1      11.347   2.510 -18.725  0.00  0.00     0.002 A 
ATOM     31  C   UNL d   1      11.181   3.316 -17.585  0.00  0.00     0.018 A 
ENDBRANCH  21  24
ENDBRANCH   1  18
TORSDOF 7
