REMARK  2 active torsions:
REMARK  status: ('A' for Active; 'I' for Inactive)
REMARK    1  A    between atoms: N_11  and  C_12 
REMARK    2  A    between atoms: C_12  and  C_13 
ROOT
ATOM      1  N   UNL d   1       8.796   7.491 -12.299  0.00  0.00    -0.191 NA
ATOM      2  C   UNL d   1       8.264   6.487 -12.520  0.00  0.00     0.101 C 
ATOM      3  C   UNL d   1       7.599   5.229 -12.810  0.00  0.00     0.068 A 
ATOM      4  C   UNL d   1       6.484   4.837 -12.053  0.00  0.00     0.012 A 
ATOM      5  C   UNL d   1       5.850   3.610 -12.333  0.00  0.00     0.025 A 
ATOM      6  C   UNL d   1       6.275   2.788 -13.393  0.00  0.00     0.090 A 
ATOM      7  C   UNL d   1       7.399   3.200 -14.148  0.00  0.00     0.003 A 
ATOM      8  C   UNL d   1       8.056   4.417 -13.866  0.00  0.00     0.008 A 
ATOM      9  C   UNL d   1       7.841   2.313 -15.290  0.00  0.00     0.062 C 
ATOM     10  C   UNL d   1       9.302   2.237 -15.672  0.00  0.00     0.255 C 
ATOM     11  N   UNL d   1       9.306   1.079 -16.573  0.00  0.00     0.142 N 
ATOM     12  C   UNL d   1       8.221   0.185 -16.140  0.00  0.00     0.254 C 
ATOM     13  C   UNL d   1       7.559   0.885 -14.957  0.00  0.00     0.070 C 
ATOM     14  C   UNL d   1       6.053   0.751 -14.713  0.00  0.00     0.151 C 
ATOM     15  O   UNL d   1       5.645   1.569 -13.597  0.00  0.00    -0.331 OA
ENDROOT
BRANCH  11  16
ATOM     16  C   UNL d   1      10.599   0.399 -16.631  0.00  0.00     0.277 C 
BRANCH  16  17
ATOM     17  C   UNL d   1      11.662   1.164 -17.405  0.00  0.00     0.011 A 
ATOM     18  C   UNL d   1      12.124   0.647 -18.638  0.00  0.00    -0.000 A 
ATOM     19  C   UNL d   1      13.108   1.338 -19.369  0.00  0.00     0.029 A 
ATOM     20  C   UNL d   1      13.627   2.556 -18.886  0.00  0.00     0.140 A 
ATOM     21  C   UNL d   1      13.163   3.080 -17.664  0.00  0.00     0.029 A 
ATOM     22  F   UNL d   1      14.592   3.205 -19.579  0.00  0.00    -0.204 F 
ATOM     23  C   UNL d   1      12.210   2.370 -16.911  0.00  0.00    -0.000 A 
ENDBRANCH  16  17
ENDBRANCH  11  16
TORSDOF 2
