REMARK  7 active torsions:
REMARK  status: ('A' for Active; 'I' for Inactive)
REMARK    1  A    between atoms: C_5  and  O_6 
REMARK    2  A    between atoms: O_6  and  C_7 
REMARK    3  A    between atoms: C_7  and  C_8 
REMARK    4  A    between atoms: C_8  and  C_9 
REMARK    5  A    between atoms: C_9  and  N_10 
REMARK    6  A    between atoms: C_13  and  C_14 
REMARK    7  A    between atoms: N_27  and  C_28 
ROOT
ATOM      1  C   UNL d   1       7.162   5.304 -11.009  0.00  0.00     0.068 C 
ENDROOT
BRANCH   1   2
ATOM      2  C   UNL d   1       8.518   5.921 -10.723  0.00  0.00     0.153 C 
BRANCH   2   3
ATOM      3  O   UNL d   1       8.745   6.063  -9.324  0.00  0.00    -0.314 OA
BRANCH   3   4
ATOM      4  C   UNL d   1       9.851   6.828  -9.011  0.00  0.00     0.198 A 
ATOM      5  C   UNL d   1      10.786   7.336 -10.010  0.00  0.00     0.051 A 
ATOM      6  C   UNL d   1      11.832   8.068  -9.612  0.00  0.00     0.066 A 
ATOM      7  C   UNL d   1      12.043   8.347  -8.194  0.00  0.00     0.281 A 
ATOM      8  O   UNL d   1      13.063   8.864  -7.773  0.00  0.00    -0.265 OA
ATOM      9  N   UNL d   1      11.071   7.904  -7.348  0.00  0.00    -0.188 N 
ATOM     10  N   UNL d   1      10.030   7.104  -7.754  0.00  0.00    -0.138 NA
BRANCH   9  11
ATOM     11  C   UNL d   1      11.231   8.206  -5.965  0.00  0.00     0.141 A 
ATOM     12  C   UNL d   1      11.635   7.209  -5.064  0.00  0.00     0.160 A 
ATOM     13  C   UNL d   1      11.860   7.493  -3.704  0.00  0.00     0.031 A 
ATOM     14  F   UNL d   1      11.904   5.988  -5.543  0.00  0.00    -0.203 F 
ATOM     15  C   UNL d   1      11.630   8.795  -3.226  0.00  0.00     0.005 A 
ATOM     16  C   UNL d   1      11.221   9.802  -4.124  0.00  0.00     0.031 A 
ATOM     17  C   UNL d   1      11.040   9.515  -5.491  0.00  0.00     0.160 A 
ATOM     18  F   UNL d   1      10.698  10.502  -6.350  0.00  0.00    -0.203 F 
ENDBRANCH   9  11
ENDBRANCH   3   4
ENDBRANCH   2   3
ENDBRANCH   1   2
BRANCH   1  19
ATOM     19  C   UNL d   1       6.774   5.201 -12.480  0.00  0.00     0.253 C 
BRANCH  19  20
ATOM     20  N   UNL d   1       7.524   4.122 -13.113  0.00  0.00     0.137 N 
ATOM     21  C   UNL d   1       6.630   3.333 -13.960  0.00  0.00     0.251 C 
ATOM     22  C   UNL d   1       7.383   2.151 -14.588  0.00  0.00     0.041 C 
ATOM     23  C   UNL d   1       8.622   2.616 -15.374  0.00  0.00     0.047 C 
ATOM     24  C   UNL d   1       9.477   3.549 -14.502  0.00  0.00     0.041 C 
ATOM     25  C   UNL d   1       8.632   4.675 -13.899  0.00  0.00     0.251 C 
BRANCH  23  26
ATOM     26  C   UNL d   1       9.421   1.459 -15.895  0.00  0.00     0.087 A 
ATOM     27  C   UNL d   1       9.817   1.126 -17.212  0.00  0.00     0.041 A 
ATOM     28  C   UNL d   1      10.551  -0.058 -17.169  0.00  0.00     0.129 A 
ATOM     29  C   UNL d   1       9.604   1.758 -18.458  0.00  0.00     0.006 A 
ATOM     30  O   UNL d   1      10.592  -0.415 -15.835  0.00  0.00    -0.211 OA
ATOM     31  C   UNL d   1      11.098  -0.667 -18.303  0.00  0.00     0.057 A 
ATOM     32  N   UNL d   1       9.898   0.542 -15.052  0.00  0.00    -0.131 NA
ATOM     33  C   UNL d   1      10.892  -0.039 -19.548  0.00  0.00     0.142 A 
ATOM     34  F   UNL d   1      11.409  -0.592 -20.669  0.00  0.00    -0.204 F 
ATOM     35  C   UNL d   1      10.148   1.164 -19.622  0.00  0.00     0.030 A 
ENDBRANCH  23  26
ENDBRANCH  19  20
ENDBRANCH   1  19
TORSDOF 7
