REMARK  10 active torsions:
REMARK  status: ('A' for Active; 'I' for Inactive)
REMARK    1  A    between atoms: C_2  and  O_3 
REMARK    2  A    between atoms: O_3  and  C_4 
REMARK    3  A    between atoms: C_4  and  C_6 
REMARK    4  A    between atoms: C_7  and  C_8 
REMARK    5  A    between atoms: C_8  and  O_9 
REMARK    6  A    between atoms: O_9  and  C_10 
REMARK    7  A    between atoms: C_10  and  C_11 
REMARK    8  A    between atoms: C_16  and  C_17 
REMARK    9  A    between atoms: C_17  and  O_19 
REMARK   10  A    between atoms: C_21  and  C_22 
ROOT
ATOM      1  C   UNL d   1       6.561   0.932 -15.195  0.00  0.00     0.065 C 
ATOM      2  C   UNL d   1       6.304  -0.340 -15.602  0.00  0.00     0.090 C 
ATOM      3  N   UNL d   1       6.720  -0.771 -16.848  0.00  0.00    -0.252 NA
ATOM      4  C   UNL d   1       7.290   0.034 -17.816  0.00  0.00     0.061 C 
ATOM      5  C   UNL d   1       7.530  -0.718 -19.132  0.00  0.00     0.052 C 
ATOM      6  C   UNL d   1       7.641   1.309 -17.510  0.00  0.00     0.062 C 
ATOM      7  C   UNL d   1       7.413   1.865 -16.086  0.00  0.00     0.080 C 
ENDROOT
BRANCH   7   8
ATOM      8  C   UNL d   1       8.727   2.261 -15.399  0.00  0.00    -0.003 A 
ATOM      9  C   UNL d   1       9.866   1.413 -15.368  0.00  0.00     0.054 A 
ATOM     10  C   UNL d   1      11.031   1.871 -14.763  0.00  0.00     0.011 A 
ATOM     11 CL   UNL d   1       9.934  -0.186 -16.036  0.00  0.00    -0.083 Cl
ATOM     12  C   UNL d   1      11.110   3.114 -14.130  0.00  0.00     0.001 A 
ATOM     13  C   UNL d   1       9.983   3.950 -14.129  0.00  0.00    -0.000 A 
ATOM     14  C   UNL d   1       8.815   3.534 -14.788  0.00  0.00    -0.003 A 
ENDBRANCH   7   8
BRANCH   1  15
ATOM     15  C   UNL d   1       5.972   1.488 -13.932  0.00  0.00     0.294 C 
ATOM     16  O   UNL d   1       5.318   0.836 -13.124  0.00  0.00    -0.259 OA
BRANCH  15  17
ATOM     17  O   UNL d   1       6.165   2.808 -13.781  0.00  0.00    -0.299 OA
BRANCH  17  18
ATOM     18  C   UNL d   1       5.700   3.481 -12.619  0.00  0.00     0.152 C 
ATOM     19  C   UNL d   1       5.848   4.992 -12.786  0.00  0.00     0.035 C 
ENDBRANCH  17  18
ENDBRANCH  15  17
ENDBRANCH   1  15
BRANCH   6  20
ATOM     20  C   UNL d   1       8.260   2.247 -18.503  0.00  0.00     0.294 C 
ATOM     21  O   UNL d   1       8.986   3.191 -18.205  0.00  0.00    -0.259 OA
BRANCH  20  22
ATOM     22  O   UNL d   1       7.870   1.998 -19.762  0.00  0.00    -0.296 OA
ATOM     23  C   UNL d   1       8.357   2.743 -20.868  0.00  0.00     0.185 C 
ENDBRANCH  20  22
ENDBRANCH   6  20
BRANCH   2  24
ATOM     24  C   UNL d   1       5.490  -1.427 -14.901  0.00  0.00     0.188 C 
BRANCH  24  25
ATOM     25  O   UNL d   1       4.791  -2.201 -15.864  0.00  0.00    -0.345 OA
BRANCH  25  26
ATOM     26  C   UNL d   1       3.821  -1.472 -16.614  0.00  0.00     0.184 C 
BRANCH  26  27
ATOM     27  C   UNL d   1       3.843  -2.106 -18.000  0.00  0.00     0.370 C 
ATOM     28  N   UNL d   1       3.462  -1.151 -19.042  0.00  0.00     0.621 N 
ENDBRANCH  26  27
ENDBRANCH  25  26
ENDBRANCH  24  25
ENDBRANCH   2  24
TORSDOF 10
