REMARK  5 active torsions:
REMARK  status: ('A' for Active; 'I' for Inactive)
REMARK    1  A    between atoms: C_6  and  C_7 
REMARK    2  A    between atoms: C_7  and  C_8 
REMARK    3  A    between atoms: C_8  and  C_9 
REMARK    4  A    between atoms: C_9  and  N_10 
REMARK    5  A    between atoms: N_13  and  C_14 
ROOT
ATOM      1  N   UNL d   1       8.210   5.236 -11.417  0.00  0.00     0.141 N 
ATOM      2  C   UNL d   1       6.943   4.524 -11.650  0.00  0.00     0.274 C 
ATOM      3  C   UNL d   1       6.684   4.310 -13.142  0.00  0.00     0.137 C 
ATOM      4  N   UNL d   1       7.823   3.659 -13.755  0.00  0.00    -0.343 N 
ATOM      5  C   UNL d   1       9.114   4.293 -13.497  0.00  0.00     0.137 C 
ATOM      6  C   UNL d   1       9.315   4.465 -12.005  0.00  0.00     0.274 C 
ENDROOT
BRANCH   1   7
ATOM      7  C   UNL d   1       8.447   5.372  -9.993  0.00  0.00     0.251 C 
BRANCH   7   8
ATOM      8  C   UNL d   1       9.522   6.432  -9.677  0.00  0.00     0.040 C 
BRANCH   8   9
ATOM      9  C   UNL d   1      10.150   6.213  -8.291  0.00  0.00     0.030 C 
BRANCH   9  10
ATOM     10  C   UNL d   1      10.588   7.467  -7.598  0.00  0.00    -0.002 A 
ATOM     11  C   UNL d   1      11.008   7.566  -6.228  0.00  0.00     0.015 A 
ATOM     12  C   UNL d   1      11.176   6.644  -5.176  0.00  0.00     0.002 A 
ATOM     13  C   UNL d   1      11.300   8.925  -5.935  0.00  0.00     0.082 A 
ATOM     14  C   UNL d   1      11.611   7.039  -3.902  0.00  0.00     0.011 A 
ATOM     15  C   UNL d   1      11.878   8.387  -3.637  0.00  0.00     0.059 A 
ATOM     16 CL   UNL d   1      12.384   8.787  -2.045  0.00  0.00    -0.082 Cl
ATOM     17  C   UNL d   1      11.713   9.339  -4.659  0.00  0.00     0.030 A 
ATOM     18  N   UNL d   1      11.076   9.598  -7.114  0.00  0.00    -0.244 NA
ATOM     19  C   UNL d   1      10.660   8.736  -8.112  0.00  0.00     0.095 A 
ENDBRANCH   9  10
ENDBRANCH   8   9
ENDBRANCH   7   8
ENDBRANCH   1   7
BRANCH   4  20
ATOM     20  C   UNL d   1       7.706   2.522 -14.569  0.00  0.00     0.081 A 
ATOM     21  C   UNL d   1       8.528   2.353 -15.726  0.00  0.00     0.132 A 
ATOM     22  C   UNL d   1       8.407   1.186 -16.515  0.00  0.00     0.118 A 
ATOM     23  O   UNL d   1       9.418   3.342 -16.084  0.00  0.00    -0.325 OA
ATOM     24  C   UNL d   1       7.436   0.210 -16.191  0.00  0.00     0.026 A 
ATOM     25  O   UNL d   1       9.222   0.974 -17.612  0.00  0.00    -0.326 OA
ATOM     26  C   UNL d   1       6.611   0.386 -15.070  0.00  0.00     0.004 A 
ATOM     27  C   UNL d   1       6.736   1.529 -14.275  0.00  0.00     0.019 A 
ATOM     28  C   UNL d   1      10.357   1.832 -17.667  0.00  0.00     0.181 C 
ATOM     29  C   UNL d   1       9.937   3.273 -17.385  0.00  0.00     0.182 C 
ENDBRANCH   4  20
TORSDOF 5
