REMARK  3 active torsions:
REMARK  status: ('A' for Active; 'I' for Inactive)
REMARK    1  A    between atoms: C_5  and  C_6 
REMARK    2  A    between atoms: C_6  and  N_7 
REMARK    3  A    between atoms: N_10  and  C_11 
ROOT
ATOM      1  N   UNL d   1       9.211   5.684 -12.722  0.00  0.00     0.146 N 
ATOM      2  C   UNL d   1       8.480   5.422 -13.935  0.00  0.00     0.286 C 
ATOM      3  C   UNL d   1       9.320   4.665 -14.980  0.00  0.00     0.286 C 
ATOM      4  N   UNL d   1       9.735   3.350 -14.459  0.00  0.00     0.148 N 
ATOM      5  C   UNL d   1      10.401   3.610 -13.195  0.00  0.00     0.286 C 
ATOM      6  C   UNL d   1       9.551   4.385 -12.191  0.00  0.00     0.286 C 
ENDROOT
BRANCH   4   7
ATOM      7  C   UNL d   1      10.539   2.504 -15.390  0.00  0.00     0.297 C 
ATOM      8  C   UNL d   1       9.906   2.340 -16.789  0.00  0.00     0.269 C 
ATOM      9  N   UNL d   1       8.713   1.687 -16.892  0.00  0.00    -0.298 N 
ATOM     10  O   UNL d   1      10.473   2.829 -17.765  0.00  0.00    -0.270 OA
ATOM     11  C   UNL d   1       7.974   1.079 -15.842  0.00  0.00     0.054 A 
ATOM     12  C   UNL d   1       7.848   1.919 -18.047  0.00  0.00     0.114 C 
ATOM     13  C   UNL d   1       8.504   0.413 -14.715  0.00  0.00    -0.006 A 
ATOM     14  C   UNL d   1       6.606   1.165 -16.079  0.00  0.00    -0.005 A 
ATOM     15  C   UNL d   1       9.943  -0.018 -14.958  0.00  0.00     0.030 C 
ATOM     16  C   UNL d   1       7.576  -0.003 -13.732  0.00  0.00    -0.003 A 
ATOM     17  C   UNL d   1      10.973   1.105 -14.866  0.00  0.00     0.048 C 
ATOM     18  C   UNL d   1       6.176   0.126 -13.921  0.00  0.00    -0.001 A 
ATOM     19  C   UNL d   1       5.673   0.682 -15.123  0.00  0.00    -0.003 A 
ATOM     20  C   UNL d   1       6.459   1.843 -17.419  0.00  0.00     0.052 C 
ENDBRANCH   4   7
BRANCH   1  21
ATOM     21  C   UNL d   1       8.420   6.482 -11.787  0.00  0.00     0.277 C 
BRANCH  21  22
ATOM     22  C   UNL d   1       9.138   6.708 -10.472  0.00  0.00     0.011 A 
ATOM     23  C   UNL d   1      10.134   7.694 -10.338  0.00  0.00    -0.003 A 
ATOM     24  C   UNL d   1      10.714   7.934  -9.069  0.00  0.00    -0.004 A 
ATOM     25  C   UNL d   1      10.304   7.182  -7.948  0.00  0.00    -0.022 A 
ATOM     26  C   UNL d   1      10.917   7.423  -6.584  0.00  0.00     0.031 C 
ATOM     27  C   UNL d   1       9.303   6.195  -8.094  0.00  0.00    -0.004 A 
ATOM     28  C   UNL d   1       8.739   5.955  -9.349  0.00  0.00    -0.003 A 
ENDBRANCH  21  22
ENDBRANCH   1  21
TORSDOF 3
