REMARK  3 active torsions:
REMARK  status: ('A' for Active; 'I' for Inactive)
REMARK    1  A    between atoms: C_2  and  C_3 
REMARK    2  A    between atoms: C_3  and  N_4 
REMARK    3  A    between atoms: C_7  and  C_8 
ROOT
ATOM      1  C   UNL d   1       7.984   4.944 -11.864  0.00  0.00    -0.004 A 
ATOM      2  C   UNL d   1       6.715   4.484 -12.020  0.00  0.00     0.072 A 
ATOM      3  N   UNL d   1       6.662   3.614 -13.094  0.00  0.00    -0.325 N 
ATOM      4  C   UNL d   1       5.464   2.928 -13.504  0.00  0.00     0.131 C 
ATOM      5  C   UNL d   1       7.917   3.515 -13.680  0.00  0.00     0.060 A 
ATOM      6  C   UNL d   1       8.410   2.784 -14.777  0.00  0.00     0.019 A 
ATOM      7  C   UNL d   1       9.772   2.888 -15.134  0.00  0.00     0.031 A 
ATOM      8  C   UNL d   1      10.632   3.703 -14.371  0.00  0.00     0.140 A 
ATOM      9  F   UNL d   1      11.935   3.827 -14.700  0.00  0.00    -0.204 F 
ATOM     10  C   UNL d   1      10.131   4.396 -13.261  0.00  0.00     0.031 A 
ATOM     11  C   UNL d   1       8.772   4.349 -12.892  0.00  0.00     0.015 A 
ENDROOT
BRANCH   1  12
ATOM     12  C   UNL d   1       8.469   5.881 -10.780  0.00  0.00     0.028 C 
ATOM     13  C   UNL d   1       9.189   7.098 -11.380  0.00  0.00     0.040 C 
ATOM     14  C   UNL d   1       9.825   7.987 -10.301  0.00  0.00     0.251 C 
ATOM     15  N   UNL d   1      10.669   7.213  -9.397  0.00  0.00     0.137 N 
ATOM     16  C   UNL d   1       9.927   6.127  -8.748  0.00  0.00     0.251 C 
ATOM     17  C   UNL d   1       9.357   5.141  -9.781  0.00  0.00     0.040 C 
BRANCH  15  18
ATOM     18  C   UNL d   1      11.324   8.108  -8.419  0.00  0.00     0.250 C 
BRANCH  18  19
ATOM     19  C   UNL d   1      10.359   8.697  -7.363  0.00  0.00     0.035 C 
ATOM     20  C   UNL d   1      11.050   9.616  -6.362  0.00  0.00     0.002 C 
ENDBRANCH  18  19
ENDBRANCH  15  18
ENDBRANCH   1  12
TORSDOF 3
