REMARK  10 active torsions:
REMARK  status: ('A' for Active; 'I' for Inactive)
REMARK    1  A    between atoms: O_2  and  C_3 
REMARK    2  A    between atoms: C_8  and  N_9 
REMARK    3  A    between atoms: N_12  and  C_13 
REMARK    4  A    between atoms: C_13  and  C_14 
REMARK    5  A    between atoms: C_14  and  C_15 
REMARK    6  A    between atoms: C_15  and  N_16 
REMARK       I    between atoms: N_16  and  C_17 
REMARK       I    between atoms: C_17  and  N_19 
REMARK    7  A    between atoms: N_19  and  N_20 
REMARK    8  A    between atoms: N_20  and  C_21 
REMARK    9  A    between atoms: N_20  and  C_28 
REMARK   10  A    between atoms: C_21  and  C_22 
ROOT
ATOM      1  N   UNL d   1       9.007   4.528 -12.730  0.00  0.00    -0.216 NA
ATOM      2  C   UNL d   1       7.748   4.142 -12.921  0.00  0.00     0.381 C 
ATOM      3  O   UNL d   1       6.800   4.484 -12.206  0.00  0.00    -0.241 OA
ATOM      4  N   UNL d   1       7.555   3.430 -14.037  0.00  0.00    -0.110 NA
ENDROOT
BRANCH   1   5
ATOM      5  C   UNL d   1       9.544   5.452 -11.756  0.00  0.00     0.133 C 
BRANCH   5   6
ATOM      6  C   UNL d   1       8.914   6.855 -11.740  0.00  0.00     0.062 C 
BRANCH   6   7
ATOM      7  C   UNL d   1       9.605   7.827 -10.761  0.00  0.00     0.253 C 
BRANCH   7   8
ATOM      8  N   UNL d   1       9.451   7.361  -9.377  0.00  0.00     0.141 N 
ATOM      9  C   UNL d   1      10.664   6.642  -8.936  0.00  0.00     0.274 C 
ATOM     10  C   UNL d   1      10.483   6.104  -7.505  0.00  0.00     0.137 C 
ATOM     11  N   UNL d   1      10.127   7.191  -6.608  0.00  0.00    -0.343 N 
ATOM     12  C   UNL d   1       9.012   8.005  -7.048  0.00  0.00     0.137 C 
ATOM     13  C   UNL d   1       9.277   8.511  -8.484  0.00  0.00     0.274 C 
BRANCH  11  14
ATOM     14  C   UNL d   1      10.949   7.547  -5.492  0.00  0.00     0.079 A 
ATOM     15  C   UNL d   1      11.310   8.857  -5.204  0.00  0.00     0.110 A 
ATOM     16  C   UNL d   1      12.050   9.130  -4.009  0.00  0.00     0.026 A 
ATOM     17  C   UNL d   1      12.382   8.109  -3.107  0.00  0.00     0.002 A 
ATOM     18  C   UNL d   1      12.014   6.801  -3.395  0.00  0.00     0.002 A 
ATOM     19  C   UNL d   1      11.326   6.554  -4.602  0.00  0.00     0.019 A 
BRANCH  15  20
ATOM     20  O   UNL d   1      10.864   9.847  -6.019  0.00  0.00    -0.327 OA
ATOM     21  C   UNL d   1      11.870  10.696  -6.462  0.00  0.00     0.181 C 
ENDBRANCH  15  20
ENDBRANCH  11  14
ENDBRANCH   7   8
ENDBRANCH   6   7
ENDBRANCH   5   6
ENDBRANCH   1   5
BRANCH   4  22
ATOM     22  N   UNL d   1       8.539   2.762 -14.824  0.00  0.00    -0.243 N 
BRANCH  22  23
ATOM     23  C   UNL d   1       8.441   1.296 -14.622  0.00  0.00     0.154 C 
BRANCH  23  24
ATOM     24  C   UNL d   1       8.525   0.454 -15.873  0.00  0.00     0.002 A 
ATOM     25  C   UNL d   1       9.732  -0.315 -16.145  0.00  0.00    -0.002 A 
ATOM     26  C   UNL d   1       9.904  -0.915 -17.402  0.00  0.00    -0.000 A 
ATOM     27  C   UNL d   1       8.913  -0.821 -18.382  0.00  0.00    -0.000 A 
ATOM     28  C   UNL d   1       7.712  -0.140 -18.102  0.00  0.00    -0.000 A 
ATOM     29  C   UNL d   1       7.523   0.469 -16.849  0.00  0.00    -0.002 A 
ENDBRANCH  23  24
ENDBRANCH  22  23
BRANCH  22  30
ATOM     30  C   UNL d   1       9.382   3.446 -15.762  0.00  0.00     0.079 A 
ATOM     31  C   UNL d   1       9.478   4.884 -15.752  0.00  0.00     0.019 A 
ATOM     32  C   UNL d   1      10.264   5.569 -16.724  0.00  0.00     0.002 A 
ATOM     33  C   UNL d   1      10.937   4.881 -17.767  0.00  0.00     0.000 A 
ATOM     34  C   UNL d   1      10.830   3.473 -17.756  0.00  0.00     0.002 A 
ATOM     35  C   UNL d   1      10.124   2.737 -16.785  0.00  0.00     0.019 A 
ENDBRANCH  22  30
ENDBRANCH   4  22
TORSDOF 10
