REMARK  3 active torsions:
REMARK  status: ('A' for Active; 'I' for Inactive)
REMARK    1  A    between atoms: C_5  and  C_6 
REMARK    2  A    between atoms: N_8  and  C_9 
REMARK    3  A    between atoms: C_18  and  C_19 
ROOT
ATOM      1  C   UNL d   1       8.645   2.285 -15.462  0.00  0.00    -0.003 A 
ATOM      2  C   UNL d   1       7.800   1.343 -15.999  0.00  0.00     0.076 A 
ATOM      3  N   UNL d   1       8.291   0.878 -17.209  0.00  0.00    -0.305 N 
ATOM      4  C   UNL d   1       9.502   1.509 -17.487  0.00  0.00     0.064 A 
ATOM      5  C   UNL d   1      10.408   1.417 -18.576  0.00  0.00     0.018 A 
ATOM      6  C   UNL d   1      11.573   2.205 -18.585  0.00  0.00     0.003 A 
ATOM      7  C   UNL d   1      11.846   3.090 -17.523  0.00  0.00     0.017 A 
ATOM      8  C   UNL d   1      10.957   3.113 -16.428  0.00  0.00     0.003 A 
ATOM      9  C   UNL d   1       9.752   2.377 -16.390  0.00  0.00     0.014 A 
ENDROOT
BRANCH   1  10
ATOM     10  C   UNL d   1       8.420   3.044 -14.175  0.00  0.00     0.028 C 
ATOM     11  C   UNL d   1       6.922   3.152 -13.807  0.00  0.00     0.040 C 
ATOM     12  C   UNL d   1       6.688   4.042 -12.572  0.00  0.00     0.251 C 
ATOM     13  N   UNL d   1       7.233   5.373 -12.810  0.00  0.00     0.139 N 
ATOM     14  C   UNL d   1       6.972   6.213 -11.660  0.00  0.00     0.285 C 
ATOM     15  C   UNL d   1       8.671   5.297 -12.970  0.00  0.00     0.251 C 
ATOM     16  C   UNL d   1       9.004   4.475 -14.203  0.00  0.00     0.040 C 
ENDBRANCH   1  10
BRANCH   3  17
ATOM     17  C   UNL d   1       7.648  -0.086 -18.018  0.00  0.00     0.067 A 
ATOM     18  C   UNL d   1       8.389  -1.110 -18.645  0.00  0.00     0.038 A 
ATOM     19  C   UNL d   1       7.705  -2.032 -19.451  0.00  0.00     0.101 A 
ATOM     20  N   UNL d   1       6.371  -2.003 -19.643  0.00  0.00    -0.242 NA
ATOM     21  C   UNL d   1       5.662  -1.035 -19.023  0.00  0.00     0.101 A 
ATOM     22  C   UNL d   1       6.249  -0.052 -18.206  0.00  0.00     0.038 A 
ENDBRANCH   3  17
BRANCH   7  23
ATOM     23  C   UNL d   1      13.043   3.933 -17.517  0.00  0.00     0.080 A 
ATOM     24  N   UNL d   1      13.132   5.201 -16.933  0.00  0.00    -0.249 N 
ATOM     25  N   UNL d   1      14.376   5.709 -17.056  0.00  0.00    -0.168 NA
ATOM     26  C   UNL d   1      12.138   6.019 -16.252  0.00  0.00     0.154 C 
ATOM     27  C   UNL d   1      15.051   4.798 -17.737  0.00  0.00     0.122 A 
ATOM     28  C   UNL d   1      14.265   3.660 -18.059  0.00  0.00     0.041 A 
ENDBRANCH   7  23
TORSDOF 3
