REMARK  8 active torsions:
REMARK  status: ('A' for Active; 'I' for Inactive)
REMARK    1  A    between atoms: N_8  and  C_9 
REMARK    2  A    between atoms: C_9  and  C_10 
REMARK    3  A    between atoms: C_10  and  C_11 
REMARK    4  A    between atoms: C_11  and  C_12 
REMARK    5  A    between atoms: C_12  and  N_13 
REMARK    6  A    between atoms: N_16  and  C_17 
REMARK    7  A    between atoms: C_19  and  C_20 
REMARK    8  A    between atoms: C_25  and  C_26 
ROOT
ATOM      1  N   UNL d   1       9.113   6.296 -10.086  0.00  0.00     0.141 N 
ATOM      2  C   UNL d   1       8.740   4.888 -10.286  0.00  0.00     0.274 C 
ATOM      3  C   UNL d   1       7.932   4.723 -11.595  0.00  0.00     0.138 C 
ATOM      4  N   UNL d   1       8.714   5.211 -12.725  0.00  0.00    -0.330 N 
ATOM      5  C   UNL d   1       9.169   6.582 -12.542  0.00  0.00     0.138 C 
ATOM      6  C   UNL d   1       9.905   6.731 -11.229  0.00  0.00     0.274 C 
ENDROOT
BRANCH   4   7
ATOM      7  C   UNL d   1       8.978   4.432 -13.877  0.00  0.00     0.143 A 
ATOM      8  N   UNL d   1       8.242   3.317 -14.053  0.00  0.00    -0.214 NA
ATOM      9  C   UNL d   1       8.449   2.574 -15.148  0.00  0.00     0.140 A 
ATOM     10  N   UNL d   1       9.370   2.823 -16.081  0.00  0.00    -0.227 NA
ATOM     11  C   UNL d   1      10.116   3.937 -15.942  0.00  0.00     0.157 A 
ATOM     12  C   UNL d   1       9.962   4.787 -14.826  0.00  0.00     0.060 A 
BRANCH   9  13
ATOM     13  C   UNL d   1       7.740   1.216 -15.213  0.00  0.00     0.052 C 
ATOM     14  C   UNL d   1       8.617   0.165 -14.560  0.00  0.00     0.008 C 
ATOM     15  C   UNL d   1       7.449   0.830 -16.681  0.00  0.00     0.008 C 
ATOM     16  C   UNL d   1       6.383   1.253 -14.472  0.00  0.00     0.008 C 
ENDBRANCH   9  13
BRANCH  11  17
ATOM     17  C   UNL d   1      11.141   4.233 -17.029  0.00  0.00     0.435 C 
ATOM     18  F   UNL d   1      11.700   5.434 -16.863  0.00  0.00    -0.165 F 
ATOM     19  F   UNL d   1      12.102   3.311 -16.983  0.00  0.00    -0.165 F 
ATOM     20  F   UNL d   1      10.561   4.206 -18.230  0.00  0.00    -0.165 F 
ENDBRANCH  11  17
ENDBRANCH   4   7
BRANCH   1  21
ATOM     21  C   UNL d   1       9.893   6.458  -8.857  0.00  0.00     0.251 C 
BRANCH  21  22
ATOM     22  C   UNL d   1      10.254   7.952  -8.618  0.00  0.00     0.037 C 
BRANCH  22  23
ATOM     23  C   UNL d   1      11.117   8.180  -7.375  0.00  0.00     0.027 C 
BRANCH  23  24
ATOM     24  C   UNL d   1      10.262   8.234  -6.092  0.00  0.00     0.109 C 
BRANCH  24  25
ATOM     25  N   UNL d   1      11.104   8.492  -4.911  0.00  0.00    -0.299 N 
ATOM     26  C   UNL d   1      11.862   7.430  -4.340  0.00  0.00     0.040 A 
ATOM     27  C   UNL d   1      11.854   6.061  -4.997  0.00  0.00     0.050 C 
ATOM     28  C   UNL d   1      12.598   7.650  -3.232  0.00  0.00     0.013 A 
ATOM     29  C   UNL d   1      12.600   8.942  -2.607  0.00  0.00     0.006 A 
ATOM     30  C   UNL d   1      11.874   9.935  -3.146  0.00  0.00     0.061 A 
ATOM     31  C   UNL d   1      11.120   9.761  -4.381  0.00  0.00     0.261 A 
ATOM     32  O   UNL d   1      10.531  10.712  -4.864  0.00  0.00    -0.267 OA
ENDBRANCH  24  25
ENDBRANCH  23  24
ENDBRANCH  22  23
ENDBRANCH  21  22
ENDBRANCH   1  21
TORSDOF 8
