REMARK  5 active torsions:
REMARK  status: ('A' for Active; 'I' for Inactive)
REMARK       I    between atoms: C_2  and  N_3 
REMARK    1  A    between atoms: C_2  and  C_16 
REMARK    2  A    between atoms: N_3  and  C_4 
REMARK    3  A    between atoms: N_7  and  C_8 
REMARK    4  A    between atoms: C_8  and  C_9 
REMARK    5  A    between atoms: C_19  and  C_20 
ROOT
ATOM      1  O   UNL d   1       7.466   4.790 -11.347  0.00  0.00    -0.266 OA
ATOM      2  C   UNL d   1       8.675   4.961 -11.207  0.00  0.00     0.275 C 
ATOM      3  N   UNL d   1       9.594   4.473 -12.053  0.00  0.00    -0.234 NA
ENDROOT
BRANCH   2   4
ATOM      4  C   UNL d   1       9.237   5.712 -10.035  0.00  0.00     0.058 A 
ATOM      5  C   UNL d   1      10.221   6.706 -10.224  0.00  0.00     0.005 A 
ATOM      6  C   UNL d   1      10.739   7.422  -9.130  0.00  0.00     0.000 A 
ATOM      7  C   UNL d   1      10.270   7.174  -7.821  0.00  0.00     0.000 A 
ATOM      8  C   UNL d   1       9.264   6.199  -7.643  0.00  0.00     0.000 A 
ATOM      9  C   UNL d   1       8.752   5.473  -8.736  0.00  0.00     0.005 A 
BRANCH   7  10
ATOM     10  C   UNL d   1      10.806   7.927  -6.671  0.00  0.00     0.000 A 
ATOM     11  C   UNL d   1      11.088   9.306  -6.786  0.00  0.00     0.000 A 
ATOM     12  C   UNL d   1      11.596  10.034  -5.695  0.00  0.00     0.000 A 
ATOM     13  C   UNL d   1      11.842   9.389  -4.470  0.00  0.00     0.000 A 
ATOM     14  C   UNL d   1      11.580   8.014  -4.342  0.00  0.00     0.000 A 
ATOM     15  C   UNL d   1      11.058   7.290  -5.434  0.00  0.00     0.000 A 
ENDBRANCH   7  10
ENDBRANCH   2   4
BRANCH   3  16
ATOM     16  C   UNL d   1       9.312   3.808 -13.316  0.00  0.00     0.142 C 
ATOM     17  C   UNL d   1      10.583   3.308 -14.008  0.00  0.00     0.275 C 
ATOM     18  N   UNL d   1      10.270   3.433 -15.423  0.00  0.00     0.143 N 
ATOM     19  C   UNL d   1       9.619   4.725 -15.529  0.00  0.00     0.253 C 
ATOM     20  C   UNL d   1       8.674   4.749 -14.329  0.00  0.00     0.062 C 
BRANCH  18  21
ATOM     21  C   UNL d   1      11.444   3.309 -16.288  0.00  0.00     0.277 C 
BRANCH  21  22
ATOM     22  C   UNL d   1      11.480   2.026 -17.102  0.00  0.00     0.011 A 
ATOM     23  C   UNL d   1      12.592   1.780 -17.933  0.00  0.00    -0.002 A 
ATOM     24  C   UNL d   1      12.652   0.609 -18.717  0.00  0.00    -0.000 A 
ATOM     25  C   UNL d   1      11.593  -0.318 -18.678  0.00  0.00    -0.000 A 
ATOM     26  C   UNL d   1      10.475  -0.075 -17.858  0.00  0.00    -0.000 A 
ATOM     27  C   UNL d   1      10.417   1.092 -17.075  0.00  0.00    -0.002 A 
ENDBRANCH  21  22
ENDBRANCH  18  21
ENDBRANCH   3  16
TORSDOF 5
