REMARK  5 active torsions:
REMARK  status: ('A' for Active; 'I' for Inactive)
REMARK    1  A    between atoms: C_6  and  N_7 
REMARK    2  A    between atoms: N_10  and  C_11 
REMARK    3  A    between atoms: C_11  and  C_12 
REMARK    4  A    between atoms: C_12  and  N_13 
REMARK    5  A    between atoms: N_13  and  C_14 
ROOT
ATOM      1  N   UNL d   1       9.809   7.542  -7.372  0.00  0.00    -0.344 N 
ATOM      2  C   UNL d   1       8.865   6.451  -7.143  0.00  0.00     0.137 C 
ATOM      3  C   UNL d   1       9.060   5.359  -8.205  0.00  0.00     0.274 C 
ATOM      4  N   UNL d   1       8.898   5.920  -9.542  0.00  0.00     0.143 N 
ATOM      5  C   UNL d   1       9.887   6.975  -9.760  0.00  0.00     0.274 C 
ATOM      6  C   UNL d   1       9.726   8.101  -8.729  0.00  0.00     0.137 C 
ENDROOT
BRANCH   4   7
ATOM      7  C   UNL d   1       9.023   4.884 -10.554  0.00  0.00     0.277 C 
BRANCH   7   8
ATOM      8  C   UNL d   1       8.417   5.379 -11.882  0.00  0.00     0.163 C 
BRANCH   8   9
ATOM      9  N   UNL d   1       9.442   5.656 -12.871  0.00  0.00    -0.249 NA
BRANCH   9  10
ATOM     10  C   UNL d   1      10.017   4.655 -13.668  0.00  0.00     0.178 A 
ATOM     11  N   UNL d   1      11.040   5.060 -14.450  0.00  0.00    -0.212 NA
ATOM     12  C   UNL d   1      11.614   4.137 -15.262  0.00  0.00     0.159 A 
ATOM     13  C   UNL d   1      11.161   2.797 -15.281  0.00  0.00     0.130 A 
ATOM     14 CL   UNL d   1      12.923   4.594 -16.297  0.00  0.00    -0.060 Cl
ATOM     15  N   UNL d   1      10.146   2.383 -14.492  0.00  0.00    -0.237 NA
ATOM     16  C   UNL d   1       9.581   3.304 -13.684  0.00  0.00     0.137 A 
ENDBRANCH   9  10
ENDBRANCH   8   9
ENDBRANCH   7   8
ENDBRANCH   4   7
BRANCH   1  17
ATOM     17  C   UNL d   1      10.675   8.037  -6.391  0.00  0.00     0.056 A 
ATOM     18  C   UNL d   1      11.263   9.325  -6.513  0.00  0.00     0.017 A 
ATOM     19  C   UNL d   1      12.151   9.816  -5.543  0.00  0.00     0.001 A 
ATOM     20  C   UNL d   1      12.441   9.060  -4.390  0.00  0.00    -0.004 A 
ATOM     21  C   UNL d   1      11.873   7.781  -4.242  0.00  0.00    -0.020 A 
ATOM     22  C   UNL d   1      12.176   6.916  -3.042  0.00  0.00     0.031 C 
ATOM     23  C   UNL d   1      11.020   7.271  -5.237  0.00  0.00     0.013 A 
ENDBRANCH   1  17
TORSDOF 5
