REMARK  4 active torsions:
REMARK  status: ('A' for Active; 'I' for Inactive)
REMARK    1  A    between atoms: C_5  and  N_6 
REMARK    2  A    between atoms: N_9  and  C_10 
REMARK    3  A    between atoms: C_10  and  C_11 
REMARK    4  A    between atoms: C_11  and  N_12 
ROOT
ATOM      1  N   UNL d   1       8.263   4.256 -13.318  0.00  0.00    -0.280 N 
ATOM      2  C   UNL d   1       6.900   4.482 -12.850  0.00  0.00     0.135 A 
ATOM      3  C   UNL d   1       6.973   5.844 -12.159  0.00  0.00     0.131 A 
ATOM      4  N   UNL d   1       8.353   6.229 -12.386  0.00  0.00    -0.298 N 
ATOM      5  C   UNL d   1       9.063   5.306 -13.032  0.00  0.00     0.328 A 
ATOM      6  O   UNL d   1      10.258   5.419 -13.329  0.00  0.00    -0.247 OA
ENDROOT
BRANCH   4   7
ATOM      7  C   UNL d   1       8.879   7.497 -11.890  0.00  0.00     0.141 C 
BRANCH   7   8
ATOM      8  C   UNL d   1       9.351   7.254 -10.460  0.00  0.00     0.274 C 
BRANCH   8   9
ATOM      9  N   UNL d   1       9.821   8.478  -9.778  0.00  0.00     0.139 N 
ATOM     10  C   UNL d   1      11.169   8.888 -10.135  0.00  0.00     0.250 C 
ATOM     11  C   UNL d   1      12.241   7.891  -9.683  0.00  0.00     0.035 C 
ATOM     12  C   UNL d   1      12.499   8.022  -8.179  0.00  0.00     0.002 C 
ATOM     13  C   UNL d   1      11.544   7.305  -7.211  0.00  0.00     0.002 C 
ATOM     14  C   UNL d   1      10.079   7.203  -7.635  0.00  0.00     0.035 C 
ATOM     15  C   UNL d   1       9.555   8.473  -8.336  0.00  0.00     0.250 C 
ENDBRANCH   8   9
ENDBRANCH   7   8
ENDBRANCH   4   7
BRANCH   1  16
ATOM     16  C   UNL d   1       8.657   3.092 -14.079  0.00  0.00     0.064 A 
ATOM     17  C   UNL d   1       9.986   2.634 -14.073  0.00  0.00     0.017 A 
ATOM     18  C   UNL d   1      10.370   1.517 -14.829  0.00  0.00    -0.003 A 
ATOM     19  C   UNL d   1       9.407   0.817 -15.574  0.00  0.00    -0.022 A 
ATOM     20  C   UNL d   1       9.835  -0.399 -16.351  0.00  0.00     0.031 C 
ATOM     21  C   UNL d   1       8.066   1.249 -15.581  0.00  0.00    -0.003 A 
ATOM     22  C   UNL d   1       7.690   2.383 -14.829  0.00  0.00     0.017 A 
ENDBRANCH   1  16
TORSDOF 4
