REMARK  6 active torsions:
REMARK  status: ('A' for Active; 'I' for Inactive)
REMARK    1  A    between atoms: O_2  and  C_3 
REMARK    2  A    between atoms: C_6  and  O_7 
REMARK    3  A    between atoms: O_7  and  C_8 
REMARK    4  A    between atoms: C_8  and  C_9 
REMARK    5  A    between atoms: C_9  and  N_10 
REMARK       I    between atoms: N_13  and  C_14 
REMARK    6  A    between atoms: C_14  and  C_16 
ROOT
ATOM      1  N   UNL d   1       9.458   5.468 -11.176  0.00  0.00     0.144 N 
ATOM      2  C   UNL d   1       9.268   6.907 -11.376  0.00  0.00     0.274 C 
ATOM      3  C   UNL d   1      10.188   7.687 -10.438  0.00  0.00     0.140 C 
ATOM      4  N   UNL d   1       9.992   7.280  -9.030  0.00  0.00    -0.311 N 
ATOM      5  C   UNL d   1       9.758   8.175  -8.062  0.00  0.00     0.275 C 
ATOM      6  O   UNL d   1       9.159   9.200  -8.298  0.00  0.00    -0.266 OA
ATOM      7  C   UNL d   1      10.015   5.832  -8.816  0.00  0.00     0.140 C 
ATOM      8  C   UNL d   1       9.093   5.141  -9.797  0.00  0.00     0.274 C 
ENDROOT
BRANCH   1   9
ATOM      9  C   UNL d   1       8.559   4.707 -11.995  0.00  0.00     0.283 C 
BRANCH   9  10
ATOM     10  C   UNL d   1       8.784   4.893 -13.515  0.00  0.00     0.184 C 
BRANCH  10  11
ATOM     11  O   UNL d   1       8.745   3.677 -14.241  0.00  0.00    -0.328 OA
BRANCH  11  12
ATOM     12  C   UNL d   1       7.665   2.829 -14.108  0.00  0.00     0.105 C 
ATOM     13  C   UNL d   1       6.433   3.186 -13.493  0.00  0.00     0.027 C 
ATOM     14  C   UNL d   1       5.465   2.191 -13.247  0.00  0.00     0.026 C 
ATOM     15  C   UNL d   1       5.615   0.885 -13.774  0.00  0.00     0.095 C 
ATOM     16  C   UNL d   1       6.824   0.555 -14.430  0.00  0.00     0.038 C 
ATOM     17  C   UNL d   1       7.842   1.509 -14.583  0.00  0.00     0.082 C 
ATOM     18 CL   UNL d   1       9.318   1.024 -15.344  0.00  0.00    -0.080 Cl
BRANCH  15  19
ATOM     19  O   UNL d   1       4.552   0.013 -13.657  0.00  0.00    -0.328 OA
ATOM     20  C   UNL d   1       4.392  -0.936 -14.704  0.00  0.00     0.181 C 
ENDBRANCH  15  19
ENDBRANCH  11  12
ENDBRANCH  10  11
ENDBRANCH   9  10
ENDBRANCH   1   9
BRANCH   5  21
ATOM     21  C   UNL d   1      10.436   8.002  -6.739  0.00  0.00     0.137 A 
ATOM     22  N   UNL d   1      10.639   9.151  -5.971  0.00  0.00    -0.241 NA
ATOM     23  C   UNL d   1      11.250   8.841  -4.771  0.00  0.00     0.082 A 
ATOM     24  C   UNL d   1      11.440   7.429  -4.800  0.00  0.00     0.019 A 
ATOM     25  C   UNL d   1      11.628   9.599  -3.649  0.00  0.00     0.019 A 
ATOM     26  C   UNL d   1      10.954   6.932  -6.040  0.00  0.00     0.025 A 
ATOM     27  C   UNL d   1      11.996   6.810  -3.665  0.00  0.00     0.002 A 
ATOM     28  C   UNL d   1      12.377   7.558  -2.540  0.00  0.00     0.000 A 
ATOM     29  C   UNL d   1      12.210   8.954  -2.539  0.00  0.00     0.002 A 
ENDBRANCH   5  21
TORSDOF 6
