REMARK  8 active torsions:
REMARK  status: ('A' for Active; 'I' for Inactive)
REMARK    1  A    between atoms: O_2  and  C_3 
REMARK    2  A    between atoms: C_8  and  N_9 
REMARK    3  A    between atoms: N_12  and  C_13 
REMARK    4  A    between atoms: C_13  and  C_14 
REMARK    5  A    between atoms: C_14  and  C_15 
REMARK    6  A    between atoms: C_15  and  C_17 
REMARK    7  A    between atoms: C_17  and  N_18 
REMARK       I    between atoms: N_18  and  C_19 
REMARK    8  A    between atoms: C_19  and  C_21 
ROOT
ATOM      1  C   UNL d   1       6.541   0.525 -14.372  0.00  0.00     0.178 C 
ATOM      2  O   UNL d   1       6.976  -0.758 -14.013  0.00  0.00    -0.221 OA
ENDROOT
BRANCH   1   3
ATOM      3  C   UNL d   1       7.616   1.619 -14.086  0.00  0.00     0.070 C 
BRANCH   3   4
ATOM      4  C   UNL d   1       7.025   2.963 -13.547  0.00  0.00     0.253 C 
BRANCH   4   5
ATOM      5  N   UNL d   1       8.066   3.968 -13.329  0.00  0.00     0.141 N 
ATOM      6  C   UNL d   1       8.771   3.645 -12.089  0.00  0.00     0.274 C 
ATOM      7  C   UNL d   1       9.868   4.643 -11.822  0.00  0.00     0.137 C 
ATOM      8  N   UNL d   1       9.398   6.008 -11.784  0.00  0.00    -0.343 N 
ATOM      9  C   UNL d   1       8.564   6.376 -12.889  0.00  0.00     0.137 C 
ATOM     10  C   UNL d   1       7.494   5.273 -13.072  0.00  0.00     0.274 C 
BRANCH   8  11
ATOM     11  C   UNL d   1       9.643   6.875 -10.698  0.00  0.00     0.079 A 
ATOM     12  C   UNL d   1       9.422   6.393  -9.396  0.00  0.00     0.110 A 
ATOM     13  C   UNL d   1       9.706   7.238  -8.291  0.00  0.00     0.026 A 
ATOM     14  C   UNL d   1      10.180   8.542  -8.486  0.00  0.00     0.002 A 
ATOM     15  C   UNL d   1      10.371   8.999  -9.808  0.00  0.00     0.002 A 
ATOM     16  C   UNL d   1      10.078   8.182 -10.900  0.00  0.00     0.019 A 
BRANCH  12  17
ATOM     17  O   UNL d   1       8.854   5.135  -9.303  0.00  0.00    -0.327 OA
ATOM     18  C   UNL d   1       8.612   4.672  -8.054  0.00  0.00     0.181 C 
ENDBRANCH  12  17
ENDBRANCH   8  11
ENDBRANCH   4   5
ENDBRANCH   3   4
ENDBRANCH   1   3
BRANCH   1  19
ATOM     19  C   UNL d   1       6.125   0.468 -15.861  0.00  0.00     0.162 C 
BRANCH  19  20
ATOM     20  N   UNL d   1       7.290   0.350 -16.745  0.00  0.00    -0.232 NA
ATOM     21  C   UNL d   1       7.251   0.573 -18.067  0.00  0.00     0.275 C 
ATOM     22  O   UNL d   1       6.254   0.956 -18.682  0.00  0.00    -0.266 OA
BRANCH  21  23
ATOM     23  C   UNL d   1       8.546   0.322 -18.771  0.00  0.00     0.057 A 
ATOM     24  C   UNL d   1       9.770   0.725 -18.177  0.00  0.00     0.001 A 
ATOM     25  C   UNL d   1      10.963   0.477 -18.871  0.00  0.00    -0.018 A 
ATOM     26  C   UNL d   1      10.964  -0.147 -20.122  0.00  0.00    -0.004 A 
ATOM     27  C   UNL d   1      12.366   0.849 -18.428  0.00  0.00     0.053 A 
ATOM     28  C   UNL d   1       9.762  -0.557 -20.723  0.00  0.00    -0.000 A 
ATOM     29  C   UNL d   1      12.344  -0.237 -20.584  0.00  0.00    -0.004 A 
ATOM     30  C   UNL d   1       8.551  -0.317 -20.039  0.00  0.00     0.005 A 
ATOM     31  C   UNL d   1      13.168   0.338 -19.611  0.00  0.00    -0.018 A 
ATOM     32  C   UNL d   1      12.889  -0.773 -21.765  0.00  0.00    -0.000 A 
ATOM     33  C   UNL d   1      14.563   0.398 -19.775  0.00  0.00    -0.004 A 
ATOM     34  C   UNL d   1      15.121  -0.138 -20.956  0.00  0.00    -0.000 A 
ATOM     35  C   UNL d   1      14.290  -0.719 -21.943  0.00  0.00    -0.000 A 
ENDBRANCH  21  23
ENDBRANCH  19  20
ENDBRANCH   1  19
TORSDOF 8
