REMARK  8 active torsions:
REMARK  status: ('A' for Active; 'I' for Inactive)
REMARK    1  A    between atoms: O_2  and  C_3 
REMARK    2  A    between atoms: C_8  and  N_9 
REMARK    3  A    between atoms: N_12  and  C_13 
REMARK    4  A    between atoms: C_13  and  C_14 
REMARK    5  A    between atoms: C_14  and  C_15 
REMARK    6  A    between atoms: C_15  and  C_16 
REMARK    7  A    between atoms: C_16  and  N_17 
REMARK       I    between atoms: N_17  and  C_18 
REMARK    8  A    between atoms: C_18  and  C_20 
ROOT
ATOM      1  N   UNL d   1       8.593   0.381 -17.333  0.00  0.00    -0.233 NA
ATOM      2  C   UNL d   1       8.972   1.405 -18.114  0.00  0.00     0.298 C 
ATOM      3  O   UNL d   1       8.196   2.274 -18.520  0.00  0.00    -0.263 OA
ENDROOT
BRANCH   2   4
ATOM      4  C   UNL d   1      10.408   1.450 -18.427  0.00  0.00     0.157 A 
ATOM      5  O   UNL d   1      10.948   2.649 -18.881  0.00  0.00    -0.303 OA
ATOM      6  C   UNL d   1      12.258   2.405 -19.137  0.00  0.00     0.096 A 
ATOM      7  C   UNL d   1      12.549   1.089 -18.890  0.00  0.00     0.021 A 
ATOM      8  C   UNL d   1      13.192   3.263 -19.737  0.00  0.00     0.001 C 
ATOM      9  C   UNL d   1      11.381   0.458 -18.412  0.00  0.00     0.031 A 
ATOM     10  C   UNL d   1      13.850   0.697 -19.272  0.00  0.00    -0.020 C 
ATOM     11  C   UNL d   1      13.887  -0.803 -19.613  0.00  0.00     0.031 C 
ATOM     12  C   UNL d   1      14.900   1.569 -19.655  0.00  0.00    -0.004 C 
ATOM     13  C   UNL d   1      13.664  -1.121 -21.138  0.00  0.00     0.031 C 
ATOM     14  C   UNL d   1      13.034   0.027 -21.931  0.00  0.00    -0.022 C 
ATOM     15  C   UNL d   1      13.921   0.917 -22.571  0.00  0.00    -0.005 C 
ATOM     16  C   UNL d   1      11.646   0.219 -21.780  0.00  0.00    -0.005 C 
ATOM     17  C   UNL d   1      13.453   2.236 -22.768  0.00  0.00    -0.005 C 
ATOM     18  C   UNL d   1      12.153   2.509 -22.296  0.00  0.00    -0.022 C 
ATOM     19  C   UNL d   1      11.859   3.956 -21.887  0.00  0.00     0.031 C 
ATOM     20  C   UNL d   1      11.179   1.540 -21.972  0.00  0.00    -0.005 C 
ATOM     21  C   UNL d   1      12.504   4.393 -20.517  0.00  0.00     0.033 C 
ATOM     22  C   UNL d   1      14.555   2.934 -19.899  0.00  0.00    -0.003 C 
ENDBRANCH   2   4
BRANCH   1  23
ATOM     23  C   UNL d   1       7.232   0.144 -16.844  0.00  0.00     0.129 C 
BRANCH  23  24
ATOM     24  C   UNL d   1       6.953   0.765 -15.451  0.00  0.00     0.029 C 
BRANCH  24  25
ATOM     25  C   UNL d   1       7.494   2.195 -15.306  0.00  0.00     0.037 C 
BRANCH  25  26
ATOM     26  C   UNL d   1       6.920   2.955 -14.103  0.00  0.00     0.251 C 
BRANCH  26  27
ATOM     27  N   UNL d   1       7.657   4.201 -13.852  0.00  0.00     0.141 N 
ATOM     28  C   UNL d   1       6.858   5.044 -12.944  0.00  0.00     0.274 C 
ATOM     29  C   UNL d   1       7.560   6.402 -12.703  0.00  0.00     0.137 C 
ATOM     30  N   UNL d   1       8.905   6.169 -12.224  0.00  0.00    -0.343 N 
ATOM     31  C   UNL d   1       9.717   5.253 -12.995  0.00  0.00     0.137 C 
ATOM     32  C   UNL d   1       8.971   3.937 -13.238  0.00  0.00     0.274 C 
BRANCH  30  33
ATOM     33  C   UNL d   1       9.392   6.780 -11.061  0.00  0.00     0.079 A 
ATOM     34  C   UNL d   1       9.736   5.995  -9.935  0.00  0.00     0.110 A 
ATOM     35  C   UNL d   1      10.249   6.663  -8.789  0.00  0.00     0.026 A 
ATOM     36  C   UNL d   1      10.346   8.058  -8.745  0.00  0.00     0.002 A 
ATOM     37  C   UNL d   1       9.954   8.812  -9.864  0.00  0.00     0.002 A 
ATOM     38  C   UNL d   1       9.478   8.186 -11.020  0.00  0.00     0.019 A 
BRANCH  34  39
ATOM     39  O   UNL d   1       9.526   4.626 -10.002  0.00  0.00    -0.327 OA
ATOM     40  C   UNL d   1       9.854   3.886  -8.859  0.00  0.00     0.181 C 
ENDBRANCH  34  39
ENDBRANCH  30  33
ENDBRANCH  26  27
ENDBRANCH  25  26
ENDBRANCH  24  25
ENDBRANCH  23  24
ENDBRANCH   1  23
TORSDOF 8
