REMARK  13 active torsions:
REMARK  status: ('A' for Active; 'I' for Inactive)
REMARK    1  A    between atoms: C_2  and  C_3 
REMARK    2  A    between atoms: C_3  and  N_4 
REMARK    3  A    between atoms: N_4  and  C_5 
REMARK    4  A    between atoms: N_4  and  C_24 
REMARK    5  A    between atoms: C_5  and  C_6 
REMARK    6  A    between atoms: C_6  and  C_7 
REMARK    7  A    between atoms: C_7  and  C_8 
REMARK    8  A    between atoms: C_8  and  N_9 
REMARK       I    between atoms: N_9  and  C_10 
REMARK    9  A    between atoms: C_10  and  C_12 
REMARK   10  A    between atoms: C_15  and  C_16 
REMARK   11  A    between atoms: C_24  and  C_25 
REMARK   12  A    between atoms: C_27  and  C_28 
REMARK   13  A    between atoms: C_34  and  O_35 
ROOT
ATOM      1  C   UNL d   1       8.427   3.172 -15.024  0.00  0.00     0.250 C 
ENDROOT
BRANCH   1   2
ATOM      2  N   UNL d   1       9.015   1.831 -15.159  0.00  0.00     0.137 N 
BRANCH   2   3
ATOM      3  C   UNL d   1       8.398   0.830 -14.275  0.00  0.00     0.250 C 
BRANCH   3   4
ATOM      4  C   UNL d   1       6.856   0.765 -14.426  0.00  0.00     0.035 C 
ATOM      5  C   UNL d   1       6.204  -0.283 -13.525  0.00  0.00     0.002 C 
ENDBRANCH   3   4
ENDBRANCH   2   3
BRANCH   2   6
ATOM      6  C   UNL d   1      10.486   1.795 -15.081  0.00  0.00     0.251 C 
BRANCH   6   7
ATOM      7  C   UNL d   1      11.135   2.225 -16.386  0.00  0.00     0.038 A 
ATOM      8  C   UNL d   1      11.208   3.690 -16.779  0.00  0.00     0.026 A 
ATOM      9  C   UNL d   1      10.358   2.737 -17.608  0.00  0.00     0.007 A 
BRANCH   8  10
ATOM     10  C   UNL d   1      12.452   4.313 -17.346  0.00  0.00     0.001 A 
ATOM     11  C   UNL d   1      12.914   5.596 -16.938  0.00  0.00     0.090 A 
ATOM     12  C   UNL d   1      14.072   6.152 -17.548  0.00  0.00     0.025 A 
ATOM     13  C   UNL d   1      14.753   5.438 -18.561  0.00  0.00     0.013 A 
ATOM     14  C   UNL d   1      14.287   4.173 -18.970  0.00  0.00     0.058 A 
ATOM     15  C   UNL d   1      13.158   3.620 -18.358  0.00  0.00     0.009 A 
ATOM     16 CL   UNL d   1      15.077   3.290 -20.217  0.00  0.00    -0.082 Cl
BRANCH  11  17
ATOM     17  O   UNL d   1      12.195   6.262 -15.958  0.00  0.00    -0.328 OA
ATOM     18  C   UNL d   1      12.552   7.599 -15.638  0.00  0.00     0.181 C 
ENDBRANCH  11  17
ENDBRANCH   8  10
ENDBRANCH   6   7
ENDBRANCH   2   6
ENDBRANCH   1   2
BRANCH   1  19
ATOM     19  C   UNL d   1       8.676   3.788 -13.658  0.00  0.00     0.037 C 
BRANCH  19  20
ATOM     20  C   UNL d   1       8.290   5.275 -13.633  0.00  0.00     0.029 C 
BRANCH  20  21
ATOM     21  C   UNL d   1       7.252   5.591 -12.532  0.00  0.00     0.129 C 
BRANCH  21  22
ATOM     22  N   UNL d   1       7.854   5.993 -11.263  0.00  0.00    -0.234 NA
ATOM     23  C   UNL d   1       8.891   5.419 -10.636  0.00  0.00     0.275 C 
ATOM     24  O   UNL d   1       9.459   4.391 -10.985  0.00  0.00    -0.266 OA
BRANCH  23  25
ATOM     25  C   UNL d   1       9.393   6.127  -9.437  0.00  0.00     0.058 A 
ATOM     26  C   UNL d   1      10.564   6.908  -9.505  0.00  0.00     0.005 A 
ATOM     27  C   UNL d   1      11.059   7.521  -8.340  0.00  0.00     0.002 A 
ATOM     28  C   UNL d   1      10.385   7.344  -7.109  0.00  0.00     0.018 A 
ATOM     29  C   UNL d   1       9.210   6.562  -7.061  0.00  0.00     0.002 A 
ATOM     30  C   UNL d   1       8.720   5.950  -8.222  0.00  0.00     0.005 A 
BRANCH  28  31
ATOM     31  C   UNL d   1      10.884   7.984  -5.893  0.00  0.00     0.081 A 
ATOM     32  N   UNL d   1      10.740   9.326  -5.863  0.00  0.00    -0.244 NA
ATOM     33  C   UNL d   1      11.163   9.981  -4.770  0.00  0.00     0.099 A 
ATOM     34  C   UNL d   1      11.753   9.337  -3.667  0.00  0.00     0.021 A 
ATOM     35  C   UNL d   1      11.900   7.938  -3.702  0.00  0.00     0.003 A 
ATOM     36  C   UNL d   1      11.454   7.243  -4.838  0.00  0.00     0.019 A 
ENDBRANCH  28  31
ENDBRANCH  23  25
ENDBRANCH  21  22
ENDBRANCH  20  21
ENDBRANCH  19  20
ENDBRANCH   1  19
TORSDOF 13
