REMARK  3 active torsions:
REMARK  status: ('A' for Active; 'I' for Inactive)
REMARK    1  A    between atoms: N_5  and  C_6 
REMARK    2  A    between atoms: N_15  and  N_16 
REMARK       I    between atoms: N_16  and  C_17 
REMARK    3  A    between atoms: C_17  and  C_19 
ROOT
ATOM      1  C   UNL d   1       7.932   2.013 -14.387  0.00  0.00     0.142 C 
ATOM      2  N   UNL d   1       9.116   1.969 -14.967  0.00  0.00    -0.227 NA
ATOM      3  C   UNL d   1       9.952   3.071 -15.133  0.00  0.00     0.101 A 
ATOM      4  C   UNL d   1      10.801   3.026 -16.274  0.00  0.00     0.032 A 
ATOM      5  C   UNL d   1      11.751   4.035 -16.523  0.00  0.00     0.059 A 
ATOM      6 CL   UNL d   1      12.788   3.962 -17.898  0.00  0.00    -0.082 Cl
ATOM      7  C   UNL d   1      11.850   5.124 -15.641  0.00  0.00     0.013 A 
ATOM      8  C   UNL d   1      10.996   5.179 -14.538  0.00  0.00     0.022 A 
ATOM      9  C   UNL d   1      10.085   4.178 -14.235  0.00  0.00     0.101 A 
ATOM     10  N   UNL d   1       9.228   4.409 -13.138  0.00  0.00    -0.225 N 
ATOM     11  C   UNL d   1       7.852   4.380 -13.241  0.00  0.00     0.086 A 
ATOM     12  C   UNL d   1       7.032   5.433 -12.728  0.00  0.00     0.019 A 
ATOM     13  C   UNL d   1       5.651   5.411 -12.857  0.00  0.00     0.002 A 
ATOM     14  C   UNL d   1       5.084   4.364 -13.594  0.00  0.00     0.000 A 
ATOM     15  C   UNL d   1       5.871   3.322 -14.101  0.00  0.00     0.004 A 
ATOM     16  C   UNL d   1       7.257   3.280 -13.898  0.00  0.00     0.051 A 
ENDROOT
BRANCH  10  17
ATOM     17  N   UNL d   1       9.746   4.747 -11.881  0.00  0.00    -0.123 NA
ATOM     18  C   UNL d   1       9.707   6.011 -11.406  0.00  0.00     0.296 C 
ATOM     19  O   UNL d   1       9.513   7.007 -12.106  0.00  0.00    -0.264 OA
BRANCH  18  20
ATOM     20  C   UNL d   1       9.810   6.128  -9.951  0.00  0.00     0.066 C 
ATOM     21  C   UNL d   1       8.864   5.591  -9.123  0.00  0.00     0.040 C 
ATOM     22  S   UNL d   1       9.081   6.183  -7.507  0.00  0.00    -0.086 SA
ATOM     23  C   UNL d   1      10.572   6.934  -7.923  0.00  0.00     0.036 C 
ATOM     24  C   UNL d   1      10.778   6.920  -9.277  0.00  0.00     0.012 C 
ENDBRANCH  18  20
ENDBRANCH  10  17
BRANCH   1  25
ATOM     25  N   UNL d   1       7.192   0.850 -14.171  0.00  0.00    -0.330 N 
ATOM     26  C   UNL d   1       6.261   0.611 -13.047  0.00  0.00     0.138 C 
ATOM     27  C   UNL d   1       4.905   0.115 -13.549  0.00  0.00     0.274 C 
ATOM     28  N   UNL d   1       5.086  -1.108 -14.302  0.00  0.00     0.143 N 
ATOM     29  C   UNL d   1       3.779  -1.534 -14.743  0.00  0.00     0.286 C 
ATOM     30  C   UNL d   1       5.935  -0.843 -15.460  0.00  0.00     0.274 C 
ATOM     31  C   UNL d   1       7.322  -0.346 -14.995  0.00  0.00     0.138 C 
ENDBRANCH   1  25
TORSDOF 3
