REMARK  9 active torsions:
REMARK  status: ('A' for Active; 'I' for Inactive)
REMARK    1  A    between atoms: O_2  and  C_3 
REMARK    2  A    between atoms: C_4  and  O_5 
REMARK    3  A    between atoms: O_5  and  C_6 
REMARK    4  A    between atoms: C_6  and  C_7 
REMARK    5  A    between atoms: C_12  and  C_13 
REMARK    6  A    between atoms: C_13  and  C_15 
REMARK    7  A    between atoms: N_18  and  C_19 
REMARK    8  A    between atoms: C_19  and  C_20 
REMARK    9  A    between atoms: C_20  and  C_21 
ROOT
ATOM      1  C   UNL d   1       8.903   5.962 -11.530  0.00  0.00     0.039 C 
ATOM      2  C   UNL d   1       8.205   5.397 -10.281  0.00  0.00     0.038 C 
ATOM      3  C   UNL d   1       9.109   5.484  -9.053  0.00  0.00     0.250 C 
ATOM      4  N   UNL d   1       9.540   6.863  -8.854  0.00  0.00     0.137 N 
ATOM      5  C   UNL d   1      10.330   7.345  -9.976  0.00  0.00     0.250 C 
ATOM      6  C   UNL d   1       9.471   7.360 -11.244  0.00  0.00     0.038 C 
ENDROOT
BRANCH   1   7
ATOM      7  C   UNL d   1       7.990   5.982 -12.775  0.00  0.00     0.176 C 
ATOM      8  O   UNL d   1       6.794   6.685 -12.443  0.00  0.00    -0.218 OA
BRANCH   7   9
ATOM      9  C   UNL d   1       7.777   4.590 -13.366  0.00  0.00     0.032 A 
ATOM     10  C   UNL d   1       8.836   3.936 -14.057  0.00  0.00     0.115 A 
ATOM     11  C   UNL d   1       8.635   2.615 -14.563  0.00  0.00     0.116 A 
ATOM     12  C   UNL d   1       7.354   2.018 -14.431  0.00  0.00     0.026 A 
ATOM     13  C   UNL d   1       6.315   2.686 -13.766  0.00  0.00     0.002 A 
ATOM     14  C   UNL d   1       6.523   3.962 -13.229  0.00  0.00     0.000 A 
BRANCH  10  15
ATOM     15  O   UNL d   1      10.027   4.640 -14.156  0.00  0.00    -0.326 OA
ATOM     16  C   UNL d   1      10.858   4.444 -15.293  0.00  0.00     0.181 C 
ENDBRANCH  10  15
BRANCH  11  17
ATOM     17  O   UNL d   1       9.695   1.958 -15.158  0.00  0.00    -0.326 OA
BRANCH  17  18
ATOM     18  C   UNL d   1       9.600   0.593 -15.546  0.00  0.00     0.187 C 
BRANCH  18  19
ATOM     19  C   UNL d   1      10.670   0.311 -16.598  0.00  0.00     0.226 C 
ATOM     20  F   UNL d   1      10.364   0.947 -17.728  0.00  0.00    -0.232 F 
ENDBRANCH  18  19
ENDBRANCH  17  18
ENDBRANCH  11  17
ENDBRANCH   7   9
ENDBRANCH   1   7
BRANCH   4  21
ATOM     21  C   UNL d   1      10.303   6.918  -7.617  0.00  0.00     0.255 C 
BRANCH  21  22
ATOM     22  C   UNL d   1      10.583   8.354  -7.147  0.00  0.00     0.062 C 
BRANCH  22  23
ATOM     23  C   UNL d   1      11.052   8.418  -5.695  0.00  0.00    -0.020 A 
ATOM     24  C   UNL d   1      11.057   9.665  -5.035  0.00  0.00    -0.004 A 
ATOM     25  C   UNL d   1      11.457   9.738  -3.684  0.00  0.00    -0.005 A 
ATOM     26  C   UNL d   1      11.881   8.579  -3.011  0.00  0.00    -0.022 A 
ATOM     27  C   UNL d   1      11.871   7.340  -3.658  0.00  0.00    -0.005 A 
ATOM     28  C   UNL d   1      12.306   8.655  -1.576  0.00  0.00     0.031 C 
ATOM     29  C   UNL d   1      11.458   7.256  -5.002  0.00  0.00    -0.004 A 
ENDBRANCH  22  23
ENDBRANCH  21  22
ENDBRANCH   4  21
TORSDOF 9
