REMARK  6 active torsions:
REMARK  status: ('A' for Active; 'I' for Inactive)
REMARK    1  A    between atoms: N_11  and  C_12 
REMARK    2  A    between atoms: C_12  and  C_13 
REMARK    3  A    between atoms: C_13  and  C_14 
REMARK    4  A    between atoms: C_17  and  N_18 
REMARK       I    between atoms: N_18  and  C_19 
REMARK    5  A    between atoms: C_19  and  C_21 
REMARK    6  A    between atoms: C_22  and  C_23 
ROOT
ATOM      1  N   UNL d   1      11.066  10.122  -5.270  0.00  0.00    -0.191 NA
ATOM      2  C   UNL d   1      10.736   9.351  -6.085  0.00  0.00     0.101 C 
ATOM      3  C   UNL d   1      10.320   8.397  -7.091  0.00  0.00     0.068 A 
ATOM      4  C   UNL d   1       9.886   7.106  -6.711  0.00  0.00     0.010 A 
ATOM      5  C   UNL d   1       9.473   6.184  -7.689  0.00  0.00    -0.002 A 
ATOM      6  C   UNL d   1       9.482   6.529  -9.047  0.00  0.00     0.007 A 
ATOM      7  C   UNL d   1       9.907   7.813  -9.437  0.00  0.00    -0.022 A 
ATOM      8  C   UNL d   1      10.332   8.738  -8.467  0.00  0.00     0.006 A 
ATOM      9  C   UNL d   1       9.917   8.179 -10.910  0.00  0.00     0.061 C 
ATOM     10  C   UNL d   1       9.123   7.188 -11.786  0.00  0.00     0.255 C 
ATOM     11  N   UNL d   1       9.461   5.808 -11.434  0.00  0.00     0.142 N 
ATOM     12  C   UNL d   1       8.982   5.538 -10.079  0.00  0.00     0.276 C 
ENDROOT
BRANCH  11  13
ATOM     13  C   UNL d   1       8.866   4.848 -12.361  0.00  0.00     0.251 C 
BRANCH  13  14
ATOM     14  C   UNL d   1       9.942   4.290 -13.304  0.00  0.00     0.035 C 
BRANCH  14  15
ATOM     15  C   UNL d   1       9.489   2.986 -13.983  0.00  0.00     0.002 C 
ATOM     16  C   UNL d   1      10.669   2.299 -14.681  0.00  0.00     0.002 C 
ATOM     17  C   UNL d   1      10.216   1.018 -15.376  0.00  0.00     0.024 C 
ATOM     18  C   UNL d   1       9.066   1.302 -16.378  0.00  0.00     0.107 C 
ATOM     19  C   UNL d   1       7.872   1.936 -15.661  0.00  0.00     0.024 C 
ATOM     20  C   UNL d   1       8.320   3.219 -14.950  0.00  0.00     0.002 C 
BRANCH  18  21
ATOM     21  N   UNL d   1       8.681   0.094 -17.094  0.00  0.00    -0.236 NA
ATOM     22  C   UNL d   1       9.394  -0.586 -18.004  0.00  0.00     0.275 C 
ATOM     23  O   UNL d   1       8.997  -1.657 -18.445  0.00  0.00    -0.266 OA
BRANCH  22  24
ATOM     24  C   UNL d   1      10.642   0.057 -18.371  0.00  0.00     0.062 C 
ATOM     25  C   UNL d   1      11.628  -0.598 -19.003  0.00  0.00     0.005 C 
BRANCH  25  26
ATOM     26  C   UNL d   1      12.918  -0.029 -19.385  0.00  0.00     0.000 A 
ATOM     27  C   UNL d   1      13.914  -0.905 -19.863  0.00  0.00     0.002 A 
ATOM     28  C   UNL d   1      15.179  -0.410 -20.235  0.00  0.00     0.030 A 
ATOM     29  C   UNL d   1      15.455   0.967 -20.131  0.00  0.00     0.140 A 
ATOM     30  C   UNL d   1      14.471   1.849 -19.643  0.00  0.00     0.030 A 
ATOM     31  F   UNL d   1      16.664   1.448 -20.497  0.00  0.00    -0.204 F 
ATOM     32  C   UNL d   1      13.213   1.350 -19.265  0.00  0.00     0.002 A 
ENDBRANCH  25  26
ENDBRANCH  22  24
ENDBRANCH  18  21
ENDBRANCH  14  15
ENDBRANCH  13  14
ENDBRANCH  11  13
TORSDOF 6
