REMARK  7 active torsions:
REMARK  status: ('A' for Active; 'I' for Inactive)
REMARK    1  A    between atoms: C_3  and  S_4 
REMARK    2  A    between atoms: S_4  and  C_5 
REMARK    3  A    between atoms: C_5  and  C_6 
REMARK    4  A    between atoms: C_6  and  C_7 
REMARK    5  A    between atoms: C_7  and  N_8 
REMARK    6  A    between atoms: N_13  and  C_14 
REMARK    7  A    between atoms: C_25  and  C_26 
ROOT
ATOM      1  C   UNL d   1       8.890   5.226  -9.233  0.00  0.00     0.251 C 
ENDROOT
BRANCH   1   2
ATOM      2  C   UNL d   1       8.693   5.144 -10.753  0.00  0.00     0.047 C 
BRANCH   2   3
ATOM      3  C   UNL d   1       7.391   5.777 -11.293  0.00  0.00     0.067 C 
BRANCH   3   4
ATOM      4  S   UNL d   1       6.617   4.793 -12.614  0.00  0.00    -0.075 SA
BRANCH   4   5
ATOM      5  C   UNL d   1       8.020   4.422 -13.603  0.00  0.00     0.193 A 
ATOM      6  N   UNL d   1       8.161   3.252 -14.260  0.00  0.00    -0.287 N 
ATOM      7  C   UNL d   1       7.166   2.200 -14.423  0.00  0.00     0.134 C 
ATOM      8  C   UNL d   1       9.421   3.359 -14.757  0.00  0.00     0.186 A 
ATOM      9  N   UNL d   1       9.992   4.532 -14.443  0.00  0.00    -0.127 NA
ATOM     10  N   UNL d   1       9.055   5.240 -13.750  0.00  0.00    -0.122 NA
BRANCH   8  11
ATOM     11  C   UNL d   1      10.127   2.387 -15.607  0.00  0.00     0.136 A 
ATOM     12  N   UNL d   1       9.555   1.185 -15.866  0.00  0.00    -0.238 NA
ATOM     13  C   UNL d   1      10.210   0.370 -16.722  0.00  0.00     0.120 A 
ATOM     14  C   UNL d   1      11.431   0.751 -17.316  0.00  0.00     0.120 A 
ATOM     15  N   UNL d   1      12.007   1.947 -17.078  0.00  0.00    -0.239 NA
ATOM     16  C   UNL d   1      11.352   2.754 -16.216  0.00  0.00     0.121 A 
ENDBRANCH   8  11
ENDBRANCH   4   5
ENDBRANCH   3   4
ENDBRANCH   2   3
ENDBRANCH   1   2
BRANCH   1  17
ATOM     17  N   UNL d   1       9.561   6.436  -8.762  0.00  0.00     0.138 N 
ATOM     18  C   UNL d   1      10.295   6.165  -7.529  0.00  0.00     0.266 C 
ATOM     19  C   UNL d   1      11.323   7.291  -7.418  0.00  0.00     0.097 C 
ATOM     20  C   UNL d   1      11.394   7.902  -8.812  0.00  0.00     0.052 C 
ATOM     21  N   UNL d   1      10.916   8.357  -6.511  0.00  0.00    -0.252 NA
ATOM     22  C   UNL d   1      10.541   7.021  -9.667  0.00  0.00     0.252 C 
ATOM     23  C   UNL d   1      10.836   9.318  -8.670  0.00  0.00     0.021 C 
ATOM     24  C   UNL d   1      11.099   9.628  -7.203  0.00  0.00     0.077 C 
BRANCH  21  25
ATOM     25  C   UNL d   1      11.316   8.260  -5.170  0.00  0.00     0.037 A 
ATOM     26  C   UNL d   1      11.573   9.430  -4.401  0.00  0.00     0.013 A 
ATOM     27  C   UNL d   1      12.022   9.324  -3.085  0.00  0.00     0.031 A 
ATOM     28  C   UNL d   1      12.215   8.074  -2.499  0.00  0.00     0.140 A 
ATOM     29  C   UNL d   1      11.915   6.898  -3.212  0.00  0.00     0.031 A 
ATOM     30  F   UNL d   1      12.690   7.984  -1.230  0.00  0.00    -0.204 F 
ATOM     31  C   UNL d   1      11.468   6.998  -4.544  0.00  0.00     0.013 A 
ENDBRANCH  21  25
ENDBRANCH   1  17
TORSDOF 7
