REMARK  0 active torsions:
REMARK  status: ('A' for Active; 'I' for Inactive)
ROOT
ATOM      1  C   UNL d   1       4.985   3.795 -13.360  0.00  0.00     0.139 C 
ATOM      2  N   UNL d   1       6.352   4.176 -13.091  0.00  0.00    -0.246 N 
ATOM      3  C   UNL d   1       6.559   5.221 -12.241  0.00  0.00     0.285 A 
ATOM      4  O   UNL d   1       5.700   5.894 -11.678  0.00  0.00    -0.265 OA
ATOM      5  C   UNL d   1       7.944   5.532 -12.070  0.00  0.00     0.173 A 
ATOM      6  N   UNL d   1       8.518   6.479 -11.260  0.00  0.00    -0.216 NA
ATOM      7  C   UNL d   1       9.820   6.376 -11.484  0.00  0.00     0.201 A 
ATOM      8  N   UNL d   1      10.145   5.465 -12.422  0.00  0.00    -0.205 NA
ATOM      9  C   UNL d   1       8.936   4.914 -12.738  0.00  0.00     0.172 A 
ATOM     10  N   UNL d   1       8.626   3.860 -13.616  0.00  0.00    -0.263 N 
ATOM     11  C   UNL d   1       9.741   3.178 -14.278  0.00  0.00     0.137 C 
ATOM     12  C   UNL d   1       7.324   3.482 -13.787  0.00  0.00     0.335 A 
ATOM     13  O   UNL d   1       7.031   2.564 -14.556  0.00  0.00    -0.246 OA
ENDROOT
TORSDOF 0
