REMARK  7 active torsions:
REMARK  status: ('A' for Active; 'I' for Inactive)
REMARK    1  A    between atoms: C_6  and  N_7 
REMARK    2  A    between atoms: N_10  and  C_11 
REMARK    3  A    between atoms: C_11  and  C_12 
REMARK    4  A    between atoms: C_12  and  C_13 
REMARK    5  A    between atoms: C_13  and  C_14 
REMARK    6  A    between atoms: C_14  and  O_15 
REMARK    7  A    between atoms: O_15  and  C_16 
ROOT
ATOM      1  N   UNL d   1       8.360   3.177 -13.935  0.00  0.00    -0.247 NA
ATOM      2  C   UNL d   1       7.185   3.835 -13.321  0.00  0.00     0.112 C 
ATOM      3  C   UNL d   1       7.571   4.608 -12.034  0.00  0.00     0.268 C 
ATOM      4  N   UNL d   1       8.603   5.604 -12.316  0.00  0.00     0.140 N 
ATOM      5  C   UNL d   1       9.779   4.904 -12.816  0.00  0.00     0.268 C 
ATOM      6  C   UNL d   1       9.432   4.194 -14.079  0.00  0.00     0.112 C 
ENDROOT
BRANCH   4   7
ATOM      7  C   UNL d   1       8.992   6.325 -11.102  0.00  0.00     0.251 C 
BRANCH   7   8
ATOM      8  C   UNL d   1       9.483   7.748 -11.429  0.00  0.00     0.038 C 
BRANCH   8   9
ATOM      9  C   UNL d   1      10.444   8.281 -10.352  0.00  0.00     0.035 C 
BRANCH   9  10
ATOM     10  C   UNL d   1       9.748   8.505  -9.000  0.00  0.00     0.149 C 
BRANCH  10  11
ATOM     11  O   UNL d   1      10.649   9.162  -8.111  0.00  0.00    -0.331 OA
BRANCH  11  12
ATOM     12  C   UNL d   1      10.957   8.580  -6.904  0.00  0.00     0.097 A 
ATOM     13  C   UNL d   1      11.350   9.428  -5.884  0.00  0.00     0.043 A 
ATOM     14  C   UNL d   1      11.664   8.895  -4.607  0.00  0.00     0.086 A 
ATOM     15  N   UNL d   1      11.576   7.503  -4.432  0.00  0.00    -0.228 N 
ATOM     16  C   UNL d   1      12.051   9.388  -3.390  0.00  0.00     0.042 A 
ATOM     17  C   UNL d   1      11.208   6.665  -5.431  0.00  0.00     0.102 A 
ATOM     18  N   UNL d   1      11.905   7.121  -3.159  0.00  0.00    -0.164 NA
ATOM     19  C   UNL d   1      10.908   7.176  -6.669  0.00  0.00     0.045 A 
ATOM     20  C   UNL d   1      12.186   8.254  -2.558  0.00  0.00     0.122 A 
ENDBRANCH  11  12
ENDBRANCH  10  11
ENDBRANCH   9  10
ENDBRANCH   8   9
ENDBRANCH   7   8
ENDBRANCH   4   7
BRANCH   1  21
ATOM     21  C   UNL d   1       8.048   2.385 -15.216  0.00  0.00     0.061 A 
ATOM     22  C   UNL d   1       8.691   2.692 -16.456  0.00  0.00     0.125 A 
ATOM     23  O   UNL d   1       9.582   3.736 -16.565  0.00  0.00    -0.318 OA
ATOM     24  C   UNL d   1       8.347   1.979 -17.634  0.00  0.00     0.133 A 
ATOM     25  C   UNL d   1      10.578   3.599 -17.549  0.00  0.00     0.238 C 
ATOM     26  C   UNL d   1      10.010   3.154 -18.930  0.00  0.00     0.287 C 
ATOM     27  O   UNL d   1      10.504   3.548 -19.987  0.00  0.00    -0.267 OA
ATOM     28  N   UNL d   1       8.956   2.318 -18.878  0.00  0.00    -0.205 NA
ATOM     29  C   UNL d   1       7.327   0.991 -17.591  0.00  0.00     0.151 A 
ATOM     30  C   UNL d   1       6.691   0.688 -16.367  0.00  0.00     0.030 A 
ATOM     31  O   UNL d   1       6.923   0.354 -18.734  0.00  0.00    -0.189 OA
ATOM     32  C   UNL d   1       7.056   1.365 -15.183  0.00  0.00     0.015 A 
ENDBRANCH   1  21
TORSDOF 7
