REMARK  8 active torsions:
REMARK  status: ('A' for Active; 'I' for Inactive)
REMARK    1  A    between atoms: C_6  and  C_7 
REMARK    2  A    between atoms: C_10  and  S_11 
REMARK    3  A    between atoms: S_11  and  C_12 
REMARK    4  A    between atoms: C_12  and  C_13 
REMARK    5  A    between atoms: C_13  and  C_14 
REMARK    6  A    between atoms: C_14  and  N_15 
REMARK    7  A    between atoms: C_19  and  C_20 
REMARK    8  A    between atoms: C_25  and  C_26 
ROOT
ATOM      1  N   UNL d   1       4.682  -0.354 -15.945  0.00  0.00     0.137 N 
ATOM      2  C   UNL d   1       4.242  -0.901 -14.666  0.00  0.00     0.251 C 
ATOM      3  C   UNL d   1       5.218  -0.323 -13.675  0.00  0.00     0.039 A 
ATOM      4  C   UNL d   1       6.555  -0.955 -13.358  0.00  0.00     0.008 A 
ATOM      5  C   UNL d   1       6.437   0.075 -14.458  0.00  0.00     0.052 A 
ATOM      6  C   UNL d   1       6.150  -0.319 -15.892  0.00  0.00     0.254 C 
ENDROOT
BRANCH   1   7
ATOM      7  C   UNL d   1       4.154  -1.133 -17.063  0.00  0.00     0.251 C 
BRANCH   7   8
ATOM      8  C   UNL d   1       4.472  -0.450 -18.410  0.00  0.00     0.047 C 
BRANCH   8   9
ATOM      9  C   UNL d   1       4.800  -1.455 -19.528  0.00  0.00     0.067 C 
BRANCH   9  10
ATOM     10  S   UNL d   1       5.453  -0.647 -21.029  0.00  0.00    -0.075 SA
BRANCH  10  11
ATOM     11  C   UNL d   1       6.793   0.232 -20.299  0.00  0.00     0.193 A 
ATOM     12  N   UNL d   1       6.774   1.554 -20.112  0.00  0.00    -0.122 NA
ATOM     13  N   UNL d   1       7.923   1.833 -19.406  0.00  0.00    -0.126 NA
ATOM     14  C   UNL d   1       8.587   0.678 -19.307  0.00  0.00     0.191 A 
ATOM     15  N   UNL d   1       7.908  -0.367 -19.829  0.00  0.00    -0.287 N 
ATOM     16  C   UNL d   1       8.280  -1.782 -19.858  0.00  0.00     0.134 C 
BRANCH  14  17
ATOM     17  C   UNL d   1       9.910   0.601 -18.698  0.00  0.00     0.151 A 
ATOM     18  C   UNL d   1      11.135   0.197 -19.175  0.00  0.00     0.087 A 
ATOM     19  C   UNL d   1      11.582  -0.291 -20.506  0.00  0.00     0.054 C 
ATOM     20  N   UNL d   1      12.071   0.340 -18.154  0.00  0.00    -0.221 NA
ATOM     21  C   UNL d   1      11.402   0.845 -17.128  0.00  0.00     0.225 A 
ATOM     22  O   UNL d   1      10.080   1.028 -17.389  0.00  0.00    -0.282 OA
ENDBRANCH  14  17
ENDBRANCH  10  11
ENDBRANCH   9  10
ENDBRANCH   8   9
ENDBRANCH   7   8
ENDBRANCH   1   7
BRANCH   5  23
ATOM     23  C   UNL d   1       7.038   1.451 -14.306  0.00  0.00    -0.021 A 
ATOM     24  C   UNL d   1       8.411   1.671 -14.547  0.00  0.00     0.002 A 
ATOM     25  C   UNL d   1       8.998   2.944 -14.322  0.00  0.00     0.099 A 
ATOM     26  C   UNL d   1       8.184   4.015 -13.886  0.00  0.00     0.144 A 
ATOM     27  C   UNL d   1       6.812   3.808 -13.639  0.00  0.00     0.029 A 
ATOM     28  F   UNL d   1       8.699   5.247 -13.696  0.00  0.00    -0.204 F 
ATOM     29  C   UNL d   1       6.263   2.537 -13.858  0.00  0.00    -0.002 A 
BRANCH  25  30
ATOM     30  C   UNL d   1      10.493   3.160 -14.533  0.00  0.00     0.421 C 
ATOM     31  F   UNL d   1      11.115   2.022 -14.461  0.00  0.00    -0.166 F 
ATOM     32  F   UNL d   1      10.670   3.689 -15.733  0.00  0.00    -0.166 F 
ATOM     33  F   UNL d   1      10.977   4.045 -13.637  0.00  0.00    -0.166 F 
ENDBRANCH  25  30
ENDBRANCH   5  23
TORSDOF 8
