REMARK  5 active torsions:
REMARK  status: ('A' for Active; 'I' for Inactive)
REMARK    1  A    between atoms: N_9  and  C_10 
REMARK    2  A    between atoms: C_10  and  C_11 
REMARK    3  A    between atoms: C_11  and  C_12 
REMARK    4  A    between atoms: C_12  and  C_13 
REMARK    5  A    between atoms: C_13  and  C_14 
ROOT
ATOM      1  C   UNL d   1       8.496   5.958 -10.389  0.00  0.00     0.251 C 
ENDROOT
BRANCH   1   2
ATOM      2  N   UNL d   1       8.568   5.460 -11.758  0.00  0.00     0.142 N 
ATOM      3  C   UNL d   1       7.519   4.441 -11.948  0.00  0.00     0.277 C 
ATOM      4  C   UNL d   1       7.613   3.686 -13.280  0.00  0.00     0.018 A 
ATOM      5  C   UNL d   1       6.556   2.854 -13.727  0.00  0.00     0.055 A 
ATOM      6  C   UNL d   1       8.828   3.707 -14.002  0.00  0.00    -0.021 A 
ATOM      7 CL   UNL d   1       5.093   2.684 -12.810  0.00  0.00    -0.083 Cl
ATOM      8  C   UNL d   1       6.712   2.105 -14.917  0.00  0.00     0.011 A 
ATOM      9  C   UNL d   1       7.906   2.199 -15.667  0.00  0.00     0.001 A 
ATOM     10  C   UNL d   1       8.957   2.994 -15.195  0.00  0.00    -0.004 A 
ATOM     11  C   UNL d   1       9.985   4.515 -13.498  0.00  0.00     0.061 C 
ATOM     12  C   UNL d   1       9.852   4.860 -12.033  0.00  0.00     0.255 C 
ENDBRANCH   1   2
BRANCH   1  13
ATOM     13  C   UNL d   1       9.473   7.108 -10.044  0.00  0.00     0.036 C 
BRANCH  13  14
ATOM     14  C   UNL d   1       9.745   7.167  -8.547  0.00  0.00     0.009 C 
BRANCH  14  15
ATOM     15  C   UNL d   1      10.839   8.192  -8.255  0.00  0.00     0.053 C 
BRANCH  15  16
ATOM     16  C   UNL d   1      11.139   8.325  -6.808  0.00  0.00     0.088 A 
ATOM     17  S   UNL d   1      11.174   9.895  -5.994  0.00  0.00    -0.071 SA
ATOM     18  C   UNL d   1      11.599   9.052  -4.507  0.00  0.00     0.048 A 
ATOM     19  C   UNL d   1      11.658   7.654  -4.748  0.00  0.00     0.087 A 
ATOM     20  C   UNL d   1      11.876   9.588  -3.241  0.00  0.00     0.008 A 
ATOM     21  N   UNL d   1      11.424   7.259  -6.056  0.00  0.00    -0.243 NA
ATOM     22  C   UNL d   1      12.014   6.810  -3.669  0.00  0.00     0.020 A 
ATOM     23  C   UNL d   1      12.309   7.340  -2.411  0.00  0.00     0.002 A 
ATOM     24  C   UNL d   1      12.263   8.732  -2.197  0.00  0.00     0.001 A 
ENDBRANCH  15  16
ENDBRANCH  14  15
ENDBRANCH  13  14
ENDBRANCH   1  13
TORSDOF 5
