REMARK  6 active torsions:
REMARK  status: ('A' for Active; 'I' for Inactive)
REMARK    1  A    between atoms: C_3  and  C_4 
REMARK    2  A    between atoms: C_4  and  C_5 
REMARK    3  A    between atoms: C_5  and  S_6 
REMARK    4  A    between atoms: S_6  and  C_8 
REMARK    5  A    between atoms: N_16  and  C_17 
REMARK    6  A    between atoms: N_23  and  C_24 
ROOT
ATOM      1  O   UNL d   1      10.041   0.898 -16.776  0.00  0.00    -0.270 OA
ATOM      2  C   UNL d   1       9.875   1.661 -15.818  0.00  0.00     0.264 A 
ATOM      3  C   UNL d   1      11.032   2.446 -15.227  0.00  0.00     0.163 A 
ATOM      4  C   UNL d   1      10.262   3.275 -14.214  0.00  0.00     0.264 A 
ATOM      5  O   UNL d   1      10.823   4.135 -13.540  0.00  0.00    -0.270 OA
ATOM      6  N   UNL d   1       8.948   2.964 -14.214  0.00  0.00    -0.211 N 
ATOM      7  N   UNL d   1       8.725   1.937 -15.193  0.00  0.00    -0.211 N 
ENDROOT
BRANCH   3   8
ATOM      8  C   UNL d   1      11.791   3.307 -16.241  0.00  0.00     0.034 C 
BRANCH   8   9
ATOM      9  C   UNL d   1      11.047   4.504 -16.901  0.00  0.00     0.097 C 
BRANCH   9  10
ATOM     10  S   UNL d   1      12.297   5.635 -17.700  0.00  0.00     0.065 S 
ATOM     11  O   UNL d   1      13.408   5.891 -16.678  0.00  0.00    -0.252 OA
BRANCH  10  12
ATOM     12  C   UNL d   1      12.971   4.440 -18.912  0.00  0.00     0.056 A 
ATOM     13  C   UNL d   1      13.838   3.417 -18.476  0.00  0.00     0.009 A 
ATOM     14  C   UNL d   1      14.279   2.452 -19.397  0.00  0.00     0.001 A 
ATOM     15  C   UNL d   1      13.930   2.552 -20.759  0.00  0.00     0.000 A 
ATOM     16  C   UNL d   1      13.100   3.605 -21.198  0.00  0.00     0.001 A 
ATOM     17  C   UNL d   1      12.612   4.554 -20.273  0.00  0.00     0.009 A 
ENDBRANCH  10  12
ENDBRANCH   9  10
ENDBRANCH   8   9
ENDBRANCH   3   8
BRANCH   7  18
ATOM     18  C   UNL d   1       7.499   1.190 -15.339  0.00  0.00     0.084 A 
ATOM     19  C   UNL d   1       6.702   0.894 -14.223  0.00  0.00     0.019 A 
ATOM     20  C   UNL d   1       5.481   0.207 -14.351  0.00  0.00     0.002 A 
ATOM     21  C   UNL d   1       5.061  -0.241 -15.613  0.00  0.00     0.000 A 
ATOM     22  C   UNL d   1       5.859   0.012 -16.739  0.00  0.00     0.002 A 
ATOM     23  C   UNL d   1       7.072   0.730 -16.606  0.00  0.00     0.019 A 
ENDBRANCH   7  18
BRANCH   6  24
ATOM     24  C   UNL d   1       7.919   3.708 -13.535  0.00  0.00     0.084 A 
ATOM     25  C   UNL d   1       8.204   4.394 -12.328  0.00  0.00     0.019 A 
ATOM     26  C   UNL d   1       7.186   5.077 -11.623  0.00  0.00     0.002 A 
ATOM     27  C   UNL d   1       5.865   5.068 -12.111  0.00  0.00     0.000 A 
ATOM     28  C   UNL d   1       5.577   4.396 -13.312  0.00  0.00     0.002 A 
ATOM     29  C   UNL d   1       6.593   3.746 -14.024  0.00  0.00     0.019 A 
ENDBRANCH   6  24
TORSDOF 6
