REMARK  7 active torsions:
REMARK  status: ('A' for Active; 'I' for Inactive)
REMARK    1  A    between atoms: C_2  and  C_3 
REMARK       I    between atoms: C_2  and  N_13 
REMARK    2  A    between atoms: C_3  and  C_4 
REMARK    3  A    between atoms: N_13  and  C_14 
REMARK    4  A    between atoms: C_17  and  C_18 
REMARK    5  A    between atoms: C_18  and  C_19 
REMARK    6  A    between atoms: C_19  and  N_20 
REMARK    7  A    between atoms: C_23  and  C_24 
ROOT
ATOM      1  C   UNL d   1      10.573   1.801 -16.932  0.00  0.00     0.106 C 
ATOM      2  C   UNL d   1      10.179   1.313 -15.539  0.00  0.00     0.024 C 
ATOM      3  C   UNL d   1       9.265   2.321 -14.849  0.00  0.00     0.002 C 
ATOM      4  C   UNL d   1       9.936   3.709 -14.739  0.00  0.00     0.002 C 
ATOM      5  C   UNL d   1      10.349   4.206 -16.144  0.00  0.00     0.002 C 
ATOM      6  C   UNL d   1      11.256   3.187 -16.858  0.00  0.00     0.024 C 
ENDROOT
BRANCH   4   7
ATOM      7  C   UNL d   1       9.044   4.744 -14.041  0.00  0.00     0.035 C 
BRANCH   7   8
ATOM      8  C   UNL d   1       8.615   4.373 -12.608  0.00  0.00     0.250 C 
BRANCH   8   9
ATOM      9  N   UNL d   1       9.234   5.245 -11.610  0.00  0.00     0.137 N 
ATOM     10  C   UNL d   1       8.607   6.561 -11.634  0.00  0.00     0.251 C 
ATOM     11  C   UNL d   1       9.346   7.468 -10.643  0.00  0.00     0.040 C 
ATOM     12  C   UNL d   1       9.271   6.899  -9.201  0.00  0.00     0.028 C 
ATOM     13  C   UNL d   1       9.739   5.455  -9.194  0.00  0.00     0.040 C 
ATOM     14  C   UNL d   1       9.054   4.642 -10.294  0.00  0.00     0.251 C 
BRANCH  12  15
ATOM     15  C   UNL d   1      10.075   7.745  -8.227  0.00  0.00     0.002 A 
ATOM     16  C   UNL d   1      11.421   7.998  -8.481  0.00  0.00     0.115 A 
ATOM     17  C   UNL d   1      12.188   8.748  -7.621  0.00  0.00     0.119 A 
ATOM     18  O   UNL d   1      12.185   7.588  -9.520  0.00  0.00    -0.300 OA
ATOM     19  C   UNL d   1      11.663   9.302  -6.452  0.00  0.00     0.026 A 
ATOM     20  O   UNL d   1      13.457   8.785  -8.103  0.00  0.00    -0.300 OA
ATOM     21  C   UNL d   1      10.303   9.053  -6.166  0.00  0.00     0.002 A 
ATOM     22  C   UNL d   1       9.504   8.274  -7.046  0.00  0.00    -0.002 A 
ATOM     23  C   UNL d   1      13.458   8.079  -9.309  0.00  0.00     0.304 A 
ENDBRANCH  12  15
ENDBRANCH   8   9
ENDBRANCH   7   8
ENDBRANCH   4   7
BRANCH   1  24
ATOM     24  N   UNL d   1      11.456   0.811 -17.529  0.00  0.00    -0.240 NA
ATOM     25  C   UNL d   1      11.377   0.341 -18.778  0.00  0.00     0.256 C 
ATOM     26  O   UNL d   1      10.455   0.614 -19.551  0.00  0.00    -0.270 OA
BRANCH  25  27
ATOM     27  C   UNL d   1      12.549  -0.515 -19.255  0.00  0.00     0.116 C 
BRANCH  27  28
ATOM     28  C   UNL d   1      13.700   0.334 -19.811  0.00  0.00    -0.011 A 
ATOM     29  C   UNL d   1      14.453  -0.162 -20.906  0.00  0.00     0.022 A 
ATOM     30  C   UNL d   1      15.503   0.630 -21.396  0.00  0.00     0.119 A 
ATOM     31  C   UNL d   1      15.802   1.861 -20.846  0.00  0.00     0.119 A 
ATOM     32  O   UNL d   1      16.364   0.378 -22.417  0.00  0.00    -0.300 OA
ATOM     33  C   UNL d   1      15.081   2.383 -19.771  0.00  0.00     0.026 A 
ATOM     34  O   UNL d   1      16.853   2.415 -21.494  0.00  0.00    -0.300 OA
ATOM     35  C   UNL d   1      14.033   1.597 -19.242  0.00  0.00    -0.002 A 
ATOM     36  C   UNL d   1      17.216   1.495 -22.489  0.00  0.00     0.304 A 
ENDBRANCH  27  28
ENDBRANCH  25  27
ENDBRANCH   1  24
TORSDOF 7
