REMARK  8 active torsions:
REMARK  status: ('A' for Active; 'I' for Inactive)
REMARK    1  A    between atoms: C_3  and  S_4 
REMARK    2  A    between atoms: S_4  and  C_5 
REMARK    3  A    between atoms: C_5  and  C_6 
REMARK    4  A    between atoms: C_6  and  C_7 
REMARK    5  A    between atoms: C_7  and  N_8 
REMARK    6  A    between atoms: C_12  and  C_13 
REMARK    7  A    between atoms: C_16  and  C_17 
REMARK    8  A    between atoms: C_26  and  C_27 
ROOT
ATOM      1  N   UNL d   1       9.261   4.220 -13.556  0.00  0.00     0.143 N 
ATOM      2  C   UNL d   1       7.961   4.723 -13.979  0.00  0.00     0.282 C 
ATOM      3  C   UNL d   1       6.933   4.793 -12.832  0.00  0.00     0.178 C 
ATOM      4  O   UNL d   1       7.458   5.589 -11.772  0.00  0.00    -0.348 OA
ATOM      5  C   UNL d   1       8.692   5.078 -11.278  0.00  0.00     0.171 C 
ATOM      6  C   UNL d   1       9.716   5.004 -12.433  0.00  0.00     0.284 C 
ENDROOT
BRANCH   1   7
ATOM      7  C   UNL d   1      10.254   4.265 -14.636  0.00  0.00     0.251 C 
BRANCH   7   8
ATOM      8  C   UNL d   1      10.099   3.079 -15.602  0.00  0.00     0.047 C 
BRANCH   8   9
ATOM      9  C   UNL d   1      10.924   3.180 -16.898  0.00  0.00     0.067 C 
BRANCH   9  10
ATOM     10  S   UNL d   1      10.664   1.757 -18.007  0.00  0.00    -0.075 SA
BRANCH  10  11
ATOM     11  C   UNL d   1       8.992   1.336 -17.628  0.00  0.00     0.193 A 
ATOM     12  N   UNL d   1       8.661   0.665 -16.506  0.00  0.00    -0.292 N 
ATOM     13  C   UNL d   1       9.511   0.182 -15.437  0.00  0.00     0.134 C 
ATOM     14  C   UNL d   1       7.316   0.599 -16.607  0.00  0.00     0.143 A 
ATOM     15  N   UNL d   1       6.831   1.215 -17.693  0.00  0.00    -0.133 NA
ATOM     16  N   UNL d   1       7.938   1.664 -18.381  0.00  0.00    -0.122 NA
BRANCH  14  17
ATOM     17  C   UNL d   1       6.452  -0.028 -15.546  0.00  0.00     0.059 C 
ATOM     18  C   UNL d   1       6.072   0.964 -14.427  0.00  0.00     0.007 C 
ATOM     19  C   UNL d   1       5.219   0.283 -13.351  0.00  0.00     0.000 C 
ATOM     20  C   UNL d   1       3.965  -0.382 -13.960  0.00  0.00     0.000 C 
ATOM     21  C   UNL d   1       4.356  -1.371 -15.072  0.00  0.00     0.000 C 
ATOM     22  C   UNL d   1       5.206  -0.697 -16.150  0.00  0.00     0.007 C 
ENDBRANCH  14  17
ENDBRANCH  10  11
ENDBRANCH   9  10
ENDBRANCH   8   9
ENDBRANCH   7   8
ENDBRANCH   1   7
BRANCH   5  23
ATOM     23  C   UNL d   1       9.204   5.949 -10.129  0.00  0.00     0.007 A 
ATOM     24  C   UNL d   1       9.060   5.525  -8.792  0.00  0.00    -0.002 A 
ATOM     25  C   UNL d   1       9.545   6.325  -7.737  0.00  0.00     0.004 A 
ATOM     26  C   UNL d   1      10.202   7.542  -8.004  0.00  0.00     0.071 A 
ATOM     27  C   UNL d   1      10.340   7.972  -9.345  0.00  0.00     0.004 A 
ATOM     28  C   UNL d   1       9.831   7.185 -10.395  0.00  0.00    -0.002 A 
BRANCH  26  29
ATOM     29  C   UNL d   1      10.748   8.398  -6.871  0.00  0.00     0.419 C 
ATOM     30  F   UNL d   1      11.753   9.171  -7.283  0.00  0.00    -0.166 F 
ATOM     31  F   UNL d   1       9.781   9.175  -6.408  0.00  0.00    -0.166 F 
ATOM     32  F   UNL d   1      11.187   7.628  -5.870  0.00  0.00    -0.166 F 
ENDBRANCH  26  29
ENDBRANCH   5  23
TORSDOF 8
