REMARK  4 active torsions:
REMARK  status: ('A' for Active; 'I' for Inactive)
REMARK    1  A    between atoms: C_5  and  N_6 
REMARK    2  A    between atoms: N_9  and  C_10 
REMARK    3  A    between atoms: C_10  and  C_11 
REMARK    4  A    between atoms: C_11  and  C_12 
ROOT
ATOM      1  N   UNL d   1       7.588   4.671 -12.511  0.00  0.00    -0.344 N 
ATOM      2  C   UNL d   1       8.867   5.244 -12.894  0.00  0.00     0.137 C 
ATOM      3  C   UNL d   1       9.811   5.265 -11.685  0.00  0.00     0.274 C 
ATOM      4  N   UNL d   1       9.255   6.028 -10.566  0.00  0.00     0.141 N 
ATOM      5  C   UNL d   1       8.047   5.349 -10.135  0.00  0.00     0.274 C 
ATOM      6  C   UNL d   1       7.046   5.318 -11.313  0.00  0.00     0.137 C 
ENDROOT
BRANCH   4   7
ATOM      7  C   UNL d   1      10.228   6.115  -9.476  0.00  0.00     0.253 C 
BRANCH   7   8
ATOM      8  C   UNL d   1       9.981   7.370  -8.623  0.00  0.00     0.064 C 
BRANCH   8   9
ATOM      9  C   UNL d   1      11.280   7.921  -7.990  0.00  0.00     0.131 A 
ATOM     10  C   UNL d   1      11.390   7.670  -6.508  0.00  0.00     0.005 A 
ATOM     11  C   UNL d   1      11.474   8.856  -5.821  0.00  0.00     0.055 A 
ATOM     12  C   UNL d   1      11.462   6.478  -5.826  0.00  0.00    -0.002 A 
ATOM     13  C   UNL d   1      11.433   9.941  -6.779  0.00  0.00     0.275 A 
ATOM     14  C   UNL d   1      11.627   8.966  -4.439  0.00  0.00     0.004 A 
ATOM     15  N   UNL d   1      11.292   9.371  -8.003  0.00  0.00    -0.232 NA
ATOM     16  O   UNL d   1      11.559  11.115  -6.458  0.00  0.00    -0.266 OA
ATOM     17  C   UNL d   1      11.697   7.761  -3.718  0.00  0.00     0.000 A 
ATOM     18  C   UNL d   1      11.601   6.524  -4.419  0.00  0.00    -0.000 A 
ENDBRANCH   8   9
ENDBRANCH   7   8
ENDBRANCH   4   7
BRANCH   1  19
ATOM     19  C   UNL d   1       6.995   3.565 -13.170  0.00  0.00     0.056 A 
ATOM     20  C   UNL d   1       5.848   2.909 -12.640  0.00  0.00     0.017 A 
ATOM     21  C   UNL d   1       5.333   1.756 -13.236  0.00  0.00    -0.003 A 
ATOM     22  C   UNL d   1       5.903   1.231 -14.421  0.00  0.00    -0.022 A 
ATOM     23  C   UNL d   1       5.247   0.080 -15.146  0.00  0.00     0.031 C 
ATOM     24  C   UNL d   1       7.027   1.867 -14.965  0.00  0.00    -0.003 A 
ATOM     25  C   UNL d   1       7.567   3.015 -14.350  0.00  0.00     0.017 A 
ENDBRANCH   1  19
TORSDOF 4
