REMARK  7 active torsions:
REMARK  status: ('A' for Active; 'I' for Inactive)
REMARK    1  A    between atoms: C_6  and  N_7 
REMARK    2  A    between atoms: N_10  and  C_11 
REMARK    3  A    between atoms: C_11  and  C_12 
REMARK    4  A    between atoms: C_12  and  C_13 
REMARK    5  A    between atoms: C_13  and  C_14 
REMARK    6  A    between atoms: C_14  and  O_15 
REMARK    7  A    between atoms: O_15  and  C_16 
ROOT
ATOM      1  C   UNL d   1      10.177   6.883 -10.529  0.00  0.00     0.251 C 
ENDROOT
BRANCH   1   2
ATOM      2  N   UNL d   1      10.574   8.251 -10.183  0.00  0.00     0.141 N 
ATOM      3  C   UNL d   1       9.601   8.954  -9.328  0.00  0.00     0.274 C 
ATOM      4  C   UNL d   1       9.422   8.271  -7.940  0.00  0.00     0.137 C 
ATOM      5  N   UNL d   1      10.738   8.089  -7.364  0.00  0.00    -0.344 N 
ATOM      6  C   UNL d   1      11.764   7.486  -8.174  0.00  0.00     0.137 C 
ATOM      7  C   UNL d   1      11.883   8.227  -9.520  0.00  0.00     0.274 C 
BRANCH   5   8
ATOM      8  C   UNL d   1      11.010   8.425  -6.027  0.00  0.00     0.052 A 
ATOM      9  C   UNL d   1      10.816   9.740  -5.657  0.00  0.00     0.017 A 
ATOM     10  C   UNL d   1      11.065  10.132  -4.334  0.00  0.00     0.001 A 
ATOM     11  C   UNL d   1      11.536   9.218  -3.386  0.00  0.00    -0.004 A 
ATOM     12  C   UNL d   1      11.753   7.886  -3.747  0.00  0.00    -0.024 A 
ATOM     13  C   UNL d   1      12.186   6.895  -2.674  0.00  0.00     0.031 C 
ATOM     14  C   UNL d   1      11.470   7.484  -5.087  0.00  0.00    -0.010 A 
ATOM     15  C   UNL d   1      11.621   6.042  -5.454  0.00  0.00     0.032 C 
ENDBRANCH   5   8
ENDBRANCH   1   2
BRANCH   1  16
ATOM     16  C   UNL d   1       9.118   6.835 -11.613  0.00  0.00     0.038 C 
BRANCH  16  17
ATOM     17  C   UNL d   1       8.689   5.381 -11.855  0.00  0.00     0.035 C 
BRANCH  17  18
ATOM     18  C   UNL d   1       7.625   5.277 -12.967  0.00  0.00     0.149 C 
BRANCH  18  19
ATOM     19  O   UNL d   1       7.548   3.959 -13.509  0.00  0.00    -0.331 OA
BRANCH  19  20
ATOM     20  C   UNL d   1       8.590   3.527 -14.307  0.00  0.00     0.096 A 
ATOM     21  C   UNL d   1       8.537   2.199 -14.795  0.00  0.00     0.043 A 
ATOM     22  C   UNL d   1       9.577   1.707 -15.611  0.00  0.00     0.082 A 
ATOM     23  C   UNL d   1      10.684   2.526 -15.924  0.00  0.00    -0.004 A 
ATOM     24  N   UNL d   1       9.514   0.389 -16.127  0.00  0.00    -0.212 NA
ATOM     25  C   UNL d   1      10.749   3.838 -15.437  0.00  0.00    -0.001 A 
ATOM     26  C   UNL d   1      11.808   1.981 -16.767  0.00  0.00     0.038 C 
ATOM     27  C   UNL d   1       9.707   4.334 -14.659  0.00  0.00     0.024 A 
ATOM     28  C   UNL d   1      11.291   0.927 -17.761  0.00  0.00     0.095 C 
ATOM     29  C   UNL d   1      10.308  -0.057 -17.111  0.00  0.00     0.256 C 
ATOM     30  O   UNL d   1      10.253  -1.218 -17.512  0.00  0.00    -0.270 OA
ENDBRANCH  19  20
ENDBRANCH  18  19
ENDBRANCH  17  18
ENDBRANCH  16  17
ENDBRANCH   1  16
TORSDOF 7
