REMARK  8 active torsions:
REMARK  status: ('A' for Active; 'I' for Inactive)
REMARK    1  A    between atoms: C_5  and  N_6 
REMARK    2  A    between atoms: N_9  and  C_10 
REMARK    3  A    between atoms: C_10  and  C_11 
REMARK    4  A    between atoms: C_11  and  C_12 
REMARK    5  A    between atoms: C_12  and  C_13 
REMARK    6  A    between atoms: C_13  and  N_14 
REMARK       I    between atoms: N_14  and  C_15 
REMARK    7  A    between atoms: C_15  and  C_17 
REMARK    8  A    between atoms: C_20  and  C_21 
ROOT
ATOM      1  C   UNL d   1       7.040   3.595 -12.727  0.00  0.00     0.029 C 
ENDROOT
BRANCH   1   2
ATOM      2  C   UNL d   1       6.378   2.943 -13.942  0.00  0.00     0.037 C 
BRANCH   2   3
ATOM      3  C   UNL d   1       6.210   1.414 -13.770  0.00  0.00     0.251 C 
BRANCH   3   4
ATOM      4  N   UNL d   1       5.642   0.781 -14.953  0.00  0.00     0.141 N 
ATOM      5  C   UNL d   1       5.113  -0.546 -14.622  0.00  0.00     0.274 C 
ATOM      6  C   UNL d   1       4.452  -1.189 -15.854  0.00  0.00     0.137 C 
ATOM      7  N   UNL d   1       5.406  -1.253 -16.958  0.00  0.00    -0.344 N 
ATOM      8  C   UNL d   1       6.051   0.021 -17.270  0.00  0.00     0.137 C 
ATOM      9  C   UNL d   1       6.661   0.639 -16.001  0.00  0.00     0.274 C 
BRANCH   7  10
ATOM     10  C   UNL d   1       5.704  -2.449 -17.656  0.00  0.00     0.056 A 
ATOM     11  C   UNL d   1       5.464  -3.720 -17.065  0.00  0.00     0.017 A 
ATOM     12  C   UNL d   1       5.759  -4.906 -17.760  0.00  0.00    -0.003 A 
ATOM     13  C   UNL d   1       6.319  -4.854 -19.047  0.00  0.00    -0.022 A 
ATOM     14  C   UNL d   1       6.626  -6.128 -19.795  0.00  0.00     0.031 C 
ATOM     15  C   UNL d   1       6.572  -3.606 -19.643  0.00  0.00    -0.003 A 
ATOM     16  C   UNL d   1       6.264  -2.417 -18.958  0.00  0.00     0.017 A 
ENDBRANCH   7  10
ENDBRANCH   3   4
ENDBRANCH   2   3
ENDBRANCH   1   2
BRANCH   1  17
ATOM     17  C   UNL d   1       6.942   5.123 -12.699  0.00  0.00     0.129 C 
BRANCH  17  18
ATOM     18  N   UNL d   1       7.647   5.660 -11.544  0.00  0.00    -0.234 NA
ATOM     19  C   UNL d   1       8.970   5.874 -11.477  0.00  0.00     0.275 C 
ATOM     20  O   UNL d   1       9.743   5.662 -12.414  0.00  0.00    -0.266 OA
BRANCH  19  21
ATOM     21  C   UNL d   1       9.461   6.405 -10.158  0.00  0.00     0.058 A 
ATOM     22  C   UNL d   1       9.062   5.787  -8.955  0.00  0.00     0.005 A 
ATOM     23  C   UNL d   1       9.536   6.270  -7.723  0.00  0.00     0.000 A 
ATOM     24  C   UNL d   1      10.428   7.358  -7.658  0.00  0.00     0.001 A 
ATOM     25  C   UNL d   1      10.834   7.976  -8.860  0.00  0.00     0.000 A 
ATOM     26  C   UNL d   1      10.349   7.500 -10.100  0.00  0.00     0.005 A 
BRANCH  24  27
ATOM     27  C   UNL d   1      10.927   7.816  -6.356  0.00  0.00     0.007 A 
ATOM     28  C   UNL d   1      11.345   7.028  -5.311  0.00  0.00     0.035 A 
ATOM     29  S   UNL d   1      11.853   7.961  -3.932  0.00  0.00    -0.086 SA
ATOM     30  C   UNL d   1      11.475   9.443  -4.760  0.00  0.00     0.035 A 
ATOM     31  C   UNL d   1      11.008   9.206  -6.028  0.00  0.00     0.007 A 
ENDBRANCH  24  27
ENDBRANCH  19  21
ENDBRANCH  17  18
ENDBRANCH   1  17
TORSDOF 8
