REMARK  5 active torsions:
REMARK  status: ('A' for Active; 'I' for Inactive)
REMARK    1  A    between atoms: C_8  and  N_9 
REMARK    2  A    between atoms: N_12  and  C_13 
REMARK    3  A    between atoms: C_13  and  C_14 
REMARK    4  A    between atoms: C_14  and  C_15 
REMARK    5  A    between atoms: C_15  and  C_16 
ROOT
ATOM      1  C   UNL d   1       8.799   5.769 -13.116  0.00  0.00     0.250 C 
ENDROOT
BRANCH   1   2
ATOM      2  N   UNL d   1       9.272   4.678 -13.972  0.00  0.00     0.141 N 
ATOM      3  C   UNL d   1       9.533   5.117 -15.349  0.00  0.00     0.274 C 
ATOM      4  C   UNL d   1       9.989   3.960 -16.245  0.00  0.00     0.137 C 
ATOM      5  N   UNL d   1       9.043   2.845 -16.184  0.00  0.00    -0.343 N 
ATOM      6  C   UNL d   1       8.685   2.440 -14.824  0.00  0.00     0.137 C 
ATOM      7  C   UNL d   1       8.230   3.653 -13.995  0.00  0.00     0.274 C 
BRANCH   5   8
ATOM      8  C   UNL d   1       8.444   2.278 -17.335  0.00  0.00     0.081 A 
ATOM      9  C   UNL d   1       7.173   1.628 -17.276  0.00  0.00     0.019 A 
ATOM     10  C   UNL d   1       6.577   1.040 -18.413  0.00  0.00     0.003 A 
ATOM     11  C   UNL d   1       7.212   1.091 -19.671  0.00  0.00     0.021 A 
ATOM     12  C   UNL d   1       8.450   1.750 -19.722  0.00  0.00     0.111 A 
ATOM     13  N   UNL d   1       9.306   1.963 -20.792  0.00  0.00    -0.184 NA
ATOM     14  C   UNL d   1       9.055   2.318 -18.617  0.00  0.00     0.138 A 
ATOM     15  C   UNL d   1      10.428   2.647 -20.352  0.00  0.00     0.392 A 
ATOM     16  O   UNL d   1      11.396   3.010 -21.013  0.00  0.00    -0.236 OA
ATOM     17  O   UNL d   1      10.257   2.849 -19.009  0.00  0.00    -0.255 OA
ENDBRANCH   5   8
ENDBRANCH   1   2
BRANCH   1  18
ATOM     18  C   UNL d   1       9.603   5.758 -11.816  0.00  0.00     0.035 C 
BRANCH  18  19
ATOM     19  C   UNL d   1       9.339   7.032 -11.003  0.00  0.00     0.003 C 
BRANCH  19  20
ATOM     20  C   UNL d   1      10.148   7.190  -9.700  0.00  0.00     0.006 C 
ATOM     21  C   UNL d   1      10.013   8.598  -9.037  0.00  0.00     0.045 C 
ATOM     22  C   UNL d   1      10.488   8.611  -7.606  0.00  0.00     0.055 A 
ATOM     23  C   UNL d   1      10.766   7.490  -6.898  0.00  0.00    -0.007 A 
ATOM     24  N   UNL d   1      10.706   9.700  -6.740  0.00  0.00    -0.250 NA
ATOM     25  C   UNL d   1      10.624   6.139  -7.421  0.00  0.00     0.028 C 
ATOM     26  C   UNL d   1      11.139   7.858  -5.574  0.00  0.00     0.017 A 
ATOM     27  C   UNL d   1       9.801   6.064  -8.698  0.00  0.00     0.005 C 
ATOM     28  C   UNL d   1      11.094   9.265  -5.508  0.00  0.00     0.081 A 
ATOM     29  C   UNL d   1      11.508   7.114  -4.445  0.00  0.00     0.031 A 
ATOM     30  C   UNL d   1      11.424   9.942  -4.308  0.00  0.00     0.021 A 
ATOM     31  C   UNL d   1      11.844   9.200  -3.206  0.00  0.00     0.031 A 
ATOM     32  C   UNL d   1      11.880   7.786  -3.256  0.00  0.00     0.140 A 
ATOM     33  F   UNL d   1      12.250   7.083  -2.156  0.00  0.00    -0.204 F 
ENDBRANCH  19  20
ENDBRANCH  18  19
ENDBRANCH   1  18
TORSDOF 5
