REMARK  8 active torsions:
REMARK  status: ('A' for Active; 'I' for Inactive)
REMARK    1  A    between atoms: C_6  and  C_7 
REMARK    2  A    between atoms: C_10  and  S_11 
REMARK    3  A    between atoms: S_11  and  C_12 
REMARK    4  A    between atoms: C_12  and  C_13 
REMARK    5  A    between atoms: C_13  and  C_14 
REMARK    6  A    between atoms: C_14  and  N_15 
REMARK    7  A    between atoms: C_20  and  C_21 
REMARK    8  A    between atoms: C_24  and  C_25 
ROOT
ATOM      1  N   UNL d   1       8.570   1.602 -14.890  0.00  0.00     0.137 N 
ATOM      2  C   UNL d   1       7.825   0.601 -14.149  0.00  0.00     0.250 C 
ATOM      3  C   UNL d   1       6.604   1.367 -13.670  0.00  0.00     0.038 C 
ATOM      4  C   UNL d   1       7.050   2.802 -13.571  0.00  0.00     0.037 A 
ATOM      5  C   UNL d   1       6.073   3.912 -13.881  0.00  0.00     0.007 A 
ATOM      6  C   UNL d   1       6.590   3.780 -12.475  0.00  0.00     0.024 A 
ATOM      7  C   UNL d   1       8.488   2.773 -14.057  0.00  0.00     0.251 C 
ENDROOT
BRANCH   1   8
ATOM      8  C   UNL d   1       9.938   1.176 -15.165  0.00  0.00     0.251 C 
BRANCH   8   9
ATOM      9  C   UNL d   1      10.489   1.936 -16.372  0.00  0.00     0.047 C 
BRANCH   9  10
ATOM     10  C   UNL d   1      11.859   1.407 -16.814  0.00  0.00     0.067 C 
BRANCH  10  11
ATOM     11  S   UNL d   1      12.362   1.997 -18.460  0.00  0.00    -0.075 SA
BRANCH  11  12
ATOM     12  C   UNL d   1      12.689   3.694 -18.105  0.00  0.00     0.193 A 
ATOM     13  N   UNL d   1      12.684   4.242 -16.887  0.00  0.00    -0.122 NA
ATOM     14  N   UNL d   1      12.928   5.578 -17.088  0.00  0.00    -0.128 NA
ATOM     15  C   UNL d   1      13.069   5.738 -18.410  0.00  0.00     0.174 A 
ATOM     16  N   UNL d   1      12.973   4.568 -19.088  0.00  0.00    -0.288 N 
ATOM     17  C   UNL d   1      13.149   4.284 -20.508  0.00  0.00     0.134 C 
BRANCH  15  18
ATOM     18  C   UNL d   1      13.371   7.047 -18.982  0.00  0.00     0.080 A 
ATOM     19  C   UNL d   1      12.934   7.653 -20.143  0.00  0.00     0.069 A 
ATOM     20  C   UNL d   1      11.946   7.138 -21.147  0.00  0.00     0.053 C 
ATOM     21  N   UNL d   1      13.509   8.908 -20.363  0.00  0.00    -0.241 NA
ATOM     22  C   UNL d   1      14.303   9.278 -19.360  0.00  0.00     0.134 A 
ATOM     23  S   UNL d   1      14.448   8.091 -18.080  0.00  0.00    -0.062 SA
ENDBRANCH  15  18
ENDBRANCH  11  12
ENDBRANCH  10  11
ENDBRANCH   9  10
ENDBRANCH   8   9
ENDBRANCH   1   8
BRANCH   6  24
ATOM     24  C   UNL d   1       7.535   4.793 -11.880  0.00  0.00    -0.022 A 
ATOM     25  C   UNL d   1       7.892   4.713 -10.522  0.00  0.00    -0.004 A 
ATOM     26  C   UNL d   1       8.787   5.608  -9.908  0.00  0.00     0.004 A 
ATOM     27  C   UNL d   1       9.335   6.659 -10.675  0.00  0.00     0.071 A 
ATOM     28  C   UNL d   1       8.994   6.766 -12.034  0.00  0.00     0.004 A 
ATOM     29  C   UNL d   1       8.111   5.853 -12.639  0.00  0.00    -0.004 A 
BRANCH  27  30
ATOM     30  C   UNL d   1      10.235   7.684 -10.019  0.00  0.00     0.419 C 
ATOM     31  F   UNL d   1      11.476   7.209  -9.927  0.00  0.00    -0.166 F 
ATOM     32  F   UNL d   1      10.271   8.790 -10.758  0.00  0.00    -0.166 F 
ATOM     33  F   UNL d   1       9.794   8.010  -8.799  0.00  0.00    -0.166 F 
ENDBRANCH  27  30
ENDBRANCH   6  24
TORSDOF 8
