REMARK  6 active torsions:
REMARK  status: ('A' for Active; 'I' for Inactive)
REMARK    1  A    between atoms: O_2  and  C_3 
REMARK    2  A    between atoms: C_6  and  O_7 
REMARK    3  A    between atoms: O_7  and  C_8 
REMARK    4  A    between atoms: C_8  and  C_10 
REMARK    5  A    between atoms: C_10  and  N_11 
REMARK       I    between atoms: N_14  and  C_15 
REMARK    6  A    between atoms: C_15  and  C_17 
ROOT
ATOM      1  N   UNL d   1       7.897   4.553 -11.552  0.00  0.00     0.144 N 
ATOM      2  C   UNL d   1       8.042   4.839 -10.131  0.00  0.00     0.274 C 
ATOM      3  C   UNL d   1       9.414   5.346  -9.743  0.00  0.00     0.140 C 
ATOM      4  N   UNL d   1       9.718   6.560 -10.502  0.00  0.00    -0.311 N 
ATOM      5  C   UNL d   1      10.159   7.742  -9.972  0.00  0.00     0.275 C 
ATOM      6  O   UNL d   1      10.249   8.763 -10.638  0.00  0.00    -0.266 OA
ATOM      7  C   UNL d   1       9.511   6.377 -11.945  0.00  0.00     0.140 C 
ATOM      8  C   UNL d   1       8.112   5.824 -12.244  0.00  0.00     0.274 C 
ENDROOT
BRANCH   1   9
ATOM      9  C   UNL d   1       6.543   4.016 -11.775  0.00  0.00     0.280 C 
BRANCH   9  10
ATOM     10  C   UNL d   1       6.487   3.155 -13.043  0.00  0.00     0.155 C 
ATOM     11  C   UNL d   1       6.097   3.947 -14.274  0.00  0.00     0.035 C 
BRANCH  10  12
ATOM     12  O   UNL d   1       5.532   2.086 -12.904  0.00  0.00    -0.331 OA
BRANCH  12  13
ATOM     13  C   UNL d   1       5.545   1.042 -13.817  0.00  0.00     0.094 A 
ATOM     14  C   UNL d   1       4.396   0.221 -13.873  0.00  0.00     0.026 A 
ATOM     15  C   UNL d   1       4.288  -0.820 -14.817  0.00  0.00     0.026 A 
ATOM     16  C   UNL d   1       5.324  -1.062 -15.727  0.00  0.00     0.094 A 
ATOM     17  C   UNL d   1       6.497  -0.272 -15.650  0.00  0.00     0.026 A 
ATOM     18  C   UNL d   1       6.604   0.766 -14.712  0.00  0.00     0.026 A 
BRANCH  16  19
ATOM     19  O   UNL d   1       5.164  -2.079 -16.641  0.00  0.00    -0.328 OA
ATOM     20  C   UNL d   1       5.705  -1.864 -17.939  0.00  0.00     0.181 C 
ENDBRANCH  16  19
ENDBRANCH  12  13
ENDBRANCH  10  12
ENDBRANCH   9  10
ENDBRANCH   1   9
BRANCH   5  21
ATOM     21  C   UNL d   1      10.542   7.800  -8.537  0.00  0.00     0.137 A 
ATOM     22  N   UNL d   1      10.675   9.059  -7.960  0.00  0.00    -0.241 NA
ATOM     23  C   UNL d   1      11.036   8.959  -6.626  0.00  0.00     0.082 A 
ATOM     24  C   UNL d   1      11.136   7.565  -6.369  0.00  0.00     0.019 A 
ATOM     25  C   UNL d   1      11.297   9.916  -5.623  0.00  0.00     0.019 A 
ATOM     26  C   UNL d   1      10.891   6.863  -7.591  0.00  0.00     0.025 A 
ATOM     27  C   UNL d   1      11.456   7.153  -5.064  0.00  0.00     0.002 A 
ATOM     28  C   UNL d   1      11.742   8.090  -4.050  0.00  0.00     0.000 A 
ATOM     29  C   UNL d   1      11.658   9.473  -4.329  0.00  0.00     0.002 A 
ENDBRANCH   5  21
TORSDOF 6
