REMARK  8 active torsions:
REMARK  status: ('A' for Active; 'I' for Inactive)
REMARK    1  A    between atoms: O_2  and  C_3 
REMARK    2  A    between atoms: C_8  and  N_9 
REMARK    3  A    between atoms: N_12  and  C_13 
REMARK    4  A    between atoms: C_13  and  C_14 
REMARK    5  A    between atoms: C_14  and  C_15 
REMARK    6  A    between atoms: C_15  and  O_16 
REMARK    7  A    between atoms: O_16  and  C_17 
REMARK    8  A    between atoms: C_20  and  C_21 
ROOT
ATOM      1  C   UNL d   1       8.067   5.957 -12.195  0.00  0.00     0.151 C 
ENDROOT
BRANCH   1   2
ATOM      2  C   UNL d   1       8.747   4.653 -12.629  0.00  0.00     0.068 C 
BRANCH   2   3
ATOM      3  C   UNL d   1       9.463   4.771 -13.995  0.00  0.00     0.253 C 
BRANCH   3   4
ATOM      4  N   UNL d   1      10.072   3.514 -14.437  0.00  0.00     0.141 N 
ATOM      5  C   UNL d   1       9.066   2.455 -14.604  0.00  0.00     0.274 C 
ATOM      6  C   UNL d   1       9.736   1.136 -15.004  0.00  0.00     0.137 C 
ATOM      7  N   UNL d   1      10.502   1.314 -16.228  0.00  0.00    -0.343 N 
ATOM      8  C   UNL d   1      11.452   2.425 -16.205  0.00  0.00     0.137 C 
ATOM      9  C   UNL d   1      10.748   3.721 -15.729  0.00  0.00     0.274 C 
BRANCH   7  10
ATOM     10  C   UNL d   1      10.254   0.572 -17.386  0.00  0.00     0.079 A 
ATOM     11  C   UNL d   1       8.934   0.269 -17.838  0.00  0.00     0.110 A 
ATOM     12  C   UNL d   1       8.765  -0.525 -18.998  0.00  0.00     0.026 A 
ATOM     13  C   UNL d   1       9.879  -0.987 -19.719  0.00  0.00     0.002 A 
ATOM     14  C   UNL d   1      11.176  -0.682 -19.282  0.00  0.00     0.002 A 
ATOM     15  C   UNL d   1      11.364   0.088 -18.122  0.00  0.00     0.019 A 
BRANCH  11  16
ATOM     16  O   UNL d   1       7.867   0.803 -17.142  0.00  0.00    -0.327 OA
ATOM     17  C   UNL d   1       6.557   0.370 -17.466  0.00  0.00     0.181 C 
ENDBRANCH  11  16
ENDBRANCH   7  10
ENDBRANCH   3   4
ENDBRANCH   2   3
ENDBRANCH   1   2
BRANCH   1  18
ATOM     18  O   UNL d   1       9.046   6.932 -11.863  0.00  0.00    -0.331 OA
BRANCH  18  19
ATOM     19  C   UNL d   1       9.485   7.025 -10.559  0.00  0.00     0.094 A 
ATOM     20  C   UNL d   1       9.171   6.102  -9.527  0.00  0.00     0.024 A 
ATOM     21  C   UNL d   1       9.598   6.352  -8.209  0.00  0.00     0.005 A 
ATOM     22  C   UNL d   1      10.358   7.503  -7.906  0.00  0.00     0.036 A 
ATOM     23  C   UNL d   1      10.704   8.397  -8.937  0.00  0.00     0.005 A 
ATOM     24  C   UNL d   1      10.266   8.154 -10.251  0.00  0.00     0.024 A 
BRANCH  22  25
ATOM     25  C   UNL d   1      10.807   7.749  -6.546  0.00  0.00     0.162 A 
ATOM     26  N   UNL d   1      11.176   6.758  -5.713  0.00  0.00    -0.225 NA
ATOM     27  C   UNL d   1      11.548   7.321  -4.514  0.00  0.00     0.101 A 
ATOM     28  C   UNL d   1      11.370   8.714  -4.736  0.00  0.00     0.101 A 
ATOM     29  C   UNL d   1      12.015   6.813  -3.287  0.00  0.00     0.021 A 
ATOM     30  N   UNL d   1      10.904   8.971  -6.013  0.00  0.00    -0.225 NA
ATOM     31  C   UNL d   1      11.632   9.592  -3.666  0.00  0.00     0.021 A 
ATOM     32  C   UNL d   1      12.097   9.090  -2.434  0.00  0.00     0.002 A 
ATOM     33  C   UNL d   1      12.288   7.709  -2.243  0.00  0.00     0.002 A 
ENDBRANCH  22  25
ENDBRANCH  18  19
ENDBRANCH   1  18
TORSDOF 8
