REMARK  6 active torsions:
REMARK  status: ('A' for Active; 'I' for Inactive)
REMARK    1  A    between atoms: C_2  and  C_3 
REMARK    2  A    between atoms: N_12  and  C_13 
REMARK    3  A    between atoms: C_13  and  C_14 
REMARK    4  A    between atoms: C_14  and  C_15 
REMARK    5  A    between atoms: C_15  and  C_16 
REMARK    6  A    between atoms: C_16  and  C_17 
ROOT
ATOM      1  O   UNL d   1       6.893   6.130 -12.396  0.00  0.00    -0.221 OA
ATOM      2  C   UNL d   1       8.076   5.341 -12.317  0.00  0.00     0.149 C 
ATOM      3  C   UNL d   1       9.284   6.294 -12.394  0.00  0.00     0.070 C 
ATOM      4  C   UNL d   1       9.404   7.295 -11.274  0.00  0.00     0.253 C 
ATOM      5  N   UNL d   1       9.539   6.553 -10.034  0.00  0.00     0.137 N 
ATOM      6  C   UNL d   1       8.344   5.739  -9.804  0.00  0.00     0.253 C 
ATOM      7  C   UNL d   1       8.152   4.700 -10.921  0.00  0.00     0.070 C 
ENDROOT
BRANCH   5   8
ATOM      8  C   UNL d   1       9.666   7.529  -8.974  0.00  0.00     0.250 C 
BRANCH   8   9
ATOM      9  C   UNL d   1      11.124   8.019  -8.850  0.00  0.00     0.036 C 
BRANCH   9  10
ATOM     10  C   UNL d   1      11.485   8.548  -7.452  0.00  0.00     0.007 C 
BRANCH  10  11
ATOM     11  C   UNL d   1      10.775   7.791  -6.312  0.00  0.00     0.026 C 
BRANCH  11  12
ATOM     12  C   UNL d   1      11.390   8.001  -4.965  0.00  0.00    -0.022 A 
ATOM     13  C   UNL d   1      11.526   9.303  -4.460  0.00  0.00    -0.002 A 
ATOM     14  C   UNL d   1      12.081   9.478  -3.188  0.00  0.00     0.029 A 
ATOM     15  C   UNL d   1      12.483   8.359  -2.439  0.00  0.00     0.140 A 
ATOM     16  C   UNL d   1      12.313   7.055  -2.931  0.00  0.00     0.029 A 
ATOM     17  F   UNL d   1      13.056   8.543  -1.240  0.00  0.00    -0.204 F 
ATOM     18  C   UNL d   1      11.766   6.879  -4.209  0.00  0.00    -0.002 A 
ENDBRANCH  11  12
ENDBRANCH  10  11
ENDBRANCH   9  10
ENDBRANCH   8   9
ENDBRANCH   5   8
BRANCH   2  19
ATOM     19  C   UNL d   1       8.103   4.274 -13.427  0.00  0.00     0.005 A 
ATOM     20  C   UNL d   1       9.179   4.153 -14.345  0.00  0.00    -0.001 A 
ATOM     21  C   UNL d   1       9.179   3.153 -15.326  0.00  0.00     0.011 A 
ATOM     22  C   UNL d   1       8.100   2.256 -15.434  0.00  0.00     0.058 A 
ATOM     23  C   UNL d   1       7.018   2.368 -14.539  0.00  0.00     0.011 A 
ATOM     24 CL   UNL d   1       8.085   1.067 -16.687  0.00  0.00    -0.082 Cl
ATOM     25  C   UNL d   1       7.012   3.381 -13.556  0.00  0.00    -0.001 A 
ENDBRANCH   2  19
TORSDOF 6
