REMARK  4 active torsions:
REMARK  status: ('A' for Active; 'I' for Inactive)
REMARK    1  A    between atoms: C_8  and  N_9 
REMARK    2  A    between atoms: N_12  and  C_13 
REMARK    3  A    between atoms: C_13  and  C_14 
REMARK    4  A    between atoms: C_14  and  C_15 
ROOT
ATOM      1 CL   UNL d   1       4.601   3.971 -13.244  0.00  0.00    -0.082 Cl
ATOM      2  C   UNL d   1       6.168   3.498 -13.553  0.00  0.00     0.058 A 
ATOM      3  C   UNL d   1       6.420   2.232 -14.074  0.00  0.00     0.013 A 
ATOM      4  C   UNL d   1       7.745   1.875 -14.393  0.00  0.00     0.020 A 
ATOM      5  C   UNL d   1       8.787   2.788 -14.106  0.00  0.00     0.086 A 
ATOM      6  C   UNL d   1       8.513   4.057 -13.527  0.00  0.00     0.052 A 
ATOM      7  C   UNL d   1       7.174   4.410 -13.279  0.00  0.00     0.016 A 
ATOM      8  C   UNL d   1       9.543   5.020 -13.072  0.00  0.00     0.142 C 
ATOM      9  N   UNL d   1      10.655   5.182 -13.709  0.00  0.00    -0.226 NA
ATOM     10  C   UNL d   1      11.072   4.580 -14.890  0.00  0.00     0.119 A 
ATOM     11  C   UNL d   1      11.879   5.340 -15.764  0.00  0.00     0.024 A 
ATOM     12  C   UNL d   1      12.455   4.719 -16.884  0.00  0.00     0.022 A 
ATOM     13  C   UNL d   1      12.212   3.350 -17.085  0.00  0.00     0.101 A 
ATOM     14  N   UNL d   1      11.438   2.610 -16.268  0.00  0.00    -0.224 NA
ATOM     15  C   UNL d   1      10.878   3.222 -15.212  0.00  0.00     0.180 A 
ATOM     16  N   UNL d   1      10.072   2.401 -14.447  0.00  0.00    -0.225 NA
ENDROOT
BRANCH   8  17
ATOM     17  N   UNL d   1       9.270   5.713 -11.879  0.00  0.00    -0.330 N 
ATOM     18  C   UNL d   1       8.690   5.071 -10.709  0.00  0.00     0.138 C 
ATOM     19  C   UNL d   1       9.557   5.289  -9.479  0.00  0.00     0.274 C 
ATOM     20  N   UNL d   1       9.733   6.718  -9.230  0.00  0.00     0.141 N 
ATOM     21  C   UNL d   1      10.419   7.319 -10.368  0.00  0.00     0.274 C 
ATOM     22  C   UNL d   1       9.556   7.129 -11.640  0.00  0.00     0.138 C 
BRANCH  20  23
ATOM     23  C   UNL d   1      10.503   6.876  -8.024  0.00  0.00     0.255 C 
BRANCH  23  24
ATOM     24  C   UNL d   1      10.229   8.200  -7.296  0.00  0.00     0.062 C 
BRANCH  24  25
ATOM     25  C   UNL d   1      10.867   8.270  -5.904  0.00  0.00    -0.020 A 
ATOM     26  C   UNL d   1      11.333   7.117  -5.220  0.00  0.00    -0.004 A 
ATOM     27  C   UNL d   1      11.874   7.201  -3.935  0.00  0.00    -0.000 A 
ATOM     28  C   UNL d   1      11.964   8.447  -3.288  0.00  0.00    -0.000 A 
ATOM     29  C   UNL d   1      11.493   9.596  -3.942  0.00  0.00    -0.000 A 
ATOM     30  C   UNL d   1      10.963   9.523  -5.248  0.00  0.00    -0.004 A 
ENDBRANCH  24  25
ENDBRANCH  23  24
ENDBRANCH  20  23
ENDBRANCH   8  17
TORSDOF 4
