REMARK  7 active torsions:
REMARK  status: ('A' for Active; 'I' for Inactive)
REMARK    1  A    between atoms: O_2  and  C_3 
REMARK    2  A    between atoms: C_3  and  C_5 
REMARK       I    between atoms: C_5  and  N_7 
REMARK    3  A    between atoms: N_7  and  C_8 
REMARK    4  A    between atoms: C_11  and  C_12 
REMARK    5  A    between atoms: C_12  and  C_13 
REMARK    6  A    between atoms: C_13  and  N_14 
REMARK    7  A    between atoms: N_17  and  C_18 
ROOT
ATOM      1  N   UNL d   1       9.150   5.709 -10.065  0.00  0.00     0.141 N 
ATOM      2  C   UNL d   1      10.433   6.387  -9.912  0.00  0.00     0.274 C 
ATOM      3  C   UNL d   1      10.416   7.523  -8.908  0.00  0.00     0.138 C 
ATOM      4  N   UNL d   1       9.923   7.045  -7.630  0.00  0.00    -0.330 N 
ATOM      5  C   UNL d   1       8.693   6.287  -7.694  0.00  0.00     0.138 C 
ATOM      6  C   UNL d   1       8.802   5.156  -8.746  0.00  0.00     0.274 C 
ENDROOT
BRANCH   1   7
ATOM      7  C   UNL d   1       9.257   4.595 -11.006  0.00  0.00     0.250 C 
BRANCH   7   8
ATOM      8  C   UNL d   1       9.668   5.049 -12.420  0.00  0.00     0.035 C 
BRANCH   8   9
ATOM      9  C   UNL d   1       9.803   3.890 -13.411  0.00  0.00     0.002 C 
ATOM     10  C   UNL d   1       8.430   3.533 -14.001  0.00  0.00     0.002 C 
ATOM     11  C   UNL d   1       8.537   2.430 -15.056  0.00  0.00     0.024 C 
ATOM     12  C   UNL d   1       9.535   2.819 -16.165  0.00  0.00     0.106 C 
ATOM     13  C   UNL d   1      10.912   3.150 -15.577  0.00  0.00     0.024 C 
ATOM     14  C   UNL d   1      10.803   4.256 -14.527  0.00  0.00     0.002 C 
BRANCH  12  15
ATOM     15  N   UNL d   1       9.673   1.730 -17.125  0.00  0.00    -0.238 NA
ATOM     16  C   UNL d   1       9.021   1.665 -18.294  0.00  0.00     0.279 C 
ATOM     17  O   UNL d   1       8.282   2.562 -18.701  0.00  0.00    -0.268 OA
BRANCH  16  18
ATOM     18  C   UNL d   1       9.205   0.373 -19.106  0.00  0.00     0.195 C 
ATOM     19  C   UNL d   1       8.580   0.449 -20.519  0.00  0.00     0.042 C 
BRANCH  18  20
ATOM     20  O   UNL d   1       8.716  -0.757 -18.372  0.00  0.00    -0.345 OA
ATOM     21  C   UNL d   1       7.316  -0.768 -18.066  0.00  0.00     0.175 C 
ENDBRANCH  18  20
ENDBRANCH  16  18
ENDBRANCH  12  15
ENDBRANCH   8   9
ENDBRANCH   7   8
ENDBRANCH   1   7
BRANCH   4  22
ATOM     22  C   UNL d   1      10.568   7.361  -6.420  0.00  0.00     0.138 A 
ATOM     23  C   UNL d   1      11.233   8.563  -6.164  0.00  0.00     0.036 A 
ATOM     24  C   UNL d   1      11.874   8.780  -4.958  0.00  0.00     0.095 A 
ATOM     25  C   UNL d   1      11.300   9.762  -7.013  0.00  0.00     0.064 C 
ATOM     26  C   UNL d   1      11.953   7.785  -3.989  0.00  0.00     0.045 A 
ATOM     27  O   UNL d   1      12.412   9.989  -4.874  0.00  0.00    -0.331 OA
ATOM     28  C   UNL d   1      11.292   6.596  -4.335  0.00  0.00     0.103 A 
ATOM     29  N   UNL d   1      10.587   6.425  -5.460  0.00  0.00    -0.228 NA
ATOM     30  C   UNL d   1      11.961  10.739  -6.015  0.00  0.00     0.154 C 
ENDBRANCH   4  22
TORSDOF 7
