REMARK  9 active torsions:
REMARK  status: ('A' for Active; 'I' for Inactive)
REMARK    1  A    between atoms: C_7  and  O_8 
REMARK    2  A    between atoms: O_8  and  C_9 
REMARK    3  A    between atoms: C_9  and  C_10 
REMARK    4  A    between atoms: C_10  and  C_11 
REMARK    5  A    between atoms: C_11  and  C_12 
REMARK    6  A    between atoms: C_12  and  C_13 
REMARK    7  A    between atoms: C_13  and  C_14 
REMARK    8  A    between atoms: C_14  and  N_15 
REMARK    9  A    between atoms: N_18  and  C_19 
ROOT
ATOM      1  C   UNL d   1       8.428   4.382 -13.349  0.00  0.00     0.035 C 
ENDROOT
BRANCH   1   2
ATOM      2  C   UNL d   1       9.549   5.027 -12.505  0.00  0.00     0.002 C 
BRANCH   2   3
ATOM      3  C   UNL d   1       9.114   6.379 -11.912  0.00  0.00     0.003 C 
BRANCH   3   4
ATOM      4  C   UNL d   1      10.025   6.829 -10.755  0.00  0.00     0.033 C 
BRANCH   4   5
ATOM      5  C   UNL d   1       9.553   8.134 -10.098  0.00  0.00     0.149 C 
BRANCH   5   6
ATOM      6  O   UNL d   1      10.582   8.769  -9.350  0.00  0.00    -0.331 OA
BRANCH   6   7
ATOM      7  C   UNL d   1      10.731   8.358  -8.048  0.00  0.00     0.094 A 
ATOM      8  C   UNL d   1      11.425   9.197  -7.157  0.00  0.00     0.021 A 
ATOM      9  C   UNL d   1      11.585   8.835  -5.808  0.00  0.00    -0.002 A 
ATOM     10  C   UNL d   1      12.234   9.746  -4.809  0.00  0.00     0.038 C 
ATOM     11  C   UNL d   1      11.105   7.590  -5.354  0.00  0.00     0.081 A 
ATOM     12  C   UNL d   1      12.891   8.924  -3.706  0.00  0.00     0.095 C 
ATOM     13  C   UNL d   1      12.061   7.793  -3.150  0.00  0.00     0.256 C 
ATOM     14  O   UNL d   1      12.075   7.520  -1.959  0.00  0.00    -0.270 OA
ATOM     15  N   UNL d   1      11.325   7.137  -4.041  0.00  0.00    -0.212 NA
ATOM     16  C   UNL d   1      10.356   6.806  -6.217  0.00  0.00     0.021 A 
ATOM     17  C   UNL d   1      10.183   7.148  -7.548  0.00  0.00     0.026 A 
ENDBRANCH   6   7
ENDBRANCH   5   6
ENDBRANCH   4   5
ENDBRANCH   3   4
ENDBRANCH   2   3
ENDBRANCH   1   2
BRANCH   1  18
ATOM     18  C   UNL d   1       8.681   2.897 -13.627  0.00  0.00     0.250 C 
BRANCH  18  19
ATOM     19  N   UNL d   1       7.459   2.167 -14.039  0.00  0.00     0.141 N 
ATOM     20  C   UNL d   1       7.586   0.712 -13.969  0.00  0.00     0.274 C 
ATOM     21  C   UNL d   1       8.658   0.270 -14.983  0.00  0.00     0.138 C 
ATOM     22  N   UNL d   1       8.299   0.823 -16.288  0.00  0.00    -0.329 N 
ATOM     23  C   UNL d   1       7.921   2.222 -16.369  0.00  0.00     0.138 C 
ATOM     24  C   UNL d   1       6.880   2.544 -15.269  0.00  0.00     0.274 C 
BRANCH  22  25
ATOM     25  C   UNL d   1       8.186  -0.029 -17.382  0.00  0.00     0.148 A 
ATOM     26  C   UNL d   1       6.930  -0.216 -18.102  0.00  0.00     0.042 A 
ATOM     27  C   UNL d   1       7.170  -1.114 -19.180  0.00  0.00     0.050 A 
ATOM     28  C   UNL d   1       5.618   0.268 -17.944  0.00  0.00     0.004 A 
ATOM     29  S   UNL d   1       8.857  -1.563 -19.157  0.00  0.00     0.015 SA
ATOM     30  C   UNL d   1       6.140  -1.509 -20.054  0.00  0.00     0.008 A 
ATOM     31  N   UNL d   1       9.248  -0.689 -17.794  0.00  0.00    -0.192 NA
ATOM     32  C   UNL d   1       4.841  -1.016 -19.871  0.00  0.00     0.001 A 
ATOM     33  C   UNL d   1       4.574  -0.121 -18.817  0.00  0.00     0.000 A 
ENDBRANCH  22  25
ENDBRANCH  18  19
ENDBRANCH   1  18
TORSDOF 9
