REMARK  1 active torsions:
REMARK  status: ('A' for Active; 'I' for Inactive)
REMARK    1  A    between atoms: C_14  and  C_15 
ROOT
ATOM      1  C   UNL d   1       5.128  -0.808 -14.646  0.00  0.00     0.121 C 
ATOM      2  N   UNL d   1       6.106  -0.406 -13.628  0.00  0.00    -0.366 N 
ATOM      3  C   UNL d   1       5.601   0.434 -12.540  0.00  0.00     0.102 C 
ATOM      4  C   UNL d   1       5.226   1.839 -13.027  0.00  0.00     0.050 C 
ATOM      5  C   UNL d   1       6.351   2.848 -13.203  0.00  0.00    -0.022 A 
ATOM      6  C   UNL d   1       6.371   3.980 -12.365  0.00  0.00     0.022 A 
ATOM      7  C   UNL d   1       7.491   4.810 -12.371  0.00  0.00     0.119 A 
ATOM      8  O   UNL d   1       7.760   5.919 -11.593  0.00  0.00    -0.285 OA
ATOM      9  C   UNL d   1       8.988   6.318 -12.040  0.00  0.00     0.225 A 
ATOM     10  N   UNL d   1       9.564   5.561 -12.982  0.00  0.00    -0.217 NA
ATOM     11  C   UNL d   1       8.608   4.585 -13.211  0.00  0.00     0.106 A 
ATOM     12  C   UNL d   1       8.558   3.464 -14.065  0.00  0.00     0.017 A 
ATOM     13  C   UNL d   1       7.441   2.590 -14.067  0.00  0.00    -0.019 A 
ATOM     14  C   UNL d   1       7.428   1.350 -14.988  0.00  0.00     0.066 C 
ATOM     15  C   UNL d   1       7.385   0.013 -14.197  0.00  0.00     0.106 C 
ENDROOT
BRANCH  14  16
ATOM     16  C   UNL d   1       8.567   1.335 -16.024  0.00  0.00    -0.017 A 
ATOM     17  C   UNL d   1       8.507   2.226 -17.120  0.00  0.00    -0.004 A 
ATOM     18  C   UNL d   1       9.534   2.271 -18.081  0.00  0.00    -0.000 A 
ATOM     19  C   UNL d   1      10.616   1.381 -17.986  0.00  0.00    -0.000 A 
ATOM     20  C   UNL d   1      10.676   0.469 -16.919  0.00  0.00    -0.000 A 
ATOM     21  C   UNL d   1       9.675   0.456 -15.927  0.00  0.00    -0.004 A 
ENDBRANCH  14  16
TORSDOF 1
