REMARK  11 active torsions:
REMARK  status: ('A' for Active; 'I' for Inactive)
REMARK    1  A    between atoms: C_2  and  N_3 
REMARK    2  A    between atoms: C_5  and  C_6 
REMARK    3  A    between atoms: C_6  and  O_7 
REMARK    4  A    between atoms: C_10  and  O_11 
REMARK    5  A    between atoms: C_16  and  O_17 
REMARK    6  A    between atoms: C_26  and  O_27 
REMARK    7  A    between atoms: C_31  and  O_32 
REMARK    8  A    between atoms: O_32  and  C_33 
REMARK    9  A    between atoms: C_37  and  O_38 
REMARK   10  A    between atoms: O_38  and  C_39 
REMARK   11  A    between atoms: C_39  and  C_41 
ROOT
ATOM      1  N   UNL d   1      13.501   3.613 -19.291  0.00  0.00     0.135 N 
ATOM      2  C   UNL d   1      13.538   4.978 -19.853  0.00  0.00     0.255 C 
ATOM      3  C   UNL d   1      12.962   6.052 -18.859  0.00  0.00     0.089 C 
ATOM      4  C   UNL d   1      11.632   5.457 -18.287  0.00  0.00     0.038 C 
ATOM      5  C   UNL d   1      10.631   4.903 -19.322  0.00  0.00     0.120 C 
ATOM      6  C   UNL d   1      10.979   3.394 -19.396  0.00  0.00     0.087 C 
ATOM      7  C   UNL d   1      12.277   3.246 -18.554  0.00  0.00     0.226 C 
ATOM      8  C   UNL d   1      11.947   4.202 -17.389  0.00  0.00     0.058 C 
ATOM      9  C   UNL d   1      13.089   4.471 -16.342  0.00  0.00     0.120 C 
ATOM     10  C   UNL d   1      14.364   5.146 -16.877  0.00  0.00     0.063 C 
ATOM     11  C   UNL d   1      14.041   6.351 -17.761  0.00  0.00     0.159 C 
ATOM     12  O   UNL d   1      15.238   6.869 -18.265  0.00  0.00    -0.223 OA
ATOM     13  C   UNL d   1      10.752   3.508 -16.596  0.00  0.00     0.012 C 
ATOM     14  C   UNL d   1      11.116   2.210 -15.843  0.00  0.00     0.036 C 
ATOM     15  C   UNL d   1       9.974   1.207 -16.102  0.00  0.00     0.179 C 
ATOM     16  O   UNL d   1       9.868   0.451 -14.912  0.00  0.00    -0.221 OA
ATOM     17  C   UNL d   1      10.293   0.288 -17.301  0.00  0.00     0.178 C 
ATOM     18  C   UNL d   1      10.073   0.961 -18.681  0.00  0.00     0.207 C 
ATOM     19  O   UNL d   1      11.147   0.479 -19.489  0.00  0.00    -0.218 OA
ATOM     20  C   UNL d   1       9.815   2.525 -18.767  0.00  0.00     0.138 C 
ATOM     21  C   UNL d   1       9.466   3.118 -17.362  0.00  0.00     0.059 C 
ATOM     22  C   UNL d   1       8.784   2.128 -16.392  0.00  0.00     0.157 C 
ENDROOT
BRANCH  22  23
ATOM     23  O   UNL d   1       7.663   1.511 -17.016  0.00  0.00    -0.298 OA
BRANCH  23  24
ATOM     24  C   UNL d   1       6.776   0.783 -16.284  0.00  0.00     0.296 C 
ATOM     25  O   UNL d   1       6.782   0.702 -15.084  0.00  0.00    -0.259 OA
BRANCH  24  26
ATOM     26  C   UNL d   1       5.793   0.096 -17.193  0.00  0.00     0.063 A 
ATOM     27  C   UNL d   1       4.946  -0.921 -16.657  0.00  0.00     0.005 A 
ATOM     28  C   UNL d   1       4.020  -1.572 -17.506  0.00  0.00     0.000 A 
ATOM     29  C   UNL d   1       3.923  -1.222 -18.859  0.00  0.00     0.000 A 
ATOM     30  C   UNL d   1       4.760  -0.213 -19.386  0.00  0.00     0.000 A 
ATOM     31  C   UNL d   1       5.682   0.427 -18.548  0.00  0.00     0.005 A 
ENDBRANCH  24  26
ENDBRANCH  23  24
ENDBRANCH  22  23
BRANCH  17  32
ATOM     32  O   UNL d   1       9.394  -0.827 -17.243  0.00  0.00    -0.349 OA
ATOM     33  C   UNL d   1       9.655  -1.868 -18.162  0.00  0.00     0.174 C 
ENDBRANCH  17  32
BRANCH  20  34
ATOM     34  O   UNL d   1       8.578   2.721 -19.504  0.00  0.00    -0.304 OA
BRANCH  34  35
ATOM     35  C   UNL d   1       8.335   2.365 -20.802  0.00  0.00     0.272 C 
ATOM     36  C   UNL d   1       9.544   1.871 -21.630  0.00  0.00     0.106 C 
ATOM     37  O   UNL d   1       7.204   2.439 -21.318  0.00  0.00    -0.264 OA
ENDBRANCH  34  35
ENDBRANCH  20  34
BRANCH   9  38
ATOM     38  O   UNL d   1      12.589   5.241 -15.236  0.00  0.00    -0.354 OA
ATOM     39  C   UNL d   1      11.775   6.377 -15.511  0.00  0.00     0.174 C 
ENDBRANCH   9  38
BRANCH   5  40
ATOM     40  O   UNL d   1      10.697   5.517 -20.606  0.00  0.00    -0.354 OA
ATOM     41  C   UNL d   1       9.555   5.344 -21.434  0.00  0.00     0.174 C 
ENDBRANCH   5  40
BRANCH   3  42
ATOM     42  C   UNL d   1      12.673   7.419 -19.560  0.00  0.00     0.147 C 
BRANCH  42  43
ATOM     43  O   UNL d   1      12.426   7.279 -20.944  0.00  0.00    -0.351 OA
ATOM     44  C   UNL d   1      12.082   8.486 -21.583  0.00  0.00     0.174 C 
ENDBRANCH  42  43
ENDBRANCH   3  42
BRANCH   1  45
ATOM     45  C   UNL d   1      13.932   2.648 -20.317  0.00  0.00     0.250 C 
ATOM     46  C   UNL d   1      14.365   1.321 -19.686  0.00  0.00     0.037 C 
ENDBRANCH   1  45
TORSDOF 11
