REMARK  8 active torsions:
REMARK  status: ('A' for Active; 'I' for Inactive)
REMARK    1  A    between atoms: C_4  and  C_5 
REMARK    2  A    between atoms: C_8  and  C_9 
REMARK    3  A    between atoms: C_13  and  O_14 
REMARK    4  A    between atoms: O_14  and  C_15 
REMARK       I    between atoms: C_15  and  N_17 
REMARK    5  A    between atoms: N_17  and  C_18 
REMARK    6  A    between atoms: C_18  and  C_19 
REMARK    7  A    between atoms: C_19  and  N_20 
REMARK    8  A    between atoms: N_23  and  C_24 
ROOT
ATOM      1  C   UNL d   1       9.166   5.214 -12.405  0.00  0.00     0.388 C 
ATOM      2  O   UNL d   1       9.096   4.394 -11.491  0.00  0.00    -0.236 OA
ATOM      3  N   UNL d   1       9.219   6.586 -12.271  0.00  0.00    -0.210 NA
ENDROOT
BRANCH   1   4
ATOM      4  O   UNL d   1       9.217   4.916 -13.711  0.00  0.00    -0.258 OA
BRANCH   4   5
ATOM      5  C   UNL d   1       9.258   3.607 -14.114  0.00  0.00     0.105 A 
ATOM      6  C   UNL d   1      10.505   2.973 -14.279  0.00  0.00     0.025 A 
ATOM      7  C   UNL d   1      10.563   1.648 -14.742  0.00  0.00     0.002 A 
ATOM      8  C   UNL d   1       9.380   0.949 -15.042  0.00  0.00     0.001 A 
ATOM      9  C   UNL d   1       8.127   1.577 -14.898  0.00  0.00     0.008 A 
ATOM     10  C   UNL d   1       8.072   2.910 -14.438  0.00  0.00     0.025 A 
BRANCH   9  11
ATOM     11  C   UNL d   1       6.909   0.843 -15.219  0.00  0.00     0.034 A 
ATOM     12  C   UNL d   1       6.433   0.393 -16.430  0.00  0.00     0.066 A 
ATOM     13  C   UNL d   1       5.197  -0.313 -16.294  0.00  0.00     0.007 A 
ATOM     14  C   UNL d   1       4.742  -0.382 -15.002  0.00  0.00     0.008 A 
ATOM     15  C   UNL d   1       3.474  -0.995 -14.526  0.00  0.00     0.038 C 
ATOM     16  S   UNL d   1       5.849   0.398 -13.905  0.00  0.00    -0.091 SA
BRANCH  12  17
ATOM     17  C   UNL d   1       7.092   0.650 -17.741  0.00  0.00     0.297 C 
ATOM     18  N   UNL d   1       7.072  -0.382 -18.582  0.00  0.00    -0.102 N 
ATOM     19  O   UNL d   1       7.635   1.716 -18.029  0.00  0.00    -0.264 OA
ENDBRANCH  12  17
ENDBRANCH   9  11
ENDBRANCH   4   5
ENDBRANCH   1   4
BRANCH   3  20
ATOM     20  C   UNL d   1       9.076   7.261 -10.991  0.00  0.00     0.166 C 
BRANCH  20  21
ATOM     21  C   UNL d   1      10.408   7.378 -10.220  0.00  0.00     0.277 C 
BRANCH  21  22
ATOM     22  N   UNL d   1      10.266   8.092  -8.951  0.00  0.00     0.143 N 
ATOM     23  C   UNL d   1       9.618   7.235  -7.944  0.00  0.00     0.274 C 
ATOM     24  C   UNL d   1       9.470   7.986  -6.610  0.00  0.00     0.137 C 
ATOM     25  N   UNL d   1      10.757   8.510  -6.183  0.00  0.00    -0.344 N 
ATOM     26  C   UNL d   1      11.507   9.277  -7.151  0.00  0.00     0.137 C 
ATOM     27  C   UNL d   1      11.600   8.480  -8.467  0.00  0.00     0.274 C 
BRANCH  25  28
ATOM     28  C   UNL d   1      11.280   8.282  -4.911  0.00  0.00     0.056 A 
ATOM     29  C   UNL d   1      11.594   9.377  -4.082  0.00  0.00     0.017 A 
ATOM     30  C   UNL d   1      12.079   9.158  -2.784  0.00  0.00     0.002 A 
ATOM     31  C   UNL d   1      12.278   7.851  -2.311  0.00  0.00     0.000 A 
ATOM     32  C   UNL d   1      11.977   6.759  -3.138  0.00  0.00     0.002 A 
ATOM     33  C   UNL d   1      11.459   6.968  -4.435  0.00  0.00     0.017 A 
ENDBRANCH  25  28
ENDBRANCH  21  22
ENDBRANCH  20  21
ENDBRANCH   3  20
TORSDOF 8
