REMARK  7 active torsions:
REMARK  status: ('A' for Active; 'I' for Inactive)
REMARK    1  A    between atoms: S_2  and  C_4 
REMARK    2  A    between atoms: S_2  and  C_23 
REMARK    3  A    between atoms: C_4  and  C_5 
REMARK    4  A    between atoms: N_8  and  C_9 
REMARK    5  A    between atoms: C_9  and  C_10 
REMARK    6  A    between atoms: C_10  and  C_11 
REMARK    7  A    between atoms: C_11  and  C_12 
ROOT
ATOM      1  C   UNL d   1       7.189   4.564 -12.169  0.00  0.00     0.052 C 
ATOM      2  C   UNL d   1       5.793   3.990 -11.998  0.00  0.00     0.038 C 
ATOM      3  C   UNL d   1       5.548   3.169 -13.253  0.00  0.00     0.250 C 
ATOM      4  N   UNL d   1       6.896   2.798 -13.656  0.00  0.00     0.137 N 
ATOM      5  C   UNL d   1       7.666   4.020 -13.507  0.00  0.00     0.251 C 
ENDROOT
BRANCH   4   6
ATOM      6  C   UNL d   1       6.925   2.298 -15.033  0.00  0.00     0.251 C 
BRANCH   6   7
ATOM      7  C   UNL d   1       8.336   2.201 -15.655  0.00  0.00     0.042 C 
BRANCH   7   8
ATOM      8  C   UNL d   1       9.046   0.875 -15.306  0.00  0.00     0.050 C 
BRANCH   8   9
ATOM      9  C   UNL d   1      10.001   0.461 -16.392  0.00  0.00     0.088 A 
ATOM     10  C   UNL d   1      11.036   1.178 -17.034  0.00  0.00     0.041 A 
ATOM     11  C   UNL d   1      11.588   0.374 -18.037  0.00  0.00     0.129 A 
ATOM     12  C   UNL d   1      11.536   2.487 -16.844  0.00  0.00     0.006 A 
ATOM     13  O   UNL d   1      10.871  -0.809 -17.997  0.00  0.00    -0.211 OA
ATOM     14  C   UNL d   1      12.649   0.793 -18.849  0.00  0.00     0.057 A 
ATOM     15  N   UNL d   1       9.885  -0.734 -16.973  0.00  0.00    -0.131 NA
ATOM     16  C   UNL d   1      13.158   2.092 -18.651  0.00  0.00     0.142 A 
ATOM     17  F   UNL d   1      14.200   2.527 -19.396  0.00  0.00    -0.204 F 
ATOM     18  C   UNL d   1      12.598   2.937 -17.661  0.00  0.00     0.030 A 
ENDBRANCH   8   9
ENDBRANCH   7   8
ENDBRANCH   6   7
ENDBRANCH   4   6
BRANCH   1  19
ATOM     19  C   UNL d   1       7.238   6.098 -12.086  0.00  0.00     0.129 C 
BRANCH  19  20
ATOM     20  S   UNL d   1       8.963   6.771 -12.023  0.00  0.00     0.190 S 
ATOM     21  O   UNL d   1       9.849   5.838 -12.757  0.00  0.00    -0.222 OA
ATOM     22  O   UNL d   1       8.933   8.183 -12.438  0.00  0.00    -0.222 OA
BRANCH  20  23
ATOM     23  C   UNL d   1       9.455   6.729 -10.302  0.00  0.00     0.085 A 
ATOM     24  C   UNL d   1      10.484   7.601  -9.869  0.00  0.00     0.025 A 
ATOM     25  C   UNL d   1      10.857   7.610  -8.506  0.00  0.00     0.086 A 
ATOM     26  C   UNL d   1      10.218   6.751  -7.589  0.00  0.00     0.151 A 
ATOM     27 CL   UNL d   1      12.087   8.689  -7.946  0.00  0.00    -0.080 Cl
ATOM     28  C   UNL d   1       9.204   5.885  -8.042  0.00  0.00     0.031 A 
ATOM     29  F   UNL d   1      10.557   6.777  -6.278  0.00  0.00    -0.203 F 
ATOM     30  C   UNL d   1       8.824   5.865  -9.392  0.00  0.00     0.013 A 
ENDBRANCH  20  23
ENDBRANCH  19  20
ENDBRANCH   1  19
TORSDOF 7
