REMARK  9 active torsions:
REMARK  status: ('A' for Active; 'I' for Inactive)
REMARK    1  A    between atoms: O_2  and  C_3 
REMARK    2  A    between atoms: C_9  and  N_10 
REMARK    3  A    between atoms: N_13  and  C_14 
REMARK    4  A    between atoms: C_14  and  C_15 
REMARK    5  A    between atoms: C_15  and  C_16 
REMARK    6  A    between atoms: C_16  and  C_17 
REMARK    7  A    between atoms: C_17  and  N_18 
REMARK       I    between atoms: N_18  and  C_19 
REMARK    8  A    between atoms: C_19  and  C_21 
REMARK    9  A    between atoms: C_23  and  C_24 
ROOT
ATOM      1  N   UNL d   1      11.916   4.488 -16.602  0.00  0.00    -0.328 N 
ATOM      2  C   UNL d   1      10.979   5.501 -16.128  0.00  0.00     0.138 C 
ATOM      3  C   UNL d   1       9.863   4.815 -15.316  0.00  0.00     0.274 C 
ATOM      4  N   UNL d   1      10.431   4.031 -14.213  0.00  0.00     0.141 N 
ATOM      5  C   UNL d   1      11.281   2.974 -14.784  0.00  0.00     0.274 C 
ATOM      6  C   UNL d   1      12.447   3.611 -15.568  0.00  0.00     0.138 C 
ENDROOT
BRANCH   4   7
ATOM      7  C   UNL d   1       9.345   3.417 -13.448  0.00  0.00     0.251 C 
BRANCH   7   8
ATOM      8  C   UNL d   1       8.596   4.419 -12.537  0.00  0.00     0.037 C 
BRANCH   8   9
ATOM      9  C   UNL d   1       9.411   4.867 -11.317  0.00  0.00     0.029 C 
BRANCH   9  10
ATOM     10  C   UNL d   1       8.538   5.612 -10.302  0.00  0.00     0.129 C 
BRANCH  10  11
ATOM     11  N   UNL d   1       9.318   6.184  -9.212  0.00  0.00    -0.233 NA
ATOM     12  C   UNL d   1      10.036   7.316  -9.300  0.00  0.00     0.294 C 
ATOM     13  O   UNL d   1      10.226   7.926 -10.350  0.00  0.00    -0.264 OA
BRANCH  12  14
ATOM     14  C   UNL d   1      10.551   7.856  -8.030  0.00  0.00     0.162 A 
ATOM     15  N   UNL d   1      11.036   9.126  -7.871  0.00  0.00    -0.143 NA
ATOM     16  N   UNL d   1      11.447   9.342  -6.605  0.00  0.00    -0.146 NA
ATOM     17  C   UNL d   1      11.242   8.180  -5.986  0.00  0.00     0.127 A 
ATOM     18  C   UNL d   1      10.678   7.189  -6.848  0.00  0.00     0.049 A 
BRANCH  17  19
ATOM     19  C   UNL d   1      11.612   8.035  -4.587  0.00  0.00     0.119 A 
ATOM     20  O   UNL d   1      11.468   6.797  -4.035  0.00  0.00    -0.304 OA
ATOM     21  C   UNL d   1      11.866   6.902  -2.738  0.00  0.00     0.123 A 
ATOM     22  C   UNL d   1      12.259   8.176  -2.454  0.00  0.00     0.029 A 
ATOM     23  C   UNL d   1      12.100   8.915  -3.659  0.00  0.00     0.028 A 
ENDBRANCH  17  19
ENDBRANCH  12  14
ENDBRANCH  10  11
ENDBRANCH   9  10
ENDBRANCH   8   9
ENDBRANCH   7   8
ENDBRANCH   4   7
BRANCH   1  24
ATOM     24  C   UNL d   1      12.236   4.372 -17.949  0.00  0.00     0.169 A 
ATOM     25  N   UNL d   1      12.299   5.427 -18.765  0.00  0.00    -0.109 NA
ATOM     26  O   UNL d   1      12.664   4.932 -20.043  0.00  0.00    -0.210 OA
ATOM     27  C   UNL d   1      12.802   3.553 -19.999  0.00  0.00     0.128 A 
ATOM     28  C   UNL d   1      13.112   2.623 -21.002  0.00  0.00     0.029 A 
ATOM     29  C   UNL d   1      12.520   3.183 -18.682  0.00  0.00     0.063 A 
ATOM     30  C   UNL d   1      13.156   1.258 -20.648  0.00  0.00     0.026 A 
ATOM     31  C   UNL d   1      12.895   0.850 -19.304  0.00  0.00     0.094 A 
ATOM     32  C   UNL d   1      12.530   1.810 -18.334  0.00  0.00     0.029 A 
BRANCH  31  33
ATOM     33  O   UNL d   1      12.964  -0.463 -18.897  0.00  0.00    -0.328 OA
ATOM     34  C   UNL d   1      13.923  -1.293 -19.542  0.00  0.00     0.181 C 
ENDBRANCH  31  33
ENDBRANCH   1  24
TORSDOF 9
