REMARK  4 active torsions:
REMARK  status: ('A' for Active; 'I' for Inactive)
REMARK    1  A    between atoms: C_4  and  O_5 
REMARK    2  A    between atoms: O_5  and  C_6 
REMARK    3  A    between atoms: C_6  and  C_7 
REMARK    4  A    between atoms: N_12  and  C_13 
ROOT
ATOM      1  C   UNL d   1       9.035   5.767 -11.035  0.00  0.00     0.064 C 
ATOM      2  C   UNL d   1       7.625   5.455 -10.515  0.00  0.00     0.007 C 
ATOM      3  C   UNL d   1       6.717   5.186 -11.685  0.00  0.00     0.035 C 
ATOM      4  C   UNL d   1       7.352   4.060 -12.514  0.00  0.00     0.242 C 
ATOM      5  C   UNL d   1       6.446   3.730 -13.707  0.00  0.00     0.153 C 
ATOM      6  N   UNL d   1       7.044   2.662 -14.504  0.00  0.00    -0.179 N 
ATOM      7  C   UNL d   1       8.403   2.945 -14.957  0.00  0.00     0.155 C 
ATOM      8  C   UNL d   1       9.308   3.287 -13.765  0.00  0.00     0.275 C 
ATOM      9  N   UNL d   1       8.737   4.371 -12.957  0.00  0.00     0.139 N 
ATOM     10  C   UNL d   1       9.620   4.650 -11.844  0.00  0.00     0.253 C 
ENDROOT
BRANCH   1  11
ATOM     11  C   UNL d   1       9.105   7.166 -11.680  0.00  0.00     0.151 C 
BRANCH  11  12
ATOM     12  O   UNL d   1      10.095   8.063 -11.112  0.00  0.00    -0.331 OA
BRANCH  12  13
ATOM     13  C   UNL d   1      10.258   8.096  -9.735  0.00  0.00     0.094 C 
ATOM     14  C   UNL d   1       9.457   7.427  -8.838  0.00  0.00     0.024 C 
ATOM     15  C   UNL d   1       9.649   7.177  -7.494  0.00  0.00     0.002 C 
ATOM     16  C   UNL d   1      10.680   7.901  -6.918  0.00  0.00     0.000 C 
ATOM     17  C   UNL d   1      11.490   8.729  -7.739  0.00  0.00     0.002 C 
ATOM     18  C   UNL d   1      11.334   8.812  -9.123  0.00  0.00     0.024 C 
ENDBRANCH  12  13
ENDBRANCH  11  12
ENDBRANCH   1  11
BRANCH   6  19
ATOM     19  C   UNL d   1       6.396   1.475 -14.803  0.00  0.00     0.727 A 
ATOM     20  N   UNL d   1       5.498   1.023 -13.920  0.00  0.00    -0.060 NA
ATOM     21  C   UNL d   1       4.860  -0.117 -14.222  0.00  0.00     0.120 A 
ATOM     22  C   UNL d   1       5.117  -0.828 -15.407  0.00  0.00     0.043 A 
ATOM     23  C   UNL d   1       6.081  -0.266 -16.262  0.00  0.00     0.120 A 
ATOM     24  N   UNL d   1       6.711   0.882 -15.961  0.00  0.00    -0.060 NA
ENDBRANCH   6  19
TORSDOF 4
