REMARK  4 active torsions:
REMARK  status: ('A' for Active; 'I' for Inactive)
REMARK    1  A    between atoms: O_2  and  C_3 
REMARK    2  A    between atoms: C_9  and  C_10 
REMARK    3  A    between atoms: N_13  and  C_14 
REMARK    4  A    between atoms: C_14  and  C_15 
ROOT
ATOM      1  C   UNL d   1      10.327   7.557  -8.076  0.00  0.00    -0.021 C 
ATOM      2  C   UNL d   1      10.269   7.839  -9.406  0.00  0.00     0.005 C 
ATOM      3  C   UNL d   1       9.592   6.946 -10.424  0.00  0.00     0.277 C 
ATOM      4  N   UNL d   1       9.261   5.621  -9.885  0.00  0.00     0.146 N 
ATOM      5  C   UNL d   1       8.669   5.724  -8.563  0.00  0.00     0.256 C 
ATOM      6  C   UNL d   1       9.639   6.323  -7.561  0.00  0.00     0.061 C 
ENDROOT
BRANCH   1   7
ATOM      7  C   UNL d   1      10.978   8.450  -7.110  0.00  0.00     0.017 A 
ATOM      8  C   UNL d   1      11.438   9.660  -7.465  0.00  0.00     0.099 A 
ATOM      9  N   UNL d   1      12.010  10.291  -6.364  0.00  0.00    -0.244 NA
ATOM     10  C   UNL d   1      12.061   9.410  -5.315  0.00  0.00     0.082 A 
ATOM     11  C   UNL d   1      12.659   9.524  -4.056  0.00  0.00     0.021 A 
ATOM     12  C   UNL d   1      11.391   8.218  -5.744  0.00  0.00     0.021 A 
ATOM     13  C   UNL d   1      12.554   8.472  -3.157  0.00  0.00     0.026 A 
ATOM     14  C   UNL d   1      11.915   7.279  -3.551  0.00  0.00     0.094 A 
ATOM     15  C   UNL d   1      11.342   7.156  -4.826  0.00  0.00     0.026 A 
BRANCH  14  16
ATOM     16  O   UNL d   1      11.792   6.189  -2.740  0.00  0.00    -0.328 OA
ATOM     17  C   UNL d   1      12.871   5.995  -1.863  0.00  0.00     0.181 C 
ENDBRANCH  14  16
ENDBRANCH   1   7
BRANCH   4  18
ATOM     18  C   UNL d   1       8.274   4.990 -10.741  0.00  0.00     0.277 C 
BRANCH  18  19
ATOM     19  C   UNL d   1       8.838   4.665 -12.118  0.00  0.00     0.011 A 
ATOM     20  C   UNL d   1       9.831   3.684 -12.293  0.00  0.00    -0.002 A 
ATOM     21  C   UNL d   1      10.376   3.382 -13.564  0.00  0.00    -0.000 A 
ATOM     22  C   UNL d   1       9.950   4.101 -14.682  0.00  0.00    -0.000 A 
ATOM     23  C   UNL d   1       8.952   5.075 -14.516  0.00  0.00    -0.000 A 
ATOM     24  C   UNL d   1       8.410   5.381 -13.245  0.00  0.00    -0.002 A 
ENDBRANCH  18  19
ENDBRANCH   4  18
TORSDOF 4
