REMARK  5 active torsions:
REMARK  status: ('A' for Active; 'I' for Inactive)
REMARK    1  A    between atoms: N_11  and  C_12 
REMARK    2  A    between atoms: C_12  and  C_13 
REMARK    3  A    between atoms: C_13  and  C_14 
REMARK    4  A    between atoms: C_14  and  N_15 
REMARK    5  A    between atoms: N_18  and  C_19 
ROOT
ATOM      1  N   UNL d   1       7.432   5.126 -12.543  0.00  0.00     0.141 N 
ATOM      2  C   UNL d   1       7.967   4.349 -11.435  0.00  0.00     0.274 C 
ATOM      3  C   UNL d   1       9.340   4.812 -10.932  0.00  0.00     0.137 C 
ATOM      4  N   UNL d   1       9.289   6.221 -10.602  0.00  0.00    -0.344 N 
ATOM      5  C   UNL d   1       8.681   7.043 -11.645  0.00  0.00     0.137 C 
ATOM      6  C   UNL d   1       7.303   6.493 -12.086  0.00  0.00     0.274 C 
ENDROOT
BRANCH   1   7
ATOM      7  C   UNL d   1       6.122   4.582 -12.909  0.00  0.00     0.252 C 
BRANCH   7   8
ATOM      8  C   UNL d   1       6.345   3.609 -14.070  0.00  0.00     0.060 C 
BRANCH   8   9
ATOM      9  C   UNL d   1       6.662   2.147 -13.715  0.00  0.00     0.111 C 
BRANCH   9  10
ATOM     10  N   UNL d   1       6.234   1.134 -14.697  0.00  0.00    -0.299 N 
ATOM     11  C   UNL d   1       5.202   0.295 -14.373  0.00  0.00     0.238 C 
ATOM     12  O   UNL d   1       4.681   0.243 -13.253  0.00  0.00    -0.272 OA
ATOM     13  C   UNL d   1       4.618  -0.617 -15.448  0.00  0.00     0.093 C 
ATOM     14  C   UNL d   1       5.687  -1.157 -16.388  0.00  0.00     0.038 C 
ATOM     15  C   UNL d   1       6.665  -0.059 -16.836  0.00  0.00    -0.006 A 
ATOM     16  C   UNL d   1       6.939   1.020 -15.966  0.00  0.00     0.058 A 
ATOM     17  C   UNL d   1       7.324  -0.189 -18.092  0.00  0.00    -0.003 A 
ATOM     18  C   UNL d   1       7.936   1.967 -16.352  0.00  0.00     0.017 A 
ATOM     19  C   UNL d   1       8.529   1.873 -17.625  0.00  0.00     0.002 A 
ATOM     20  C   UNL d   1       8.247   0.806 -18.489  0.00  0.00    -0.000 A 
ENDBRANCH   9  10
ENDBRANCH   8   9
ENDBRANCH   7   8
ENDBRANCH   1   7
BRANCH   4  21
ATOM     21  C   UNL d   1       9.653   6.727  -9.335  0.00  0.00     0.067 A 
ATOM     22  C   UNL d   1      10.406   7.917  -9.170  0.00  0.00     0.074 A 
ATOM     23  C   UNL d   1      10.823   8.391  -7.941  0.00  0.00     0.024 A 
ATOM     24 CL   UNL d   1      11.007   8.833 -10.438  0.00  0.00    -0.081 Cl
ATOM     25  C   UNL d   1      10.504   7.694  -6.785  0.00  0.00     0.059 A 
ATOM     26  C   UNL d   1       9.737   6.522  -6.897  0.00  0.00     0.013 A 
ATOM     27 CL   UNL d   1      11.077   8.287  -5.272  0.00  0.00    -0.082 Cl
ATOM     28  C   UNL d   1       9.312   6.026  -8.151  0.00  0.00     0.019 A 
ENDBRANCH   4  21
TORSDOF 5
