REMARK  3 active torsions:
REMARK  status: ('A' for Active; 'I' for Inactive)
REMARK    1  A    between atoms: C_9  and  N_10 
REMARK    2  A    between atoms: N_13  and  C_14 
REMARK    3  A    between atoms: C_14  and  C_15 
ROOT
ATOM      1 CL   UNL d   1      10.973   9.097  -8.385  0.00  0.00    -0.082 Cl
ATOM      2  C   UNL d   1      10.097   7.763  -8.962  0.00  0.00     0.059 A 
ATOM      3  C   UNL d   1       9.154   7.144  -8.147  0.00  0.00     0.013 A 
ATOM      4  C   UNL d   1       8.517   5.957  -8.614  0.00  0.00     0.021 A 
ATOM      5  C   UNL d   1       8.773   5.487  -9.906  0.00  0.00     0.099 A 
ATOM      6  C   UNL d   1       9.652   6.154 -10.770  0.00  0.00     0.101 A 
ATOM      7  C   UNL d   1      10.322   7.288 -10.265  0.00  0.00     0.032 A 
ATOM      8  N   UNL d   1      10.112   5.702 -12.026  0.00  0.00    -0.227 NA
ATOM      9  C   UNL d   1       9.519   4.951 -12.858  0.00  0.00     0.142 C 
ATOM     10  C   UNL d   1       8.078   4.618 -12.737  0.00  0.00     0.051 C 
ATOM     11  C   UNL d   1       7.400   4.583 -13.935  0.00  0.00     0.004 C 
ATOM     12  C   UNL d   1       6.036   4.233 -13.966  0.00  0.00     0.000 C 
ATOM     13  C   UNL d   1       5.358   3.916 -12.834  0.00  0.00     0.002 C 
ATOM     14  C   UNL d   1       6.058   3.908 -11.621  0.00  0.00     0.019 C 
ATOM     15  C   UNL d   1       7.385   4.357 -11.571  0.00  0.00     0.084 C 
ATOM     16  N   UNL d   1       8.007   4.396 -10.335  0.00  0.00    -0.244 NA
ENDROOT
BRANCH   9  17
ATOM     17  N   UNL d   1      10.212   4.392 -13.934  0.00  0.00    -0.330 N 
ATOM     18  C   UNL d   1      10.148   2.982 -14.245  0.00  0.00     0.138 C 
ATOM     19  C   UNL d   1       9.678   2.797 -15.691  0.00  0.00     0.275 C 
ATOM     20  N   UNL d   1      10.580   3.481 -16.625  0.00  0.00     0.145 N 
ATOM     21  C   UNL d   1      10.585   4.916 -16.306  0.00  0.00     0.275 C 
ATOM     22  C   UNL d   1      11.069   5.132 -14.855  0.00  0.00     0.138 C 
BRANCH  20  23
ATOM     23  C   UNL d   1      10.137   3.311 -18.012  0.00  0.00     0.279 C 
BRANCH  23  24
ATOM     24  C   UNL d   1       9.907   1.866 -18.417  0.00  0.00     0.035 A 
ATOM     25  C   UNL d   1      10.953   1.054 -18.886  0.00  0.00     0.117 A 
ATOM     26  C   UNL d   1      10.751  -0.275 -19.196  0.00  0.00     0.119 A 
ATOM     27  O   UNL d   1      12.256   1.377 -19.095  0.00  0.00    -0.300 OA
ATOM     28  C   UNL d   1       9.494  -0.887 -19.052  0.00  0.00     0.026 A 
ATOM     29  O   UNL d   1      11.918  -0.821 -19.622  0.00  0.00    -0.300 OA
ATOM     30  C   UNL d   1       8.425  -0.097 -18.575  0.00  0.00     0.002 A 
ATOM     31  C   UNL d   1       8.630   1.270 -18.268  0.00  0.00    -0.000 A 
ATOM     32  C   UNL d   1      12.868   0.210 -19.575  0.00  0.00     0.304 A 
ENDBRANCH  23  24
ENDBRANCH  20  23
ENDBRANCH   9  17
TORSDOF 3
