REMARK  3 active torsions:
REMARK  status: ('A' for Active; 'I' for Inactive)
REMARK    1  A    between atoms: C_5  and  C_6 
REMARK    2  A    between atoms: N_8  and  C_9 
REMARK    3  A    between atoms: C_19  and  C_20 
ROOT
ATOM      1  C   UNL d   1       9.289   0.247 -17.945  0.00  0.00    -0.003 A 
ATOM      2  C   UNL d   1       8.411  -0.637 -18.514  0.00  0.00     0.076 A 
ATOM      3  N   UNL d   1       7.185  -0.600 -17.862  0.00  0.00    -0.305 N 
ATOM      4  C   UNL d   1       7.252   0.335 -16.838  0.00  0.00     0.064 A 
ATOM      5  C   UNL d   1       6.312   0.765 -15.884  0.00  0.00     0.018 A 
ATOM      6  C   UNL d   1       6.672   1.750 -14.947  0.00  0.00     0.002 A 
ATOM      7  C   UNL d   1       7.965   2.333 -14.950  0.00  0.00     0.002 A 
ATOM      8  C   UNL d   1       8.890   1.877 -15.928  0.00  0.00     0.001 A 
ATOM      9  C   UNL d   1       8.566   0.879 -16.878  0.00  0.00     0.014 A 
ENDROOT
BRANCH   1  10
ATOM     10  C   UNL d   1      10.711   0.494 -18.374  0.00  0.00     0.028 C 
ATOM     11  C   UNL d   1      10.763   1.326 -19.663  0.00  0.00     0.040 C 
ATOM     12  C   UNL d   1      12.202   1.460 -20.183  0.00  0.00     0.251 C 
ATOM     13  N   UNL d   1      12.782   0.137 -20.414  0.00  0.00     0.139 N 
ATOM     14  C   UNL d   1      14.117   0.287 -20.975  0.00  0.00     0.285 C 
ATOM     15  C   UNL d   1      12.869  -0.595 -19.152  0.00  0.00     0.251 C 
ATOM     16  C   UNL d   1      11.462  -0.830 -18.586  0.00  0.00     0.040 C 
ENDBRANCH   1  10
BRANCH   3  17
ATOM     17  C   UNL d   1       6.075  -1.404 -18.193  0.00  0.00     0.064 A 
ATOM     18  C   UNL d   1       4.784  -0.839 -18.282  0.00  0.00     0.020 A 
ATOM     19  C   UNL d   1       3.684  -1.654 -18.598  0.00  0.00     0.031 A 
ATOM     20  C   UNL d   1       3.865  -3.027 -18.846  0.00  0.00     0.140 A 
ATOM     21  C   UNL d   1       5.152  -3.592 -18.764  0.00  0.00     0.031 A 
ATOM     22  F   UNL d   1       2.808  -3.798 -19.183  0.00  0.00    -0.204 F 
ATOM     23  C   UNL d   1       6.257  -2.783 -18.438  0.00  0.00     0.020 A 
ENDBRANCH   3  17
BRANCH   7  24
ATOM     24  C   UNL d   1       8.332   3.392 -13.972  0.00  0.00     0.019 A 
ATOM     25  C   UNL d   1       9.683   3.741 -13.710  0.00  0.00     0.099 A 
ATOM     26  N   UNL d   1      10.072   4.698 -12.839  0.00  0.00    -0.242 NA
ATOM     27  C   UNL d   1       9.118   5.342 -12.138  0.00  0.00     0.099 A 
ATOM     28  C   UNL d   1       7.748   5.083 -12.299  0.00  0.00     0.021 A 
ATOM     29  C   UNL d   1       7.353   4.109 -13.235  0.00  0.00     0.003 A 
ENDBRANCH   7  24
TORSDOF 3
