REMARK  6 active torsions:
REMARK  status: ('A' for Active; 'I' for Inactive)
REMARK    1  A    between atoms: C_6  and  C_7 
REMARK    2  A    between atoms: C_10  and  S_11 
REMARK    3  A    between atoms: S_11  and  C_12 
REMARK    4  A    between atoms: C_12  and  C_13 
REMARK    5  A    between atoms: C_13  and  C_14 
REMARK    6  A    between atoms: C_14  and  N_15 
ROOT
ATOM      1  C   UNL d   1      10.831   4.956 -15.199  0.00  0.00     0.067 C 
ENDROOT
BRANCH   1   2
ATOM      2  S   UNL d   1      10.588   3.991 -13.682  0.00  0.00    -0.075 SA
BRANCH   2   3
ATOM      3  C   UNL d   1       9.903   2.547 -14.414  0.00  0.00     0.193 A 
ATOM      4  N   UNL d   1      10.626   1.527 -14.881  0.00  0.00    -0.122 NA
ATOM      5  N   UNL d   1       9.706   0.628 -15.380  0.00  0.00    -0.128 NA
ATOM      6  C   UNL d   1       8.506   1.179 -15.162  0.00  0.00     0.167 A 
ATOM      7  N   UNL d   1       8.576   2.387 -14.567  0.00  0.00    -0.289 N 
ATOM      8  C   UNL d   1       7.495   3.279 -14.181  0.00  0.00     0.134 C 
BRANCH   6   9
ATOM      9  C   UNL d   1       7.257   0.525 -15.525  0.00  0.00     0.037 A 
ATOM     10  C   UNL d   1       6.771   0.510 -16.860  0.00  0.00     0.021 A 
ATOM     11  C   UNL d   1       7.466   1.153 -17.910  0.00  0.00     0.003 A 
ATOM     12  C   UNL d   1       5.557  -0.168 -17.171  0.00  0.00     0.081 A 
ATOM     13  C   UNL d   1       6.936   1.110 -19.214  0.00  0.00     0.015 A 
ATOM     14  C   UNL d   1       5.728   0.415 -19.420  0.00  0.00     0.059 A 
ATOM     15  C   UNL d   1       5.107   0.328 -20.797  0.00  0.00     0.052 C 
ATOM     16  N   UNL d   1       5.059  -0.201 -18.428  0.00  0.00    -0.250 NA
ATOM     17  C   UNL d   1       4.857  -0.812 -16.133  0.00  0.00     0.019 A 
ATOM     18  C   UNL d   1       5.332  -0.789 -14.812  0.00  0.00     0.002 A 
ATOM     19  C   UNL d   1       6.527  -0.116 -14.506  0.00  0.00     0.003 A 
ENDBRANCH   6   9
ENDBRANCH   2   3
ENDBRANCH   1   2
BRANCH   1  20
ATOM     20  C   UNL d   1      11.993   4.413 -16.040  0.00  0.00     0.047 C 
BRANCH  20  21
ATOM     21  C   UNL d   1      12.357   5.353 -17.206  0.00  0.00     0.251 C 
BRANCH  21  22
ATOM     22  N   UNL d   1      13.729   5.189 -17.680  0.00  0.00     0.138 N 
ATOM     23  C   UNL d   1      14.675   5.727 -16.696  0.00  0.00     0.255 C 
ATOM     24  C   UNL d   1      16.111   5.256 -16.943  0.00  0.00     0.061 C 
ATOM     25  C   UNL d   1      16.853   6.106 -17.947  0.00  0.00    -0.022 A 
ATOM     26  C   UNL d   1      16.391   6.227 -19.276  0.00  0.00    -0.022 A 
ATOM     27  C   UNL d   1      18.021   6.786 -17.539  0.00  0.00     0.021 A 
ATOM     28  C   UNL d   1      15.142   5.491 -19.741  0.00  0.00     0.061 C 
ATOM     29  C   UNL d   1      17.101   7.036 -20.189  0.00  0.00     0.017 A 
ATOM     30  C   UNL d   1      13.858   5.870 -18.975  0.00  0.00     0.255 C 
ATOM     31  C   UNL d   1      18.255   7.725 -19.770  0.00  0.00     0.106 A 
ATOM     32  N   UNL d   1      18.995   8.503 -20.679  0.00  0.00    -0.208 NA
ATOM     33  C   UNL d   1      18.714   7.607 -18.441  0.00  0.00     0.112 A 
ATOM     34  C   UNL d   1      20.002   9.294 -20.290  0.00  0.00     0.286 C 
ATOM     35  C   UNL d   1      20.244   9.426 -18.776  0.00  0.00     0.238 C 
ATOM     36  O   UNL d   1      20.690   9.920 -21.092  0.00  0.00    -0.267 OA
ATOM     37  O   UNL d   1      19.860   8.257 -18.039  0.00  0.00    -0.319 OA
ENDBRANCH  21  22
ENDBRANCH  20  21
ENDBRANCH   1  20
TORSDOF 6
