REMARK  7 active torsions:
REMARK  status: ('A' for Active; 'I' for Inactive)
REMARK    1  A    between atoms: C_2  and  C_3 
REMARK       I    between atoms: C_2  and  N_11 
REMARK    2  A    between atoms: C_14  and  C_16 
REMARK    3  A    between atoms: C_16  and  N_17 
REMARK    4  A    between atoms: N_17  and  C_18 
REMARK    5  A    between atoms: C_18  and  C_19 
REMARK    6  A    between atoms: C_19  and  O_20 
REMARK    7  A    between atoms: O_20  and  C_21 
ROOT
ATOM      1  O   UNL d   1       9.324   2.454 -16.605  0.00  0.00    -0.267 OA
ATOM      2  C   UNL d   1       8.493   2.433 -15.692  0.00  0.00     0.257 C 
ATOM      3  N   UNL d   1       8.354   3.446 -14.782  0.00  0.00    -0.317 N 
ATOM      4  C   UNL d   1       9.070   4.729 -14.978  0.00  0.00     0.107 C 
ATOM      5  C   UNL d   1       9.874   5.101 -13.727  0.00  0.00     0.059 C 
ATOM      6  C   UNL d   1       8.964   5.185 -12.496  0.00  0.00     0.172 C 
ATOM      7  F   UNL d   1       8.103   6.197 -12.639  0.00  0.00    -0.238 F 
ATOM      8  C   UNL d   1       8.176   3.887 -12.411  0.00  0.00     0.059 C 
ATOM      9  C   UNL d   1       7.367   3.544 -13.675  0.00  0.00     0.107 C 
ENDROOT
BRANCH   6  10
ATOM     10  C   UNL d   1       9.803   5.335 -11.219  0.00  0.00     0.323 C 
BRANCH  10  11
ATOM     11  N   UNL d   1       8.996   5.784 -10.109  0.00  0.00     0.345 N 
BRANCH  11  12
ATOM     12  C   UNL d   1       9.773   5.787  -8.888  0.00  0.00     0.323 C 
BRANCH  12  13
ATOM     13  C   UNL d   1       8.855   6.246  -7.740  0.00  0.00     0.187 C 
BRANCH  13  14
ATOM     14  O   UNL d   1       9.614   6.405  -6.553  0.00  0.00    -0.327 OA
BRANCH  14  15
ATOM     15  C   UNL d   1      10.415   7.518  -6.422  0.00  0.00     0.112 A 
ATOM     16  C   UNL d   1      11.134   7.657  -5.212  0.00  0.00     0.103 A 
ATOM     17  C   UNL d   1      11.932   8.824  -5.017  0.00  0.00     0.020 A 
ATOM     18  N   UNL d   1      11.073   6.706  -4.259  0.00  0.00    -0.242 NA
ATOM     19  C   UNL d   1      12.042   9.800  -6.025  0.00  0.00     0.002 A 
ATOM     20  C   UNL d   1      12.639   9.001  -3.808  0.00  0.00     0.003 A 
ATOM     21  C   UNL d   1      11.356   9.611  -7.230  0.00  0.00     0.002 A 
ATOM     22  C   UNL d   1      10.521   8.515  -7.421  0.00  0.00     0.026 A 
ATOM     23  C   UNL d   1      12.536   7.998  -2.829  0.00  0.00     0.021 A 
ATOM     24  C   UNL d   1      11.758   6.860  -3.122  0.00  0.00     0.099 A 
ENDBRANCH  14  15
ENDBRANCH  13  14
ENDBRANCH  12  13
ENDBRANCH  11  12
ENDBRANCH  10  11
ENDBRANCH   6  10
BRANCH   2  25
ATOM     25  C   UNL d   1       7.477   1.327 -15.692  0.00  0.00     0.057 A 
ATOM     26  C   UNL d   1       6.747   1.018 -16.868  0.00  0.00     0.018 A 
ATOM     27  C   UNL d   1       5.779  -0.011 -16.872  0.00  0.00     0.085 A 
ATOM     28  C   UNL d   1       5.533  -0.745 -15.695  0.00  0.00     0.151 A 
ATOM     29 CL   UNL d   1       4.910  -0.388 -18.324  0.00  0.00    -0.080 Cl
ATOM     30  C   UNL d   1       6.264  -0.448 -14.525  0.00  0.00     0.031 A 
ATOM     31  F   UNL d   1       4.599  -1.726 -15.677  0.00  0.00    -0.203 F 
ATOM     32  C   UNL d   1       7.252   0.557 -14.525  0.00  0.00     0.007 A 
ENDBRANCH   2  25
TORSDOF 7
