REMARK  6 active torsions:
REMARK  status: ('A' for Active; 'I' for Inactive)
REMARK    1  A    between atoms: C_2  and  C_3 
REMARK    2  A    between atoms: N_13  and  C_14 
REMARK    3  A    between atoms: C_14  and  C_15 
REMARK    4  A    between atoms: C_15  and  C_17 
REMARK    5  A    between atoms: C_17  and  N_18 
REMARK    6  A    between atoms: N_21  and  C_22 
ROOT
ATOM      1  C   UNL d   1       9.293   8.416 -11.215  0.00  0.00     0.208 C 
ATOM      2  O   UNL d   1       8.303   9.010 -12.035  0.00  0.00    -0.219 OA
ENDROOT
BRANCH   1   3
ATOM      3  C   UNL d   1       9.403   9.149  -9.823  0.00  0.00     0.148 C 
BRANCH   3   4
ATOM      4  N   UNL d   1      10.287   8.504  -8.882  0.00  0.00    -0.247 N 
ATOM      5  C   UNL d   1      11.617   8.396  -9.081  0.00  0.00     0.348 A 
ATOM      6  N   UNL d   1      12.143   7.840  -8.000  0.00  0.00    -0.209 NA
ATOM      7  O   UNL d   1      12.237   8.756 -10.058  0.00  0.00    -0.245 OA
ATOM      8  C   UNL d   1      11.127   7.453  -7.064  0.00  0.00     0.179 A 
ATOM      9  C   UNL d   1      10.999   5.968  -7.026  0.00  0.00     0.039 C 
ATOM     10  C   UNL d   1       9.887   7.968  -7.738  0.00  0.00     0.265 A 
ATOM     11  O   UNL d   1       8.759   7.928  -7.235  0.00  0.00    -0.269 OA
BRANCH   8  12
ATOM     12  C   UNL d   1      11.345   8.090  -5.706  0.00  0.00     0.006 A 
ATOM     13  C   UNL d   1      11.073   9.467  -5.559  0.00  0.00     0.000 A 
ATOM     14  C   UNL d   1      11.238  10.038  -4.308  0.00  0.00     0.029 A 
ATOM     15  C   UNL d   1      11.731   9.289  -3.236  0.00  0.00     0.140 A 
ATOM     16  C   UNL d   1      12.078   7.954  -3.382  0.00  0.00     0.029 A 
ATOM     17  F   UNL d   1      11.841   9.834  -2.023  0.00  0.00    -0.204 F 
ATOM     18  C   UNL d   1      11.861   7.336  -4.614  0.00  0.00     0.000 A 
ENDBRANCH   8  12
ENDBRANCH   3   4
ENDBRANCH   1   3
BRANCH   1  19
ATOM     19  C   UNL d   1       9.011   6.911 -11.022  0.00  0.00     0.285 C 
BRANCH  19  20
ATOM     20  N   UNL d   1       9.391   6.048 -12.110  0.00  0.00     0.144 N 
ATOM     21  C   UNL d   1       8.379   6.084 -13.166  0.00  0.00     0.274 C 
ATOM     22  C   UNL d   1       8.775   5.197 -14.342  0.00  0.00     0.137 C 
ATOM     23  N   UNL d   1       9.008   3.858 -13.867  0.00  0.00    -0.344 N 
ATOM     24  C   UNL d   1       9.935   3.732 -12.772  0.00  0.00     0.137 C 
ATOM     25  C   UNL d   1       9.489   4.670 -11.647  0.00  0.00     0.274 C 
BRANCH  23  26
ATOM     26  C   UNL d   1       8.389   2.739 -14.466  0.00  0.00     0.056 A 
ATOM     27  C   UNL d   1       9.081   1.891 -15.357  0.00  0.00     0.015 A 
ATOM     28  C   UNL d   1       8.398   0.798 -15.954  0.00  0.00     0.001 A 
ATOM     29  C   UNL d   1      10.439   2.112 -15.701  0.00  0.00     0.001 A 
ATOM     30  C   UNL d   1       7.050   0.545 -15.639  0.00  0.00     0.000 A 
ATOM     31  C   UNL d   1       9.062  -0.041 -16.874  0.00  0.00     0.000 A 
ATOM     32  C   UNL d   1       6.373   1.383 -14.736  0.00  0.00     0.002 A 
ATOM     33  C   UNL d   1       7.036   2.494 -14.168  0.00  0.00     0.017 A 
ATOM     34  C   UNL d   1      10.412   0.186 -17.194  0.00  0.00     0.000 A 
ATOM     35  C   UNL d   1      11.098   1.261 -16.605  0.00  0.00     0.000 A 
ENDBRANCH  23  26
ENDBRANCH  19  20
ENDBRANCH   1  19
TORSDOF 6
