REMARK  7 active torsions:
REMARK  status: ('A' for Active; 'I' for Inactive)
REMARK    1  A    between atoms: C_2  and  O_4 
REMARK    2  A    between atoms: O_4  and  C_5 
REMARK    3  A    between atoms: C_10  and  N_11 
REMARK    4  A    between atoms: N_14  and  C_15 
REMARK    5  A    between atoms: C_18  and  N_19 
REMARK    6  A    between atoms: N_19  and  S_20 
REMARK    7  A    between atoms: S_20  and  C_23 
ROOT
ATOM      1  C   UNL d   1       8.440   5.842 -12.149  0.00  0.00     0.220 C 
ATOM      2  C   UNL d   1       7.853   5.338 -10.799  0.00  0.00     0.035 C 
ATOM      3  C   UNL d   1       8.845   5.397  -9.627  0.00  0.00     0.027 C 
ATOM      4  C   UNL d   1       9.433   6.806  -9.472  0.00  0.00     0.116 C 
ATOM      5  C   UNL d   1      10.012   7.293 -10.804  0.00  0.00     0.027 C 
ATOM      6  C   UNL d   1       9.010   7.269 -11.959  0.00  0.00     0.035 C 
ENDROOT
BRANCH   1   7
ATOM      7  N   UNL d   1       9.450   4.912 -12.709  0.00  0.00     0.139 N 
ATOM      8  C   UNL d   1       8.830   3.628 -12.995  0.00  0.00     0.274 C 
ATOM      9  C   UNL d   1       9.843   2.636 -13.595  0.00  0.00     0.137 C 
ATOM     10  N   UNL d   1      10.424   3.175 -14.787  0.00  0.00    -0.343 N 
ATOM     11  C   UNL d   1      11.003   4.494 -14.597  0.00  0.00     0.137 C 
ATOM     12  C   UNL d   1       9.943   5.410 -13.989  0.00  0.00     0.274 C 
BRANCH  10  13
ATOM     13  C   UNL d   1      10.517   2.456 -15.973  0.00  0.00     0.079 A 
ATOM     14  C   UNL d   1       9.480   1.577 -16.416  0.00  0.00     0.109 A 
ATOM     15  C   UNL d   1       9.673   0.868 -17.611  0.00  0.00     0.026 A 
ATOM     16  C   UNL d   1      10.819   1.098 -18.406  0.00  0.00     0.002 A 
ATOM     17  C   UNL d   1      11.840   1.969 -17.966  0.00  0.00     0.002 A 
ATOM     18  C   UNL d   1      11.696   2.620 -16.745  0.00  0.00     0.019 A 
BRANCH  14  19
ATOM     19  O   UNL d   1       8.303   1.516 -15.670  0.00  0.00    -0.332 OA
BRANCH  19  20
ATOM     20  C   UNL d   1       7.260   0.612 -16.032  0.00  0.00     0.122 C 
ATOM     21  C   UNL d   1       6.592   1.054 -17.361  0.00  0.00     0.033 C 
ATOM     22  C   UNL d   1       6.219   0.585 -14.893  0.00  0.00     0.033 C 
ENDBRANCH  19  20
ENDBRANCH  14  19
ENDBRANCH  10  13
ENDBRANCH   1   7
BRANCH   4  23
ATOM     23  N   UNL d   1      10.470   6.784  -8.453  0.00  0.00    -0.187 NA
BRANCH  23  24
ATOM     24  S   UNL d   1      11.403   8.199  -8.144  0.00  0.00     0.283 S 
ATOM     25  O   UNL d   1      12.719   8.033  -8.763  0.00  0.00    -0.199 OA
ATOM     26  O   UNL d   1      10.563   9.361  -8.478  0.00  0.00    -0.199 OA
BRANCH  24  27
ATOM     27  C   UNL d   1      11.572   8.142  -6.377  0.00  0.00     0.132 A 
ATOM     28  C   UNL d   1      11.979   9.292  -5.671  0.00  0.00     0.153 A 
ATOM     29  C   UNL d   1      12.195   9.196  -4.285  0.00  0.00     0.042 A 
ATOM     30  F   UNL d   1      12.219  10.462  -6.309  0.00  0.00    -0.203 F 
ATOM     31  C   UNL d   1      12.008   7.982  -3.616  0.00  0.00     0.060 A 
ATOM     32  C   UNL d   1      11.591   6.841  -4.315  0.00  0.00     0.012 A 
ATOM     33 CL   UNL d   1      12.305   7.919  -1.933  0.00  0.00    -0.082 Cl
ATOM     34  C   UNL d   1      11.384   6.915  -5.700  0.00  0.00     0.016 A 
ENDBRANCH  24  27
ENDBRANCH  23  24
ENDBRANCH   4  23
TORSDOF 7
