REMARK  6 active torsions:
REMARK  status: ('A' for Active; 'I' for Inactive)
REMARK    1  A    between atoms: C_5  and  C_6 
REMARK    2  A    between atoms: C_6  and  C_7 
REMARK    3  A    between atoms: C_7  and  C_8 
REMARK    4  A    between atoms: C_8  and  C_9 
REMARK    5  A    between atoms: C_9  and  N_10 
REMARK    6  A    between atoms: N_13  and  C_14 
ROOT
ATOM      1  N   UNL d   1       8.424   5.737 -11.574  0.00  0.00     0.141 N 
ATOM      2  C   UNL d   1       7.078   5.217 -11.322  0.00  0.00     0.274 C 
ATOM      3  C   UNL d   1       6.361   4.838 -12.624  0.00  0.00     0.137 C 
ATOM      4  N   UNL d   1       7.169   3.883 -13.373  0.00  0.00    -0.344 N 
ATOM      5  C   UNL d   1       8.560   4.291 -13.572  0.00  0.00     0.137 C 
ATOM      6  C   UNL d   1       9.211   4.694 -12.233  0.00  0.00     0.274 C 
ENDROOT
BRANCH   1   7
ATOM      7  C   UNL d   1       9.036   6.106 -10.298  0.00  0.00     0.250 C 
BRANCH   7   8
ATOM      8  C   UNL d   1       9.858   7.398 -10.431  0.00  0.00     0.036 C 
BRANCH   8   9
ATOM      9  C   UNL d   1      10.621   7.751  -9.145  0.00  0.00     0.007 C 
BRANCH   9  10
ATOM     10  C   UNL d   1       9.708   8.118  -7.959  0.00  0.00     0.026 C 
BRANCH  10  11
ATOM     11  C   UNL d   1      10.468   8.167  -6.648  0.00  0.00    -0.022 A 
ATOM     12  C   UNL d   1      10.872   9.399  -6.100  0.00  0.00    -0.002 A 
ATOM     13  C   UNL d   1      11.557   9.432  -4.871  0.00  0.00     0.029 A 
ATOM     14  C   UNL d   1      11.859   8.237  -4.193  0.00  0.00     0.140 A 
ATOM     15  F   UNL d   1      12.530   8.273  -3.016  0.00  0.00    -0.204 F 
ATOM     16  C   UNL d   1      11.460   7.001  -4.738  0.00  0.00     0.029 A 
ATOM     17  C   UNL d   1      10.767   6.968  -5.964  0.00  0.00    -0.002 A 
ENDBRANCH  10  11
ENDBRANCH   9  10
ENDBRANCH   8   9
ENDBRANCH   7   8
ENDBRANCH   1   7
BRANCH   4  18
ATOM     18  C   UNL d   1       6.659   2.652 -13.841  0.00  0.00     0.056 A 
ATOM     19  C   UNL d   1       7.242   2.013 -14.965  0.00  0.00     0.018 A 
ATOM     20  C   UNL d   1       6.752   0.776 -15.428  0.00  0.00     0.013 A 
ATOM     21  C   UNL d   1       5.676   0.154 -14.774  0.00  0.00     0.058 A 
ATOM     22  C   UNL d   1       5.098   0.766 -13.652  0.00  0.00     0.013 A 
ATOM     23 CL   UNL d   1       5.039  -1.333 -15.362  0.00  0.00    -0.082 Cl
ATOM     24  C   UNL d   1       5.580   2.006 -13.190  0.00  0.00     0.018 A 
ENDBRANCH   4  18
TORSDOF 6
