REMARK  7 active torsions:
REMARK  status: ('A' for Active; 'I' for Inactive)
REMARK    1  A    between atoms: C_6  and  C_7 
REMARK    2  A    between atoms: N_10  and  C_11 
REMARK    3  A    between atoms: C_11  and  C_12 
REMARK    4  A    between atoms: C_12  and  C_13 
REMARK    5  A    between atoms: C_13  and  C_14 
REMARK    6  A    between atoms: C_14  and  O_15 
REMARK    7  A    between atoms: O_15  and  C_16 
ROOT
ATOM      1  C   UNL d   1       8.846   3.661 -14.525  0.00  0.00     0.027 C 
ATOM      2  C   UNL d   1       8.925   5.204 -14.483  0.00  0.00     0.040 C 
ATOM      3  C   UNL d   1       8.551   5.807 -13.145  0.00  0.00     0.251 C 
ATOM      4  N   UNL d   1       9.457   5.278 -12.132  0.00  0.00     0.137 N 
ATOM      5  C   UNL d   1       9.258   3.837 -12.030  0.00  0.00     0.251 C 
ATOM      6  C   UNL d   1       9.670   3.154 -13.339  0.00  0.00     0.040 C 
ENDROOT
BRANCH   4   7
ATOM      7  C   UNL d   1       9.119   5.929 -10.874  0.00  0.00     0.250 C 
BRANCH   7   8
ATOM      8  C   UNL d   1      10.018   7.168 -10.712  0.00  0.00     0.038 C 
BRANCH   8   9
ATOM      9  C   UNL d   1       9.856   7.732  -9.295  0.00  0.00     0.035 C 
BRANCH   9  10
ATOM     10  C   UNL d   1      10.915   8.825  -8.982  0.00  0.00     0.149 C 
BRANCH  10  11
ATOM     11  O   UNL d   1      10.718   9.424  -7.709  0.00  0.00    -0.331 OA
BRANCH  11  12
ATOM     12  C   UNL d   1      11.054   8.755  -6.566  0.00  0.00     0.096 A 
ATOM     13  C   UNL d   1      11.280   9.552  -5.415  0.00  0.00     0.044 A 
ATOM     14  C   UNL d   1      11.652   8.969  -4.186  0.00  0.00     0.090 A 
ATOM     15  C   UNL d   1      11.748   7.537  -4.117  0.00  0.00     0.049 A 
ATOM     16  N   UNL d   1      11.944   9.604  -2.990  0.00  0.00    -0.236 NA
ATOM     17  C   UNL d   1      11.479   6.755  -5.249  0.00  0.00     0.010 A 
ATOM     18  S   UNL d   1      12.245   7.007  -2.516  0.00  0.00    -0.064 SA
ATOM     19  C   UNL d   1      11.190   7.336  -6.476  0.00  0.00     0.025 A 
ATOM     20  C   UNL d   1      12.296   8.699  -2.078  0.00  0.00     0.135 A 
ENDBRANCH  11  12
ENDBRANCH  10  11
ENDBRANCH   9  10
ENDBRANCH   8   9
ENDBRANCH   7   8
ENDBRANCH   4   7
BRANCH   1  21
ATOM     21  C   UNL d   1       9.338   3.058 -15.849  0.00  0.00    -0.011 A 
ATOM     22  C   UNL d   1       9.882   3.908 -16.856  0.00  0.00    -0.003 A 
ATOM     23  C   UNL d   1      10.370   3.399 -18.058  0.00  0.00     0.001 A 
ATOM     24  C   UNL d   1      10.325   2.015 -18.303  0.00  0.00     0.012 A 
ATOM     25  C   UNL d   1       9.780   1.145 -17.334  0.00  0.00     0.068 A 
ATOM     26 CL   UNL d   1       9.749  -0.551 -17.678  0.00  0.00    -0.082 Cl
ATOM     27  C   UNL d   1       9.271   1.652 -16.119  0.00  0.00     0.064 A 
ATOM     28 CL   UNL d   1       8.548   0.525 -15.008  0.00  0.00    -0.082 Cl
ENDBRANCH   1  21
TORSDOF 7
