REMARK  7 active torsions:
REMARK  status: ('A' for Active; 'I' for Inactive)
REMARK    1  A    between atoms: C_2  and  C_4 
REMARK    2  A    between atoms: C_8  and  N_9 
REMARK       I    between atoms: N_9  and  C_10 
REMARK       I    between atoms: C_10  and  N_12 
REMARK    3  A    between atoms: N_12  and  C_13 
REMARK    4  A    between atoms: C_18  and  C_19 
REMARK    5  A    between atoms: C_19  and  N_20 
REMARK    6  A    between atoms: C_24  and  C_25 
REMARK    7  A    between atoms: C_25  and  C_26 
ROOT
ATOM      1  C   UNL d   1       8.888   4.675 -12.593  0.00  0.00     0.110 C 
ATOM      2  C   UNL d   1       7.823   4.843 -13.691  0.00  0.00     0.025 C 
ATOM      3  C   UNL d   1       6.422   4.553 -13.171  0.00  0.00     0.002 C 
ATOM      4  C   UNL d   1       6.112   5.473 -11.999  0.00  0.00     0.000 C 
ATOM      5  C   UNL d   1       7.188   5.380 -10.930  0.00  0.00     0.004 C 
ATOM      6  C   UNL d   1       8.606   5.594 -11.398  0.00  0.00     0.056 C 
ENDROOT
BRANCH   6   7
ATOM      7  C   UNL d   1       9.614   5.368 -10.247  0.00  0.00     0.252 C 
BRANCH   7   8
ATOM      8  N   UNL d   1       9.324   6.214  -9.103  0.00  0.00     0.137 N 
ATOM      9  C   UNL d   1      10.536   6.881  -8.634  0.00  0.00     0.251 C 
ATOM     10  C   UNL d   1      10.209   7.845  -7.494  0.00  0.00     0.038 C 
ATOM     11  C   UNL d   1       9.454   7.082  -6.379  0.00  0.00     0.004 C 
ATOM     12  C   UNL d   1       8.269   6.324  -6.885  0.00  0.00     0.035 C 
ATOM     13  C   UNL d   1       8.715   5.415  -8.035  0.00  0.00     0.250 C 
BRANCH  10  14
ATOM     14  C   UNL d   1      11.492   8.548  -6.990  0.00  0.00     0.028 C 
BRANCH  14  15
ATOM     15  C   UNL d   1      11.665   8.489  -5.471  0.00  0.00    -0.022 A 
ATOM     16  C   UNL d   1      11.865   7.248  -4.809  0.00  0.00    -0.002 A 
ATOM     17  C   UNL d   1      12.041   7.175  -3.416  0.00  0.00     0.029 A 
ATOM     18  C   UNL d   1      12.054   8.368  -2.670  0.00  0.00     0.140 A 
ATOM     19  C   UNL d   1      11.839   9.592  -3.310  0.00  0.00     0.029 A 
ATOM     20  F   UNL d   1      12.288   8.336  -1.330  0.00  0.00    -0.204 F 
ATOM     21  C   UNL d   1      11.639   9.658  -4.706  0.00  0.00    -0.002 A 
ENDBRANCH  14  15
ENDBRANCH  10  14
ENDBRANCH   7   8
ENDBRANCH   6   7
BRANCH   1  22
ATOM     22  N   UNL d   1      10.206   4.982 -13.134  0.00  0.00    -0.219 NA
ATOM     23  C   UNL d   1      10.941   4.266 -13.998  0.00  0.00     0.364 C 
ATOM     24  N   UNL d   1      10.331   3.116 -14.326  0.00  0.00    -0.191 NA
ATOM     25  O   UNL d   1      12.049   4.640 -14.378  0.00  0.00    -0.243 OA
BRANCH  24  26
ATOM     26  C   UNL d   1      10.604   2.187 -15.346  0.00  0.00     0.086 A 
ATOM     27  C   UNL d   1       9.916   0.961 -15.292  0.00  0.00     0.019 A 
ATOM     28  C   UNL d   1      10.153  -0.014 -16.273  0.00  0.00     0.002 A 
ATOM     29  C   UNL d   1      11.059   0.244 -17.322  0.00  0.00     0.003 A 
ATOM     30  C   UNL d   1      11.718   1.494 -17.407  0.00  0.00     0.036 A 
ATOM     31  C   UNL d   1      11.469   2.467 -16.415  0.00  0.00     0.022 A 
BRANCH  30  32
ATOM     32  C   UNL d   1      12.675   1.764 -18.512  0.00  0.00     0.173 C 
ATOM     33  C   UNL d   1      13.361   3.131 -18.529  0.00  0.00     0.077 C 
ATOM     34  O   UNL d   1      12.946   0.942 -19.388  0.00  0.00    -0.291 OA
ENDBRANCH  30  32
ENDBRANCH  24  26
ENDBRANCH   1  22
TORSDOF 7
