REMARK  7 active torsions:
REMARK  status: ('A' for Active; 'I' for Inactive)
REMARK    1  A    between atoms: C_2  and  C_3 
REMARK    2  A    between atoms: C_3  and  O_4 
REMARK    3  A    between atoms: O_4  and  C_5 
REMARK    4  A    between atoms: C_9  and  C_10 
REMARK    5  A    between atoms: C_10  and  N_11 
REMARK    6  A    between atoms: N_14  and  C_15 
REMARK    7  A    between atoms: C_15  and  C_16 
ROOT
ATOM      1  N   UNL d   1       7.367   3.991 -12.982  0.00  0.00     0.146 N 
ATOM      2  C   UNL d   1       8.466   4.265 -13.911  0.00  0.00     0.286 C 
ATOM      3  C   UNL d   1       8.961   2.970 -14.590  0.00  0.00     0.286 C 
ATOM      4  N   UNL d   1       7.885   2.305 -15.314  0.00  0.00     0.148 N 
ATOM      5  C   UNL d   1       6.787   2.036 -14.386  0.00  0.00     0.286 C 
ATOM      6  C   UNL d   1       6.291   3.322 -13.690  0.00  0.00     0.286 C 
ENDROOT
BRANCH   1   7
ATOM      7  C   UNL d   1       6.878   5.203 -12.313  0.00  0.00     0.277 C 
BRANCH   7   8
ATOM      8  C   UNL d   1       7.972   5.924 -11.567  0.00  0.00     0.013 A 
ATOM      9  C   UNL d   1       8.474   7.135 -12.080  0.00  0.00    -0.002 A 
ATOM     10  C   UNL d   1       9.458   7.840 -11.376  0.00  0.00     0.002 A 
ATOM     11  C   UNL d   1       9.978   7.314 -10.174  0.00  0.00     0.024 A 
ATOM     12  C   UNL d   1       9.506   6.096  -9.655  0.00  0.00     0.094 A 
ATOM     13  C   UNL d   1       8.489   5.403 -10.362  0.00  0.00     0.022 A 
BRANCH  12  14
ATOM     14  O   UNL d   1       9.951   5.532  -8.477  0.00  0.00    -0.331 OA
BRANCH  14  15
ATOM     15  C   UNL d   1      10.761   6.282  -7.573  0.00  0.00     0.149 C 
BRANCH  15  16
ATOM     16  C   UNL d   1       9.914   7.082  -6.570  0.00  0.00     0.033 C 
ATOM     17  C   UNL d   1       9.059   8.186  -7.196  0.00  0.00     0.003 C 
ENDBRANCH  15  16
ENDBRANCH  14  15
ENDBRANCH  12  14
ENDBRANCH   7   8
ENDBRANCH   1   7
BRANCH   4  18
ATOM     18  C   UNL d   1       8.373   1.079 -15.970  0.00  0.00     0.301 C 
BRANCH  18  19
ATOM     19  C   UNL d   1       7.369   0.466 -16.885  0.00  0.00     0.111 A 
ATOM     20  O   UNL d   1       6.459  -0.390 -16.318  0.00  0.00    -0.309 OA
ATOM     21  C   UNL d   1       5.631  -0.819 -17.333  0.00  0.00     0.100 A 
ATOM     22  C   UNL d   1       6.040  -0.229 -18.553  0.00  0.00     0.025 A 
ATOM     23  C   UNL d   1       4.541  -1.704 -17.226  0.00  0.00     0.025 A 
ATOM     24  C   UNL d   1       7.168   0.599 -18.238  0.00  0.00     0.024 A 
ATOM     25  C   UNL d   1       5.301  -0.570 -19.709  0.00  0.00     0.002 A 
ATOM     26  C   UNL d   1       4.212  -1.465 -19.630  0.00  0.00     0.000 A 
ATOM     27  C   UNL d   1       3.829  -2.027 -18.393  0.00  0.00     0.002 A 
ENDBRANCH  18  19
ENDBRANCH   4  18
TORSDOF 7
