REMARK  6 active torsions:
REMARK  status: ('A' for Active; 'I' for Inactive)
REMARK    1  A    between atoms: N_2  and  C_3 
REMARK    2  A    between atoms: N_2  and  C_9 
REMARK    3  A    between atoms: C_12  and  C_13 
REMARK    4  A    between atoms: C_13  and  C_14 
REMARK    5  A    between atoms: C_14  and  N_15 
REMARK    6  A    between atoms: N_18  and  C_19 
ROOT
ATOM      1  C   UNL d   1       7.875   3.377 -13.633  0.00  0.00     0.099 C 
ATOM      2  C   UNL d   1       9.244   3.411 -12.944  0.00  0.00     0.023 C 
ATOM      3  C   UNL d   1       9.245   4.360 -11.746  0.00  0.00     0.002 C 
ATOM      4  C   UNL d   1       8.847   5.784 -12.162  0.00  0.00     0.002 C 
ATOM      5  C   UNL d   1       7.446   5.742 -12.810  0.00  0.00     0.002 C 
ATOM      6  C   UNL d   1       7.427   4.788 -14.008  0.00  0.00     0.023 C 
ENDROOT
BRANCH   4   7
ATOM      7  C   UNL d   1       8.838   6.740 -10.970  0.00  0.00     0.035 C 
BRANCH   7   8
ATOM      8  C   UNL d   1      10.191   6.941 -10.264  0.00  0.00     0.250 C 
BRANCH   8   9
ATOM      9  N   UNL d   1      10.110   7.782  -9.078  0.00  0.00     0.141 N 
ATOM     10  C   UNL d   1      11.470   8.149  -8.660  0.00  0.00     0.274 C 
ATOM     11  C   UNL d   1      11.427   9.070  -7.426  0.00  0.00     0.137 C 
ATOM     12  N   UNL d   1      10.661   8.444  -6.365  0.00  0.00    -0.344 N 
ATOM     13  C   UNL d   1       9.351   7.927  -6.734  0.00  0.00     0.137 C 
ATOM     14  C   UNL d   1       9.460   7.045  -7.986  0.00  0.00     0.274 C 
BRANCH  12  15
ATOM     15  C   UNL d   1      11.204   8.257  -5.090  0.00  0.00     0.056 A 
ATOM     16  C   UNL d   1      11.432   6.960  -4.587  0.00  0.00     0.017 A 
ATOM     17  C   UNL d   1      11.955   6.788  -3.288  0.00  0.00     0.002 A 
ATOM     18  C   UNL d   1      12.259   7.902  -2.492  0.00  0.00     0.000 A 
ATOM     19  C   UNL d   1      12.036   9.192  -2.991  0.00  0.00     0.002 A 
ATOM     20  C   UNL d   1      11.514   9.376  -4.288  0.00  0.00     0.017 A 
ENDBRANCH  12  15
ENDBRANCH   8   9
ENDBRANCH   7   8
ENDBRANCH   4   7
BRANCH   1  21
ATOM     21  N   UNL d   1       7.882   2.490 -14.801  0.00  0.00    -0.183 N 
ATOM     22  C   UNL d   1       8.854   2.776 -15.858  0.00  0.00     0.144 C 
BRANCH  21  23
ATOM     23  C   UNL d   1       6.973   1.435 -14.965  0.00  0.00     0.727 A 
ATOM     24  N   UNL d   1       7.038   0.754 -16.115  0.00  0.00    -0.060 NA
ATOM     25  C   UNL d   1       6.165  -0.258 -16.304  0.00  0.00     0.120 A 
ATOM     26  C   UNL d   1       5.202  -0.590 -15.337  0.00  0.00     0.043 A 
ATOM     27  C   UNL d   1       5.217   0.187 -14.166  0.00  0.00     0.120 A 
ATOM     28  N   UNL d   1       6.096   1.194 -13.985  0.00  0.00    -0.060 NA
ENDBRANCH  21  23
ENDBRANCH   1  21
TORSDOF 6
