REMARK  6 active torsions:
REMARK  status: ('A' for Active; 'I' for Inactive)
REMARK       I    between atoms: C_2  and  N_3 
REMARK    1  A    between atoms: C_2  and  C_27 
REMARK    2  A    between atoms: N_3  and  C_4 
REMARK    3  A    between atoms: C_7  and  C_8 
REMARK    4  A    between atoms: C_8  and  C_9 
REMARK    5  A    between atoms: C_9  and  N_10 
REMARK    6  A    between atoms: N_13  and  C_14 
ROOT
ATOM      1  C   UNL d   1       8.348   3.521 -14.393  0.00  0.00     0.035 C 
ENDROOT
BRANCH   1   2
ATOM      2  C   UNL d   1       9.295   3.204 -15.560  0.00  0.00     0.002 C 
ATOM      3  C   UNL d   1      10.783   3.150 -15.135  0.00  0.00     0.002 C 
ATOM      4  C   UNL d   1      11.695   2.751 -16.308  0.00  0.00     0.024 C 
ATOM      5  C   UNL d   1      11.264   1.416 -16.933  0.00  0.00     0.107 C 
ATOM      6  C   UNL d   1       9.789   1.483 -17.370  0.00  0.00     0.024 C 
ATOM      7  C   UNL d   1       8.876   1.876 -16.203  0.00  0.00     0.002 C 
BRANCH   5   8
ATOM      8  N   UNL d   1      12.123   1.120 -18.068  0.00  0.00    -0.236 NA
ATOM      9  C   UNL d   1      12.183  -0.041 -18.736  0.00  0.00     0.275 C 
ATOM     10  O   UNL d   1      11.521  -1.033 -18.436  0.00  0.00    -0.266 OA
BRANCH   9  11
ATOM     11  C   UNL d   1      13.169  -0.068 -19.870  0.00  0.00     0.058 A 
ATOM     12  C   UNL d   1      13.849  -1.262 -20.202  0.00  0.00     0.007 A 
ATOM     13  C   UNL d   1      14.760  -1.288 -21.276  0.00  0.00     0.030 A 
ATOM     14  C   UNL d   1      14.993  -0.126 -22.035  0.00  0.00     0.140 A 
ATOM     15  C   UNL d   1      14.310   1.064 -21.721  0.00  0.00     0.030 A 
ATOM     16  F   UNL d   1      15.861  -0.158 -23.074  0.00  0.00    -0.204 F 
ATOM     17  C   UNL d   1      13.396   1.090 -20.650  0.00  0.00     0.007 A 
ENDBRANCH   9  11
ENDBRANCH   5   8
ENDBRANCH   1   2
BRANCH   1  18
ATOM     18  C   UNL d   1       8.589   4.905 -13.787  0.00  0.00     0.250 C 
BRANCH  18  19
ATOM     19  N   UNL d   1       7.555   5.306 -12.840  0.00  0.00     0.141 N 
ATOM     20  C   UNL d   1       7.508   4.510 -11.608  0.00  0.00     0.274 C 
ATOM     21  C   UNL d   1       8.830   4.620 -10.808  0.00  0.00     0.137 C 
ATOM     22  N   UNL d   1       9.153   6.021 -10.575  0.00  0.00    -0.343 N 
ATOM     23  C   UNL d   1       9.026   6.947 -11.700  0.00  0.00     0.137 C 
ATOM     24  C   UNL d   1       7.698   6.709 -12.440  0.00  0.00     0.274 C 
BRANCH  22  25
ATOM     25  C   UNL d   1       9.448   6.498  -9.291  0.00  0.00     0.081 A 
ATOM     26  C   UNL d   1      10.425   7.487  -9.104  0.00  0.00     0.135 A 
ATOM     27  C   UNL d   1      10.751   7.966  -7.845  0.00  0.00     0.121 A 
ATOM     28  O   UNL d   1      11.205   8.092 -10.033  0.00  0.00    -0.298 OA
ATOM     29  C   UNL d   1      10.108   7.500  -6.694  0.00  0.00     0.026 A 
ATOM     30  O   UNL d   1      11.745   8.878  -7.957  0.00  0.00    -0.299 OA
ATOM     31  C   UNL d   1       9.103   6.523  -6.858  0.00  0.00     0.004 A 
ATOM     32  C   UNL d   1       8.787   6.014  -8.146  0.00  0.00     0.019 A 
ATOM     33  C   UNL d   1      12.032   8.966  -9.330  0.00  0.00     0.304 A 
ENDBRANCH  22  25
ENDBRANCH  18  19
ENDBRANCH   1  18
TORSDOF 6
