REMARK  8 active torsions:
REMARK  status: ('A' for Active; 'I' for Inactive)
REMARK    1  A    between atoms: C_2  and  C_3 
REMARK    2  A    between atoms: C_3  and  N_4 
REMARK    3  A    between atoms: N_4  and  C_5 
REMARK    4  A    between atoms: N_4  and  C_8 
REMARK    5  A    between atoms: C_5  and  C_6 
REMARK    6  A    between atoms: C_16  and  C_17 
REMARK    7  A    between atoms: C_17  and  C_19 
REMARK    8  A    between atoms: C_24  and  O_25 
ROOT
ATOM      1  C   UNL d   1       8.432   4.537 -12.927  0.00  0.00     0.253 C 
ATOM      2  C   UNL d   1       7.146   3.811 -12.469  0.00  0.00     0.182 C 
ATOM      3  O   UNL d   1       6.658   2.969 -13.507  0.00  0.00    -0.329 OA
ATOM      4  C   UNL d   1       7.546   2.109 -14.070  0.00  0.00     0.093 A 
ATOM      5  C   UNL d   1       8.948   2.337 -14.085  0.00  0.00     0.002 A 
ATOM      6  C   UNL d   1       9.830   1.438 -14.717  0.00  0.00    -0.002 A 
ATOM      7  C   UNL d   1       9.329   0.294 -15.369  0.00  0.00    -0.000 A 
ATOM      8  C   UNL d   1       7.953   0.047 -15.348  0.00  0.00     0.005 A 
ATOM      9  C   UNL d   1       7.061   0.923 -14.706  0.00  0.00     0.061 A 
ATOM     10  C   UNL d   1       9.519   3.516 -13.337  0.00  0.00     0.064 C 
ENDROOT
BRANCH   9  11
ATOM     11  C   UNL d   1       5.620   0.579 -14.693  0.00  0.00     0.199 C 
ATOM     12  O   UNL d   1       4.937   0.718 -13.684  0.00  0.00    -0.286 OA
BRANCH  11  13
ATOM     13  C   UNL d   1       5.070  -0.012 -15.951  0.00  0.00     0.061 A 
ATOM     14  C   UNL d   1       5.541   0.318 -17.264  0.00  0.00     0.097 A 
ATOM     15  C   UNL d   1       5.007  -0.371 -18.386  0.00  0.00     0.024 A 
ATOM     16  C   UNL d   1       3.995  -1.328 -18.215  0.00  0.00     0.002 A 
ATOM     17  C   UNL d   1       3.523  -1.618 -16.928  0.00  0.00     0.000 A 
ATOM     18  C   UNL d   1       4.051  -0.962 -15.799  0.00  0.00     0.005 A 
BRANCH  14  19
ATOM     19  O   UNL d   1       6.471   1.323 -17.418  0.00  0.00    -0.328 OA
ATOM     20  C   UNL d   1       7.235   1.379 -18.615  0.00  0.00     0.181 C 
ENDBRANCH  14  19
ENDBRANCH  11  13
ENDBRANCH   9  11
BRANCH   1  21
ATOM     21  N   UNL d   1       8.932   5.530 -11.969  0.00  0.00     0.138 N 
BRANCH  21  22
ATOM     22  C   UNL d   1       9.309   4.971 -10.651  0.00  0.00     0.250 C 
BRANCH  22  23
ATOM     23  C   UNL d   1       9.832   6.031  -9.649  0.00  0.00     0.035 C 
ATOM     24  C   UNL d   1      10.077   5.478  -8.270  0.00  0.00     0.002 C 
ENDBRANCH  22  23
ENDBRANCH  21  22
BRANCH  21  25
ATOM     25  C   UNL d   1       7.957   6.605 -11.816  0.00  0.00     0.250 C 
BRANCH  25  26
ATOM     26  C   UNL d   1       8.168   7.690 -12.836  0.00  0.00     0.035 C 
ATOM     27  C   UNL d   1       7.755   9.093 -12.345  0.00  0.00     0.002 C 
ENDBRANCH  25  26
ENDBRANCH  21  25
ENDBRANCH   1  21
TORSDOF 8
