REMARK  8 active torsions:
REMARK  status: ('A' for Active; 'I' for Inactive)
REMARK    1  A    between atoms: C_7  and  C_8 
REMARK    2  A    between atoms: C_11  and  S_12 
REMARK    3  A    between atoms: S_12  and  C_13 
REMARK    4  A    between atoms: C_13  and  C_14 
REMARK    5  A    between atoms: C_14  and  C_15 
REMARK    6  A    between atoms: C_15  and  N_16 
REMARK    7  A    between atoms: C_20  and  C_21 
REMARK    8  A    between atoms: C_24  and  C_25 
ROOT
ATOM      1  C   UNL d   1      10.255   5.039 -14.614  0.00  0.00     0.251 C 
ENDROOT
BRANCH   1   2
ATOM      2  C   UNL d   1      10.634   3.615 -15.049  0.00  0.00     0.047 C 
BRANCH   2   3
ATOM      3  C   UNL d   1      10.860   3.506 -16.556  0.00  0.00     0.067 C 
BRANCH   3   4
ATOM      4  S   UNL d   1      10.904   1.772 -17.097  0.00  0.00    -0.075 SA
BRANCH   4   5
ATOM      5  C   UNL d   1       9.166   1.482 -17.160  0.00  0.00     0.193 A 
ATOM      6  N   UNL d   1       8.360   2.008 -18.081  0.00  0.00    -0.122 NA
ATOM      7  N   UNL d   1       7.102   1.537 -17.778  0.00  0.00    -0.128 NA
ATOM      8  C   UNL d   1       7.247   0.774 -16.692  0.00  0.00     0.168 A 
ATOM      9  N   UNL d   1       8.530   0.699 -16.272  0.00  0.00    -0.289 N 
ATOM     10  C   UNL d   1       9.098  -0.030 -15.158  0.00  0.00     0.134 C 
BRANCH   8  11
ATOM     11  C   UNL d   1       6.114   0.100 -16.074  0.00  0.00     0.050 A 
ATOM     12  C   UNL d   1       5.676   0.390 -14.755  0.00  0.00     0.062 A 
ATOM     13  C   UNL d   1       6.298   1.485 -13.904  0.00  0.00     0.052 C 
ATOM     14  N   UNL d   1       4.623  -0.241 -14.185  0.00  0.00    -0.248 NA
ATOM     15  C   UNL d   1       3.956  -1.165 -14.908  0.00  0.00     0.099 A 
ATOM     16  C   UNL d   1       4.308  -1.524 -16.225  0.00  0.00     0.021 A 
ATOM     17  C   UNL d   1       5.408  -0.871 -16.815  0.00  0.00     0.006 A 
ENDBRANCH   8  11
ENDBRANCH   4   5
ENDBRANCH   3   4
ENDBRANCH   2   3
ENDBRANCH   1   2
BRANCH   1  18
ATOM     18  N   UNL d   1      10.045   5.136 -13.163  0.00  0.00     0.137 N 
ATOM     19  C   UNL d   1       9.410   6.400 -12.781  0.00  0.00     0.254 C 
ATOM     20  C   UNL d   1       8.889   6.128 -11.384  0.00  0.00     0.052 A 
ATOM     21  C   UNL d   1       8.708   4.640 -11.322  0.00  0.00     0.039 A 
ATOM     22  C   UNL d   1       7.515   5.544 -11.189  0.00  0.00     0.008 A 
ATOM     23  C   UNL d   1       9.162   4.092 -12.641  0.00  0.00     0.251 C 
BRANCH  20  24
ATOM     24  C   UNL d   1       9.587   6.839 -10.218  0.00  0.00    -0.021 A 
ATOM     25  C   UNL d   1       9.528   6.280  -8.925  0.00  0.00    -0.004 A 
ATOM     26  C   UNL d   1      10.126   6.919  -7.825  0.00  0.00     0.004 A 
ATOM     27  C   UNL d   1      10.777   8.150  -8.003  0.00  0.00     0.071 A 
ATOM     28  C   UNL d   1      10.820   8.743  -9.278  0.00  0.00     0.004 A 
ATOM     29  C   UNL d   1      10.216   8.099 -10.378  0.00  0.00    -0.004 A 
BRANCH  27  30
ATOM     30  C   UNL d   1      11.417   8.855  -6.824  0.00  0.00     0.419 C 
ATOM     31  F   UNL d   1      11.458   8.076  -5.741  0.00  0.00    -0.166 F 
ATOM     32  F   UNL d   1      12.656   9.187  -7.158  0.00  0.00    -0.166 F 
ATOM     33  F   UNL d   1      10.733   9.959  -6.521  0.00  0.00    -0.166 F 
ENDBRANCH  27  30
ENDBRANCH  20  24
ENDBRANCH   1  18
TORSDOF 8
