REMARK  7 active torsions:
REMARK  status: ('A' for Active; 'I' for Inactive)
REMARK    1  A    between atoms: C_9  and  N_10 
REMARK    2  A    between atoms: N_13  and  C_14 
REMARK    3  A    between atoms: C_14  and  C_15 
REMARK    4  A    between atoms: C_15  and  C_16 
REMARK    5  A    between atoms: C_19  and  N_20 
REMARK       I    between atoms: N_20  and  C_21 
REMARK    6  A    between atoms: C_21  and  C_23 
REMARK    7  A    between atoms: C_23  and  C_24 
ROOT
ATOM      1  C   UNL d   1       9.486   1.484 -15.640  0.00  0.00     0.250 C 
ENDROOT
BRANCH   1   2
ATOM      2  N   UNL d   1       9.441   1.040 -17.031  0.00  0.00     0.141 N 
ATOM      3  C   UNL d   1       9.594   2.116 -18.037  0.00  0.00     0.274 C 
ATOM      4  C   UNL d   1      10.959   2.836 -17.917  0.00  0.00     0.138 C 
ATOM      5  N   UNL d   1      12.023   1.839 -17.962  0.00  0.00    -0.330 N 
ATOM      6  C   UNL d   1      11.879   0.668 -17.096  0.00  0.00     0.138 C 
ATOM      7  C   UNL d   1      10.485   0.037 -17.268  0.00  0.00     0.274 C 
BRANCH   5   8
ATOM      8  C   UNL d   1      13.099   1.968 -18.846  0.00  0.00     0.142 A 
ATOM      9  C   UNL d   1      13.647   0.860 -19.542  0.00  0.00     0.059 A 
ATOM     10  C   UNL d   1      14.747   1.132 -20.413  0.00  0.00     0.104 A 
ATOM     11  C   UNL d   1      13.412  -0.558 -19.674  0.00  0.00     0.032 A 
ATOM     12  C   UNL d   1      15.264   2.417 -20.569  0.00  0.00     0.040 A 
ATOM     13  O   UNL d   1      15.157  -0.031 -21.023  0.00  0.00    -0.305 OA
ATOM     14  C   UNL d   1      14.649   3.443 -19.836  0.00  0.00     0.063 A 
ATOM     15  C   UNL d   1      15.129   4.871 -19.917  0.00  0.00     0.052 C 
ATOM     16  N   UNL d   1      13.600   3.212 -19.010  0.00  0.00    -0.233 NA
ATOM     17  C   UNL d   1      14.341  -1.027 -20.558  0.00  0.00     0.123 A 
ENDBRANCH   5   8
ENDBRANCH   1   2
BRANCH   1  18
ATOM     18  C   UNL d   1       8.287   2.362 -15.292  0.00  0.00     0.035 C 
BRANCH  18  19
ATOM     19  C   UNL d   1       8.479   3.060 -13.939  0.00  0.00     0.002 C 
ATOM     20  C   UNL d   1       7.116   3.582 -13.432  0.00  0.00     0.002 C 
ATOM     21  C   UNL d   1       7.233   4.311 -12.089  0.00  0.00     0.024 C 
ATOM     22  C   UNL d   1       8.298   5.419 -12.137  0.00  0.00     0.106 C 
ATOM     23  C   UNL d   1       9.643   4.911 -12.686  0.00  0.00     0.024 C 
ATOM     24  C   UNL d   1       9.505   4.217 -14.040  0.00  0.00     0.002 C 
BRANCH  22  25
ATOM     25  N   UNL d   1       8.440   6.042 -10.820  0.00  0.00    -0.240 NA
ATOM     26  C   UNL d   1       8.922   5.499  -9.699  0.00  0.00     0.251 C 
ATOM     27  O   UNL d   1       9.450   4.389  -9.641  0.00  0.00    -0.271 OA
BRANCH  26  28
ATOM     28  C   UNL d   1       8.819   6.282  -8.412  0.00  0.00     0.090 C 
BRANCH  28  29
ATOM     29  C   UNL d   1      10.196   6.651  -7.854  0.00  0.00     0.014 C 
ATOM     30  C   UNL d   1      10.909   7.693  -8.745  0.00  0.00     0.033 C 
ATOM     31  C   UNL d   1      12.193   8.187  -8.071  0.00  0.00     0.142 C 
ATOM     32  O   UNL d   1      11.867   8.695  -6.782  0.00  0.00    -0.354 OA
ATOM     33  C   UNL d   1      11.361   7.704  -5.896  0.00  0.00     0.142 C 
ATOM     34  C   UNL d   1      10.025   7.192  -6.433  0.00  0.00     0.033 C 
ENDBRANCH  28  29
ENDBRANCH  26  28
ENDBRANCH  22  25
ENDBRANCH  18  19
ENDBRANCH   1  18
TORSDOF 7
