REMARK  4 active torsions:
REMARK  status: ('A' for Active; 'I' for Inactive)
REMARK    1  A    between atoms: C_4  and  N_5 
REMARK    2  A    between atoms: N_8  and  C_9 
REMARK    3  A    between atoms: C_9  and  C_10 
REMARK    4  A    between atoms: C_14  and  C_15 
ROOT
ATOM      1  N   UNL d   1      12.887   5.455 -18.347  0.00  0.00    -0.179 N 
ATOM      2  C   UNL d   1      13.123   4.126 -18.912  0.00  0.00     0.155 C 
ATOM      3  C   UNL d   1      12.970   3.048 -17.821  0.00  0.00     0.275 C 
ATOM      4  N   UNL d   1      11.636   3.117 -17.206  0.00  0.00     0.145 N 
ATOM      5  C   UNL d   1      11.478   4.446 -16.598  0.00  0.00     0.275 C 
ATOM      6  C   UNL d   1      11.612   5.555 -17.648  0.00  0.00     0.155 C 
ENDROOT
BRANCH   4   7
ATOM      7  C   UNL d   1      11.514   2.054 -16.200  0.00  0.00     0.277 C 
BRANCH   7   8
ATOM      8  C   UNL d   1      10.139   1.910 -15.564  0.00  0.00     0.011 A 
ATOM      9  C   UNL d   1       9.651   2.914 -14.704  0.00  0.00    -0.002 A 
ATOM     10  C   UNL d   1       8.344   2.861 -14.183  0.00  0.00     0.000 A 
ATOM     11  C   UNL d   1       7.538   1.726 -14.476  0.00  0.00    -0.000 A 
ATOM     12  C   UNL d   1       8.041   0.685 -15.280  0.00  0.00    -0.000 A 
ATOM     13  C   UNL d   1       9.335   0.784 -15.832  0.00  0.00    -0.002 A 
BRANCH  10  14
ATOM     14  C   UNL d   1       7.800   3.972 -13.374  0.00  0.00     0.007 A 
ATOM     15  C   UNL d   1       6.471   4.238 -13.124  0.00  0.00     0.035 A 
ATOM     16  S   UNL d   1       6.259   5.623 -12.094  0.00  0.00    -0.086 SA
ATOM     17  C   UNL d   1       7.966   5.891 -12.024  0.00  0.00     0.035 A 
ATOM     18  C   UNL d   1       8.646   4.945 -12.741  0.00  0.00     0.007 A 
ENDBRANCH  10  14
ENDBRANCH   7   8
ENDBRANCH   4   7
BRANCH   1  19
ATOM     19  C   UNL d   1      13.781   6.525 -18.464  0.00  0.00     0.727 A 
ATOM     20  N   UNL d   1      14.921   6.297 -19.114  0.00  0.00    -0.060 NA
ATOM     21  C   UNL d   1      15.779   7.331 -19.241  0.00  0.00     0.120 A 
ATOM     22  C   UNL d   1      15.497   8.603 -18.707  0.00  0.00     0.043 A 
ATOM     23  C   UNL d   1      14.267   8.735 -18.041  0.00  0.00     0.120 A 
ATOM     24  N   UNL d   1      13.423   7.687 -17.915  0.00  0.00    -0.060 NA
ENDBRANCH   1  19
TORSDOF 4
