REMARK  6 active torsions:
REMARK  status: ('A' for Active; 'I' for Inactive)
REMARK    1  A    between atoms: O_2  and  N_3 
REMARK    2  A    between atoms: C_4  and  C_5 
REMARK    3  A    between atoms: C_4  and  C_19 
REMARK    4  A    between atoms: C_5  and  C_6 
REMARK    5  A    between atoms: C_6  and  N_7 
REMARK    6  A    between atoms: N_10  and  C_11 
ROOT
ATOM      1  C   UNL d   1       8.069   4.036 -13.039  0.00  0.00     0.083 C 
ENDROOT
BRANCH   1   2
ATOM      2  C   UNL d   1       9.118   5.083 -12.668  0.00  0.00     0.087 C 
ATOM      3  N   UNL d   1       9.919   5.550 -13.545  0.00  0.00    -0.136 NA
BRANCH   3   4
ATOM      4  O   UNL d   1       9.697   5.111 -14.857  0.00  0.00    -0.234 OA
ATOM      5  C   UNL d   1      10.881   5.237 -15.593  0.00  0.00     0.211 C 
ENDBRANCH   3   4
BRANCH   2   6
ATOM      6  C   UNL d   1       9.178   5.612 -11.254  0.00  0.00     0.017 A 
ATOM      7  C   UNL d   1       9.790   6.873 -10.991  0.00  0.00     0.013 A 
ATOM      8  C   UNL d   1       9.877   7.409  -9.691  0.00  0.00     0.068 A 
ATOM      9  C   UNL d   1       9.315   6.707  -8.603  0.00  0.00     0.068 A 
ATOM     10 CL   UNL d   1      10.681   8.924  -9.457  0.00  0.00    -0.082 Cl
ATOM     11  C   UNL d   1       8.673   5.475  -8.849  0.00  0.00     0.012 A 
ATOM     12 CL   UNL d   1       9.377   7.351  -6.995  0.00  0.00    -0.082 Cl
ATOM     13  C   UNL d   1       8.619   4.929 -10.148  0.00  0.00     0.002 A 
ENDBRANCH   2   6
ENDBRANCH   1   2
BRANCH   1  14
ATOM     14  C   UNL d   1       8.659   2.836 -13.857  0.00  0.00     0.257 C 
BRANCH  14  15
ATOM     15  N   UNL d   1       7.604   2.340 -14.735  0.00  0.00     0.141 N 
ATOM     16  C   UNL d   1       8.119   2.161 -16.093  0.00  0.00     0.274 C 
ATOM     17  C   UNL d   1       7.044   1.647 -17.068  0.00  0.00     0.138 C 
ATOM     18  N   UNL d   1       6.433   0.432 -16.538  0.00  0.00    -0.330 N 
ATOM     19  C   UNL d   1       5.961   0.522 -15.159  0.00  0.00     0.138 C 
ATOM     20  C   UNL d   1       7.065   1.067 -14.244  0.00  0.00     0.274 C 
BRANCH  18  21
ATOM     21  C   UNL d   1       6.324  -0.747 -17.284  0.00  0.00     0.140 A 
ATOM     22  N   UNL d   1       7.177  -0.912 -18.326  0.00  0.00    -0.227 NA
ATOM     23  C   UNL d   1       7.117  -2.056 -19.032  0.00  0.00     0.101 A 
ATOM     24  C   UNL d   1       6.210  -3.098 -18.751  0.00  0.00     0.021 A 
ATOM     25  C   UNL d   1       5.319  -2.924 -17.678  0.00  0.00     0.005 A 
ATOM     26  C   UNL d   1       5.366  -1.735 -16.944  0.00  0.00     0.037 A 
ENDBRANCH  18  21
ENDBRANCH  14  15
ENDBRANCH   1  14
TORSDOF 6
