REMARK  4 active torsions:
REMARK  status: ('A' for Active; 'I' for Inactive)
REMARK    1  A    between atoms: C_6  and  N_7 
REMARK    2  A    between atoms: N_10  and  C_11 
REMARK    3  A    between atoms: C_11  and  C_12 
REMARK    4  A    between atoms: C_14  and  C_15 
ROOT
ATOM      1  N   UNL d   1       9.140   3.930 -13.536  0.00  0.00    -0.344 N 
ATOM      2  C   UNL d   1       8.958   5.271 -14.033  0.00  0.00     0.137 C 
ATOM      3  C   UNL d   1       8.505   6.184 -12.871  0.00  0.00     0.274 C 
ATOM      4  N   UNL d   1       9.470   6.114 -11.770  0.00  0.00     0.141 N 
ATOM      5  C   UNL d   1       9.527   4.736 -11.277  0.00  0.00     0.274 C 
ATOM      6  C   UNL d   1      10.014   3.802 -12.399  0.00  0.00     0.137 C 
ENDROOT
BRANCH   4   7
ATOM      7  C   UNL d   1       9.072   7.015 -10.696  0.00  0.00     0.251 C 
BRANCH   7   8
ATOM      8  C   UNL d   1      10.226   7.321  -9.747  0.00  0.00     0.038 A 
ATOM      9  C   UNL d   1      10.113   8.466  -8.755  0.00  0.00     0.024 A 
ATOM     10  C   UNL d   1      11.086   8.553  -9.904  0.00  0.00     0.007 A 
BRANCH   9  11
ATOM     11  C   UNL d   1      10.590   8.315  -7.345  0.00  0.00    -0.022 A 
ATOM     12  C   UNL d   1      10.392   7.103  -6.652  0.00  0.00    -0.004 A 
ATOM     13  C   UNL d   1      10.898   6.933  -5.348  0.00  0.00    -0.000 A 
ATOM     14  C   UNL d   1      11.591   7.984  -4.721  0.00  0.00    -0.000 A 
ATOM     15  C   UNL d   1      11.783   9.201  -5.400  0.00  0.00    -0.000 A 
ATOM     16  C   UNL d   1      11.286   9.365  -6.708  0.00  0.00    -0.004 A 
ENDBRANCH   9  11
ENDBRANCH   7   8
ENDBRANCH   4   7
BRANCH   1  17
ATOM     17  C   UNL d   1       8.576   2.823 -14.172  0.00  0.00     0.068 A 
ATOM     18  C   UNL d   1       7.184   2.639 -14.066  0.00  0.00     0.018 A 
ATOM     19  C   UNL d   1       6.575   1.530 -14.678  0.00  0.00     0.002 A 
ATOM     20  C   UNL d   1       7.347   0.624 -15.430  0.00  0.00     0.012 A 
ATOM     21  C   UNL d   1       8.737   0.812 -15.552  0.00  0.00     0.070 A 
ATOM     22 CL   UNL d   1       9.674  -0.277 -16.514  0.00  0.00    -0.081 Cl
ATOM     23  C   UNL d   1       9.358   1.906 -14.918  0.00  0.00     0.084 A 
ATOM     24 CL   UNL d   1      11.059   2.150 -15.095  0.00  0.00    -0.080 Cl
ENDBRANCH   1  17
TORSDOF 4
