REMARK  6 active torsions:
REMARK  status: ('A' for Active; 'I' for Inactive)
REMARK    1  A    between atoms: C_4  and  N_5 
REMARK    2  A    between atoms: N_8  and  C_9 
REMARK    3  A    between atoms: C_9  and  C_10 
REMARK    4  A    between atoms: C_10  and  C_11 
REMARK    5  A    between atoms: C_11  and  C_12 
REMARK    6  A    between atoms: C_12  and  N_13 
ROOT
ATOM      1  C   UNL d   1       9.027   4.807 -10.289  0.00  0.00     0.251 C 
ENDROOT
BRANCH   1   2
ATOM      2  N   UNL d   1       8.989   6.007  -9.460  0.00  0.00     0.141 N 
ATOM      3  C   UNL d   1      10.189   6.827  -9.631  0.00  0.00     0.275 C 
ATOM      4  C   UNL d   1      10.115   8.100  -8.783  0.00  0.00     0.155 C 
ATOM      5  N   UNL d   1       9.933   7.757  -7.378  0.00  0.00    -0.179 N 
ATOM      6  C   UNL d   1       8.788   6.883  -7.140  0.00  0.00     0.155 C 
ATOM      7  C   UNL d   1       8.863   5.636  -8.047  0.00  0.00     0.275 C 
BRANCH   5   8
ATOM      8  C   UNL d   1      10.770   8.225  -6.377  0.00  0.00     0.727 A 
ATOM      9  N   UNL d   1      10.889   7.487  -5.271  0.00  0.00    -0.060 NA
ATOM     10  C   UNL d   1      11.704   7.947  -4.303  0.00  0.00     0.120 A 
ATOM     11  C   UNL d   1      12.399   9.161  -4.437  0.00  0.00     0.043 A 
ATOM     12  C   UNL d   1      12.207   9.849  -5.650  0.00  0.00     0.120 A 
ATOM     13  N   UNL d   1      11.393   9.383  -6.609  0.00  0.00    -0.060 NA
ENDBRANCH   5   8
ENDBRANCH   1   2
BRANCH   1  14
ATOM     14  C   UNL d   1       8.989   5.145 -11.793  0.00  0.00     0.037 C 
BRANCH  14  15
ATOM     15  C   UNL d   1       9.064   3.899 -12.678  0.00  0.00     0.037 C 
BRANCH  15  16
ATOM     16  C   UNL d   1       9.489   4.213 -14.131  0.00  0.00     0.250 C 
BRANCH  16  17
ATOM     17  N   UNL d   1      10.073   3.043 -14.797  0.00  0.00     0.138 N 
ATOM     18  C   UNL d   1      10.777   3.467 -16.012  0.00  0.00     0.256 C 
ATOM     19  C   UNL d   1      11.830   2.445 -16.482  0.00  0.00     0.070 C 
ATOM     20  C   UNL d   1      11.281   1.186 -17.064  0.00  0.00     0.024 A 
ATOM     21  C   UNL d   1      10.316   0.381 -16.509  0.00  0.00     0.064 A 
ATOM     22  S   UNL d   1      11.831   0.564 -18.597  0.00  0.00    -0.069 SA
ATOM     23  C   UNL d   1       9.623   0.611 -15.204  0.00  0.00     0.081 C 
ATOM     24  N   UNL d   1      10.001  -0.741 -17.280  0.00  0.00    -0.241 NA
ATOM     25  C   UNL d   1       9.044   2.029 -15.054  0.00  0.00     0.257 C 
ATOM     26  C   UNL d   1      10.722  -0.779 -18.398  0.00  0.00     0.134 A 
ENDBRANCH  16  17
ENDBRANCH  15  16
ENDBRANCH  14  15
ENDBRANCH   1  14
TORSDOF 6
