REMARK  13 active torsions:
REMARK  status: ('A' for Active; 'I' for Inactive)
REMARK    1  A    between atoms: C_9  and  C_10 
REMARK    2  A    between atoms: C_10  and  C_12 
REMARK    3  A    between atoms: C_12  and  N_13 
REMARK    4  A    between atoms: N_13  and  C_14 
REMARK    5  A    between atoms: C_14  and  C_15 
REMARK    6  A    between atoms: C_15  and  O_16 
REMARK    7  A    between atoms: O_16  and  C_17 
REMARK    8  A    between atoms: C_17  and  C_18 
REMARK    9  A    between atoms: C_18  and  C_19 
REMARK   10  A    between atoms: C_19  and  N_20 
REMARK   11  A    between atoms: N_20  and  C_21 
REMARK   12  A    between atoms: C_21  and  C_22 
REMARK   13  A    between atoms: C_22  and  C_23 
ROOT
ATOM      1  C   UNL d   1       7.169   3.545 -14.354  0.00  0.00     0.152 C 
ENDROOT
BRANCH   1   2
ATOM      2  N   UNL d   1       7.683   2.188 -14.437  0.00  0.00    -0.290 NA
BRANCH   2   3
ATOM      3  C   UNL d   1       8.652   1.938 -15.500  0.00  0.00     0.157 C 
BRANCH   3   4
ATOM      4  C   UNL d   1       8.723   0.436 -15.844  0.00  0.00     0.199 C 
ATOM      5  O   UNL d   1       9.928   0.224 -16.544  0.00  0.00    -0.216 OA
BRANCH   4   6
ATOM      6  C   UNL d   1       7.486  -0.012 -16.631  0.00  0.00     0.018 A 
ATOM      7  C   UNL d   1       7.528  -0.129 -18.043  0.00  0.00     0.001 A 
ATOM      8  C   UNL d   1       6.388  -0.527 -18.782  0.00  0.00     0.029 A 
ATOM      9  C   UNL d   1       5.169  -0.805 -18.128  0.00  0.00     0.149 A 
ATOM     10  C   UNL d   1       5.127  -0.707 -16.727  0.00  0.00     0.116 A 
ATOM     11  O   UNL d   1       4.065  -1.175 -18.843  0.00  0.00    -0.189 OA
ATOM     12  N   UNL d   1       4.001  -0.955 -15.919  0.00  0.00    -0.200 NA
ATOM     13  C   UNL d   1       6.263  -0.346 -15.996  0.00  0.00     0.052 A 
ATOM     14  C   UNL d   1       4.187  -0.766 -14.556  0.00  0.00     0.311 A 
ATOM     15  O   UNL d   1       3.358  -0.809 -13.655  0.00  0.00    -0.258 OA
ATOM     16  S   UNL d   1       5.928  -0.364 -14.279  0.00  0.00    -0.024 SA
ENDBRANCH   4   6
ENDBRANCH   3   4
ENDBRANCH   2   3
ENDBRANCH   1   2
BRANCH   1  17
ATOM     17  C   UNL d   1       6.831   3.947 -12.928  0.00  0.00     0.168 C 
BRANCH  17  18
ATOM     18  O   UNL d   1       8.045   4.357 -12.334  0.00  0.00    -0.352 OA
BRANCH  18  19
ATOM     19  C   UNL d   1       7.878   4.763 -10.996  0.00  0.00     0.145 C 
BRANCH  19  20
ATOM     20  C   UNL d   1       9.261   4.932 -10.379  0.00  0.00     0.070 C 
BRANCH  20  21
ATOM     21  C   UNL d   1       9.181   5.382  -8.923  0.00  0.00     0.293 C 
BRANCH  21  22
ATOM     22  N   UNL d   1       9.078   6.833  -8.893  0.00  0.00     0.339 N 
BRANCH  22  23
ATOM     23  C   UNL d   1       9.283   7.374  -7.563  0.00  0.00     0.295 C 
BRANCH  23  24
ATOM     24  C   UNL d   1      10.765   7.262  -7.153  0.00  0.00     0.065 C 
BRANCH  24  25
ATOM     25  C   UNL d   1      11.062   7.950  -5.845  0.00  0.00    -0.019 A 
ATOM     26  C   UNL d   1      11.530   7.199  -4.751  0.00  0.00     0.007 A 
ATOM     27  C   UNL d   1      11.854   7.841  -3.545  0.00  0.00     0.057 A 
ATOM     28  C   UNL d   1      11.691   9.236  -3.423  0.00  0.00     0.011 A 
ATOM     29 CL   UNL d   1      12.346   6.889  -2.199  0.00  0.00    -0.082 Cl
ATOM     30  C   UNL d   1      11.199   9.986  -4.513  0.00  0.00     0.001 A 
ATOM     31  C   UNL d   1      10.903   9.346  -5.730  0.00  0.00    -0.004 A 
ENDBRANCH  24  25
ENDBRANCH  23  24
ENDBRANCH  22  23
ENDBRANCH  21  22
ENDBRANCH  20  21
ENDBRANCH  19  20
ENDBRANCH  18  19
ENDBRANCH  17  18
ENDBRANCH   1  17
TORSDOF 13
