REMARK  6 active torsions:
REMARK  status: ('A' for Active; 'I' for Inactive)
REMARK    1  A    between atoms: C_2  and  C_3 
REMARK    2  A    between atoms: N_13  and  C_14 
REMARK    3  A    between atoms: C_14  and  C_15 
REMARK    4  A    between atoms: C_15  and  C_17 
REMARK    5  A    between atoms: C_17  and  N_18 
REMARK    6  A    between atoms: N_21  and  C_22 
ROOT
ATOM      1  C   UNL d   1       6.390  -0.352 -17.454  0.00  0.00     0.066 A 
ATOM      2  C   UNL d   1       6.293  -0.546 -18.848  0.00  0.00     0.018 A 
ATOM      3  C   UNL d   1       5.111  -1.054 -19.424  0.00  0.00     0.002 A 
ATOM      4  C   UNL d   1       4.022  -1.390 -18.602  0.00  0.00     0.001 A 
ATOM      5  C   UNL d   1       4.116  -1.223 -17.215  0.00  0.00     0.012 A 
ATOM      6  C   UNL d   1       5.286  -0.704 -16.628  0.00  0.00     0.084 A 
ATOM      7  C   UNL d   1       5.303  -0.562 -15.178  0.00  0.00     0.102 C 
ATOM      8  N   UNL d   1       5.320  -0.438 -14.029  0.00  0.00    -0.191 NA
ENDROOT
BRANCH   1   9
ATOM      9  N   UNL d   1       7.580   0.182 -16.934  0.00  0.00    -0.344 N 
ATOM     10  C   UNL d   1       7.609   1.327 -16.036  0.00  0.00     0.137 C 
ATOM     11  C   UNL d   1       8.611   2.363 -16.557  0.00  0.00     0.274 C 
ATOM     12  N   UNL d   1       9.939   1.783 -16.785  0.00  0.00     0.144 N 
ATOM     13  C   UNL d   1       9.831   0.676 -17.738  0.00  0.00     0.274 C 
ATOM     14  C   UNL d   1       8.872  -0.408 -17.252  0.00  0.00     0.137 C 
BRANCH  12  15
ATOM     15  C   UNL d   1      10.846   2.807 -17.263  0.00  0.00     0.285 C 
BRANCH  15  16
ATOM     16  C   UNL d   1      12.344   2.408 -17.320  0.00  0.00     0.208 C 
ATOM     17  O   UNL d   1      12.604   1.766 -18.546  0.00  0.00    -0.219 OA
BRANCH  16  18
ATOM     18  C   UNL d   1      13.381   3.556 -17.221  0.00  0.00     0.148 C 
BRANCH  18  19
ATOM     19  N   UNL d   1      12.811   4.877 -17.478  0.00  0.00    -0.247 N 
ATOM     20  C   UNL d   1      12.393   5.725 -16.523  0.00  0.00     0.348 A 
ATOM     21  N   UNL d   1      11.881   6.793 -17.128  0.00  0.00    -0.209 NA
ATOM     22  O   UNL d   1      12.437   5.552 -15.307  0.00  0.00    -0.245 OA
ATOM     23  C   UNL d   1      11.969   6.744 -18.578  0.00  0.00     0.179 A 
ATOM     24  C   UNL d   1      10.549   6.817 -19.186  0.00  0.00     0.039 C 
ATOM     25  C   UNL d   1      12.562   5.348 -18.705  0.00  0.00     0.265 A 
ATOM     26  O   UNL d   1      12.745   4.757 -19.768  0.00  0.00    -0.269 OA
BRANCH  23  27
ATOM     27  C   UNL d   1      12.953   7.763 -19.174  0.00  0.00     0.006 A 
ATOM     28  C   UNL d   1      12.910   8.078 -20.554  0.00  0.00    -0.001 A 
ATOM     29  C   UNL d   1      13.802   9.014 -21.107  0.00  0.00     0.011 A 
ATOM     30  C   UNL d   1      14.762   9.641 -20.294  0.00  0.00     0.058 A 
ATOM     31  C   UNL d   1      14.831   9.327 -18.923  0.00  0.00     0.011 A 
ATOM     32 CL   UNL d   1      15.850  10.787 -20.982  0.00  0.00    -0.082 Cl
ATOM     33  C   UNL d   1      13.937   8.391 -18.367  0.00  0.00    -0.001 A 
ENDBRANCH  23  27
ENDBRANCH  18  19
ENDBRANCH  16  18
ENDBRANCH  15  16
ENDBRANCH  12  15
ENDBRANCH   1   9
TORSDOF 6
