REMARK  7 active torsions:
REMARK  status: ('A' for Active; 'I' for Inactive)
REMARK       I    between atoms: C_2  and  N_3 
REMARK    1  A    between atoms: C_2  and  C_23 
REMARK    2  A    between atoms: N_3  and  C_4 
REMARK    3  A    between atoms: C_4  and  C_5 
REMARK    4  A    between atoms: C_5  and  C_7 
REMARK    5  A    between atoms: C_7  and  C_8 
REMARK    6  A    between atoms: C_8  and  N_9 
REMARK    7  A    between atoms: N_12  and  C_13 
ROOT
ATOM      1  C   UNL d   1       4.884  -1.427 -15.497  0.00  0.00     0.178 C 
ATOM      2  O   UNL d   1       5.425  -2.716 -15.622  0.00  0.00    -0.221 OA
ENDROOT
BRANCH   1   3
ATOM      3  C   UNL d   1       4.876  -0.810 -16.916  0.00  0.00     0.162 C 
BRANCH   3   4
ATOM      4  N   UNL d   1       5.927   0.195 -17.160  0.00  0.00    -0.232 NA
ATOM      5  C   UNL d   1       6.878   0.072 -18.100  0.00  0.00     0.275 C 
ATOM      6  O   UNL d   1       6.942  -0.897 -18.861  0.00  0.00    -0.266 OA
BRANCH   5   7
ATOM      7  C   UNL d   1       7.869   1.202 -18.215  0.00  0.00     0.057 C 
ATOM      8  C   UNL d   1       8.406   1.787 -17.038  0.00  0.00     0.001 C 
ATOM      9  C   UNL d   1       9.292   2.881 -17.142  0.00  0.00    -0.018 A 
ATOM     10  C   UNL d   1       9.759   3.304 -18.378  0.00  0.00    -0.004 A 
ATOM     11  C   UNL d   1       9.898   3.693 -16.009  0.00  0.00     0.053 A 
ATOM     12  C   UNL d   1       9.336   2.650 -19.551  0.00  0.00    -0.000 C 
ATOM     13  C   UNL d   1      10.723   4.375 -18.139  0.00  0.00    -0.004 A 
ATOM     14  C   UNL d   1       8.382   1.603 -19.467  0.00  0.00     0.005 C 
ATOM     15  C   UNL d   1      10.823   4.602 -16.762  0.00  0.00    -0.018 A 
ATOM     16  C   UNL d   1      11.484   5.125 -19.034  0.00  0.00    -0.000 A 
ATOM     17  C   UNL d   1      11.608   5.635 -16.220  0.00  0.00    -0.004 A 
ATOM     18  C   UNL d   1      12.370   6.397 -17.123  0.00  0.00    -0.000 A 
ATOM     19  C   UNL d   1      12.319   6.133 -18.513  0.00  0.00    -0.000 A 
ENDBRANCH   5   7
ENDBRANCH   3   4
ENDBRANCH   1   3
BRANCH   1  20
ATOM     20  C   UNL d   1       5.652  -0.624 -14.414  0.00  0.00     0.070 C 
BRANCH  20  21
ATOM     21  C   UNL d   1       4.963   0.720 -14.090  0.00  0.00     0.253 C 
BRANCH  21  22
ATOM     22  N   UNL d   1       5.798   1.628 -13.291  0.00  0.00     0.141 N 
ATOM     23  C   UNL d   1       6.593   2.464 -14.178  0.00  0.00     0.274 C 
ATOM     24  C   UNL d   1       7.585   3.373 -13.431  0.00  0.00     0.137 C 
ATOM     25  N   UNL d   1       6.849   4.198 -12.525  0.00  0.00    -0.344 N 
ATOM     26  C   UNL d   1       5.939   3.476 -11.679  0.00  0.00     0.137 C 
ATOM     27  C   UNL d   1       5.040   2.583 -12.527  0.00  0.00     0.274 C 
BRANCH  25  28
ATOM     28  C   UNL d   1       6.989   5.581 -12.473  0.00  0.00     0.068 A 
ATOM     29  C   UNL d   1       8.248   6.164 -12.178  0.00  0.00     0.084 A 
ATOM     30  C   UNL d   1       8.355   7.568 -12.118  0.00  0.00     0.070 A 
ATOM     31 CL   UNL d   1       9.566   5.170 -11.769  0.00  0.00    -0.080 Cl
ATOM     32  C   UNL d   1       7.260   8.361 -12.448  0.00  0.00     0.012 A 
ATOM     33 CL   UNL d   1       9.743   8.331 -11.454  0.00  0.00    -0.081 Cl
ATOM     34  C   UNL d   1       6.021   7.780 -12.793  0.00  0.00     0.002 A 
ATOM     35  C   UNL d   1       5.909   6.393 -12.778  0.00  0.00     0.018 A 
ENDBRANCH  25  28
ENDBRANCH  21  22
ENDBRANCH  20  21
ENDBRANCH   1  20
TORSDOF 7
