REMARK  8 active torsions:
REMARK  status: ('A' for Active; 'I' for Inactive)
REMARK    1  A    between atoms: C_2  and  N_4 
REMARK    2  A    between atoms: C_5  and  C_6 
REMARK    3  A    between atoms: C_7  and  C_8 
REMARK    4  A    between atoms: C_8  and  C_10 
REMARK    5  A    between atoms: C_10  and  C_11 
REMARK    6  A    between atoms: C_11  and  C_13 
REMARK    7  A    between atoms: C_13  and  C_14 
REMARK    8  A    between atoms: C_17  and  C_18 
ROOT
ATOM      1  N   UNL d   1       7.078   2.587 -14.190  0.00  0.00    -0.329 N 
ATOM      2  C   UNL d   1       7.481   1.672 -15.174  0.00  0.00     0.060 A 
ATOM      3  C   UNL d   1       8.808   1.842 -15.504  0.00  0.00     0.017 A 
ATOM      4  C   UNL d   1       9.281   2.896 -14.645  0.00  0.00     0.017 A 
ATOM      5  C   UNL d   1      10.538   3.511 -14.438  0.00  0.00     0.002 A 
ATOM      6  C   UNL d   1      10.675   4.584 -13.550  0.00  0.00     0.000 A 
ATOM      7  C   UNL d   1       9.585   5.046 -12.791  0.00  0.00     0.002 A 
ATOM      8  C   UNL d   1       8.338   4.419 -12.928  0.00  0.00     0.017 A 
ATOM      9  C   UNL d   1       8.183   3.365 -13.854  0.00  0.00     0.060 A 
ENDROOT
BRANCH   2  10
ATOM     10  C   UNL d   1       6.596   0.706 -15.742  0.00  0.00     0.015 C 
ATOM     11  C   UNL d   1       5.728  -0.140 -15.149  0.00  0.00     0.008 C 
BRANCH  11  12
ATOM     12  C   UNL d   1       4.809  -1.126 -15.846  0.00  0.00     0.177 C 
ATOM     13  O   UNL d   1       3.529  -1.073 -15.255  0.00  0.00    -0.218 OA
BRANCH  12  14
ATOM     14  C   UNL d   1       4.673  -0.911 -17.368  0.00  0.00     0.071 C 
BRANCH  14  15
ATOM     15  C   UNL d   1       5.837  -1.543 -18.187  0.00  0.00     0.166 C 
ATOM     16  O   UNL d   1       5.801  -1.051 -19.508  0.00  0.00    -0.223 OA
BRANCH  15  17
ATOM     17  C   UNL d   1       5.922  -3.087 -18.170  0.00  0.00     0.131 C 
BRANCH  17  18
ATOM     18  C   UNL d   1       4.638  -3.850 -18.502  0.00  0.00     0.188 C 
ATOM     19  O   UNL d   1       3.687  -3.378 -19.114  0.00  0.00    -0.647 OA
ATOM     20  O   UNL d   1       4.654  -5.114 -18.004  0.00  0.00    -0.647 OA
ENDBRANCH  17  18
ENDBRANCH  15  17
ENDBRANCH  14  15
ENDBRANCH  12  14
ENDBRANCH  11  12
ENDBRANCH   2  10
BRANCH   1  21
ATOM     21  C   UNL d   1       5.736   2.712 -13.602  0.00  0.00     0.086 C 
ATOM     22  C   UNL d   1       5.124   4.113 -13.748  0.00  0.00     0.025 C 
ATOM     23  C   UNL d   1       5.678   2.188 -12.184  0.00  0.00     0.025 C 
ENDBRANCH   1  21
BRANCH   3  24
ATOM     24  C   UNL d   1       9.687   1.128 -16.468  0.00  0.00     0.002 A 
ATOM     25  C   UNL d   1       9.494  -0.247 -16.760  0.00  0.00     0.002 A 
ATOM     26  C   UNL d   1      10.344  -0.930 -17.657  0.00  0.00     0.030 A 
ATOM     27  C   UNL d   1      11.424  -0.255 -18.255  0.00  0.00     0.140 A 
ATOM     28  C   UNL d   1      11.626   1.110 -17.981  0.00  0.00     0.030 A 
ATOM     29  F   UNL d   1      12.249  -0.906 -19.110  0.00  0.00    -0.204 F 
ATOM     30  C   UNL d   1      10.736   1.804 -17.136  0.00  0.00     0.002 A 
ENDBRANCH   3  24
TORSDOF 8
