REMARK  6 active torsions:
REMARK  status: ('A' for Active; 'I' for Inactive)
REMARK    1  A    between atoms: N_9  and  C_10 
REMARK    2  A    between atoms: C_10  and  C_11 
REMARK    3  A    between atoms: C_11  and  C_12 
REMARK    4  A    between atoms: C_12  and  C_13 
REMARK    5  A    between atoms: C_13  and  N_14 
REMARK    6  A    between atoms: N_17  and  C_18 
ROOT
ATOM      1  N   UNL d   1      20.372  11.175 -20.897  0.00  0.00    -0.191 NA
ATOM      2  C   UNL d   1      19.908  10.347 -20.235  0.00  0.00     0.101 C 
ATOM      3  C   UNL d   1      19.329   9.336 -19.417  0.00  0.00     0.073 A 
ATOM      4  C   UNL d   1      19.773   9.191 -18.038  0.00  0.00     0.029 A 
ATOM      5  C   UNL d   1      19.234   8.225 -17.271  0.00  0.00     0.087 A 
ATOM      6  N   UNL d   1      18.263   7.379 -17.809  0.00  0.00    -0.241 N 
ATOM      7  C   UNL d   1      17.614   6.391 -17.201  0.00  0.00     0.352 A 
ATOM      8  O   UNL d   1      17.747   5.992 -16.041  0.00  0.00    -0.244 OA
ATOM      9  N   UNL d   1      16.773   5.945 -18.139  0.00  0.00    -0.201 N 
ATOM     10  N   UNL d   1      16.877   6.588 -19.334  0.00  0.00    -0.147 NA
ATOM     11  C   UNL d   1      17.789   7.473 -19.108  0.00  0.00     0.172 A 
ATOM     12  C   UNL d   1      18.381   8.513 -19.930  0.00  0.00     0.050 A 
ENDROOT
BRANCH   9  13
ATOM     13  C   UNL d   1      15.826   4.842 -17.999  0.00  0.00     0.133 C 
BRANCH  13  14
ATOM     14  C   UNL d   1      14.415   5.348 -17.672  0.00  0.00     0.029 C 
BRANCH  14  15
ATOM     15  C   UNL d   1      13.519   4.262 -17.064  0.00  0.00     0.037 C 
BRANCH  15  16
ATOM     16  C   UNL d   1      12.018   4.556 -17.246  0.00  0.00     0.251 C 
BRANCH  16  17
ATOM     17  N   UNL d   1      11.181   3.486 -16.698  0.00  0.00     0.141 N 
ATOM     18  C   UNL d   1       9.807   3.639 -17.205  0.00  0.00     0.274 C 
ATOM     19  C   UNL d   1       8.898   2.511 -16.673  0.00  0.00     0.137 C 
ATOM     20  N   UNL d   1       8.952   2.499 -15.224  0.00  0.00    -0.344 N 
ATOM     21  C   UNL d   1      10.277   2.439 -14.636  0.00  0.00     0.137 C 
ATOM     22  C   UNL d   1      11.154   3.554 -15.226  0.00  0.00     0.274 C 
BRANCH  20  23
ATOM     23  C   UNL d   1       7.789   2.496 -14.443  0.00  0.00     0.057 A 
ATOM     24  C   UNL d   1       6.891   1.394 -14.475  0.00  0.00     0.022 A 
ATOM     25  C   UNL d   1       5.731   1.466 -13.638  0.00  0.00     0.031 A 
ATOM     26  C   UNL d   1       6.938   0.151 -15.219  0.00  0.00     0.009 A 
ATOM     27  C   UNL d   1       5.464   2.591 -12.839  0.00  0.00     0.007 A 
ATOM     28  S   UNL d   1       4.749   0.014 -13.802  0.00  0.00    -0.086 SA
ATOM     29  C   UNL d   1       6.360   3.675 -12.841  0.00  0.00     0.002 A 
ATOM     30  C   UNL d   1       7.522   3.620 -13.633  0.00  0.00     0.017 A 
ATOM     31  C   UNL d   1       5.862  -0.654 -14.950  0.00  0.00     0.035 A 
ENDBRANCH  20  23
ENDBRANCH  16  17
ENDBRANCH  15  16
ENDBRANCH  14  15
ENDBRANCH  13  14
ENDBRANCH   9  13
TORSDOF 6
