REMARK  7 active torsions:
REMARK  status: ('A' for Active; 'I' for Inactive)
REMARK    1  A    between atoms: C_2  and  C_3 
REMARK    2  A    between atoms: C_3  and  N_4 
REMARK    3  A    between atoms: N_4  and  C_5 
REMARK    4  A    between atoms: N_4  and  C_19 
REMARK    5  A    between atoms: C_5  and  C_6 
REMARK    6  A    between atoms: C_6  and  N_7 
REMARK    7  A    between atoms: N_10  and  C_11 
ROOT
ATOM      1  N   UNL d   1       8.626   5.037 -12.721  0.00  0.00     0.137 N 
ENDROOT
BRANCH   1   2
ATOM      2  C   UNL d   1       8.007   6.321 -13.005  0.00  0.00     0.250 C 
BRANCH   2   3
ATOM      3  C   UNL d   1       6.636   6.485 -12.283  0.00  0.00     0.035 C 
ATOM      4  C   UNL d   1       6.001   7.861 -12.513  0.00  0.00     0.002 C 
ENDBRANCH   2   3
ENDBRANCH   1   2
BRANCH   1   5
ATOM      5  C   UNL d   1       9.553   5.117 -11.593  0.00  0.00     0.285 C 
BRANCH   5   6
ATOM      6  C   UNL d   1       9.109   5.910 -10.347  0.00  0.00     0.286 C 
BRANCH   6   7
ATOM      7  N   UNL d   1      10.216   6.208  -9.445  0.00  0.00     0.143 N 
ATOM      8  C   UNL d   1      10.531   7.647  -9.426  0.00  0.00     0.274 C 
ATOM      9  C   UNL d   1      11.676   8.017  -8.472  0.00  0.00     0.137 C 
ATOM     10  N   UNL d   1      11.395   7.463  -7.150  0.00  0.00    -0.344 N 
ATOM     11  C   UNL d   1      10.993   6.066  -7.087  0.00  0.00     0.137 C 
ATOM     12  C   UNL d   1       9.876   5.782  -8.100  0.00  0.00     0.274 C 
BRANCH  10  13
ATOM     13  C   UNL d   1      11.393   8.246  -5.976  0.00  0.00     0.056 A 
ATOM     14  C   UNL d   1      11.028   9.598  -6.029  0.00  0.00     0.017 A 
ATOM     15  C   UNL d   1      11.049  10.377  -4.867  0.00  0.00     0.002 A 
ATOM     16  C   UNL d   1      11.455   9.818  -3.640  0.00  0.00     0.000 A 
ATOM     17  C   UNL d   1      11.820   8.463  -3.582  0.00  0.00     0.002 A 
ATOM     18  C   UNL d   1      11.756   7.670  -4.740  0.00  0.00     0.017 A 
ENDBRANCH  10  13
ENDBRANCH   6   7
ENDBRANCH   5   6
ENDBRANCH   1   5
BRANCH   1  19
ATOM     19  C   UNL d   1       9.232   4.406 -13.935  0.00  0.00     0.224 C 
ATOM     20  C   UNL d   1       9.243   2.859 -13.932  0.00  0.00     0.059 C 
ATOM     21  C   UNL d   1       9.945   2.258 -15.163  0.00  0.00    -0.022 A 
ATOM     22  C   UNL d   1      10.815   3.012 -15.960  0.00  0.00    -0.026 A 
ATOM     23  C   UNL d   1       9.712   0.911 -15.467  0.00  0.00     0.023 A 
ATOM     24  C   UNL d   1      11.069   4.493 -15.714  0.00  0.00     0.028 C 
ATOM     25  C   UNL d   1      11.488   2.394 -17.043  0.00  0.00    -0.003 A 
ATOM     26  C   UNL d   1      10.630   4.925 -14.318  0.00  0.00     0.038 C 
ATOM     27  C   UNL d   1      11.273   1.049 -17.354  0.00  0.00     0.027 A 
ATOM     28  C   UNL d   1      10.373   0.309 -16.567  0.00  0.00     0.131 A 
ATOM     29  O   UNL d   1      10.138  -1.012 -16.853  0.00  0.00    -0.190 OA
ENDBRANCH   1  19
TORSDOF 7
