REMARK  3 active torsions:
REMARK  status: ('A' for Active; 'I' for Inactive)
REMARK       I    between atoms: C_2  and  N_4 
REMARK    1  A    between atoms: N_4  and  C_5 
REMARK    2  A    between atoms: C_8  and  C_9 
REMARK    3  A    between atoms: C_9  and  N_10 
ROOT
ATOM      1  N   UNL d   1       9.003   5.301 -11.141  0.00  0.00     0.142 N 
ATOM      2  C   UNL d   1       7.551   5.522 -11.244  0.00  0.00     0.254 C 
ATOM      3  C   UNL d   1       7.110   4.353 -12.099  0.00  0.00     0.070 C 
ATOM      4  C   UNL d   1       5.793   4.351 -12.847  0.00  0.00     0.151 C 
ATOM      5  O   UNL d   1       5.678   3.144 -13.622  0.00  0.00    -0.331 OA
ATOM      6  C   UNL d   1       6.804   2.641 -14.260  0.00  0.00     0.090 A 
ATOM      7  C   UNL d   1       6.649   1.560 -15.146  0.00  0.00     0.025 A 
ATOM      8  C   UNL d   1       7.751   1.003 -15.817  0.00  0.00     0.012 A 
ATOM      9  C   UNL d   1       9.041   1.512 -15.583  0.00  0.00     0.068 A 
ATOM     10  C   UNL d   1      10.168   0.918 -16.278  0.00  0.00     0.101 C 
ATOM     11  N   UNL d   1      11.061   0.441 -16.835  0.00  0.00    -0.191 NA
ATOM     12  C   UNL d   1       9.221   2.592 -14.694  0.00  0.00     0.008 A 
ATOM     13  C   UNL d   1       8.102   3.152 -14.037  0.00  0.00     0.003 A 
ATOM     14  C   UNL d   1       8.229   4.327 -13.103  0.00  0.00     0.062 C 
ATOM     15  C   UNL d   1       9.456   4.416 -12.223  0.00  0.00     0.255 C 
ENDROOT
BRANCH   1  16
ATOM     16  C   UNL d   1       9.697   6.574 -11.058  0.00  0.00     0.277 C 
BRANCH  16  17
ATOM     17  C   UNL d   1       9.981   7.063  -9.655  0.00  0.00     0.011 A 
ATOM     18  C   UNL d   1       9.912   6.208  -8.536  0.00  0.00    -0.001 A 
ATOM     19  C   UNL d   1      10.243   6.692  -7.259  0.00  0.00     0.019 A 
ATOM     20  C   UNL d   1      10.661   8.026  -7.083  0.00  0.00     0.084 A 
ATOM     21  C   UNL d   1      10.753   8.872  -8.212  0.00  0.00     0.019 A 
ATOM     22  C   UNL d   1      10.419   8.391  -9.489  0.00  0.00    -0.001 A 
BRANCH  20  23
ATOM     23  N   UNL d   1      10.973   8.415  -5.753  0.00  0.00    -0.212 NA
ATOM     24  C   UNL d   1      11.555   9.536  -5.308  0.00  0.00     0.256 C 
ATOM     25  C   UNL d   1      11.847   9.586  -3.811  0.00  0.00     0.100 C 
ATOM     26  O   UNL d   1      11.859  10.496  -6.018  0.00  0.00    -0.270 OA
ENDBRANCH  20  23
ENDBRANCH  16  17
ENDBRANCH   1  16
TORSDOF 3
