REMARK  3 active torsions:
REMARK  status: ('A' for Active; 'I' for Inactive)
REMARK    1  A    between atoms: C_2  and  O_3 
REMARK    2  A    between atoms: O_3  and  C_4 
REMARK    3  A    between atoms: C_4  and  C_5 
ROOT
ATOM      1  C   UNL d   1       7.475   1.316 -15.042  0.00  0.00     0.130 A 
ATOM      2  C   UNL d   1       7.479   2.679 -14.339  0.00  0.00     0.006 A 
ATOM      3  C   UNL d   1       6.614   3.327 -13.431  0.00  0.00    -0.002 A 
ATOM      4  C   UNL d   1       7.021   4.551 -12.843  0.00  0.00    -0.001 A 
ATOM      5  C   UNL d   1       8.280   5.133 -13.156  0.00  0.00    -0.004 A 
ATOM      6  C   UNL d   1       9.145   4.494 -14.072  0.00  0.00    -0.020 A 
ATOM      7  C   UNL d   1       8.687   3.300 -14.629  0.00  0.00    -0.006 A 
ATOM      8  C   UNL d   1       9.433   2.510 -15.570  0.00  0.00    -0.004 A 
ATOM      9  C   UNL d   1       8.795   1.308 -15.839  0.00  0.00     0.006 A 
ATOM     10  C   UNL d   1       9.448   0.388 -16.702  0.00  0.00    -0.002 A 
ATOM     11  C   UNL d   1      10.696   0.723 -17.288  0.00  0.00    -0.005 A 
ATOM     12  C   UNL d   1      11.310   1.979 -17.036  0.00  0.00    -0.022 A 
ATOM     13  C   UNL d   1      10.639   2.853 -16.165  0.00  0.00     0.005 A 
ATOM     14  C   UNL d   1      11.021   4.314 -15.889  0.00  0.00     0.246 C 
ATOM     15  C   UNL d   1      10.573   4.847 -14.488  0.00  0.00     0.064 C 
ATOM     16  N   UNL d   1      12.451   4.543 -16.150  0.00  0.00     0.142 N 
ATOM     17  C   UNL d   1      12.796   5.960 -16.112  0.00  0.00     0.286 C 
ATOM     18  C   UNL d   1      12.769   4.042 -17.489  0.00  0.00     0.255 C 
ATOM     19  C   UNL d   1      12.641   2.507 -17.535  0.00  0.00     0.061 C 
ENDROOT
BRANCH   1  20
ATOM     20  O   UNL d   1       6.329   1.153 -15.898  0.00  0.00    -0.351 OA
BRANCH  20  21
ATOM     21  C   UNL d   1       6.124  -0.118 -16.556  0.00  0.00     0.143 C 
ATOM     22  C   UNL d   1       5.449  -1.179 -15.687  0.00  0.00     0.035 C 
ENDBRANCH  20  21
ENDBRANCH   1  20
BRANCH   1  23
ATOM     23  C   UNL d   1       7.452   0.196 -13.984  0.00  0.00     0.036 C 
ATOM     24  C   UNL d   1       6.176   0.099 -13.129  0.00  0.00     0.003 C 
ENDBRANCH   1  23
TORSDOF 3
