REMARK  3 active torsions:
REMARK  status: ('A' for Active; 'I' for Inactive)
REMARK    1  A    between atoms: C_9  and  C_10 
REMARK    2  A    between atoms: C_10  and  N_11 
REMARK    3  A    between atoms: N_11  and  C_12 
ROOT
ATOM      1  N   UNL d   1      10.899   9.017 -10.246  0.00  0.00    -0.100 NA
ATOM      2  C   UNL d   1      10.395   7.791  -9.834  0.00  0.00     0.074 A 
ATOM      3  C   UNL d   1       9.517   7.069 -10.675  0.00  0.00     0.048 A 
ATOM      4 BR   UNL d   1       9.009   7.728 -12.384  0.00  0.00    -0.048 Br
ATOM      5  C   UNL d   1       9.001   5.834 -10.257  0.00  0.00     0.015 A 
ATOM      6  C   UNL d   1       9.362   5.347  -9.002  0.00  0.00     0.035 A 
ATOM      7 BR   UNL d   1       8.662   3.711  -8.438  0.00  0.00    -0.049 Br
ATOM      8  C   UNL d   1      10.235   6.038  -8.162  0.00  0.00     0.005 A 
ATOM      9  C   UNL d   1      10.762   7.272  -8.577  0.00  0.00     0.028 A 
ENDROOT
BRANCH   9  10
ATOM     10  C   UNL d   1      11.725   7.987  -7.654  0.00  0.00     0.318 C 
BRANCH  10  11
ATOM     11  N   UNL d   1      11.008   8.651  -6.579  0.00  0.00     0.342 N 
BRANCH  11  12
ATOM     12  C   UNL d   1      11.828   8.726  -5.381  0.00  0.00     0.257 C 
ATOM     13  C   UNL d   1      11.790   7.361  -4.636  0.00  0.00     0.039 C 
ATOM     14  C   UNL d   1      12.572   7.411  -3.320  0.00  0.00     0.035 C 
ATOM     15  C   UNL d   1      12.058   8.528  -2.429  0.00  0.00     0.152 C 
ATOM     16  C   UNL d   1      12.055   9.852  -3.184  0.00  0.00     0.035 C 
ATOM     17  O   UNL d   1      12.935   8.655  -1.331  0.00  0.00    -0.224 OA
ATOM     18  C   UNL d   1      11.289   9.834  -4.499  0.00  0.00     0.039 C 
ENDBRANCH  11  12
ENDBRANCH  10  11
ENDBRANCH   9  10
TORSDOF 3
