REMARK  7 active torsions:
REMARK  status: ('A' for Active; 'I' for Inactive)
REMARK    1  A    between atoms: C_2  and  C_3 
REMARK    2  A    between atoms: C_3  and  C_5 
REMARK       I    between atoms: C_5  and  N_7 
REMARK    3  A    between atoms: N_7  and  C_8 
REMARK    4  A    between atoms: C_11  and  C_12 
REMARK    5  A    between atoms: C_12  and  C_13 
REMARK    6  A    between atoms: C_13  and  N_14 
REMARK    7  A    between atoms: C_17  and  C_18 
ROOT
ATOM      1  N   UNL d   1       9.720   5.051 -12.252  0.00  0.00     0.137 N 
ATOM      2  C   UNL d   1       8.955   5.617 -13.348  0.00  0.00     0.251 C 
ATOM      3  C   UNL d   1       9.539   5.159 -14.694  0.00  0.00     0.040 C 
ATOM      4  C   UNL d   1       9.552   3.629 -14.863  0.00  0.00     0.028 C 
ATOM      5  C   UNL d   1      10.226   3.051 -13.613  0.00  0.00     0.040 C 
ATOM      6  C   UNL d   1       9.627   3.601 -12.319  0.00  0.00     0.251 C 
ENDROOT
BRANCH   1   7
ATOM      7  C   UNL d   1       9.194   5.516 -10.972  0.00  0.00     0.250 C 
BRANCH   7   8
ATOM      8  C   UNL d   1       9.749   6.915 -10.643  0.00  0.00     0.035 C 
BRANCH   8   9
ATOM      9  C   UNL d   1      10.206   7.085  -9.183  0.00  0.00     0.002 C 
ATOM     10  C   UNL d   1      11.303   8.152  -9.067  0.00  0.00     0.002 C 
ATOM     11  C   UNL d   1      11.749   8.305  -7.608  0.00  0.00     0.024 C 
ATOM     12  C   UNL d   1      10.564   8.630  -6.666  0.00  0.00     0.106 C 
ATOM     13  C   UNL d   1       9.406   7.619  -6.814  0.00  0.00     0.024 C 
ATOM     14  C   UNL d   1       9.045   7.490  -8.285  0.00  0.00     0.002 C 
BRANCH  12  15
ATOM     15  N   UNL d   1      10.984   8.750  -5.273  0.00  0.00    -0.240 NA
ATOM     16  C   UNL d   1      11.489   7.754  -4.540  0.00  0.00     0.251 C 
ATOM     17  O   UNL d   1      11.792   6.654  -4.996  0.00  0.00    -0.271 OA
BRANCH  16  18
ATOM     18  C   UNL d   1      11.621   8.003  -3.043  0.00  0.00     0.081 C 
ATOM     19  C   UNL d   1      11.217   6.720  -2.300  0.00  0.00     0.010 C 
BRANCH  18  20
ATOM     20  C   UNL d   1      13.051   8.415  -2.720  0.00  0.00     0.009 C 
ATOM     21  C   UNL d   1      13.220   8.786  -1.247  0.00  0.00     0.001 C 
ENDBRANCH  18  20
ENDBRANCH  16  18
ENDBRANCH  12  15
ENDBRANCH   8   9
ENDBRANCH   7   8
ENDBRANCH   1   7
BRANCH   4  22
ATOM     22  C   UNL d   1      10.203   3.152 -16.172  0.00  0.00     0.002 A 
ATOM     23  C   UNL d   1       9.939   3.784 -17.408  0.00  0.00     0.115 A 
ATOM     24  C   UNL d   1      10.550   3.394 -18.583  0.00  0.00     0.119 A 
ATOM     25  O   UNL d   1       9.118   4.833 -17.677  0.00  0.00    -0.300 OA
ATOM     26  C   UNL d   1      11.459   2.321 -18.626  0.00  0.00     0.026 A 
ATOM     27  O   UNL d   1      10.138   4.196 -19.598  0.00  0.00    -0.300 OA
ATOM     28  C   UNL d   1      11.729   1.651 -17.416  0.00  0.00     0.002 A 
ATOM     29  C   UNL d   1      11.112   2.052 -16.212  0.00  0.00    -0.002 A 
ATOM     30  C   UNL d   1       9.241   5.116 -19.034  0.00  0.00     0.304 A 
ENDBRANCH   4  22
TORSDOF 7
