REMARK  6 active torsions:
REMARK  status: ('A' for Active; 'I' for Inactive)
REMARK    1  A    between atoms: C_2  and  C_3 
REMARK    2  A    between atoms: N_13  and  C_14 
REMARK    3  A    between atoms: C_14  and  C_15 
REMARK    4  A    between atoms: C_15  and  C_17 
REMARK    5  A    between atoms: C_17  and  N_18 
REMARK    6  A    between atoms: N_21  and  C_22 
ROOT
ATOM      1  C   UNL d   1       8.350   4.851 -10.693  0.00  0.00     0.208 C 
ATOM      2  O   UNL d   1       7.151   4.069 -10.898  0.00  0.00    -0.219 OA
ENDROOT
BRANCH   1   3
ATOM      3  C   UNL d   1       8.555   5.724 -11.938  0.00  0.00     0.148 C 
BRANCH   3   4
ATOM      4  N   UNL d   1       8.758   4.899 -13.149  0.00  0.00    -0.247 N 
ATOM      5  C   UNL d   1       7.816   4.245 -13.852  0.00  0.00     0.348 C 
ATOM      6  N   UNL d   1       8.423   3.563 -14.835  0.00  0.00    -0.209 NA
ATOM      7  O   UNL d   1       6.601   4.257 -13.686  0.00  0.00    -0.245 OA
ATOM      8  C   UNL d   1       9.832   3.849 -14.960  0.00  0.00     0.179 C 
ATOM      9  C   UNL d   1      10.619   2.540 -14.873  0.00  0.00     0.039 C 
ATOM     10  C   UNL d   1       9.960   4.638 -13.678  0.00  0.00     0.265 C 
ATOM     11  O   UNL d   1      11.056   4.904 -13.233  0.00  0.00    -0.269 OA
BRANCH   8  12
ATOM     12  C   UNL d   1      10.228   4.700 -16.199  0.00  0.00     0.006 A 
ATOM     13  C   UNL d   1      11.368   5.555 -16.200  0.00  0.00     0.000 A 
ATOM     14  C   UNL d   1      11.712   6.328 -17.321  0.00  0.00     0.029 A 
ATOM     15  C   UNL d   1      10.947   6.245 -18.495  0.00  0.00     0.140 A 
ATOM     16  C   UNL d   1       9.833   5.386 -18.534  0.00  0.00     0.029 A 
ATOM     17  F   UNL d   1      11.293   6.977 -19.581  0.00  0.00    -0.204 F 
ATOM     18  C   UNL d   1       9.485   4.615 -17.402  0.00  0.00     0.000 A 
ENDBRANCH   8  12
ENDBRANCH   3   4
ENDBRANCH   1   3
BRANCH   1  19
ATOM     19  C   UNL d   1       8.060   5.666  -9.433  0.00  0.00     0.285 C 
BRANCH  19  20
ATOM     20  N   UNL d   1       9.161   6.413  -8.887  0.00  0.00     0.144 N 
ATOM     21  C   UNL d   1      10.112   5.534  -8.243  0.00  0.00     0.274 C 
ATOM     22  C   UNL d   1      11.281   6.320  -7.638  0.00  0.00     0.137 C 
ATOM     23  N   UNL d   1      10.806   7.365  -6.759  0.00  0.00    -0.344 N 
ATOM     24  C   UNL d   1       9.771   8.200  -7.296  0.00  0.00     0.137 C 
ATOM     25  C   UNL d   1       8.691   7.316  -7.826  0.00  0.00     0.274 C 
BRANCH  23  26
ATOM     26  C   UNL d   1      11.298   7.551  -5.444  0.00  0.00     0.068 A 
ATOM     27  C   UNL d   1      11.425   8.812  -4.830  0.00  0.00     0.084 A 
ATOM     28  C   UNL d   1      11.866   8.811  -3.503  0.00  0.00     0.070 A 
ATOM     29 CL   UNL d   1      11.145  10.354  -5.602  0.00  0.00    -0.080 Cl
ATOM     30  C   UNL d   1      12.284   7.700  -2.776  0.00  0.00     0.012 A 
ATOM     31 CL   UNL d   1      11.868  10.262  -2.797  0.00  0.00    -0.081 Cl
ATOM     32  C   UNL d   1      12.249   6.466  -3.410  0.00  0.00     0.002 A 
ATOM     33  C   UNL d   1      11.751   6.431  -4.734  0.00  0.00     0.018 A 
ENDBRANCH  23  26
ENDBRANCH  19  20
ENDBRANCH   1  19
TORSDOF 6
