REMARK  5 active torsions:
REMARK  status: ('A' for Active; 'I' for Inactive)
REMARK       I    between atoms: N_10  and  C_11 
REMARK    1  A    between atoms: C_11  and  C_13 
REMARK    2  A    between atoms: C_13  and  N_14 
REMARK    3  A    between atoms: N_17  and  C_18 
REMARK    4  A    between atoms: C_18  and  C_19 
REMARK    5  A    between atoms: C_22  and  C_23 
ROOT
ATOM      1  N   UNL d   1      10.184   2.647 -15.038  0.00  0.00     0.151 N 
ATOM      2  C   UNL d   1      10.759   2.948 -13.734  0.00  0.00     0.286 C 
ATOM      3  C   UNL d   1       9.775   3.706 -12.838  0.00  0.00     0.286 C 
ATOM      4  N   UNL d   1       9.347   4.971 -13.442  0.00  0.00     0.146 N 
ATOM      5  C   UNL d   1       8.753   4.664 -14.741  0.00  0.00     0.286 C 
ATOM      6  C   UNL d   1       9.727   3.900 -15.647  0.00  0.00     0.286 C 
ENDROOT
BRANCH   1   7
ATOM      7  C   UNL d   1      11.154   1.965 -15.893  0.00  0.00     0.337 C 
BRANCH   7   8
ATOM      8  C   UNL d   1      10.542   0.764 -16.644  0.00  0.00     0.271 C 
ATOM      9  N   UNL d   1      10.580   0.735 -17.997  0.00  0.00    -0.299 N 
ATOM     10  C   UNL d   1      11.411   1.641 -18.821  0.00  0.00     0.093 A 
ATOM     11  C   UNL d   1       9.776  -0.082 -18.828  0.00  0.00     0.058 A 
ATOM     12  C   UNL d   1      12.933   1.511 -18.527  0.00  0.00     0.025 C 
ATOM     13  C   UNL d   1      11.102   1.263 -20.286  0.00  0.00     0.051 A 
ATOM     14  C   UNL d   1      10.041   0.204 -20.162  0.00  0.00    -0.004 A 
ATOM     15  C   UNL d   1       9.347  -0.434 -21.204  0.00  0.00    -0.003 A 
ATOM     16  C   UNL d   1       8.359  -1.383 -20.869  0.00  0.00    -0.000 A 
ATOM     17  C   UNL d   1       8.086  -1.678 -19.517  0.00  0.00     0.002 A 
ATOM     18  C   UNL d   1       8.784  -1.029 -18.480  0.00  0.00     0.017 A 
ATOM     19  O   UNL d   1      10.104  -0.162 -15.951  0.00  0.00    -0.270 OA
ENDBRANCH   7   8
ENDBRANCH   1   7
BRANCH   4  20
ATOM     20  C   UNL d   1       8.387   5.685 -12.605  0.00  0.00     0.277 C 
BRANCH  20  21
ATOM     21  C   UNL d   1       8.988   6.231 -11.324  0.00  0.00     0.011 A 
ATOM     22  C   UNL d   1       9.066   5.408 -10.184  0.00  0.00    -0.003 A 
ATOM     23  C   UNL d   1       9.645   5.890  -8.998  0.00  0.00    -0.005 A 
ATOM     24  C   UNL d   1      10.134   7.219  -8.910  0.00  0.00    -0.023 A 
ATOM     25  C   UNL d   1      10.019   8.050 -10.056  0.00  0.00    -0.005 A 
ATOM     26  C   UNL d   1       9.462   7.554 -11.261  0.00  0.00    -0.003 A 
BRANCH  24  27
ATOM     27  C   UNL d   1      10.773   7.757  -7.604  0.00  0.00     0.019 C 
ATOM     28  C   UNL d   1      11.142   6.614  -6.630  0.00  0.00     0.004 C 
ATOM     29  C   UNL d   1       9.796   8.697  -6.871  0.00  0.00     0.004 C 
ATOM     30  C   UNL d   1      12.064   8.544  -7.914  0.00  0.00     0.004 C 
ENDBRANCH  24  27
ENDBRANCH  20  21
ENDBRANCH   4  20
TORSDOF 5
