REMARK  6 active torsions:
REMARK  status: ('A' for Active; 'I' for Inactive)
REMARK    1  A    between atoms: C_8  and  O_9 
REMARK    2  A    between atoms: O_9  and  C_10 
REMARK    3  A    between atoms: C_10  and  C_11 
REMARK    4  A    between atoms: C_11  and  C_12 
REMARK    5  A    between atoms: C_12  and  N_13 
REMARK    6  A    between atoms: N_16  and  C_17 
ROOT
ATOM      1  N   UNL d   1       8.327   5.375 -11.809  0.00  0.00     0.141 N 
ATOM      2  C   UNL d   1       9.233   4.409 -12.429  0.00  0.00     0.274 C 
ATOM      3  C   UNL d   1       8.711   3.975 -13.788  0.00  0.00     0.137 C 
ATOM      4  N   UNL d   1       7.353   3.448 -13.697  0.00  0.00    -0.344 N 
ATOM      5  C   UNL d   1       6.415   4.316 -12.998  0.00  0.00     0.137 C 
ATOM      6  C   UNL d   1       7.016   4.736 -11.642  0.00  0.00     0.274 C 
ENDROOT
BRANCH   1   7
ATOM      7  C   UNL d   1       8.870   5.747 -10.508  0.00  0.00     0.253 C 
BRANCH   7   8
ATOM      8  C   UNL d   1       9.704   7.032 -10.631  0.00  0.00     0.068 C 
BRANCH   8   9
ATOM      9  C   UNL d   1      10.688   7.193  -9.470  0.00  0.00     0.151 C 
BRANCH   9  10
ATOM     10  O   UNL d   1      10.055   7.075  -8.191  0.00  0.00    -0.331 OA
BRANCH  10  11
ATOM     11  C   UNL d   1      10.619   7.781  -7.154  0.00  0.00     0.094 A 
ATOM     12  C   UNL d   1      10.950   9.159  -7.286  0.00  0.00     0.024 A 
ATOM     13  C   UNL d   1      11.547   9.878  -6.231  0.00  0.00    -0.000 A 
ATOM     14  C   UNL d   1      11.794   9.187  -5.037  0.00  0.00     0.007 A 
ATOM     15  C   UNL d   1      12.438   9.659  -3.762  0.00  0.00     0.155 A 
ATOM     16  C   UNL d   1      11.463   7.853  -4.886  0.00  0.00     0.057 A 
ATOM     17  N   UNL d   1      12.418   8.469  -2.924  0.00  0.00    -0.229 NA
ATOM     18  C   UNL d   1      11.878   7.421  -3.531  0.00  0.00     0.275 A 
ATOM     19  O   UNL d   1      11.733   6.317  -3.036  0.00  0.00    -0.266 OA
ATOM     20  C   UNL d   1      10.859   7.120  -5.922  0.00  0.00     0.029 A 
ENDBRANCH  10  11
ENDBRANCH   9  10
ENDBRANCH   8   9
ENDBRANCH   7   8
ENDBRANCH   1   7
BRANCH   4  21
ATOM     21  C   UNL d   1       6.960   2.213 -14.247  0.00  0.00     0.052 A 
ATOM     22  C   UNL d   1       7.575   1.660 -15.401  0.00  0.00    -0.011 A 
ATOM     23  C   UNL d   1       7.160   0.436 -15.919  0.00  0.00    -0.025 A 
ATOM     24  C   UNL d   1       8.653   2.264 -16.285  0.00  0.00     0.028 C 
ATOM     25  C   UNL d   1       6.134  -0.327 -15.322  0.00  0.00    -0.004 A 
ATOM     26  C   UNL d   1       7.915   0.079 -17.176  0.00  0.00     0.026 C 
ATOM     27  C   UNL d   1       5.519   0.192 -14.166  0.00  0.00     0.001 A 
ATOM     28  C   UNL d   1       5.921   1.439 -13.643  0.00  0.00     0.017 A 
ATOM     29  C   UNL d   1       9.002   1.165 -17.287  0.00  0.00     0.009 C 
ENDBRANCH   4  21
TORSDOF 6
