REMARK  9 active torsions:
REMARK  status: ('A' for Active; 'I' for Inactive)
REMARK    1  A    between atoms: O_2  and  C_3 
REMARK    2  A    between atoms: C_8  and  C_9 
REMARK    3  A    between atoms: C_11  and  C_12 
REMARK    4  A    between atoms: C_12  and  N_13 
REMARK    5  A    between atoms: N_13  and  C_14 
REMARK    6  A    between atoms: C_14  and  C_15 
REMARK    7  A    between atoms: C_15  and  C_16 
REMARK    8  A    between atoms: C_16  and  O_17 
REMARK    9  A    between atoms: O_17  and  C_18 
ROOT
ATOM      1  C   UNL d   1       9.230   7.430 -11.335  0.00  0.00     0.293 C 
ENDROOT
BRANCH   1   2
ATOM      2  N   UNL d   1       9.560   6.113 -11.843  0.00  0.00     0.339 N 
BRANCH   2   3
ATOM      3  C   UNL d   1       8.606   5.752 -12.853  0.00  0.00     0.290 C 
BRANCH   3   4
ATOM      4  C   UNL d   1       8.819   4.268 -13.073  0.00  0.00     0.041 A 
ATOM      5  C   UNL d   1       8.373   3.704 -14.375  0.00  0.00     0.026 A 
ATOM      6  C   UNL d   1       9.832   3.767 -14.093  0.00  0.00     0.007 A 
BRANCH   5   7
ATOM      7  C   UNL d   1       7.614   2.389 -14.479  0.00  0.00    -0.000 A 
ATOM      8  C   UNL d   1       6.364   2.202 -13.849  0.00  0.00     0.090 A 
ATOM      9  C   UNL d   1       5.726   0.934 -13.806  0.00  0.00     0.024 A 
ATOM     10  C   UNL d   1       6.324  -0.153 -14.455  0.00  0.00     0.002 A 
ATOM     11  C   UNL d   1       7.529   0.043 -15.150  0.00  0.00    -0.000 A 
ATOM     12  C   UNL d   1       8.164   1.296 -15.165  0.00  0.00    -0.002 A 
BRANCH   8  13
ATOM     13  O   UNL d   1       5.845   3.311 -13.262  0.00  0.00    -0.328 OA
ATOM     14  C   UNL d   1       4.709   3.168 -12.470  0.00  0.00     0.181 C 
ENDBRANCH   8  13
ENDBRANCH   5   7
ENDBRANCH   3   4
ENDBRANCH   2   3
ENDBRANCH   1   2
BRANCH   1  15
ATOM     15  C   UNL d   1      10.258   7.824 -10.265  0.00  0.00     0.071 C 
BRANCH  15  16
ATOM     16  C   UNL d   1       9.835   9.091  -9.441  0.00  0.00     0.151 C 
BRANCH  16  17
ATOM     17  O   UNL d   1      10.825   9.412  -8.485  0.00  0.00    -0.331 OA
BRANCH  17  18
ATOM     18  C   UNL d   1      10.761   8.723  -7.309  0.00  0.00     0.096 A 
ATOM     19  C   UNL d   1      11.640   9.091  -6.270  0.00  0.00     0.043 A 
ATOM     20  C   UNL d   1      11.644   8.338  -5.077  0.00  0.00     0.082 A 
ATOM     21  C   UNL d   1      10.840   7.201  -4.969  0.00  0.00    -0.004 A 
ATOM     22  N   UNL d   1      12.476   8.724  -3.990  0.00  0.00    -0.212 NA
ATOM     23  C   UNL d   1       9.942   6.855  -5.983  0.00  0.00    -0.001 A 
ATOM     24  C   UNL d   1      10.909   6.411  -3.697  0.00  0.00     0.038 C 
ATOM     25  C   UNL d   1       9.865   7.642  -7.121  0.00  0.00     0.024 A 
ATOM     26  C   UNL d   1      11.310   7.198  -2.459  0.00  0.00     0.095 C 
ATOM     27  C   UNL d   1      12.367   8.239  -2.739  0.00  0.00     0.256 C 
ATOM     28  O   UNL d   1      13.053   8.661  -1.819  0.00  0.00    -0.270 OA
ENDBRANCH  17  18
ENDBRANCH  16  17
ENDBRANCH  15  16
ENDBRANCH   1  15
TORSDOF 9
