REMARK  7 active torsions:
REMARK  status: ('A' for Active; 'I' for Inactive)
REMARK    1  A    between atoms: N_12  and  C_13 
REMARK    2  A    between atoms: C_13  and  C_14 
REMARK    3  A    between atoms: C_14  and  C_15 
REMARK    4  A    between atoms: C_15  and  C_16 
REMARK    5  A    between atoms: C_16  and  C_17 
REMARK    6  A    between atoms: C_17  and  N_18 
REMARK    7  A    between atoms: N_21  and  C_22 
ROOT
ATOM      1  C   UNL d   1       8.466   6.254 -11.834  0.00  0.00     0.035 C 
ENDROOT
BRANCH   1   2
ATOM      2  C   UNL d   1       8.528   4.754 -12.207  0.00  0.00     0.004 C 
BRANCH   2   3
ATOM      3  C   UNL d   1       9.432   4.474 -13.406  0.00  0.00     0.025 C 
BRANCH   3   4
ATOM      4  C   UNL d   1       9.243   3.082 -14.035  0.00  0.00     0.122 C 
BRANCH   4   5
ATOM      5  N   UNL d   1      10.167   2.853 -15.163  0.00  0.00    -0.221 N 
ATOM      6  C   UNL d   1      10.436   1.577 -15.683  0.00  0.00     0.271 A 
ATOM      7  O   UNL d   1      10.026   0.513 -15.226  0.00  0.00    -0.266 OA
ATOM      8  C   UNL d   1      11.314   1.721 -16.887  0.00  0.00     0.069 A 
ATOM      9  C   UNL d   1      11.611   3.042 -17.228  0.00  0.00     0.108 A 
ATOM     10  C   UNL d   1      11.843   0.668 -17.655  0.00  0.00     0.005 A 
ATOM     11  C   UNL d   1      12.434   3.386 -18.312  0.00  0.00     0.013 A 
ATOM     12  S   UNL d   1      10.824   4.144 -16.105  0.00  0.00     0.270 S 
ATOM     13  C   UNL d   1      12.971   2.332 -19.079  0.00  0.00     0.001 A 
ATOM     14  C   UNL d   1      12.675   0.984 -18.755  0.00  0.00     0.000 A 
ATOM     15  O   UNL d   1      11.834   4.859 -15.313  0.00  0.00    -0.200 OA
ATOM     16  O   UNL d   1       9.726   4.848 -16.799  0.00  0.00    -0.200 OA
ENDBRANCH   4   5
ENDBRANCH   3   4
ENDBRANCH   2   3
ENDBRANCH   1   2
BRANCH   1  17
ATOM     17  C   UNL d   1       9.838   6.798 -11.345  0.00  0.00     0.250 C 
BRANCH  17  18
ATOM     18  N   UNL d   1       9.796   7.525 -10.078  0.00  0.00     0.141 N 
ATOM     19  C   UNL d   1       9.205   6.683  -9.022  0.00  0.00     0.274 C 
ATOM     20  C   UNL d   1       9.114   7.510  -7.720  0.00  0.00     0.137 C 
ATOM     21  N   UNL d   1      10.417   8.038  -7.379  0.00  0.00    -0.344 N 
ATOM     22  C   UNL d   1      11.128   8.758  -8.412  0.00  0.00     0.137 C 
ATOM     23  C   UNL d   1      11.160   7.935  -9.712  0.00  0.00     0.274 C 
BRANCH  21  24
ATOM     24  C   UNL d   1      10.975   7.832  -6.114  0.00  0.00     0.068 A 
ATOM     25  C   UNL d   1      11.177   8.904  -5.229  0.00  0.00     0.084 A 
ATOM     26  C   UNL d   1      11.702   8.680  -3.929  0.00  0.00     0.070 A 
ATOM     27 CL   UNL d   1      10.807  10.487  -5.643  0.00  0.00    -0.080 Cl
ATOM     28  C   UNL d   1      12.085   7.400  -3.520  0.00  0.00     0.012 A 
ATOM     29 CL   UNL d   1      11.860   9.974  -2.828  0.00  0.00    -0.081 Cl
ATOM     30  C   UNL d   1      11.884   6.378  -4.436  0.00  0.00     0.002 A 
ATOM     31  C   UNL d   1      11.328   6.550  -5.713  0.00  0.00     0.018 A 
ENDBRANCH  21  24
ENDBRANCH  17  18
ENDBRANCH   1  17
TORSDOF 7
