REMARK  11 active torsions:
REMARK  status: ('A' for Active; 'I' for Inactive)
REMARK    1  A    between atoms: C_2  and  C_3 
REMARK    2  A    between atoms: C_3  and  C_5 
REMARK    3  A    between atoms: C_5  and  O_7 
REMARK    4  A    between atoms: O_7  and  C_8 
REMARK    5  A    between atoms: C_18  and  C_19 
REMARK    6  A    between atoms: C_19  and  C_20 
REMARK    7  A    between atoms: C_20  and  C_21 
REMARK    8  A    between atoms: C_21  and  C_23 
REMARK    9  A    between atoms: C_23  and  C_24 
REMARK   10  A    between atoms: C_24  and  C_26 
REMARK   11  A    between atoms: C_26  and  C_27 
ROOT
ATOM      1  C   UNL d   1       9.174   3.784 -12.095  0.00  0.00     0.131 C 
ATOM      2  C   UNL d   1       9.415   4.527 -10.773  0.00  0.00     0.068 C 
ATOM      3  C   UNL d   1       9.128   6.017 -10.932  0.00  0.00     0.176 C 
ATOM      4  O   UNL d   1       9.148   6.597  -9.647  0.00  0.00    -0.218 OA
ATOM      5  C   UNL d   1       7.797   6.199 -11.634  0.00  0.00     0.002 C 
ATOM      6  C   UNL d   1       7.120   5.208 -12.202  0.00  0.00    -0.022 C 
ATOM      7  C   UNL d   1       5.799   5.477 -12.673  0.00  0.00    -0.009 C 
ATOM      8  C   UNL d   1       5.127   4.560 -13.373  0.00  0.00    -0.027 C 
ATOM      9  C   UNL d   1       5.663   3.181 -13.713  0.00  0.00     0.022 C 
ATOM     10  C   UNL d   1       4.907   2.144 -12.834  0.00  0.00     0.005 C 
ATOM     11  C   UNL d   1       7.208   3.100 -13.623  0.00  0.00     0.011 C 
ATOM     12  C   UNL d   1       7.649   3.785 -12.316  0.00  0.00     0.050 C 
ENDROOT
BRANCH  11  13
ATOM     13  C   UNL d   1       7.724   1.631 -13.801  0.00  0.00     0.003 C 
BRANCH  13  14
ATOM     14  C   UNL d   1       7.790   1.207 -15.263  0.00  0.00     0.033 C 
BRANCH  14  15
ATOM     15  C   UNL d   1       6.857   0.029 -15.523  0.00  0.00     0.155 C 
ATOM     16  O   UNL d   1       5.559   0.367 -15.151  0.00  0.00    -0.223 OA
BRANCH  15  17
ATOM     17  C   UNL d   1       6.870  -0.314 -17.024  0.00  0.00     0.066 C 
BRANCH  17  18
ATOM     18  C   UNL d   1       5.948  -1.486 -17.446  0.00  0.00     0.165 C 
ATOM     19  O   UNL d   1       4.587  -1.200 -17.129  0.00  0.00    -0.223 OA
BRANCH  18  20
ATOM     20  C   UNL d   1       5.976  -1.752 -18.960  0.00  0.00     0.131 C 
BRANCH  20  21
ATOM     21  C   UNL d   1       7.303  -2.302 -19.484  0.00  0.00     0.188 C 
ATOM     22  O   UNL d   1       7.459  -3.479 -19.799  0.00  0.00    -0.647 OA
ATOM     23  O   UNL d   1       8.270  -1.342 -19.554  0.00  0.00    -0.647 OA
ENDBRANCH  20  21
ENDBRANCH  18  20
ENDBRANCH  17  18
ENDBRANCH  15  17
ENDBRANCH  14  15
ENDBRANCH  13  14
ENDBRANCH  11  13
BRANCH   1  24
ATOM     24  O   UNL d   1       9.885   4.333 -13.211  0.00  0.00    -0.304 OA
BRANCH  24  25
ATOM     25  C   UNL d   1      10.458   3.543 -14.134  0.00  0.00     0.271 C 
ATOM     26  O   UNL d   1      10.545   2.324 -14.101  0.00  0.00    -0.264 OA
BRANCH  25  27
ATOM     27  C   UNL d   1      11.128   4.367 -15.246  0.00  0.00     0.086 C 
ATOM     28  C   UNL d   1      12.614   4.451 -14.861  0.00  0.00     0.010 C 
BRANCH  27  29
ATOM     29  C   UNL d   1      10.949   3.791 -16.681  0.00  0.00     0.010 C 
ATOM     30  C   UNL d   1       9.482   3.801 -17.164  0.00  0.00     0.001 C 
ENDBRANCH  27  29
ENDBRANCH  25  27
ENDBRANCH  24  25
ENDBRANCH   1  24
TORSDOF 11
