REMARK  3 active torsions:
REMARK  status: ('A' for Active; 'I' for Inactive)
REMARK    1  A    between atoms: N_5  and  C_6 
REMARK    2  A    between atoms: C_18  and  O_19 
REMARK    3  A    between atoms: O_19  and  S_20 
ROOT
ATOM      1  C   UNL d   1      10.501   4.309 -15.257  0.00  0.00     0.142 C 
ATOM      2  N   UNL d   1      11.266   5.236 -15.769  0.00  0.00    -0.227 NA
ATOM      3  C   UNL d   1      12.014   5.104 -16.941  0.00  0.00     0.106 A 
ATOM      4  C   UNL d   1      12.141   6.263 -17.738  0.00  0.00     0.021 A 
ATOM      5  C   UNL d   1      12.888   6.248 -18.929  0.00  0.00     0.002 A 
ATOM      6  C   UNL d   1      13.535   5.066 -19.337  0.00  0.00     0.002 A 
ATOM      7  C   UNL d   1      13.439   3.907 -18.539  0.00  0.00     0.026 A 
ATOM      8  C   UNL d   1      12.690   3.926 -17.345  0.00  0.00     0.118 A 
ATOM      9  O   UNL d   1      12.650   2.794 -16.585  0.00  0.00    -0.305 OA
ATOM     10  C   UNL d   1      11.426   2.209 -16.420  0.00  0.00     0.103 A 
ATOM     11  C   UNL d   1      11.249   0.874 -16.869  0.00  0.00     0.027 A 
ATOM     12  C   UNL d   1      10.021   0.207 -16.678  0.00  0.00     0.028 A 
ATOM     13  C   UNL d   1       8.967   0.884 -16.050  0.00  0.00     0.113 A 
ATOM     14  C   UNL d   1       9.139   2.206 -15.611  0.00  0.00     0.031 A 
ATOM     15  C   UNL d   1      10.365   2.899 -15.791  0.00  0.00     0.059 A 
ENDROOT
BRANCH   1  16
ATOM     16  N   UNL d   1       9.768   4.585 -14.117  0.00  0.00    -0.330 N 
ATOM     17  C   UNL d   1       9.999   3.819 -12.901  0.00  0.00     0.138 C 
ATOM     18  C   UNL d   1       9.566   4.614 -11.663  0.00  0.00     0.274 C 
ATOM     19  N   UNL d   1       8.157   4.965 -11.802  0.00  0.00     0.143 N 
ATOM     20  C   UNL d   1       7.745   5.671 -10.609  0.00  0.00     0.286 C 
ATOM     21  C   UNL d   1       7.995   5.864 -12.941  0.00  0.00     0.274 C 
ATOM     22  C   UNL d   1       8.406   5.119 -14.209  0.00  0.00     0.138 C 
ENDBRANCH   1  16
BRANCH  13  23
ATOM     23  O   UNL d   1       7.758   0.286 -15.827  0.00  0.00    -0.230 OA
BRANCH  23  24
ATOM     24  S   UNL d   1       6.758   0.122 -17.172  0.00  0.00     0.285 S 
ATOM     25  C   UNL d   1       5.312  -0.670 -16.366  0.00  0.00     0.172 C 
ATOM     26  O   UNL d   1       6.387   1.470 -17.636  0.00  0.00    -0.197 OA
ATOM     27  O   UNL d   1       7.395  -0.843 -18.076  0.00  0.00    -0.197 OA
ENDBRANCH  23  24
ENDBRANCH  13  23
TORSDOF 3
