REMARK  10 active torsions:
REMARK  status: ('A' for Active; 'I' for Inactive)
REMARK    1  A    between atoms: O_2  and  C_3 
REMARK    2  A    between atoms: C_8  and  N_9 
REMARK    3  A    between atoms: N_12  and  C_13 
REMARK    4  A    between atoms: C_13  and  C_14 
REMARK    5  A    between atoms: C_14  and  C_15 
REMARK    6  A    between atoms: C_15  and  C_16 
REMARK    7  A    between atoms: C_16  and  C_17 
REMARK    8  A    between atoms: C_17  and  N_18 
REMARK    9  A    between atoms: N_18  and  S_19 
REMARK   10  A    between atoms: S_19  and  C_22 
ROOT
ATOM      1  C   UNL d   1       8.627   4.736 -11.532  0.00  0.00     0.004 C 
ENDROOT
BRANCH   1   2
ATOM      2  C   UNL d   1       8.451   4.618 -13.046  0.00  0.00     0.035 C 
BRANCH   2   3
ATOM      3  C   UNL d   1       8.145   3.181 -13.462  0.00  0.00     0.250 C 
BRANCH   3   4
ATOM      4  N   UNL d   1       7.964   3.038 -14.879  0.00  0.00     0.141 N 
ATOM      5  C   UNL d   1       7.281   1.774 -15.211  0.00  0.00     0.274 C 
ATOM      6  C   UNL d   1       7.034   1.670 -16.728  0.00  0.00     0.137 C 
ATOM      7  N   UNL d   1       8.274   1.844 -17.473  0.00  0.00    -0.343 N 
ATOM      8  C   UNL d   1       9.021   3.051 -17.135  0.00  0.00     0.137 C 
ATOM      9  C   UNL d   1       9.247   3.111 -15.613  0.00  0.00     0.274 C 
BRANCH   7  10
ATOM     10  C   UNL d   1       8.700   0.896 -18.425  0.00  0.00     0.079 A 
ATOM     11  C   UNL d   1      10.069   0.531 -18.565  0.00  0.00     0.110 A 
ATOM     12  C   UNL d   1      10.420  -0.415 -19.571  0.00  0.00     0.026 A 
ATOM     13  C   UNL d   1       9.446  -1.006 -20.387  0.00  0.00     0.002 A 
ATOM     14  C   UNL d   1       8.104  -0.661 -20.229  0.00  0.00     0.002 A 
ATOM     15  C   UNL d   1       7.730   0.295 -19.266  0.00  0.00     0.019 A 
BRANCH  11  16
ATOM     16  O   UNL d   1      11.006   1.071 -17.706  0.00  0.00    -0.327 OA
ATOM     17  C   UNL d   1      12.385   0.896 -17.999  0.00  0.00     0.181 C 
ENDBRANCH  11  16
ENDBRANCH   7  10
ENDBRANCH   3   4
ENDBRANCH   2   3
ENDBRANCH   1   2
BRANCH   1  18
ATOM     18  C   UNL d   1       9.122   6.130 -11.114  0.00  0.00     0.027 C 
BRANCH  18  19
ATOM     19  C   UNL d   1       9.623   6.163  -9.661  0.00  0.00     0.139 C 
BRANCH  19  20
ATOM     20  N   UNL d   1      10.645   7.179  -9.555  0.00  0.00    -0.185 NA
BRANCH  20  21
ATOM     21  S   UNL d   1      10.478   8.618  -8.630  0.00  0.00     0.281 S 
ATOM     22  O   UNL d   1      11.449   9.563  -9.196  0.00  0.00    -0.199 OA
ATOM     23  O   UNL d   1       9.062   8.993  -8.500  0.00  0.00    -0.199 OA
BRANCH  21  24
ATOM     24  C   UNL d   1      11.015   8.117  -7.014  0.00  0.00     0.105 A 
ATOM     25  C   UNL d   1      11.098   9.107  -6.016  0.00  0.00     0.013 A 
ATOM     26  C   UNL d   1      11.494   8.723  -4.714  0.00  0.00     0.001 A 
ATOM     27  C   UNL d   1      11.822   7.373  -4.432  0.00  0.00     0.000 A 
ATOM     28  C   UNL d   1      11.601   9.671  -3.687  0.00  0.00     0.000 A 
ATOM     29  C   UNL d   1      11.750   6.421  -5.450  0.00  0.00     0.001 A 
ATOM     30  C   UNL d   1      12.244   6.972  -3.147  0.00  0.00     0.000 A 
ATOM     31  C   UNL d   1      11.323   6.775  -6.734  0.00  0.00     0.013 A 
ATOM     32  C   UNL d   1      12.354   7.930  -2.134  0.00  0.00     0.000 A 
ATOM     33  C   UNL d   1      12.047   9.268  -2.414  0.00  0.00     0.000 A 
ENDBRANCH  21  24
ENDBRANCH  20  21
ENDBRANCH  19  20
ENDBRANCH  18  19
ENDBRANCH   1  18
TORSDOF 10
