REMARK  5 active torsions:
REMARK  status: ('A' for Active; 'I' for Inactive)
REMARK    1  A    between atoms: N_8  and  C_9 
REMARK    2  A    between atoms: C_9  and  O_10 
REMARK    3  A    between atoms: O_10  and  C_11 
REMARK    4  A    between atoms: C_11  and  C_12 
REMARK    5  A    between atoms: C_11  and  C_14 
ROOT
ATOM      1  N   UNL d   1       8.636   0.002 -16.062  0.00  0.00     0.062 N 
ATOM      2  C   UNL d   1       7.764   0.633 -15.274  0.00  0.00     0.773 A 
ATOM      3  N   UNL d   1       8.040   1.861 -14.867  0.00  0.00    -0.038 NA
ATOM      4  C   UNL d   1       7.077   2.413 -14.074  0.00  0.00     0.188 A 
ATOM      5  C   UNL d   1       5.901   1.806 -13.661  0.00  0.00     0.176 A 
ATOM      6  N   UNL d   1       5.183   2.664 -12.840  0.00  0.00    -0.217 NA
ATOM      7  C   UNL d   1       5.924   3.736 -12.758  0.00  0.00     0.182 A 
ATOM      8  N   UNL d   1       7.099   3.660 -13.458  0.00  0.00    -0.268 N 
ATOM      9  C   UNL d   1       5.609   0.468 -14.101  0.00  0.00     0.316 A 
ATOM     10  O   UNL d   1       4.622  -0.222 -13.846  0.00  0.00    -0.263 OA
ATOM     11  N   UNL d   1       6.607  -0.049 -14.931  0.00  0.00    -0.016 NA
ENDROOT
BRANCH   8  12
ATOM     12  C   UNL d   1       8.171   4.642 -13.498  0.00  0.00     0.259 C 
BRANCH  12  13
ATOM     13  O   UNL d   1       8.697   4.671 -14.792  0.00  0.00    -0.330 OA
BRANCH  13  14
ATOM     14  C   UNL d   1      10.114   4.771 -14.944  0.00  0.00     0.183 C 
BRANCH  14  15
ATOM     15  C   UNL d   1      10.348   5.106 -16.440  0.00  0.00     0.214 C 
ATOM     16  O   UNL d   1      11.680   5.489 -16.703  0.00  0.00    -0.218 OA
ENDBRANCH  14  15
BRANCH  14  17
ATOM     17  C   UNL d   1      10.829   3.462 -14.526  0.00  0.00     0.214 C 
ATOM     18  O   UNL d   1      12.226   3.666 -14.505  0.00  0.00    -0.218 OA
ENDBRANCH  14  17
ENDBRANCH  13  14
ENDBRANCH  12  13
ENDBRANCH   8  12
TORSDOF 5
