REMARK  6 active torsions:
REMARK  status: ('A' for Active; 'I' for Inactive)
REMARK       I    between atoms: C_2  and  N_3 
REMARK    1  A    between atoms: C_2  and  C_27 
REMARK    2  A    between atoms: N_3  and  C_4 
REMARK    3  A    between atoms: C_7  and  C_8 
REMARK    4  A    between atoms: C_8  and  C_9 
REMARK    5  A    between atoms: C_9  and  N_10 
REMARK    6  A    between atoms: C_13  and  C_14 
ROOT
ATOM      1  C   UNL d   1       8.734   5.318 -10.247  0.00  0.00     0.250 C 
ENDROOT
BRANCH   1   2
ATOM      2  C   UNL d   1       9.280   5.691 -11.645  0.00  0.00     0.035 C 
BRANCH   2   3
ATOM      3  C   UNL d   1       9.423   4.483 -12.596  0.00  0.00     0.002 C 
ATOM      4  C   UNL d   1       8.114   4.232 -13.362  0.00  0.00     0.002 C 
ATOM      5  C   UNL d   1       8.246   3.044 -14.314  0.00  0.00     0.024 C 
ATOM      6  C   UNL d   1       9.414   3.245 -15.296  0.00  0.00     0.106 C 
ATOM      7  C   UNL d   1      10.733   3.484 -14.547  0.00  0.00     0.024 C 
ATOM      8  C   UNL d   1      10.591   4.665 -13.586  0.00  0.00     0.002 C 
BRANCH   6   9
ATOM      9  N   UNL d   1       9.543   2.065 -16.142  0.00  0.00    -0.240 NA
ATOM     10  C   UNL d   1       9.969   2.075 -17.412  0.00  0.00     0.253 C 
ATOM     11  O   UNL d   1      10.181   3.112 -18.037  0.00  0.00    -0.271 OA
BRANCH  10  12
ATOM     12  C   UNL d   1      10.216   0.708 -18.056  0.00  0.00     0.113 C 
ATOM     13  C   UNL d   1       9.466   0.518 -19.375  0.00  0.00     0.152 C 
ATOM     14  O   UNL d   1      10.248  -0.408 -20.140  0.00  0.00    -0.354 OA
ATOM     15  C   UNL d   1      11.552  -0.531 -19.570  0.00  0.00     0.143 C 
ATOM     16  C   UNL d   1      11.660   0.549 -18.505  0.00  0.00     0.044 C 
ENDBRANCH  10  12
ENDBRANCH   6   9
ENDBRANCH   2   3
ENDBRANCH   1   2
BRANCH   1  17
ATOM     17  N   UNL d   1       9.182   6.221  -9.184  0.00  0.00     0.137 N 
ATOM     18  C   UNL d   1       8.634   5.758  -7.906  0.00  0.00     0.251 C 
ATOM     19  C   UNL d   1       9.027   6.712  -6.764  0.00  0.00     0.040 C 
ATOM     20  C   UNL d   1      10.550   6.877  -6.662  0.00  0.00     0.028 C 
ATOM     21  C   UNL d   1      11.122   7.218  -8.034  0.00  0.00     0.040 C 
ATOM     22  C   UNL d   1      10.641   6.224  -9.087  0.00  0.00     0.251 C 
BRANCH  20  23
ATOM     23  C   UNL d   1      10.927   7.936  -5.645  0.00  0.00     0.002 A 
ATOM     24  C   UNL d   1      11.533   7.613  -4.411  0.00  0.00     0.115 A 
ATOM     25  C   UNL d   1      11.857   8.585  -3.485  0.00  0.00     0.119 A 
ATOM     26  O   UNL d   1      11.865   6.404  -3.915  0.00  0.00    -0.300 OA
ATOM     27  C   UNL d   1      11.589   9.938  -3.713  0.00  0.00     0.026 A 
ATOM     28  O   UNL d   1      12.416   8.008  -2.388  0.00  0.00    -0.300 OA
ATOM     29  C   UNL d   1      11.007  10.288  -4.953  0.00  0.00     0.002 A 
ATOM     30  C   UNL d   1      10.660   9.301  -5.901  0.00  0.00    -0.002 A 
ATOM     31  C   UNL d   1      12.417   6.631  -2.645  0.00  0.00     0.304 A 
ENDBRANCH  20  23
ENDBRANCH   1  17
TORSDOF 6
