REMARK  6 active torsions:
REMARK  status: ('A' for Active; 'I' for Inactive)
REMARK    1  A    between atoms: O_2  and  N_3 
REMARK    2  A    between atoms: C_4  and  C_5 
REMARK    3  A    between atoms: C_4  and  C_19 
REMARK    4  A    between atoms: C_5  and  C_6 
REMARK    5  A    between atoms: C_6  and  N_7 
REMARK    6  A    between atoms: N_10  and  C_11 
ROOT
ATOM      1  C   UNL d   1       9.867   4.334 -15.506  0.00  0.00     0.257 C 
ENDROOT
BRANCH   1   2
ATOM      2  C   UNL d   1       9.568   3.020 -16.282  0.00  0.00     0.083 C 
BRANCH   2   3
ATOM      3  C   UNL d   1      10.021   3.000 -17.756  0.00  0.00     0.087 C 
ATOM      4  N   UNL d   1       9.655   3.839 -18.641  0.00  0.00    -0.136 NA
BRANCH   4   5
ATOM      5  O   UNL d   1       8.668   4.690 -18.166  0.00  0.00    -0.234 OA
ATOM      6  C   UNL d   1       8.617   5.857 -18.965  0.00  0.00     0.211 C 
ENDBRANCH   4   5
BRANCH   3   7
ATOM      7  C   UNL d   1      10.941   1.911 -18.128  0.00  0.00     0.016 A 
ATOM      8  C   UNL d   1      12.166   2.229 -18.756  0.00  0.00     0.002 A 
ATOM      9  C   UNL d   1      13.023   1.208 -19.178  0.00  0.00     0.007 A 
ATOM     10  C   UNL d   1      12.666  -0.137 -19.005  0.00  0.00     0.035 A 
ATOM     11  C   UNL d   1      11.447  -0.468 -18.363  0.00  0.00     0.007 A 
ATOM     12 BR   UNL d   1      13.847  -1.454 -19.681  0.00  0.00    -0.049 Br
ATOM     13  C   UNL d   1      10.589   0.557 -17.928  0.00  0.00     0.002 A 
ENDBRANCH   3   7
ENDBRANCH   2   3
ENDBRANCH   1   2
BRANCH   1  14
ATOM     14  N   UNL d   1       9.246   4.288 -14.176  0.00  0.00     0.141 N 
ATOM     15  C   UNL d   1       8.900   5.642 -13.758  0.00  0.00     0.274 C 
ATOM     16  C   UNL d   1       8.218   5.819 -12.429  0.00  0.00     0.138 C 
ATOM     17  N   UNL d   1       9.110   5.213 -11.476  0.00  0.00    -0.330 N 
ATOM     18  C   UNL d   1       9.549   3.864 -11.815  0.00  0.00     0.138 C 
ATOM     19  C   UNL d   1      10.208   3.805 -13.204  0.00  0.00     0.274 C 
BRANCH  17  20
ATOM     20  C   UNL d   1       9.458   5.882 -10.312  0.00  0.00     0.140 A 
ATOM     21  N   UNL d   1       9.890   7.158 -10.430  0.00  0.00    -0.227 NA
ATOM     22  C   UNL d   1      10.285   7.817  -9.324  0.00  0.00     0.101 A 
ATOM     23  C   UNL d   1      10.258   7.243  -8.048  0.00  0.00     0.021 A 
ATOM     24  C   UNL d   1       9.780   5.931  -7.936  0.00  0.00     0.005 A 
ATOM     25  C   UNL d   1       9.399   5.210  -9.077  0.00  0.00     0.037 A 
ENDBRANCH  17  20
ENDBRANCH   1  14
TORSDOF 6
