REMARK  4 active torsions:
REMARK  status: ('A' for Active; 'I' for Inactive)
REMARK    1  A    between atoms: C_2  and  O_3 
REMARK    2  A    between atoms: C_2  and  C_12 
REMARK    3  A    between atoms: O_3  and  C_4 
REMARK    4  A    between atoms: C_17  and  N_18 
ROOT
ATOM      1  C   UNL d   1       8.746   1.507 -16.196  0.00  0.00     0.203 A 
ATOM      2  N   UNL d   1       9.329   2.256 -17.139  0.00  0.00    -0.039 NA
ATOM      3  C   UNL d   1       8.643   2.248 -18.273  0.00  0.00     0.785 A 
ATOM      4  N   UNL d   1       9.144   3.006 -19.285  0.00  0.00     0.063 N 
ATOM      5  N   UNL d   1       7.497   1.625 -18.543  0.00  0.00     0.134 NA
ATOM      6  C   UNL d   1       7.038   0.895 -17.521  0.00  0.00     0.744 A 
ATOM      7  N   UNL d   1       7.611   0.795 -16.310  0.00  0.00    -0.043 NA
ENDROOT
BRANCH   1   8
ATOM      8  C   UNL d   1       9.469   1.424 -14.856  0.00  0.00     0.181 C 
ATOM      9  C   UNL d   1      10.629   0.434 -14.919  0.00  0.00     0.041 C 
BRANCH   8  10
ATOM     10  O   UNL d   1       9.926   2.695 -14.378  0.00  0.00    -0.326 OA
BRANCH  10  11
ATOM     11  C   UNL d   1       8.998   3.562 -13.823  0.00  0.00     0.096 A 
ATOM     12  C   UNL d   1       9.438   4.794 -13.314  0.00  0.00     0.036 A 
ATOM     13  C   UNL d   1       8.546   5.668 -12.651  0.00  0.00     0.061 A 
ATOM     14  C   UNL d   1       7.194   5.311 -12.490  0.00  0.00     0.023 A 
ATOM     15 CL   UNL d   1       9.075   7.199 -12.040  0.00  0.00    -0.082 Cl
ATOM     16  C   UNL d   1       6.736   4.099 -13.021  0.00  0.00     0.061 A 
ATOM     17  C   UNL d   1       7.619   3.234 -13.706  0.00  0.00     0.036 A 
ATOM     18 CL   UNL d   1       5.105   3.610 -12.838  0.00  0.00    -0.082 Cl
ENDBRANCH  10  11
ENDBRANCH   8  10
ENDBRANCH   1   8
BRANCH   6  19
ATOM     19  N   UNL d   1       5.849   0.192 -17.744  0.00  0.00    -0.178 N 
ATOM     20  C   UNL d   1       5.198  -0.669 -16.749  0.00  0.00     0.155 C 
ATOM     21  C   UNL d   1       4.914  -2.069 -17.335  0.00  0.00     0.275 C 
ATOM     22  N   UNL d   1       4.102  -1.956 -18.544  0.00  0.00     0.143 N 
ATOM     23  C   UNL d   1       4.833  -1.182 -19.541  0.00  0.00     0.275 C 
ATOM     24  C   UNL d   1       3.837  -3.294 -19.069  0.00  0.00     0.286 C 
ATOM     25  C   UNL d   1       5.096   0.238 -19.007  0.00  0.00     0.155 C 
ENDBRANCH   6  19
TORSDOF 4
