REMARK  6 active torsions:
REMARK  status: ('A' for Active; 'I' for Inactive)
REMARK    1  A    between atoms: C_2  and  C_3 
REMARK    2  A    between atoms: N_12  and  C_13 
REMARK    3  A    between atoms: C_13  and  C_14 
REMARK    4  A    between atoms: C_14  and  C_16 
REMARK    5  A    between atoms: C_16  and  N_17 
REMARK    6  A    between atoms: N_20  and  C_21 
ROOT
ATOM      1  C   UNL d   1       8.615   7.666 -20.861  0.00  0.00     0.066 A 
ATOM      2  C   UNL d   1       7.282   7.589 -20.412  0.00  0.00     0.018 A 
ATOM      3  C   UNL d   1       6.287   8.452 -20.912  0.00  0.00     0.002 A 
ATOM      4  C   UNL d   1       6.621   9.416 -21.877  0.00  0.00     0.001 A 
ATOM      5  C   UNL d   1       7.943   9.509 -22.336  0.00  0.00     0.012 A 
ATOM      6  C   UNL d   1       8.947   8.649 -21.841  0.00  0.00     0.084 A 
ATOM      7  C   UNL d   1      10.299   8.835 -22.357  0.00  0.00     0.102 C 
ATOM      8  N   UNL d   1      11.372   8.983 -22.764  0.00  0.00    -0.191 NA
ENDROOT
BRANCH   1   9
ATOM      9  N   UNL d   1       9.563   6.779 -20.312  0.00  0.00    -0.344 N 
ATOM     10  C   UNL d   1      10.522   6.050 -21.135  0.00  0.00     0.137 C 
ATOM     11  C   UNL d   1      10.483   4.561 -20.801  0.00  0.00     0.274 C 
ATOM     12  N   UNL d   1      10.693   4.315 -19.377  0.00  0.00     0.144 N 
ATOM     13  C   UNL d   1       9.643   5.002 -18.611  0.00  0.00     0.274 C 
ATOM     14  C   UNL d   1       9.640   6.519 -18.876  0.00  0.00     0.137 C 
BRANCH  12  15
ATOM     15  C   UNL d   1      10.712   2.882 -19.142  0.00  0.00     0.285 C 
BRANCH  15  16
ATOM     16  C   UNL d   1      11.253   2.442 -17.758  0.00  0.00     0.208 C 
ATOM     17  O   UNL d   1      12.297   1.509 -17.964  0.00  0.00    -0.219 OA
BRANCH  16  18
ATOM     18  C   UNL d   1      10.230   1.819 -16.771  0.00  0.00     0.148 C 
BRANCH  18  19
ATOM     19  N   UNL d   1       9.262   0.917 -17.415  0.00  0.00    -0.247 N 
ATOM     20  C   UNL d   1       9.528  -0.357 -17.760  0.00  0.00     0.348 A 
ATOM     21  N   UNL d   1       8.442  -0.873 -18.346  0.00  0.00    -0.209 NA
ATOM     22  O   UNL d   1      10.579  -0.966 -17.584  0.00  0.00    -0.245 OA
ATOM     23  C   UNL d   1       7.333   0.058 -18.417  0.00  0.00     0.179 A 
ATOM     24  C   UNL d   1       6.977   0.338 -19.897  0.00  0.00     0.039 C 
ATOM     25  C   UNL d   1       8.022   1.265 -17.784  0.00  0.00     0.265 A 
ATOM     26  O   UNL d   1       7.491   2.368 -17.645  0.00  0.00    -0.269 OA
BRANCH  23  27
ATOM     27  C   UNL d   1       6.147  -0.385 -17.543  0.00  0.00     0.006 A 
ATOM     28  C   UNL d   1       4.925  -0.799 -18.127  0.00  0.00    -0.002 A 
ATOM     29  C   UNL d   1       3.855  -1.218 -17.319  0.00  0.00    -0.000 A 
ATOM     30  C   UNL d   1       3.973  -1.216 -15.917  0.00  0.00    -0.000 A 
ATOM     31  C   UNL d   1       5.181  -0.816 -15.321  0.00  0.00    -0.000 A 
ATOM     32  C   UNL d   1       6.258  -0.410 -16.128  0.00  0.00    -0.002 A 
ENDBRANCH  23  27
ENDBRANCH  18  19
ENDBRANCH  16  18
ENDBRANCH  15  16
ENDBRANCH  12  15
ENDBRANCH   1   9
TORSDOF 6
