REMARK  8 active torsions:
REMARK  status: ('A' for Active; 'I' for Inactive)
REMARK    1  A    between atoms: O_2  and  C_3 
REMARK    2  A    between atoms: C_5  and  C_6 
REMARK    3  A    between atoms: C_6  and  N_7 
REMARK    4  A    between atoms: N_10  and  C_11 
REMARK    5  A    between atoms: C_20  and  O_21 
REMARK    6  A    between atoms: O_21  and  C_22 
REMARK    7  A    between atoms: C_22  and  C_23 
REMARK    8  A    between atoms: C_26  and  O_27 
ROOT
ATOM      1  C   UNL d   1       6.651   2.956 -13.622  0.00  0.00     0.116 A 
ATOM      2  C   UNL d   1       6.804   4.140 -12.878  0.00  0.00     0.026 A 
ATOM      3  C   UNL d   1       8.022   4.849 -12.920  0.00  0.00     0.035 A 
ATOM      4  C   UNL d   1       9.084   4.384 -13.741  0.00  0.00     0.094 A 
ATOM      5  C   UNL d   1       8.891   3.212 -14.517  0.00  0.00     0.050 A 
ATOM      6  C   UNL d   1       7.678   2.488 -14.464  0.00  0.00     0.118 A 
ENDROOT
BRANCH   3   7
ATOM      7  C   UNL d   1       8.168   6.142 -12.119  0.00  0.00     0.279 C 
BRANCH   7   8
ATOM      8  N   UNL d   1       9.269   6.104 -11.157  0.00  0.00     0.145 N 
ATOM      9  C   UNL d   1       9.832   7.450 -10.997  0.00  0.00     0.275 C 
ATOM     10  C   UNL d   1      11.035   7.409 -10.036  0.00  0.00     0.137 C 
ATOM     11  N   UNL d   1      10.624   6.844  -8.758  0.00  0.00    -0.344 N 
ATOM     12  C   UNL d   1       9.931   5.561  -8.834  0.00  0.00     0.137 C 
ATOM     13  C   UNL d   1       8.779   5.638  -9.853  0.00  0.00     0.275 C 
BRANCH  11  14
ATOM     14  C   UNL d   1      10.823   7.531  -7.543  0.00  0.00     0.056 A 
ATOM     15  C   UNL d   1      10.845   8.942  -7.497  0.00  0.00     0.018 A 
ATOM     16  C   UNL d   1      11.061   9.614  -6.281  0.00  0.00     0.013 A 
ATOM     17  C   UNL d   1      11.240   8.879  -5.098  0.00  0.00     0.058 A 
ATOM     18  C   UNL d   1      11.215   7.476  -5.131  0.00  0.00     0.013 A 
ATOM     19 CL   UNL d   1      11.464   9.679  -3.600  0.00  0.00    -0.082 Cl
ATOM     20  C   UNL d   1      11.016   6.807  -6.351  0.00  0.00     0.018 A 
ENDBRANCH  11  14
ENDBRANCH   7   8
ENDBRANCH   3   7
BRANCH   4  21
ATOM     21  O   UNL d   1      10.262   5.104 -13.744  0.00  0.00    -0.328 OA
BRANCH  21  22
ATOM     22  C   UNL d   1      11.370   4.725 -14.560  0.00  0.00     0.187 C 
BRANCH  22  23
ATOM     23  C   UNL d   1      11.349   5.546 -15.857  0.00  0.00     0.226 C 
ATOM     24  F   UNL d   1      12.363   5.171 -16.632  0.00  0.00    -0.232 F 
ENDBRANCH  22  23
ENDBRANCH  21  22
ENDBRANCH   4  21
BRANCH   1  25
ATOM     25  O   UNL d   1       5.457   2.299 -13.495  0.00  0.00    -0.326 OA
ATOM     26  C   UNL d   1       5.499   0.964 -13.016  0.00  0.00     0.181 C 
ENDBRANCH   1  25
BRANCH   6  27
ATOM     27  O   UNL d   1       7.437   1.356 -15.223  0.00  0.00    -0.326 OA
ATOM     28  C   UNL d   1       8.518   0.774 -15.932  0.00  0.00     0.181 C 
ENDBRANCH   6  27
TORSDOF 8
