REMARK  8 active torsions:
REMARK  status: ('A' for Active; 'I' for Inactive)
REMARK    1  A    between atoms: C_2  and  O_3 
REMARK    2  A    between atoms: O_3  and  N_4 
REMARK    3  A    between atoms: C_5  and  C_6 
REMARK    4  A    between atoms: C_5  and  C_22 
REMARK    5  A    between atoms: C_6  and  C_7 
REMARK    6  A    between atoms: C_7  and  N_8 
REMARK    7  A    between atoms: N_11  and  C_12 
REMARK    8  A    between atoms: C_17  and  O_18 
ROOT
ATOM      1  N   UNL d   1      10.406   3.212 -14.558  0.00  0.00     0.141 N 
ATOM      2  C   UNL d   1      10.829   1.809 -14.668  0.00  0.00     0.274 C 
ATOM      3  C   UNL d   1      11.574   1.559 -16.005  0.00  0.00     0.137 C 
ATOM      4  N   UNL d   1      10.742   1.972 -17.125  0.00  0.00    -0.343 N 
ATOM      5  C   UNL d   1      10.181   3.308 -17.026  0.00  0.00     0.137 C 
ATOM      6  C   UNL d   1       9.481   3.492 -15.668  0.00  0.00     0.274 C 
ENDROOT
BRANCH   1   7
ATOM      7  C   UNL d   1       9.704   3.419 -13.288  0.00  0.00     0.257 C 
BRANCH   7   8
ATOM      8  C   UNL d   1       9.586   4.929 -12.943  0.00  0.00     0.083 C 
BRANCH   8   9
ATOM      9  C   UNL d   1       8.554   5.238 -11.855  0.00  0.00     0.087 C 
ATOM     10  N   UNL d   1       7.315   4.991 -11.998  0.00  0.00    -0.136 NA
BRANCH  10  11
ATOM     11  O   UNL d   1       6.989   4.522 -13.280  0.00  0.00    -0.237 OA
BRANCH  11  12
ATOM     12  C   UNL d   1       5.622   4.156 -13.286  0.00  0.00     0.176 C 
ATOM     13  C   UNL d   1       5.417   2.774 -12.658  0.00  0.00     0.038 C 
ENDBRANCH  11  12
ENDBRANCH  10  11
BRANCH   9  14
ATOM     14  C   UNL d   1       9.056   5.863 -10.608  0.00  0.00     0.016 A 
ATOM     15  C   UNL d   1       8.682   5.360  -9.343  0.00  0.00     0.001 A 
ATOM     16  C   UNL d   1       9.131   5.982  -8.162  0.00  0.00     0.000 A 
ATOM     17  C   UNL d   1       9.962   7.117  -8.227  0.00  0.00     0.000 A 
ATOM     18  C   UNL d   1      10.325   7.641  -9.481  0.00  0.00     0.000 A 
ATOM     19  C   UNL d   1       9.860   7.026 -10.659  0.00  0.00     0.001 A 
ENDBRANCH   9  14
ENDBRANCH   8   9
ENDBRANCH   7   8
ENDBRANCH   1   7
BRANCH   4  20
ATOM     20  C   UNL d   1      10.404   1.102 -18.175  0.00  0.00     0.079 A 
ATOM     21  C   UNL d   1       9.046   0.876 -18.531  0.00  0.00     0.110 A 
ATOM     22  C   UNL d   1       8.757   0.032 -19.634  0.00  0.00     0.026 A 
ATOM     23  C   UNL d   1       9.789  -0.575 -20.367  0.00  0.00     0.002 A 
ATOM     24  C   UNL d   1      11.129  -0.360 -20.003  0.00  0.00     0.002 A 
ATOM     25  C   UNL d   1      11.433   0.468 -18.904  0.00  0.00     0.019 A 
BRANCH  21  26
ATOM     26  O   UNL d   1       8.068   1.486 -17.774  0.00  0.00    -0.327 OA
ATOM     27  C   UNL d   1       6.713   1.145 -18.007  0.00  0.00     0.181 C 
ENDBRANCH  21  26
ENDBRANCH   4  20
TORSDOF 8
