REMARK  0 active torsions:
REMARK  status: ('A' for Active; 'I' for Inactive)
ROOT
ATOM      1  C   UNL d   1      12.270   6.825  -3.077  0.00  0.00     0.038 C 
ATOM      2  C   UNL d   1      11.979   7.765  -4.213  0.00  0.00     0.003 A 
ATOM      3  S   UNL d   1      12.396   9.430  -4.080  0.00  0.00    -0.096 SA
ATOM      4  C   UNL d   1      11.871   9.740  -5.721  0.00  0.00     0.009 A 
ATOM      5  C   UNL d   1      11.940  11.089  -6.261  0.00  0.00     0.038 C 
ATOM      6  C   UNL d   1      11.376   8.630  -6.322  0.00  0.00     0.017 A 
ATOM      7  C   UNL d   1      11.458   7.516  -5.452  0.00  0.00    -0.018 A 
ATOM      8  C   UNL d   1      11.035   6.176  -5.890  0.00  0.00     0.031 A 
ATOM      9  C   UNL d   1      10.406   5.994  -7.312  0.00  0.00     0.034 A 
ATOM     10  C   UNL d   1      10.387   7.231  -8.116  0.00  0.00     0.018 A 
ATOM     11  C   UNL d   1       9.931   7.530  -9.433  0.00  0.00     0.119 A 
ATOM     12  N   UNL d   1      10.152   8.794  -9.762  0.00  0.00    -0.147 NA
ATOM     13  N   UNL d   1      10.731   9.317  -8.664  0.00  0.00    -0.148 NA
ATOM     14  C   UNL d   1      10.841   8.412  -7.648  0.00  0.00     0.100 A 
ENDROOT
TORSDOF 0
