REMARK  5 active torsions:
REMARK  status: ('A' for Active; 'I' for Inactive)
REMARK    1  A    between atoms: C_2  and  C_3 
REMARK    2  A    between atoms: C_2  and  C_22 
REMARK    3  A    between atoms: C_3  and  C_4 
REMARK    4  A    between atoms: C_4  and  C_5 
REMARK    5  A    between atoms: C_5  and  N_6 
ROOT
ATOM      1  N   UNL d   1       8.917   6.017  -9.311  0.00  0.00     0.137 N 
ATOM      2  C   UNL d   1       8.787   5.627  -7.897  0.00  0.00     0.251 C 
ATOM      3  C   UNL d   1       9.041   6.857  -7.023  0.00  0.00     0.043 C 
ATOM      4  C   UNL d   1      10.437   7.452  -7.310  0.00  0.00     0.060 C 
ATOM      5  C   UNL d   1      11.562   6.460  -6.966  0.00  0.00     0.012 C 
ATOM      6  C   UNL d   1      11.604   6.153  -5.492  0.00  0.00     0.027 C 
ATOM      7  C   UNL d   1      11.690   7.391  -4.650  0.00  0.00    -0.019 A 
ATOM      8  C   UNL d   1      12.256   7.297  -3.367  0.00  0.00    -0.004 A 
ATOM      9  C   UNL d   1      12.397   8.453  -2.584  0.00  0.00    -0.000 A 
ATOM     10  C   UNL d   1      11.957   9.691  -3.084  0.00  0.00     0.000 A 
ATOM     11  C   UNL d   1      11.385   9.790  -4.364  0.00  0.00     0.003 A 
ATOM     12  C   UNL d   1      11.237   8.630  -5.145  0.00  0.00     0.031 A 
ATOM     13  C   UNL d   1      10.663   8.748  -6.494  0.00  0.00     0.172 C 
ATOM     14  O   UNL d   1      10.368   9.834  -6.966  0.00  0.00    -0.291 OA
ATOM     15  C   UNL d   1      10.519   7.779  -8.817  0.00  0.00     0.043 C 
ATOM     16  C   UNL d   1      10.247   6.533  -9.649  0.00  0.00     0.251 C 
ENDROOT
BRANCH   1  17
ATOM     17  C   UNL d   1       8.641   4.846 -10.149  0.00  0.00     0.251 C 
BRANCH  17  18
ATOM     18  C   UNL d   1       7.843   5.263 -11.384  0.00  0.00     0.043 C 
BRANCH  18  19
ATOM     19  C   UNL d   1       8.718   5.842 -12.537  0.00  0.00     0.071 C 
BRANCH  19  20
ATOM     20  C   UNL d   1       9.436   4.783 -13.404  0.00  0.00     0.173 C 
ATOM     21  O   UNL d   1      10.638   4.919 -13.639  0.00  0.00    -0.291 OA
BRANCH  20  22
ATOM     22  C   UNL d   1       8.661   3.622 -13.924  0.00  0.00     0.035 A 
ATOM     23  C   UNL d   1       9.304   2.513 -14.531  0.00  0.00     0.005 A 
ATOM     24  C   UNL d   1       8.540   1.401 -14.962  0.00  0.00     0.030 A 
ATOM     25  C   UNL d   1       7.141   1.375 -14.747  0.00  0.00     0.140 A 
ATOM     26  C   UNL d   1       6.498   2.478 -14.138  0.00  0.00     0.030 A 
ATOM     27  F   UNL d   1       6.413   0.309 -15.163  0.00  0.00    -0.204 F 
ATOM     28  C   UNL d   1       7.250   3.605 -13.769  0.00  0.00     0.005 A 
ENDBRANCH  20  22
ENDBRANCH  19  20
ENDBRANCH  18  19
ENDBRANCH  17  18
ENDBRANCH   1  17
TORSDOF 5
