REMARK  4 active torsions:
REMARK  status: ('A' for Active; 'I' for Inactive)
REMARK    1  A    between atoms: C_6  and  C_7 
REMARK    2  A    between atoms: C_7  and  N_8 
REMARK    3  A    between atoms: C_11  and  N_12 
REMARK    4  A    between atoms: C_16  and  C_17 
ROOT
ATOM      1  N   UNL d   1      10.644   8.622  -6.539  0.00  0.00     0.141 N 
ATOM      2  C   UNL d   1      11.406   8.875  -7.758  0.00  0.00     0.253 C 
ATOM      3  C   UNL d   1      11.201   7.714  -8.751  0.00  0.00     0.058 C 
ATOM      4  C   UNL d   1       9.710   7.509  -9.044  0.00  0.00     0.094 C 
ATOM      5  C   UNL d   1       8.962   7.349  -7.710  0.00  0.00     0.058 C 
ATOM      6  C   UNL d   1       9.214   8.550  -6.817  0.00  0.00     0.253 C 
ENDROOT
BRANCH   4   7
ATOM      7  N   UNL d   1       9.491   6.373  -9.964  0.00  0.00    -0.284 N 
ATOM      8  C   UNL d   1       9.421   5.060  -9.640  0.00  0.00     0.350 A 
ATOM      9  O   UNL d   1       9.443   4.536  -8.526  0.00  0.00    -0.244 OA
ATOM     10  N   UNL d   1       9.369   4.384 -10.776  0.00  0.00    -0.191 NA
ATOM     11  C   UNL d   1       9.274   5.218 -11.846  0.00  0.00     0.098 A 
ATOM     12  C   UNL d   1       9.373   6.463 -11.351  0.00  0.00     0.059 A 
ATOM     13  C   UNL d   1       9.311   7.786 -12.075  0.00  0.00     0.052 C 
BRANCH  11  14
ATOM     14  C   UNL d   1       9.228   4.690 -13.215  0.00  0.00     0.019 A 
ATOM     15  C   UNL d   1      10.095   5.167 -14.210  0.00  0.00     0.002 A 
ATOM     16  C   UNL d   1      10.046   4.634 -15.508  0.00  0.00     0.000 A 
ATOM     17  C   UNL d   1       9.145   3.595 -15.807  0.00  0.00     0.000 A 
ATOM     18  C   UNL d   1       8.272   3.109 -14.812  0.00  0.00     0.000 A 
ATOM     19  C   UNL d   1       8.314   3.656 -13.517  0.00  0.00     0.002 A 
ENDBRANCH  11  14
ENDBRANCH   4   7
BRANCH   1  20
ATOM     20  C   UNL d   1      10.924   9.634  -5.544  0.00  0.00     0.277 C 
BRANCH  20  21
ATOM     21  C   UNL d   1      11.477   9.052  -4.257  0.00  0.00     0.011 A 
ATOM     22  C   UNL d   1      11.699   9.945  -3.195  0.00  0.00    -0.002 A 
ATOM     23  C   UNL d   1      12.190   9.495  -1.955  0.00  0.00    -0.001 A 
ATOM     24  C   UNL d   1      12.533   8.195  -1.768  0.00  0.00    -0.004 A 
ATOM     25  C   UNL d   1      12.328   7.299  -2.816  0.00  0.00    -0.022 A 
ATOM     26  C   UNL d   1      12.540   5.895  -2.479  0.00  0.00     0.031 C 
ATOM     27  C   UNL d   1      11.777   7.683  -4.057  0.00  0.00    -0.007 A 
ENDBRANCH  20  21
ENDBRANCH   1  20
TORSDOF 4
