REMARK  4 active torsions:
REMARK  status: ('A' for Active; 'I' for Inactive)
REMARK    1  A    between atoms: C_5  and  N_6 
REMARK    2  A    between atoms: N_9  and  C_10 
REMARK    3  A    between atoms: C_10  and  C_11 
REMARK    4  A    between atoms: C_13  and  C_15 
ROOT
ATOM      1  N   UNL d   1       9.170   4.178 -13.368  0.00  0.00    -0.344 N 
ATOM      2  C   UNL d   1       9.976   3.846 -12.220  0.00  0.00     0.137 C 
ATOM      3  C   UNL d   1       9.524   4.647 -10.973  0.00  0.00     0.274 C 
ATOM      4  N   UNL d   1       9.560   6.069 -11.293  0.00  0.00     0.141 N 
ATOM      5  C   UNL d   1       8.592   6.346 -12.355  0.00  0.00     0.274 C 
ATOM      6  C   UNL d   1       8.992   5.585 -13.640  0.00  0.00     0.137 C 
ENDROOT
BRANCH   4   7
ATOM      7  C   UNL d   1       9.191   6.837 -10.125  0.00  0.00     0.251 C 
BRANCH   7   8
ATOM      8  C   UNL d   1      10.370   7.096  -9.204  0.00  0.00     0.037 A 
ATOM      9  C   UNL d   1      10.277   8.210  -8.159  0.00  0.00     0.021 A 
ATOM     10  C   UNL d   1      11.188   8.359  -9.354  0.00  0.00     0.006 A 
ATOM     11  C   UNL d   1       9.056   9.062  -8.037  0.00  0.00     0.004 C 
BRANCH   9  12
ATOM     12  C   UNL d   1      10.874   8.040  -6.782  0.00  0.00    -0.023 A 
ATOM     13  C   UNL d   1      11.580   9.088  -6.128  0.00  0.00    -0.004 A 
ATOM     14  C   UNL d   1      12.133   8.903  -4.841  0.00  0.00    -0.000 A 
ATOM     15  C   UNL d   1      11.994   7.652  -4.207  0.00  0.00    -0.000 A 
ATOM     16  C   UNL d   1      11.284   6.618  -4.845  0.00  0.00    -0.000 A 
ATOM     17  C   UNL d   1      10.711   6.817  -6.110  0.00  0.00    -0.004 A 
ENDBRANCH   9  12
ENDBRANCH   7   8
ENDBRANCH   4   7
BRANCH   1  18
ATOM     18  C   UNL d   1       8.501   3.190 -14.079  0.00  0.00     0.052 A 
ATOM     19  C   UNL d   1       9.230   2.429 -15.019  0.00  0.00     0.016 A 
ATOM     20  C   UNL d   1       8.583   1.426 -15.768  0.00  0.00    -0.003 A 
ATOM     21  C   UNL d   1       7.211   1.164 -15.566  0.00  0.00    -0.022 A 
ATOM     22  C   UNL d   1       6.488   0.106 -16.370  0.00  0.00     0.031 C 
ATOM     23  C   UNL d   1       6.510   1.899 -14.588  0.00  0.00    -0.007 A 
ATOM     24  C   UNL d   1       7.125   2.939 -13.876  0.00  0.00    -0.007 A 
ATOM     25  C   UNL d   1       6.308   3.718 -12.860  0.00  0.00     0.033 C 
ENDBRANCH   1  18
TORSDOF 4
