REMARK  8 active torsions:
REMARK  status: ('A' for Active; 'I' for Inactive)
REMARK    1  A    between atoms: S_2  and  N_4 
REMARK    2  A    between atoms: S_2  and  C_24 
REMARK    3  A    between atoms: N_4  and  C_5 
REMARK    4  A    between atoms: C_5  and  C_6 
REMARK    5  A    between atoms: C_6  and  C_7 
REMARK    6  A    between atoms: C_7  and  C_8 
REMARK    7  A    between atoms: C_8  and  N_9 
REMARK    8  A    between atoms: N_12  and  C_13 
ROOT
ATOM      1  C   UNL d   1       9.955   4.430 -13.741  0.00  0.00     0.251 C 
ENDROOT
BRANCH   1   2
ATOM      2  C   UNL d   1       9.644   4.238 -12.244  0.00  0.00     0.037 C 
BRANCH   2   3
ATOM      3  C   UNL d   1       9.475   5.571 -11.524  0.00  0.00     0.029 C 
BRANCH   3   4
ATOM      4  C   UNL d   1       9.264   5.425 -10.008  0.00  0.00     0.139 C 
BRANCH   4   5
ATOM      5  N   UNL d   1       9.071   6.737  -9.411  0.00  0.00    -0.185 NA
BRANCH   5   6
ATOM      6  S   UNL d   1      10.380   7.863  -9.245  0.00  0.00     0.281 S 
ATOM      7  O   UNL d   1      11.573   7.348  -9.932  0.00  0.00    -0.199 OA
ATOM      8  O   UNL d   1       9.854   9.191  -9.559  0.00  0.00    -0.199 OA
BRANCH   6   9
ATOM      9  C   UNL d   1      10.744   7.798  -7.514  0.00  0.00     0.106 A 
ATOM     10  C   UNL d   1      10.734   8.980  -6.757  0.00  0.00     0.025 A 
ATOM     11  C   UNL d   1      11.077   8.927  -5.397  0.00  0.00     0.069 A 
ATOM     12  C   UNL d   1      11.458   7.708  -4.800  0.00  0.00     0.068 A 
ATOM     13 CL   UNL d   1      11.013  10.375  -4.484  0.00  0.00    -0.082 Cl
ATOM     14  C   UNL d   1      11.458   6.533  -5.567  0.00  0.00     0.013 A 
ATOM     15 CL   UNL d   1      11.886   7.624  -3.130  0.00  0.00    -0.082 Cl
ATOM     16  C   UNL d   1      11.115   6.574  -6.929  0.00  0.00     0.014 A 
ENDBRANCH   6   9
ENDBRANCH   5   6
ENDBRANCH   4   5
ENDBRANCH   3   4
ENDBRANCH   2   3
ENDBRANCH   1   2
BRANCH   1  17
ATOM     17  N   UNL d   1      10.402   3.182 -14.360  0.00  0.00     0.141 N 
ATOM     18  C   UNL d   1      10.767   3.433 -15.759  0.00  0.00     0.274 C 
ATOM     19  C   UNL d   1      11.265   2.135 -16.425  0.00  0.00     0.138 C 
ATOM     20  N   UNL d   1      10.256   1.087 -16.308  0.00  0.00    -0.329 N 
ATOM     21  C   UNL d   1       9.809   0.860 -14.943  0.00  0.00     0.138 C 
ATOM     22  C   UNL d   1       9.330   2.180 -14.325  0.00  0.00     0.274 C 
BRANCH  20  23
ATOM     23  C   UNL d   1       9.761   0.376 -17.412  0.00  0.00     0.148 A 
ATOM     24  C   UNL d   1       8.345   0.060 -17.585  0.00  0.00     0.042 A 
ATOM     25  C   UNL d   1       8.172  -0.642 -18.819  0.00  0.00     0.050 A 
ATOM     26  C   UNL d   1       7.170   0.323 -16.838  0.00  0.00     0.004 A 
ATOM     27  S   UNL d   1       9.745  -0.810 -19.564  0.00  0.00     0.015 SA
ATOM     28  C   UNL d   1       6.907  -1.063 -19.270  0.00  0.00     0.008 A 
ATOM     29  N   UNL d   1      10.585   0.003 -18.370  0.00  0.00    -0.192 NA
ATOM     30  C   UNL d   1       5.767  -0.799 -18.488  0.00  0.00     0.001 A 
ATOM     31  C   UNL d   1       5.901  -0.108 -17.268  0.00  0.00     0.000 A 
ENDBRANCH  20  23
ENDBRANCH   1  17
TORSDOF 8
