REMARK  4 active torsions:
REMARK  status: ('A' for Active; 'I' for Inactive)
REMARK    1  A    between atoms: S_2  and  C_4 
REMARK    2  A    between atoms: S_2  and  C_11 
REMARK    3  A    between atoms: C_14  and  C_15 
REMARK    4  A    between atoms: C_16  and  C_17 
ROOT
ATOM      1  C   UNL d   1       9.304   4.869 -12.563  0.00  0.00     0.169 A 
ATOM      2  C   UNL d   1       9.303   6.273 -12.429  0.00  0.00     0.031 A 
ATOM      3  C   UNL d   1       9.441   6.844 -11.153  0.00  0.00     0.004 A 
ATOM      4  C   UNL d   1       9.498   5.982 -10.049  0.00  0.00     0.019 A 
ATOM      5  C   UNL d   1       9.419   4.603 -10.287  0.00  0.00     0.100 A 
ATOM      6  N   UNL d   1       9.395   4.050 -11.518  0.00  0.00    -0.233 NA
ENDROOT
BRANCH   1   7
ATOM      7  S   UNL d   1       9.138   4.093 -14.173  0.00  0.00     0.226 S 
ATOM      8  O   UNL d   1      10.302   3.209 -14.447  0.00  0.00    -0.216 OA
ATOM      9  O   UNL d   1       8.854   5.189 -15.090  0.00  0.00    -0.216 OA
BRANCH   7  10
ATOM     10  C   UNL d   1       7.673   3.063 -14.007  0.00  0.00     0.090 A 
ATOM     11  C   UNL d   1       6.532   3.548 -13.332  0.00  0.00     0.014 A 
ATOM     12  C   UNL d   1       5.467   2.663 -13.042  0.00  0.00     0.030 A 
ATOM     13  C   UNL d   1       5.521   1.326 -13.512  0.00  0.00     0.140 A 
ATOM     14  C   UNL d   1       6.632   0.872 -14.237  0.00  0.00     0.030 A 
ATOM     15  F   UNL d   1       4.502   0.449 -13.312  0.00  0.00    -0.204 F 
ATOM     16  C   UNL d   1       7.712   1.731 -14.488  0.00  0.00     0.014 A 
ENDBRANCH   7  10
ENDBRANCH   1   7
BRANCH   4  17
ATOM     17  C   UNL d   1       9.859   6.443  -8.711  0.00  0.00     0.002 C 
ATOM     18  C   UNL d   1      10.636   7.506  -8.459  0.00  0.00     0.000 C 
BRANCH  18  19
ATOM     19  C   UNL d   1      10.934   7.969  -7.105  0.00  0.00     0.000 A 
ATOM     20  C   UNL d   1      11.107   9.345  -6.882  0.00  0.00     0.002 A 
ATOM     21  C   UNL d   1      11.297   9.861  -5.592  0.00  0.00     0.030 A 
ATOM     22  C   UNL d   1      11.380   8.981  -4.504  0.00  0.00     0.140 A 
ATOM     23  C   UNL d   1      11.199   7.599  -4.708  0.00  0.00     0.030 A 
ATOM     24  F   UNL d   1      11.555   9.460  -3.247  0.00  0.00    -0.204 F 
ATOM     25  C   UNL d   1      10.927   7.093  -6.000  0.00  0.00     0.002 A 
ENDBRANCH  18  19
ENDBRANCH   4  17
TORSDOF 4
