REMARK  3 active torsions:
REMARK  status: ('A' for Active; 'I' for Inactive)
REMARK    1  A    between atoms: C_2  and  C_3 
REMARK    2  A    between atoms: C_5  and  O_6 
REMARK    3  A    between atoms: C_10  and  C_11 
ROOT
ATOM      1  C   UNL d   1       7.464   2.167 -15.427  0.00  0.00     0.246 C 
ATOM      2  C   UNL d   1       6.532   3.094 -14.572  0.00  0.00     0.064 C 
ATOM      3  C   UNL d   1       7.254   3.921 -13.545  0.00  0.00    -0.022 A 
ATOM      4  C   UNL d   1       6.530   4.896 -12.845  0.00  0.00    -0.004 A 
ATOM      5  C   UNL d   1       7.184   5.677 -11.872  0.00  0.00    -0.000 A 
ATOM      6  C   UNL d   1       8.536   5.438 -11.577  0.00  0.00    -0.000 A 
ATOM      7  C   UNL d   1       9.236   4.411 -12.232  0.00  0.00    -0.003 A 
ATOM      8  C   UNL d   1       8.600   3.646 -13.234  0.00  0.00     0.007 A 
ATOM      9  C   UNL d   1       9.368   2.555 -13.973  0.00  0.00     0.277 C 
ATOM     10  N   UNL d   1       8.511   1.571 -14.604  0.00  0.00     0.146 N 
ATOM     11  C   UNL d   1       9.323   0.578 -15.345  0.00  0.00     0.286 C 
ENDROOT
BRANCH   1  12
ATOM     12  C   UNL d   1       6.648   1.123 -16.190  0.00  0.00     0.005 A 
ATOM     13  C   UNL d   1       5.833   0.130 -15.564  0.00  0.00    -0.022 A 
ATOM     14  C   UNL d   1       5.132  -0.782 -16.379  0.00  0.00     0.020 A 
ATOM     15  C   UNL d   1       5.242  -0.759 -17.794  0.00  0.00     0.094 A 
ATOM     16  C   UNL d   1       6.075   0.204 -18.390  0.00  0.00     0.024 A 
ATOM     17  C   UNL d   1       6.768   1.137 -17.600  0.00  0.00    -0.001 A 
BRANCH  13  18
ATOM     18  C   UNL d   1       5.653  -0.059 -14.033  0.00  0.00     0.026 C 
ATOM     19  C   UNL d   1       6.835  -0.733 -13.317  0.00  0.00     0.005 C 
ENDBRANCH  13  18
BRANCH  15  20
ATOM     20  O   UNL d   1       4.587  -1.633 -18.637  0.00  0.00    -0.328 OA
ATOM     21  C   UNL d   1       3.864  -2.699 -18.043  0.00  0.00     0.181 C 
ENDBRANCH  15  20
ENDBRANCH   1  12
TORSDOF 3
