REMARK  7 active torsions:
REMARK  status: ('A' for Active; 'I' for Inactive)
REMARK    1  A    between atoms: C_2  and  C_3 
REMARK       I    between atoms: C_2  and  N_10 
REMARK    2  A    between atoms: C_3  and  C_4 
REMARK    3  A    between atoms: N_10  and  C_11 
REMARK    4  A    between atoms: C_14  and  C_15 
REMARK    5  A    between atoms: C_15  and  C_16 
REMARK    6  A    between atoms: C_16  and  N_17 
REMARK    7  A    between atoms: N_20  and  C_21 
ROOT
ATOM      1  C   UNL d   1       9.347   4.837 -11.092  0.00  0.00     0.035 C 
ENDROOT
BRANCH   1   2
ATOM      2  C   UNL d   1       9.112   5.953 -10.062  0.00  0.00     0.002 C 
ATOM      3  C   UNL d   1       9.096   5.346  -8.639  0.00  0.00     0.002 C 
ATOM      4  C   UNL d   1       8.850   6.419  -7.573  0.00  0.00     0.024 C 
ATOM      5  C   UNL d   1       9.882   7.541  -7.699  0.00  0.00     0.106 C 
ATOM      6  C   UNL d   1       9.918   8.174  -9.096  0.00  0.00     0.024 C 
ATOM      7  C   UNL d   1      10.160   7.095 -10.149  0.00  0.00     0.002 C 
BRANCH   5   8
ATOM      8  N   UNL d   1       9.639   8.576  -6.700  0.00  0.00    -0.240 NA
ATOM      9  C   UNL d   1      10.588   9.178  -5.957  0.00  0.00     0.251 C 
ATOM     10  O   UNL d   1      10.366  10.214  -5.328  0.00  0.00    -0.271 OA
BRANCH   9  11
ATOM     11  C   UNL d   1      11.967   8.572  -5.820  0.00  0.00     0.090 C 
BRANCH  11  12
ATOM     12  C   UNL d   1      12.370   8.211  -4.372  0.00  0.00     0.014 C 
ATOM     13  C   UNL d   1      12.029   9.252  -3.292  0.00  0.00     0.033 C 
ATOM     14  C   UNL d   1      12.506   8.822  -1.918  0.00  0.00     0.142 C 
ATOM     15  O   UNL d   1      11.896   7.572  -1.635  0.00  0.00    -0.354 OA
ATOM     16  C   UNL d   1      12.295   6.522  -2.511  0.00  0.00     0.142 C 
ATOM     17  C   UNL d   1      11.840   6.831  -3.944  0.00  0.00     0.033 C 
ENDBRANCH  11  12
ENDBRANCH   9  11
ENDBRANCH   5   8
ENDBRANCH   1   2
BRANCH   1  18
ATOM     18  C   UNL d   1       9.427   5.291 -12.569  0.00  0.00     0.250 C 
BRANCH  18  19
ATOM     19  N   UNL d   1      10.288   4.403 -13.347  0.00  0.00     0.141 N 
ATOM     20  C   UNL d   1       9.662   3.085 -13.518  0.00  0.00     0.274 C 
ATOM     21  C   UNL d   1      10.589   2.129 -14.299  0.00  0.00     0.138 C 
ATOM     22  N   UNL d   1      10.960   2.742 -15.569  0.00  0.00    -0.330 N 
ATOM     23  C   UNL d   1      11.493   4.095 -15.475  0.00  0.00     0.138 C 
ATOM     24  C   UNL d   1      10.533   4.988 -14.668  0.00  0.00     0.274 C 
BRANCH  22  25
ATOM     25  C   UNL d   1      10.761   2.106 -16.800  0.00  0.00     0.142 A 
ATOM     26  C   UNL d   1      10.294   2.808 -17.952  0.00  0.00     0.059 A 
ATOM     27  C   UNL d   1      10.171   2.066 -19.154  0.00  0.00     0.104 A 
ATOM     28  C   UNL d   1       9.864   4.141 -18.277  0.00  0.00     0.032 A 
ATOM     29  C   UNL d   1      10.484   0.708 -19.226  0.00  0.00     0.045 A 
ATOM     30  O   UNL d   1       9.708   2.886 -20.161  0.00  0.00    -0.305 OA
ATOM     31  C   UNL d   1      10.920   0.102 -18.041  0.00  0.00     0.103 A 
ATOM     32  N   UNL d   1      11.042   0.775 -16.875  0.00  0.00    -0.227 NA
ATOM     33  C   UNL d   1       9.537   4.127 -19.609  0.00  0.00     0.123 A 
ENDBRANCH  22  25
ENDBRANCH  18  19
ENDBRANCH   1  18
TORSDOF 7
