REMARK  3 active torsions:
REMARK  status: ('A' for Active; 'I' for Inactive)
REMARK    1  A    between atoms: C_2  and  C_3 
REMARK    2  A    between atoms: C_2  and  C_6 
REMARK    3  A    between atoms: C_11  and  C_12 
ROOT
ATOM      1  C   UNL d   1       8.926   6.252 -11.296  0.00  0.00    -0.011 A 
ATOM      2  C   UNL d   1       9.452   7.531 -11.617  0.00  0.00    -0.002 A 
ATOM      3  C   UNL d   1      10.117   8.299 -10.636  0.00  0.00     0.026 A 
ATOM      4  C   UNL d   1      10.199   7.798  -9.334  0.00  0.00     0.119 A 
ATOM      5  O   UNL d   1      10.765   8.378  -8.220  0.00  0.00    -0.288 OA
ATOM      6  C   UNL d   1      10.563   7.440  -7.245  0.00  0.00     0.182 A 
ATOM      7  N   UNL d   1       9.940   6.315  -7.635  0.00  0.00    -0.220 NA
ATOM      8  C   UNL d   1       9.681   6.542  -8.969  0.00  0.00     0.106 A 
ATOM      9  C   UNL d   1       9.059   5.760  -9.969  0.00  0.00     0.018 A 
ENDROOT
BRANCH   6  10
ATOM     10  C   UNL d   1      11.049   7.754  -5.906  0.00  0.00     0.041 A 
ATOM     11  C   UNL d   1      11.151   9.093  -5.470  0.00  0.00     0.004 A 
ATOM     12  C   UNL d   1      11.623   9.373  -4.173  0.00  0.00     0.011 A 
ATOM     13  C   UNL d   1      12.020   8.328  -3.319  0.00  0.00     0.058 A 
ATOM     14  C   UNL d   1      11.911   6.994  -3.746  0.00  0.00     0.011 A 
ATOM     15 CL   UNL d   1      12.652   8.664  -1.752  0.00  0.00    -0.082 Cl
ATOM     16  C   UNL d   1      11.445   6.714  -5.041  0.00  0.00     0.004 A 
ENDBRANCH   6  10
BRANCH   1  17
ATOM     17  C   UNL d   1       8.201   5.441 -12.378  0.00  0.00     0.110 C 
ATOM     18  C   UNL d   1       6.958   4.695 -11.835  0.00  0.00     0.016 C 
BRANCH  17  19
ATOM     19  C   UNL d   1       9.198   4.527 -13.127  0.00  0.00     0.189 C 
ATOM     20  O   UNL d   1      10.396   4.780 -13.238  0.00  0.00    -0.647 OA
ATOM     21  O   UNL d   1       8.609   3.431 -13.679  0.00  0.00    -0.647 OA
ENDBRANCH  17  19
ENDBRANCH   1  17
TORSDOF 3
