REMARK  4 active torsions:
REMARK  status: ('A' for Active; 'I' for Inactive)
REMARK    1  A    between atoms: C_8  and  N_9 
REMARK    2  A    between atoms: N_12  and  C_13 
REMARK    3  A    between atoms: C_13  and  N_14 
REMARK       I    between atoms: N_14  and  C_15 
REMARK    4  A    between atoms: C_15  and  C_17 
ROOT
ATOM      1  N   UNL d   1      11.046   3.855 -13.967  0.00  0.00    -0.191 NA
ATOM      2  C   UNL d   1       9.933   3.893 -13.641  0.00  0.00     0.102 C 
ATOM      3  C   UNL d   1       8.532   3.945 -13.238  0.00  0.00     0.084 A 
ATOM      4  C   UNL d   1       7.582   3.327 -14.072  0.00  0.00     0.012 A 
ATOM      5  C   UNL d   1       6.216   3.355 -13.755  0.00  0.00     0.001 A 
ATOM      6  C   UNL d   1       5.778   4.007 -12.595  0.00  0.00     0.002 A 
ATOM      7  C   UNL d   1       6.719   4.630 -11.758  0.00  0.00     0.018 A 
ATOM      8  C   UNL d   1       8.085   4.586 -12.049  0.00  0.00     0.066 A 
ENDROOT
BRANCH   8   9
ATOM      9  N   UNL d   1       8.943   5.228 -11.148  0.00  0.00    -0.344 N 
ATOM     10  C   UNL d   1       9.717   6.352 -11.589  0.00  0.00     0.137 C 
ATOM     11  C   UNL d   1       9.663   7.508 -10.599  0.00  0.00     0.277 C 
ATOM     12  N   UNL d   1       9.970   7.064  -9.229  0.00  0.00     0.166 N 
ATOM     13  C   UNL d   1       9.032   6.002  -8.829  0.00  0.00     0.277 C 
ATOM     14  C   UNL d   1       9.124   4.793  -9.772  0.00  0.00     0.137 C 
BRANCH  12  15
ATOM     15  C   UNL d   1       9.844   8.210  -8.332  0.00  0.00     0.380 C 
BRANCH  15  16
ATOM     16  N   UNL d   1      10.355   8.025  -6.979  0.00  0.00    -0.200 NA
ATOM     17  C   UNL d   1      10.947   8.965  -6.224  0.00  0.00     0.277 C 
ATOM     18  O   UNL d   1      11.095  10.133  -6.580  0.00  0.00    -0.266 OA
BRANCH  17  19
ATOM     19  C   UNL d   1      11.385   8.527  -4.857  0.00  0.00     0.058 A 
ATOM     20  C   UNL d   1      11.604   7.162  -4.550  0.00  0.00     0.005 A 
ATOM     21  C   UNL d   1      12.029   6.785  -3.261  0.00  0.00     0.000 A 
ATOM     22  C   UNL d   1      12.259   7.766  -2.279  0.00  0.00     0.000 A 
ATOM     23  C   UNL d   1      12.061   9.121  -2.582  0.00  0.00     0.000 A 
ATOM     24  C   UNL d   1      11.616   9.501  -3.860  0.00  0.00     0.005 A 
ENDBRANCH  17  19
ENDBRANCH  15  16
ENDBRANCH  12  15
ENDBRANCH   8   9
TORSDOF 4
