REMARK  3 active torsions:
REMARK  status: ('A' for Active; 'I' for Inactive)
REMARK    1  A    between atoms: C_5  and  C_6 
REMARK    2  A    between atoms: C_6  and  N_7 
REMARK    3  A    between atoms: N_7  and  C_8 
ROOT
ATOM      1  C   UNL d   1      10.402   6.957  -9.336  0.00  0.00     0.098 C 
ATOM      2  C   UNL d   1      10.452   8.456  -8.906  0.00  0.00     0.022 C 
ATOM      3  C   UNL d   1       9.446   8.801  -7.712  0.00  0.00     0.002 C 
ATOM      4  C   UNL d   1       8.632   7.619  -7.210  0.00  0.00     0.000 C 
ATOM      5  C   UNL d   1       9.698   6.671  -6.840  0.00  0.00     0.002 A 
ATOM      6  C   UNL d   1      10.767   7.525  -6.205  0.00  0.00     0.000 A 
ATOM      7  C   UNL d   1      10.396   8.980  -6.485  0.00  0.00     0.000 C 
ATOM      8  C   UNL d   1      11.644   9.569  -7.082  0.00  0.00     0.000 C 
ATOM      9  C   UNL d   1      11.806   8.479  -8.135  0.00  0.00     0.002 C 
ATOM     10  C   UNL d   1      11.700   7.173  -7.348  0.00  0.00     0.002 A 
ATOM     11  C   UNL d   1      10.660   6.295  -7.999  0.00  0.00     0.022 A 
ENDROOT
BRANCH   1  12
ATOM     12  N   UNL d   1       9.213   6.455  -9.997  0.00  0.00    -0.293 NA
BRANCH  12  13
ATOM     13  C   UNL d   1       9.097   6.786 -11.377  0.00  0.00     0.148 C 
BRANCH  13  14
ATOM     14  C   UNL d   1       8.254   5.756 -12.114  0.00  0.00     0.021 A 
ATOM     15  C   UNL d   1       6.849   5.696 -11.913  0.00  0.00     0.097 A 
ATOM     16  N   UNL d   1       6.071   4.762 -12.522  0.00  0.00    -0.243 NA
ATOM     17  C   UNL d   1       6.664   3.879 -13.332  0.00  0.00     0.099 A 
ATOM     18  C   UNL d   1       8.056   3.855 -13.592  0.00  0.00     0.020 A 
ATOM     19  C   UNL d   1       8.856   4.820 -12.944  0.00  0.00     0.001 A 
ENDBRANCH  13  14
ENDBRANCH  12  13
ENDBRANCH   1  12
TORSDOF 3
