REMARK  7 active torsions:
REMARK  status: ('A' for Active; 'I' for Inactive)
REMARK    1  A    between atoms: C_5  and  N_6 
REMARK    2  A    between atoms: N_11  and  C_12 
REMARK    3  A    between atoms: C_12  and  C_13 
REMARK    4  A    between atoms: C_13  and  C_14 
REMARK    5  A    between atoms: C_14  and  S_15 
REMARK    6  A    between atoms: S_15  and  C_16 
REMARK    7  A    between atoms: C_19  and  C_20 
ROOT
ATOM      1  C   UNL d   1      12.525   3.473 -17.911  0.00  0.00     0.251 C 
ENDROOT
BRANCH   1   2
ATOM      2  N   UNL d   1      12.002   2.850 -16.701  0.00  0.00     0.138 N 
ATOM      3  C   UNL d   1      11.747   1.422 -16.874  0.00  0.00     0.252 C 
ATOM      4  C   UNL d   1      10.847   1.059 -15.687  0.00  0.00     0.052 C 
ATOM      5  C   UNL d   1       9.666   0.127 -15.946  0.00  0.00     0.021 C 
ATOM      6  C   UNL d   1      10.222   2.384 -15.283  0.00  0.00     0.097 C 
ATOM      7  C   UNL d   1       8.520   0.781 -15.164  0.00  0.00     0.077 C 
ATOM      8  N   UNL d   1       8.779   2.219 -15.244  0.00  0.00    -0.252 NA
ATOM      9  C   UNL d   1      10.687   3.369 -16.355  0.00  0.00     0.266 C 
BRANCH   8  10
ATOM     10  C   UNL d   1       8.037   3.091 -14.404  0.00  0.00     0.036 A 
ATOM     11  C   UNL d   1       6.711   2.774 -14.029  0.00  0.00     0.011 A 
ATOM     12  C   UNL d   1       5.991   3.610 -13.151  0.00  0.00    -0.003 A 
ATOM     13  C   UNL d   1       6.588   4.792 -12.670  0.00  0.00    -0.022 A 
ATOM     14  C   UNL d   1       5.852   5.707 -11.726  0.00  0.00     0.031 C 
ATOM     15  C   UNL d   1       7.886   5.140 -13.056  0.00  0.00    -0.003 A 
ATOM     16  C   UNL d   1       8.606   4.304 -13.936  0.00  0.00     0.011 A 
ENDBRANCH   8  10
ENDBRANCH   1   2
BRANCH   1  17
ATOM     17  C   UNL d   1      12.941   4.937 -17.676  0.00  0.00     0.047 C 
BRANCH  17  18
ATOM     18  C   UNL d   1      13.098   5.702 -18.993  0.00  0.00     0.067 C 
BRANCH  18  19
ATOM     19  S   UNL d   1      13.536   7.446 -18.695  0.00  0.00    -0.075 SA
BRANCH  19  20
ATOM     20  C   UNL d   1      15.303   7.350 -18.686  0.00  0.00     0.193 A 
ATOM     21  N   UNL d   1      16.087   8.444 -18.724  0.00  0.00    -0.287 N 
ATOM     22  C   UNL d   1      17.327   7.885 -18.792  0.00  0.00     0.186 A 
ATOM     23  C   UNL d   1      15.690   9.855 -18.722  0.00  0.00     0.134 C 
ATOM     24  N   UNL d   1      17.295   6.549 -18.759  0.00  0.00    -0.127 NA
ATOM     25  N   UNL d   1      15.972   6.204 -18.673  0.00  0.00    -0.122 NA
BRANCH  22  26
ATOM     26  C   UNL d   1      18.618   8.585 -18.887  0.00  0.00     0.136 A 
ATOM     27  N   UNL d   1      18.658   9.932 -18.749  0.00  0.00    -0.238 NA
ATOM     28  C   UNL d   1      19.867  10.527 -18.841  0.00  0.00     0.120 A 
ATOM     29  C   UNL d   1      21.042   9.784 -19.090  0.00  0.00     0.120 A 
ATOM     30  N   UNL d   1      21.018   8.443 -19.245  0.00  0.00    -0.239 NA
ATOM     31  C   UNL d   1      19.810   7.852 -19.140  0.00  0.00     0.121 A 
ENDBRANCH  22  26
ENDBRANCH  19  20
ENDBRANCH  18  19
ENDBRANCH  17  18
ENDBRANCH   1  17
TORSDOF 7
