REMARK  3 active torsions:
REMARK  status: ('A' for Active; 'I' for Inactive)
REMARK    1  A    between atoms: O_2  and  C_3 
REMARK    2  A    between atoms: C_10  and  N_11 
REMARK    3  A    between atoms: N_11  and  C_12 
ROOT
ATOM      1  C   UNL d   1      11.895   8.022  -8.835  0.00  0.00     0.200 A 
ATOM      2  N   UNL d   1      11.399   7.428  -9.946  0.00  0.00    -0.206 NA
ATOM      3  C   UNL d   1      10.158   6.939  -9.884  0.00  0.00     0.143 A 
ATOM      4  C   UNL d   1       9.585   6.303 -11.128  0.00  0.00     0.074 C 
ATOM      5  N   UNL d   1       9.365   6.984  -8.831  0.00  0.00    -0.218 NA
ATOM      6  C   UNL d   1       9.799   7.669  -7.764  0.00  0.00     0.161 A 
ATOM      7 CL   UNL d   1       8.665   7.987  -6.543  0.00  0.00    -0.060 Cl
ATOM      8  C   UNL d   1      11.098   8.210  -7.686  0.00  0.00     0.169 A 
ENDROOT
BRANCH   8   9
ATOM      9  N   UNL d   1      11.556   8.891  -6.540  0.00  0.00    -0.054 NA
BRANCH   9  10
ATOM     10  C   UNL d   1      11.685   8.434  -5.239  0.00  0.00     0.742 A 
ATOM     11  N   UNL d   1      12.108   9.313  -4.279  0.00  0.00    -0.084 NA
ATOM     12  C   UNL d   1      12.344   8.571  -3.061  0.00  0.00     0.172 A 
ATOM     13  C   UNL d   1      11.854   7.158  -3.421  0.00  0.00     0.172 A 
ATOM     14  N   UNL d   1      11.485   7.225  -4.833  0.00  0.00    -0.084 NA
ENDBRANCH   9  10
ENDBRANCH   8   9
BRANCH   1  15
ATOM     15  O   UNL d   1      13.221   8.383  -8.833  0.00  0.00    -0.311 OA
ATOM     16  C   UNL d   1      14.011   7.993  -9.948  0.00  0.00     0.183 C 
ENDBRANCH   1  15
TORSDOF 3
