REMARK  7 active torsions:
REMARK  status: ('A' for Active; 'I' for Inactive)
REMARK    1  A    between atoms: C_2  and  C_3 
REMARK    2  A    between atoms: C_6  and  C_7 
REMARK    3  A    between atoms: C_7  and  C_8 
REMARK    4  A    between atoms: C_8  and  O_9 
REMARK    5  A    between atoms: O_9  and  C_10 
REMARK    6  A    between atoms: C_13  and  C_14 
REMARK    7  A    between atoms: C_14  and  C_15 
ROOT
ATOM      1  C   UNL d   1       9.789   7.732 -10.639  0.00  0.00     0.094 A 
ATOM      2  C   UNL d   1       9.911   6.451 -10.037  0.00  0.00     0.024 A 
ATOM      3  C   UNL d   1       9.420   5.310 -10.696  0.00  0.00    -0.002 A 
ATOM      4  C   UNL d   1       8.810   5.422 -11.962  0.00  0.00    -0.021 A 
ATOM      5  C   UNL d   1       8.644   6.693 -12.541  0.00  0.00    -0.002 A 
ATOM      6  C   UNL d   1       9.138   7.837 -11.887  0.00  0.00     0.024 A 
ENDROOT
BRANCH   1   7
ATOM      7  O   UNL d   1      10.259   8.896 -10.080  0.00  0.00    -0.330 OA
BRANCH   7   8
ATOM      8  C   UNL d   1      10.893   8.844  -8.812  0.00  0.00     0.155 C 
BRANCH   8   9
ATOM      9  C   UNL d   1       9.862   8.710  -7.676  0.00  0.00     0.078 C 
BRANCH   9  10
ATOM     10  C   UNL d   1      10.549   8.567  -6.338  0.00  0.00     0.062 A 
ATOM     11  C   UNL d   1      10.855   9.685  -5.540  0.00  0.00     0.015 A 
ATOM     12  C   UNL d   1      11.477   9.468  -4.295  0.00  0.00    -0.002 A 
ATOM     13  C   UNL d   1      11.796   8.149  -3.904  0.00  0.00    -0.003 A 
ATOM     14  C   UNL d   1      11.460   7.102  -4.796  0.00  0.00     0.094 A 
ATOM     15  N   UNL d   1      10.860   7.303  -5.981  0.00  0.00    -0.249 NA
BRANCH  13  16
ATOM     16  C   UNL d   1      12.447   7.896  -2.550  0.00  0.00     0.028 C 
ATOM     17  C   UNL d   1      12.507   6.414  -2.159  0.00  0.00     0.005 C 
ENDBRANCH  13  16
ENDBRANCH   9  10
ENDBRANCH   8   9
ENDBRANCH   7   8
ENDBRANCH   1   7
BRANCH   4  18
ATOM     18  C   UNL d   1       8.361   4.175 -12.695  0.00  0.00     0.047 C 
BRANCH  18  19
ATOM     19  C   UNL d   1       8.967   3.991 -14.101  0.00  0.00     0.141 A 
ATOM     20  C   UNL d   1      10.506   3.886 -14.105  0.00  0.00     0.269 A 
ATOM     21  N   UNL d   1      10.984   2.752 -14.639  0.00  0.00    -0.167 NA
ATOM     22  O   UNL d   1      11.229   4.787 -13.679  0.00  0.00    -0.269 OA
ATOM     23  C   UNL d   1      10.071   1.882 -15.064  0.00  0.00     0.309 A 
ATOM     24  S   UNL d   1       8.432   2.425 -14.834  0.00  0.00    -0.043 SA
ATOM     25  O   UNL d   1      10.345   0.800 -15.582  0.00  0.00    -0.258 OA
ENDBRANCH  18  19
ENDBRANCH   4  18
TORSDOF 7
