REMARK  7 active torsions:
REMARK  status: ('A' for Active; 'I' for Inactive)
REMARK    1  A    between atoms: C_2  and  O_3 
REMARK    2  A    between atoms: O_3  and  C_4 
REMARK    3  A    between atoms: C_4  and  C_6 
REMARK    4  A    between atoms: C_15  and  C_16 
REMARK    5  A    between atoms: C_16  and  N_17 
REMARK    6  A    between atoms: C_20  and  C_21 
REMARK    7  A    between atoms: C_21  and  C_23 
ROOT
ATOM      1  C   UNL d   1       9.313   1.995 -16.243  0.00  0.00     0.159 A 
ATOM      2  O   UNL d   1       9.900   3.061 -15.640  0.00  0.00    -0.306 OA
ATOM      3  C   UNL d   1       9.031   3.510 -14.704  0.00  0.00     0.080 A 
ATOM      4  C   UNL d   1       7.897   2.759 -14.717  0.00  0.00     0.051 A 
ATOM      5  C   UNL d   1       8.066   1.739 -15.701  0.00  0.00     0.011 A 
ATOM      6  C   UNL d   1       7.099   0.645 -16.087  0.00  0.00     0.033 C 
ATOM      7  C   UNL d   1       6.828   3.114 -13.783  0.00  0.00     0.174 C 
ATOM      8  O   UNL d   1       5.837   2.410 -13.613  0.00  0.00    -0.291 OA
ATOM      9  C   UNL d   1       7.013   4.444 -13.021  0.00  0.00     0.072 C 
ATOM     10  C   UNL d   1       8.487   4.774 -12.671  0.00  0.00     0.048 C 
ATOM     11  C   UNL d   1       9.424   4.675 -13.897  0.00  0.00     0.054 C 
ENDROOT
BRANCH  10  12
ATOM     12  C   UNL d   1       8.602   6.151 -11.978  0.00  0.00     0.251 C 
BRANCH  12  13
ATOM     13  N   UNL d   1       9.460   6.085 -10.800  0.00  0.00     0.137 N 
ATOM     14  C   UNL d   1       9.898   7.437 -10.452  0.00  0.00     0.251 C 
ATOM     15  C   UNL d   1      10.836   7.429  -9.248  0.00  0.00     0.043 C 
ATOM     16  C   UNL d   1      10.140   6.805  -8.026  0.00  0.00     0.066 C 
ATOM     17  C   UNL d   1       9.572   5.430  -8.441  0.00  0.00     0.043 C 
ATOM     18  C   UNL d   1       8.691   5.538  -9.677  0.00  0.00     0.251 C 
BRANCH  16  19
ATOM     19  C   UNL d   1      11.136   6.697  -6.868  0.00  0.00     0.173 C 
ATOM     20  O   UNL d   1      11.957   5.797  -6.827  0.00  0.00    -0.291 OA
BRANCH  19  21
ATOM     21  C   UNL d   1      11.159   7.702  -5.811  0.00  0.00     0.035 A 
ATOM     22  C   UNL d   1      10.682   9.011  -6.043  0.00  0.00     0.005 A 
ATOM     23  C   UNL d   1      10.836   9.972  -5.033  0.00  0.00     0.030 A 
ATOM     24  C   UNL d   1      11.462   9.598  -3.831  0.00  0.00     0.140 A 
ATOM     25  C   UNL d   1      11.951   8.320  -3.596  0.00  0.00     0.030 A 
ATOM     26  F   UNL d   1      11.593  10.453  -2.829  0.00  0.00    -0.204 F 
ATOM     27  C   UNL d   1      11.803   7.357  -4.589  0.00  0.00     0.005 A 
ENDBRANCH  19  21
ENDBRANCH  16  19
ENDBRANCH  12  13
ENDBRANCH  10  12
BRANCH   1  28
ATOM     28  C   UNL d   1      10.080   1.368 -17.304  0.00  0.00     0.319 C 
ATOM     29  O   UNL d   1      11.166   1.836 -17.668  0.00  0.00    -0.257 OA
BRANCH  28  30
ATOM     30  O   UNL d   1       9.507   0.257 -17.827  0.00  0.00    -0.297 OA
BRANCH  30  31
ATOM     31  C   UNL d   1      10.088  -0.461 -18.909  0.00  0.00     0.152 C 
ATOM     32  C   UNL d   1      11.445  -1.081 -18.524  0.00  0.00     0.035 C 
ENDBRANCH  30  31
ENDBRANCH  28  30
ENDBRANCH   1  28
TORSDOF 7
