REMARK  2 active torsions:
REMARK  status: ('A' for Active; 'I' for Inactive)
REMARK    1  A    between atoms: N_10  and  C_11 
REMARK    2  A    between atoms: C_12  and  C_13 
ROOT
ATOM      1  C   UNL d   1       7.324   6.465 -12.171  0.00  0.00     0.031 C 
ATOM      2  C   UNL d   1       7.200   5.101 -12.812  0.00  0.00    -0.022 A 
ATOM      3  C   UNL d   1       6.015   4.336 -12.675  0.00  0.00    -0.003 A 
ATOM      4  C   UNL d   1       5.930   3.050 -13.300  0.00  0.00     0.017 A 
ATOM      5  C   UNL d   1       7.028   2.560 -14.036  0.00  0.00     0.064 A 
ATOM      6  C   UNL d   1       8.216   3.330 -14.157  0.00  0.00     0.015 A 
ATOM      7  C   UNL d   1       8.271   4.613 -13.549  0.00  0.00    -0.003 A 
ATOM      8  C   UNL d   1       9.164   2.641 -14.932  0.00  0.00     0.024 A 
ATOM      9  C   UNL d   1       8.635   1.425 -15.274  0.00  0.00     0.041 A 
ATOM     10  N   UNL d   1       7.321   1.383 -14.774  0.00  0.00    -0.309 N 
ATOM     11  C   UNL d   1       9.434   0.402 -16.048  0.00  0.00     0.079 C 
ATOM     12  C   UNL d   1      10.899   0.834 -16.223  0.00  0.00     0.257 C 
ATOM     13  N   UNL d   1      10.999   2.276 -16.536  0.00  0.00     0.144 N 
ATOM     14  C   UNL d   1      12.388   2.645 -16.822  0.00  0.00     0.286 C 
ATOM     15  C   UNL d   1      10.513   3.037 -15.387  0.00  0.00     0.278 C 
ENDROOT
BRANCH  10  16
ATOM     16  C   UNL d   1       6.453   0.273 -14.934  0.00  0.00     0.080 C 
ATOM     17  C   UNL d   1       6.258  -0.396 -16.105  0.00  0.00     0.019 C 
BRANCH  17  18
ATOM     18  C   UNL d   1       6.736  -0.069 -17.472  0.00  0.00     0.002 C 
ATOM     19  C   UNL d   1       7.086   1.254 -17.857  0.00  0.00     0.000 C 
ATOM     20  C   UNL d   1       7.742   1.501 -19.083  0.00  0.00     0.000 C 
ATOM     21  C   UNL d   1       7.858   0.482 -20.036  0.00  0.00     0.000 C 
ATOM     22  C   UNL d   1       7.431  -0.818 -19.708  0.00  0.00     0.000 C 
ATOM     23  C   UNL d   1       6.875  -1.100 -18.439  0.00  0.00     0.000 C 
ENDBRANCH  17  18
ENDBRANCH  10  16
TORSDOF 2
