REMARK  5 active torsions:
REMARK  status: ('A' for Active; 'I' for Inactive)
REMARK    1  A    between atoms: C_2  and  C_3 
REMARK       I    between atoms: C_2  and  N_12 
REMARK    2  A    between atoms: N_15  and  C_16 
REMARK    3  A    between atoms: C_16  and  C_17 
REMARK    4  A    between atoms: C_17  and  O_18 
REMARK    5  A    between atoms: O_18  and  C_19 
ROOT
ATOM      1  O   UNL d   1       9.920   9.174  -9.701  0.00  0.00    -0.266 OA
ATOM      2  C   UNL d   1       9.983   8.040  -9.209  0.00  0.00     0.275 C 
ATOM      3  N   UNL d   1       9.696   6.915  -9.921  0.00  0.00    -0.311 N 
ATOM      4  C   UNL d   1       9.591   5.564  -9.380  0.00  0.00     0.140 C 
ATOM      5  C   UNL d   1       8.270   4.947  -9.744  0.00  0.00     0.274 C 
ATOM      6  N   UNL d   1       8.106   4.845 -11.190  0.00  0.00     0.144 N 
ATOM      7  C   UNL d   1       8.104   6.213 -11.709  0.00  0.00     0.274 C 
ATOM      8  C   UNL d   1       9.433   6.938 -11.383  0.00  0.00     0.140 C 
ENDROOT
BRANCH   2   9
ATOM      9  C   UNL d   1      10.469   7.935  -7.787  0.00  0.00     0.139 A 
ATOM     10  N   UNL d   1      10.767   9.127  -7.105  0.00  0.00    -0.222 NA
ATOM     11  C   UNL d   1      11.179   8.892  -5.808  0.00  0.00     0.163 A 
ATOM     12  C   UNL d   1      11.131   7.477  -5.679  0.00  0.00     0.037 A 
ATOM     13  N   UNL d   1      11.539   9.787  -4.842  0.00  0.00    -0.225 NA
ATOM     14  C   UNL d   1      10.751   6.903  -6.902  0.00  0.00     0.027 A 
ATOM     15  C   UNL d   1      11.467   6.938  -4.414  0.00  0.00     0.005 A 
ATOM     16  C   UNL d   1      11.873   7.817  -3.400  0.00  0.00     0.021 A 
ATOM     17  C   UNL d   1      11.897   9.201  -3.673  0.00  0.00     0.101 A 
ENDBRANCH   2   9
BRANCH   6  18
ATOM     18  C   UNL d   1       6.830   4.182 -11.448  0.00  0.00     0.283 C 
BRANCH  18  19
ATOM     19  C   UNL d   1       6.797   3.652 -12.881  0.00  0.00     0.184 C 
BRANCH  19  20
ATOM     20  O   UNL d   1       5.744   2.704 -12.954  0.00  0.00    -0.327 OA
BRANCH  20  21
ATOM     21  C   UNL d   1       5.897   1.633 -13.807  0.00  0.00     0.113 A 
ATOM     22  C   UNL d   1       5.050   0.521 -13.638  0.00  0.00     0.123 A 
ATOM     23  N   UNL d   1       5.071  -0.581 -14.408  0.00  0.00    -0.240 NA
ATOM     24  C   UNL d   1       5.969  -0.624 -15.409  0.00  0.00     0.099 A 
ATOM     25  C   UNL d   1       6.875   0.421 -15.674  0.00  0.00     0.023 A 
ATOM     26  C   UNL d   1       6.834   1.571 -14.866  0.00  0.00     0.027 A 
ENDBRANCH  20  21
ENDBRANCH  19  20
ENDBRANCH  18  19
ENDBRANCH   6  18
TORSDOF 5
