REMARK  7 active torsions:
REMARK  status: ('A' for Active; 'I' for Inactive)
REMARK    1  A    between atoms: C_2  and  C_3 
REMARK    2  A    between atoms: C_3  and  C_4 
REMARK    3  A    between atoms: C_4  and  C_5 
REMARK    4  A    between atoms: C_5  and  O_6 
REMARK    5  A    between atoms: C_5  and  C_15 
REMARK    6  A    between atoms: O_6  and  C_7 
REMARK    7  A    between atoms: C_20  and  N_21 
ROOT
ATOM      1  C   UNL d   1      10.406   4.231 -14.255  0.00  0.00     0.203 A 
ATOM      2  N   UNL d   1      10.408   2.989 -14.727  0.00  0.00    -0.039 NA
ATOM      3  C   UNL d   1      11.367   2.778 -15.606  0.00  0.00     0.785 A 
ATOM      4  N   UNL d   1      11.415   1.534 -16.155  0.00  0.00     0.063 N 
ATOM      5  N   UNL d   1      12.275   3.633 -16.044  0.00  0.00     0.134 NA
ATOM      6  C   UNL d   1      12.166   4.846 -15.499  0.00  0.00     0.744 A 
ATOM      7  N   UNL d   1      11.255   5.202 -14.598  0.00  0.00    -0.043 NA
ENDROOT
BRANCH   1   8
ATOM      8  C   UNL d   1       9.352   4.562 -13.201  0.00  0.00     0.180 C 
BRANCH   8   9
ATOM      9  C   UNL d   1       8.002   4.880 -13.887  0.00  0.00     0.038 C 
BRANCH   9  10
ATOM     10  C   UNL d   1       6.853   5.340 -12.941  0.00  0.00     0.003 C 
BRANCH  10  11
ATOM     11  C   UNL d   1       7.010   6.811 -12.480  0.00  0.00     0.000 C 
ATOM     12  C   UNL d   1       5.747   7.649 -12.479  0.00  0.00     0.000 C 
ENDBRANCH  10  11
ENDBRANCH   9  10
ENDBRANCH   8   9
BRANCH   8  13
ATOM     13  O   UNL d   1       9.810   5.671 -12.391  0.00  0.00    -0.325 OA
BRANCH  13  14
ATOM     14  C   UNL d   1       9.586   5.724 -11.016  0.00  0.00     0.106 C 
ATOM     15  C   UNL d   1       9.654   6.966 -10.329  0.00  0.00     0.080 C 
ATOM     16  C   UNL d   1       9.462   7.011  -8.927  0.00  0.00     0.014 C 
ATOM     17 CL   UNL d   1       9.880   8.399 -11.224  0.00  0.00    -0.080 Cl
ATOM     18  C   UNL d   1       9.093   5.862  -8.207  0.00  0.00     0.012 C 
ATOM     19  C   UNL d   1       8.974   4.633  -8.900  0.00  0.00     0.060 C 
ATOM     20  C   UNL d   1       9.308   4.579 -10.274  0.00  0.00     0.036 C 
ATOM     21 CL   UNL d   1       8.407   3.197  -8.072  0.00  0.00    -0.082 Cl
ENDBRANCH  13  14
ENDBRANCH   8  13
ENDBRANCH   1   8
BRANCH   6  22
ATOM     22  N   UNL d   1      13.073   5.819 -15.918  0.00  0.00    -0.178 N 
ATOM     23  C   UNL d   1      12.917   7.258 -15.656  0.00  0.00     0.155 C 
ATOM     24  C   UNL d   1      13.073   8.053 -16.964  0.00  0.00     0.275 C 
ATOM     25  N   UNL d   1      14.364   7.765 -17.594  0.00  0.00     0.143 N 
ATOM     26  C   UNL d   1      14.436   6.335 -17.900  0.00  0.00     0.275 C 
ATOM     27  C   UNL d   1      14.482   8.533 -18.817  0.00  0.00     0.286 C 
ATOM     28  C   UNL d   1      14.330   5.511 -16.613  0.00  0.00     0.155 C 
ENDBRANCH   6  22
TORSDOF 7
