REMARK  7 active torsions:
REMARK  status: ('A' for Active; 'I' for Inactive)
REMARK    1  A    between atoms: C_5  and  C_6 
REMARK    2  A    between atoms: C_6  and  O_7 
REMARK    3  A    between atoms: C_6  and  C_19 
REMARK    4  A    between atoms: O_7  and  C_8 
REMARK    5  A    between atoms: C_8  and  C_9 
REMARK    6  A    between atoms: C_9  and  O_10 
REMARK    7  A    between atoms: O_10  and  C_11 
ROOT
ATOM      1  C   UNL d   1      10.137   3.700 -14.064  0.00  0.00     0.160 C 
ENDROOT
BRANCH   1   2
ATOM      2  C   UNL d   1       9.097   2.643 -14.419  0.00  0.00     0.009 A 
ATOM      3  C   UNL d   1       9.521   1.367 -14.854  0.00  0.00     0.001 A 
ATOM      4  C   UNL d   1       8.567   0.384 -15.168  0.00  0.00     0.029 A 
ATOM      5  C   UNL d   1       7.192   0.646 -15.023  0.00  0.00     0.140 A 
ATOM      6  F   UNL d   1       6.278  -0.312 -15.291  0.00  0.00    -0.204 F 
ATOM      7  C   UNL d   1       6.772   1.915 -14.589  0.00  0.00     0.029 A 
ATOM      8  C   UNL d   1       7.717   2.925 -14.336  0.00  0.00     0.001 A 
ENDBRANCH   1   2
BRANCH   1   9
ATOM      9  O   UNL d   1       9.609   4.759 -13.270  0.00  0.00    -0.345 OA
BRANCH   9  10
ATOM     10  C   UNL d   1       9.166   4.376 -11.967  0.00  0.00     0.175 C 
BRANCH  10  11
ATOM     11  C   UNL d   1       8.809   5.628 -11.178  0.00  0.00     0.174 C 
BRANCH  11  12
ATOM     12  O   UNL d   1      10.024   6.211 -10.747  0.00  0.00    -0.354 OA
BRANCH  12  13
ATOM     13  C   UNL d   1       9.936   6.939  -9.544  0.00  0.00     0.119 C 
ATOM     14  C   UNL d   1       9.840   5.975  -8.339  0.00  0.00     0.066 C 
ATOM     15  C   UNL d   1      10.114   6.712  -7.019  0.00  0.00     0.259 C 
ATOM     16  C   UNL d   1       9.242   7.953  -6.822  0.00  0.00     0.038 C 
ATOM     17  N   UNL d   1      11.461   7.260  -7.083  0.00  0.00     0.335 N 
ATOM     18  C   UNL d   1      10.043   9.084  -7.467  0.00  0.00     0.038 C 
ATOM     19  C   UNL d   1      11.313   8.395  -7.988  0.00  0.00     0.259 C 
ATOM     20  C   UNL d   1      11.174   7.846  -9.425  0.00  0.00     0.066 C 
ENDBRANCH  12  13
ENDBRANCH  11  12
ENDBRANCH  10  11
ENDBRANCH   9  10
ENDBRANCH   1   9
BRANCH   1  21
ATOM     21  C   UNL d   1      10.795   4.235 -15.329  0.00  0.00     0.009 A 
ATOM     22  C   UNL d   1      12.112   3.852 -15.668  0.00  0.00     0.001 A 
ATOM     23  C   UNL d   1      12.704   4.314 -16.862  0.00  0.00     0.029 A 
ATOM     24  C   UNL d   1      11.977   5.158 -17.724  0.00  0.00     0.140 A 
ATOM     25  C   UNL d   1      10.660   5.535 -17.399  0.00  0.00     0.029 A 
ATOM     26  F   UNL d   1      12.543   5.598 -18.875  0.00  0.00    -0.204 F 
ATOM     27  C   UNL d   1      10.072   5.069 -16.207  0.00  0.00     0.001 A 
ENDBRANCH   1  21
TORSDOF 7
