REMARK  5 active torsions:
REMARK  status: ('A' for Active; 'I' for Inactive)
REMARK    1  A    between atoms: N_3  and  C_4 
REMARK    2  A    between atoms: C_4  and  C_5 
REMARK    3  A    between atoms: N_8  and  C_9 
REMARK    4  A    between atoms: N_18  and  C_19 
REMARK    5  A    between atoms: C_19  and  C_20 
ROOT
ATOM      1  O   UNL d   1      13.721   6.955 -16.103  0.00  0.00    -0.270 OA
ATOM      2  C   UNL d   1      13.442   6.475 -17.210  0.00  0.00     0.253 A 
ATOM      3  N   UNL d   1      13.865   6.939 -18.367  0.00  0.00    -0.296 N 
ATOM      4  C   UNL d   1      13.331   6.133 -19.481  0.00  0.00     0.213 A 
ATOM      5  N   UNL d   1      12.432   5.127 -18.889  0.00  0.00    -0.324 N 
ATOM      6  C   UNL d   1      12.525   5.269 -17.410  0.00  0.00     0.141 A 
ATOM      7  C   UNL d   1      13.138   4.019 -16.716  0.00  0.00     0.065 C 
ATOM      8  C   UNL d   1      12.126   2.872 -16.546  0.00  0.00     0.253 C 
ATOM      9  N   UNL d   1      10.896   3.340 -15.877  0.00  0.00     0.142 N 
ATOM     10  C   UNL d   1      10.250   4.478 -16.577  0.00  0.00     0.253 C 
ATOM     11  C   UNL d   1      11.219   5.658 -16.702  0.00  0.00     0.065 C 
ENDROOT
BRANCH   5  12
ATOM     12  C   UNL d   1      11.247   4.655 -19.601  0.00  0.00     0.058 C 
ATOM     13  C   UNL d   1      10.478   5.598 -20.334  0.00  0.00     0.017 C 
ATOM     14  C   UNL d   1       9.291   5.205 -20.996  0.00  0.00     0.002 C 
ATOM     15  C   UNL d   1       8.791   3.883 -20.903  0.00  0.00     0.000 C 
ATOM     16  C   UNL d   1       9.545   2.958 -20.148  0.00  0.00     0.002 C 
ATOM     17  C   UNL d   1      10.767   3.317 -19.588  0.00  0.00     0.017 C 
ENDBRANCH   5  12
BRANCH   3  18
ATOM     18  C   UNL d   1      14.684   8.122 -18.560  0.00  0.00     0.144 C 
BRANCH  18  19
ATOM     19  C   UNL d   1      16.177   7.787 -18.486  0.00  0.00     0.217 C 
ATOM     20  F   UNL d   1      16.545   7.072 -19.547  0.00  0.00    -0.232 F 
ENDBRANCH  18  19
ENDBRANCH   3  18
BRANCH   9  21
ATOM     21  C   UNL d   1       9.926   2.247 -15.847  0.00  0.00     0.279 C 
BRANCH  21  22
ATOM     22  C   UNL d   1       8.674   2.417 -15.038  0.00  0.00     0.037 A 
ATOM     23  C   UNL d   1       7.584   1.499 -14.896  0.00  0.00     0.023 A 
ATOM     24  C   UNL d   1       6.654   2.130 -14.038  0.00  0.00     0.100 A 
ATOM     25  C   UNL d   1       7.252   0.208 -15.359  0.00  0.00     0.002 A 
ATOM     26  O   UNL d   1       7.123   3.372 -13.672  0.00  0.00    -0.305 OA
ATOM     27  C   UNL d   1       5.464   1.524 -13.614  0.00  0.00     0.025 A 
ATOM     28  C   UNL d   1       8.345   3.501 -14.255  0.00  0.00     0.120 A 
ATOM     29  C   UNL d   1       5.153   0.239 -14.093  0.00  0.00     0.002 A 
ATOM     30  C   UNL d   1       6.047  -0.413 -14.966  0.00  0.00     0.000 A 
ENDBRANCH  21  22
ENDBRANCH   9  21
TORSDOF 5
