REMARK  5 active torsions:
REMARK  status: ('A' for Active; 'I' for Inactive)
REMARK    1  A    between atoms: C_6  and  C_7 
REMARK    2  A    between atoms: C_7  and  C_10 
REMARK    3  A    between atoms: C_10  and  C_12 
REMARK    4  A    between atoms: C_12  and  N_13 
REMARK    5  A    between atoms: N_16  and  C_17 
ROOT
ATOM      1  C   UNL d   1       9.213   5.504 -10.569  0.00  0.00     0.289 C 
ENDROOT
BRANCH   1   2
ATOM      2  C   UNL d   1       8.474   5.970 -11.825  0.00  0.00     0.227 C 
ATOM      3  O   UNL d   1       8.598   7.367 -12.034  0.00  0.00    -0.215 OA
BRANCH   2   4
ATOM      4  C   UNL d   1       8.935   5.150 -13.049  0.00  0.00     0.121 C 
ATOM      5  N   UNL d   1      10.039   5.494 -13.602  0.00  0.00    -0.098 NA
ATOM      6  O   UNL d   1      10.291   4.781 -14.817  0.00  0.00    -0.061 OA
BRANCH   4   7
ATOM      7  C   UNL d   1       8.072   3.995 -13.461  0.00  0.00     0.018 A 
ATOM      8  C   UNL d   1       6.665   4.063 -13.326  0.00  0.00     0.001 A 
ATOM      9  C   UNL d   1       5.862   2.954 -13.638  0.00  0.00    -0.000 A 
ATOM     10  C   UNL d   1       6.419   1.778 -14.175  0.00  0.00    -0.004 A 
ATOM     11  C   UNL d   1       7.817   1.698 -14.345  0.00  0.00    -0.022 A 
ATOM     12  C   UNL d   1       8.469   0.431 -14.853  0.00  0.00     0.031 C 
ATOM     13  C   UNL d   1       8.632   2.786 -13.959  0.00  0.00    -0.003 A 
ENDBRANCH   4   7
ENDBRANCH   2   4
ENDBRANCH   1   2
BRANCH   1  14
ATOM     14  N   UNL d   1       9.087   6.385  -9.412  0.00  0.00     0.144 N 
ATOM     15  C   UNL d   1      10.202   7.347  -9.360  0.00  0.00     0.274 C 
ATOM     16  C   UNL d   1      10.066   8.334  -8.192  0.00  0.00     0.138 C 
ATOM     17  N   UNL d   1       9.910   7.583  -6.944  0.00  0.00    -0.330 N 
ATOM     18  C   UNL d   1       8.842   6.582  -6.949  0.00  0.00     0.138 C 
ATOM     19  C   UNL d   1       9.018   5.646  -8.156  0.00  0.00     0.274 C 
BRANCH  17  20
ATOM     20  C   UNL d   1      10.728   7.823  -5.841  0.00  0.00     0.140 A 
ATOM     21  N   UNL d   1      11.187   9.085  -5.687  0.00  0.00    -0.227 NA
ATOM     22  C   UNL d   1      11.961   9.365  -4.629  0.00  0.00     0.101 A 
ATOM     23  C   UNL d   1      12.334   8.423  -3.649  0.00  0.00     0.021 A 
ATOM     24  C   UNL d   1      11.859   7.109  -3.795  0.00  0.00     0.005 A 
ATOM     25  C   UNL d   1      11.056   6.807  -4.906  0.00  0.00     0.037 A 
ENDBRANCH  17  20
ENDBRANCH   1  14
TORSDOF 5
