REMARK  4 active torsions:
REMARK  status: ('A' for Active; 'I' for Inactive)
REMARK    1  A    between atoms: N_11  and  C_12 
REMARK    2  A    between atoms: N_15  and  C_16 
REMARK    3  A    between atoms: N_19  and  S_20 
REMARK    4  A    between atoms: S_20  and  C_23 
ROOT
ATOM      1  C   UNL d   1      10.874   7.342  -7.191  0.00  0.00     0.094 C 
ATOM      2  C   UNL d   1      11.090   7.982  -8.579  0.00  0.00     0.058 C 
ATOM      3  C   UNL d   1      10.602   7.102  -9.701  0.00  0.00     0.252 C 
ATOM      4  N   UNL d   1       9.188   6.785  -9.505  0.00  0.00     0.135 N 
ATOM      5  C   UNL d   1       8.935   6.101  -8.230  0.00  0.00     0.252 C 
ATOM      6  C   UNL d   1       9.391   6.963  -7.043  0.00  0.00     0.058 C 
ENDROOT
BRANCH   4   7
ATOM      7  C   UNL d   1       8.575   6.086 -10.643  0.00  0.00     0.223 C 
ATOM      8  C   UNL d   1       8.684   6.905 -11.959  0.00  0.00     0.058 C 
ATOM      9  C   UNL d   1       8.037   6.165 -13.125  0.00  0.00     0.115 C 
ATOM     10  N   UNL d   1       8.619   4.827 -13.260  0.00  0.00    -0.274 N 
ATOM     11  C   UNL d   1       8.643   4.067 -12.038  0.00  0.00     0.115 C 
ATOM     12  C   UNL d   1       9.206   4.735 -10.849  0.00  0.00     0.058 C 
BRANCH  10  13
ATOM     13  S   UNL d   1       9.457   4.278 -14.691  0.00  0.00     0.264 S 
ATOM     14  O   UNL d   1       9.138   5.191 -15.785  0.00  0.00    -0.200 OA
ATOM     15  O   UNL d   1      10.868   4.039 -14.325  0.00  0.00    -0.200 OA
BRANCH  13  16
ATOM     16  C   UNL d   1       8.668   2.690 -15.079  0.00  0.00     0.103 A 
ATOM     17  C   UNL d   1       7.538   2.241 -14.358  0.00  0.00     0.013 A 
ATOM     18  C   UNL d   1       6.985   0.977 -14.582  0.00  0.00     0.001 A 
ATOM     19  C   UNL d   1       7.495   0.181 -15.616  0.00  0.00     0.000 A 
ATOM     20  C   UNL d   1       8.579   0.643 -16.393  0.00  0.00     0.001 A 
ATOM     21  C   UNL d   1       9.183   1.892 -16.121  0.00  0.00     0.013 A 
ENDBRANCH  13  16
ENDBRANCH  10  13
ENDBRANCH   4   7
BRANCH   1  22
ATOM     22  N   UNL d   1      11.296   8.221  -6.087  0.00  0.00    -0.281 N 
ATOM     23  C   UNL d   1      11.363   9.578  -6.067  0.00  0.00     0.350 A 
ATOM     24  O   UNL d   1      11.124  10.368  -6.904  0.00  0.00    -0.244 OA
ATOM     25  N   UNL d   1      11.768   9.984  -4.881  0.00  0.00    -0.191 NA
ATOM     26  C   UNL d   1      11.978   8.920  -4.091  0.00  0.00     0.104 A 
ATOM     27  C   UNL d   1      11.673   7.784  -4.817  0.00  0.00     0.082 A 
ATOM     28  C   UNL d   1      12.410   8.930  -2.788  0.00  0.00     0.050 A 
ATOM     29  C   UNL d   1      11.797   6.524  -4.233  0.00  0.00     0.021 A 
ATOM     30  C   UNL d   1      12.261   6.503  -2.890  0.00  0.00     0.031 A 
ATOM     31  C   UNL d   1      12.566   7.694  -2.180  0.00  0.00     0.142 A 
ATOM     32  F   UNL d   1      13.024   7.686  -0.927  0.00  0.00    -0.204 F 
ENDBRANCH   1  22
TORSDOF 4
