REMARK  6 active torsions:
REMARK  status: ('A' for Active; 'I' for Inactive)
REMARK    1  A    between atoms: C_2  and  C_3 
REMARK    2  A    between atoms: C_3  and  C_4 
REMARK    3  A    between atoms: C_4  and  O_5 
REMARK    4  A    between atoms: C_4  and  C_14 
REMARK    5  A    between atoms: O_5  and  C_6 
REMARK    6  A    between atoms: C_19  and  N_20 
ROOT
ATOM      1  C   UNL d   1       9.886   2.203 -16.399  0.00  0.00     0.203 A 
ATOM      2  N   UNL d   1      10.127   0.876 -16.595  0.00  0.00    -0.039 NA
ATOM      3  C   UNL d   1      10.277   0.588 -17.884  0.00  0.00     0.785 A 
ATOM      4  N   UNL d   1      10.526  -0.730 -18.151  0.00  0.00     0.063 N 
ATOM      5  N   UNL d   1      10.160   1.387 -18.944  0.00  0.00     0.134 NA
ATOM      6  C   UNL d   1       9.947   2.661 -18.607  0.00  0.00     0.744 A 
ATOM      7  N   UNL d   1       9.767   3.150 -17.370  0.00  0.00    -0.043 NA
ENDROOT
BRANCH   1   8
ATOM      8  C   UNL d   1       9.332   2.584 -15.013  0.00  0.00     0.180 C 
BRANCH   8   9
ATOM      9  C   UNL d   1      10.558   2.605 -14.086  0.00  0.00     0.038 C 
BRANCH   9  10
ATOM     10  C   UNL d   1      11.642   3.626 -14.489  0.00  0.00     0.003 C 
ATOM     11  C   UNL d   1      11.094   5.054 -14.578  0.00  0.00     0.000 C 
ENDBRANCH   9  10
ENDBRANCH   8   9
BRANCH   8  12
ATOM     12  O   UNL d   1       8.358   1.721 -14.427  0.00  0.00    -0.326 OA
BRANCH  12  13
ATOM     13  C   UNL d   1       7.338   1.166 -15.198  0.00  0.00     0.096 A 
ATOM     14  C   UNL d   1       6.317   0.332 -14.622  0.00  0.00     0.036 A 
ATOM     15  C   UNL d   1       5.343  -0.279 -15.469  0.00  0.00     0.061 A 
ATOM     16  C   UNL d   1       5.412  -0.103 -16.871  0.00  0.00     0.023 A 
ATOM     17 CL   UNL d   1       4.089  -1.211 -14.825  0.00  0.00    -0.082 Cl
ATOM     18  C   UNL d   1       6.413   0.712 -17.416  0.00  0.00     0.061 A 
ATOM     19  C   UNL d   1       7.271   1.343 -16.582  0.00  0.00     0.036 A 
ATOM     20 CL   UNL d   1       6.575   0.972 -19.131  0.00  0.00    -0.082 Cl
ENDBRANCH  12  13
ENDBRANCH   8  12
ENDBRANCH   1   8
BRANCH   6  21
ATOM     21  N   UNL d   1       9.815   3.580 -19.649  0.00  0.00    -0.178 N 
ATOM     22  C   UNL d   1       9.961   5.026 -19.462  0.00  0.00     0.155 C 
ATOM     23  C   UNL d   1       8.790   5.773 -20.123  0.00  0.00     0.275 C 
ATOM     24  N   UNL d   1       8.701   5.422 -21.546  0.00  0.00     0.143 N 
ATOM     25  C   UNL d   1       8.462   3.979 -21.672  0.00  0.00     0.275 C 
ATOM     26  C   UNL d   1       7.604   6.154 -22.161  0.00  0.00     0.286 C 
ATOM     27  C   UNL d   1       9.630   3.190 -21.044  0.00  0.00     0.155 C 
ENDBRANCH   6  21
TORSDOF 6
