REMARK  7 active torsions:
REMARK  status: ('A' for Active; 'I' for Inactive)
REMARK    1  A    between atoms: C_6  and  N_7 
REMARK    2  A    between atoms: N_10  and  C_11 
REMARK    3  A    between atoms: C_11  and  C_12 
REMARK    4  A    between atoms: C_12  and  C_13 
REMARK    5  A    between atoms: C_13  and  C_14 
REMARK    6  A    between atoms: C_14  and  C_15 
REMARK    7  A    between atoms: N_17  and  C_18 
ROOT
ATOM      1  C   UNL d   1       7.086   2.283 -14.506  0.00  0.00     0.036 C 
ENDROOT
BRANCH   1   2
ATOM      2  C   UNL d   1       7.951   1.301 -15.318  0.00  0.00     0.250 C 
BRANCH   2   3
ATOM      3  N   UNL d   1       7.199   0.704 -16.415  0.00  0.00     0.141 N 
ATOM      4  C   UNL d   1       6.192  -0.231 -15.895  0.00  0.00     0.274 C 
ATOM      5  C   UNL d   1       5.391  -0.837 -17.048  0.00  0.00     0.137 C 
ATOM      6  N   UNL d   1       6.273  -1.473 -18.018  0.00  0.00    -0.344 N 
ATOM      7  C   UNL d   1       7.375  -0.647 -18.489  0.00  0.00     0.137 C 
ATOM      8  C   UNL d   1       8.125  -0.025 -17.293  0.00  0.00     0.274 C 
BRANCH   6   9
ATOM      9  C   UNL d   1       6.082  -2.807 -18.439  0.00  0.00     0.068 A 
ATOM     10  C   UNL d   1       7.175  -3.703 -18.458  0.00  0.00     0.018 A 
ATOM     11  C   UNL d   1       6.998  -5.039 -18.870  0.00  0.00     0.002 A 
ATOM     12  C   UNL d   1       5.731  -5.495 -19.268  0.00  0.00     0.012 A 
ATOM     13  C   UNL d   1       4.637  -4.618 -19.260  0.00  0.00     0.070 A 
ATOM     14 CL   UNL d   1       3.096  -5.184 -19.793  0.00  0.00    -0.081 Cl
ATOM     15  C   UNL d   1       4.811  -3.279 -18.850  0.00  0.00     0.084 A 
ATOM     16 CL   UNL d   1       3.462  -2.200 -18.923  0.00  0.00    -0.080 Cl
ENDBRANCH   6   9
ENDBRANCH   2   3
ENDBRANCH   1   2
BRANCH   1  17
ATOM     17  C   UNL d   1       7.937   3.313 -13.757  0.00  0.00     0.009 C 
BRANCH  17  18
ATOM     18  C   UNL d   1       7.117   4.161 -12.770  0.00  0.00     0.049 C 
BRANCH  18  19
ATOM     19  C   UNL d   1       7.949   5.223 -12.127  0.00  0.00     0.101 A 
ATOM     20  N   UNL d   1       8.369   6.345 -12.831  0.00  0.00    -0.133 NA
ATOM     21  N   UNL d   1       9.058   7.102 -12.043  0.00  0.00    -0.060 NA
ATOM     22  N   UNL d   1       9.116   6.497 -10.829  0.00  0.00    -0.209 N 
ATOM     23  C   UNL d   1       8.417   5.304 -10.847  0.00  0.00     0.119 A 
BRANCH  22  24
ATOM     24  C   UNL d   1       9.812   7.106  -9.749  0.00  0.00     0.088 A 
ATOM     25  C   UNL d   1       9.544   6.722  -8.447  0.00  0.00     0.038 A 
ATOM     26  C   UNL d   1      10.243   7.342  -7.378  0.00  0.00     0.086 A 
ATOM     27  N   UNL d   1      11.188   8.339  -7.692  0.00  0.00    -0.228 N 
ATOM     28  C   UNL d   1      10.257   7.221  -6.016  0.00  0.00     0.042 A 
ATOM     29  C   UNL d   1      11.459   8.720  -8.966  0.00  0.00     0.102 A 
ATOM     30  N   UNL d   1      11.769   8.854  -6.561  0.00  0.00    -0.164 NA
ATOM     31  C   UNL d   1      10.777   8.122  -9.997  0.00  0.00     0.040 A 
ATOM     32  C   UNL d   1      11.213   8.173  -5.583  0.00  0.00     0.122 A 
ENDBRANCH  22  24
ENDBRANCH  18  19
ENDBRANCH  17  18
ENDBRANCH   1  17
TORSDOF 7
