REMARK  10 active torsions:
REMARK  status: ('A' for Active; 'I' for Inactive)
REMARK    1  A    between atoms: O_2  and  C_3 
REMARK    2  A    between atoms: C_6  and  C_7 
REMARK    3  A    between atoms: C_8  and  C_9 
REMARK       I    between atoms: C_9  and  N_11 
REMARK    4  A    between atoms: N_11  and  C_12 
REMARK    5  A    between atoms: C_12  and  C_13 
REMARK    6  A    between atoms: C_13  and  C_14 
REMARK    7  A    between atoms: C_14  and  C_15 
REMARK    8  A    between atoms: C_15  and  N_16 
REMARK    9  A    between atoms: N_19  and  C_20 
REMARK   10  A    between atoms: C_25  and  O_26 
ROOT
ATOM      1  C   UNL d   1       9.039   4.051 -13.486  0.00  0.00     0.037 C 
ENDROOT
BRANCH   1   2
ATOM      2  C   UNL d   1       9.446   4.790 -12.224  0.00  0.00     0.029 C 
BRANCH   2   3
ATOM      3  C   UNL d   1       8.218   5.304 -11.442  0.00  0.00     0.129 C 
BRANCH   3   4
ATOM      4  N   UNL d   1       8.577   5.994 -10.212  0.00  0.00    -0.234 NA
ATOM      5  C   UNL d   1       9.288   5.490  -9.197  0.00  0.00     0.275 C 
ATOM      6  O   UNL d   1       9.678   4.319  -9.164  0.00  0.00    -0.266 OA
BRANCH   5   7
ATOM      7  C   UNL d   1       9.522   6.480  -8.159  0.00  0.00     0.062 C 
ATOM      8  C   UNL d   1      10.524   6.303  -7.279  0.00  0.00     0.005 C 
BRANCH   8   9
ATOM      9  C   UNL d   1      10.886   7.196  -6.176  0.00  0.00     0.000 A 
ATOM     10  C   UNL d   1      10.571   8.572  -6.196  0.00  0.00     0.002 A 
ATOM     11  C   UNL d   1      10.935   9.400  -5.112  0.00  0.00     0.024 A 
ATOM     12  C   UNL d   1      11.574   8.858  -3.976  0.00  0.00     0.094 A 
ATOM     13  C   UNL d   1      11.869   7.472  -3.956  0.00  0.00     0.024 A 
ATOM     14  C   UNL d   1      11.522   6.652  -5.045  0.00  0.00     0.002 A 
BRANCH  12  15
ATOM     15  O   UNL d   1      11.861   9.715  -2.934  0.00  0.00    -0.328 OA
ATOM     16  C   UNL d   1      12.411   9.168  -1.745  0.00  0.00     0.181 C 
ENDBRANCH  12  15
ENDBRANCH   8   9
ENDBRANCH   5   7
ENDBRANCH   3   4
ENDBRANCH   2   3
ENDBRANCH   1   2
BRANCH   1  17
ATOM     17  C   UNL d   1      10.258   3.503 -14.278  0.00  0.00     0.251 C 
BRANCH  17  18
ATOM     18  N   UNL d   1       9.917   2.558 -15.344  0.00  0.00     0.141 N 
ATOM     19  C   UNL d   1       9.611   1.232 -14.790  0.00  0.00     0.274 C 
ATOM     20  C   UNL d   1       9.290   0.242 -15.927  0.00  0.00     0.137 C 
ATOM     21  N   UNL d   1       8.241   0.760 -16.794  0.00  0.00    -0.343 N 
ATOM     22  C   UNL d   1       8.448   2.102 -17.306  0.00  0.00     0.137 C 
ATOM     23  C   UNL d   1       8.785   3.044 -16.143  0.00  0.00     0.274 C 
BRANCH  21  24
ATOM     24  C   UNL d   1       7.036   0.072 -17.014  0.00  0.00     0.079 A 
ATOM     25  C   UNL d   1       6.219  -0.364 -15.944  0.00  0.00     0.110 A 
ATOM     26  C   UNL d   1       5.030  -1.092 -16.235  0.00  0.00     0.026 A 
ATOM     27  C   UNL d   1       4.661  -1.360 -17.563  0.00  0.00     0.002 A 
ATOM     28  C   UNL d   1       5.464  -0.908 -18.616  0.00  0.00     0.002 A 
ATOM     29  C   UNL d   1       6.647  -0.192 -18.345  0.00  0.00     0.019 A 
BRANCH  25  30
ATOM     30  O   UNL d   1       6.618  -0.041 -14.664  0.00  0.00    -0.327 OA
ATOM     31  C   UNL d   1       5.889  -0.595 -13.587  0.00  0.00     0.181 C 
ENDBRANCH  25  30
ENDBRANCH  21  24
ENDBRANCH  17  18
ENDBRANCH   1  17
TORSDOF 10
