REMARK  3 active torsions:
REMARK  status: ('A' for Active; 'I' for Inactive)
REMARK    1  A    between atoms: C_5  and  O_6 
REMARK    2  A    between atoms: O_6  and  C_7 
REMARK    3  A    between atoms: C_7  and  C_8 
ROOT
ATOM      1  O   UNL d   1      10.258   6.969  -7.103  0.00  0.00    -0.326 OA
ENDROOT
BRANCH   1   2
ATOM      2  C   UNL d   1       9.952   6.821  -8.435  0.00  0.00     0.095 A 
ATOM      3  C   UNL d   1       9.386   5.589  -8.823  0.00  0.00     0.026 A 
ATOM      4  C   UNL d   1       9.056   5.335 -10.167  0.00  0.00     0.029 A 
ATOM      5  C   UNL d   1       9.291   6.324 -11.141  0.00  0.00     0.131 A 
ATOM      6  O   UNL d   1       8.961   6.089 -12.444  0.00  0.00    -0.190 OA
ATOM      7  C   UNL d   1       9.854   7.560 -10.767  0.00  0.00     0.029 A 
ATOM      8  C   UNL d   1      10.188   7.810  -9.423  0.00  0.00     0.026 A 
ENDBRANCH   1   2
BRANCH   1   9
ATOM      9  C   UNL d   1      10.731   8.227  -6.638  0.00  0.00     0.175 C 
BRANCH   9  10
ATOM     10  C   UNL d   1      11.231   8.148  -5.210  0.00  0.00     0.008 A 
ATOM     11  C   UNL d   1      11.459   6.897  -4.595  0.00  0.00    -0.002 A 
ATOM     12  C   UNL d   1      11.947   6.826  -3.279  0.00  0.00    -0.000 A 
ATOM     13  C   UNL d   1      12.228   8.008  -2.569  0.00  0.00    -0.000 A 
ATOM     14  C   UNL d   1      12.007   9.257  -3.179  0.00  0.00    -0.000 A 
ATOM     15  C   UNL d   1      11.515   9.330  -4.496  0.00  0.00    -0.002 A 
ENDBRANCH   9  10
ENDBRANCH   1   9
TORSDOF 3
