REMARK  4 active torsions:
REMARK  status: ('A' for Active; 'I' for Inactive)
REMARK    1  A    between atoms: C_2  and  C_3 
REMARK    2  A    between atoms: C_3  and  C_5 
REMARK    3  A    between atoms: C_5  and  N_6 
REMARK    4  A    between atoms: N_9  and  C_10 
ROOT
ATOM      1  N   UNL d   1      11.243   8.338  -6.071  0.00  0.00     0.144 N 
ATOM      2  C   UNL d   1      11.725   8.955  -7.306  0.00  0.00     0.274 C 
ATOM      3  C   UNL d   1      11.829   7.943  -8.464  0.00  0.00     0.137 C 
ATOM      4  N   UNL d   1      10.574   7.203  -8.624  0.00  0.00    -0.344 N 
ATOM      5  C   UNL d   1      10.009   6.649  -7.402  0.00  0.00     0.137 C 
ATOM      6  C   UNL d   1       9.947   7.710  -6.313  0.00  0.00     0.274 C 
ENDROOT
BRANCH   4   7
ATOM      7  C   UNL d   1       9.905   7.099  -9.862  0.00  0.00     0.068 A 
ATOM      8  C   UNL d   1       9.293   5.892 -10.300  0.00  0.00     0.084 A 
ATOM      9  C   UNL d   1       8.640   5.851 -11.552  0.00  0.00     0.070 A 
ATOM     10 CL   UNL d   1       9.410   4.434  -9.365  0.00  0.00    -0.080 Cl
ATOM     11  C   UNL d   1       8.595   6.989 -12.368  0.00  0.00     0.012 A 
ATOM     12 CL   UNL d   1       7.903   4.405 -12.146  0.00  0.00    -0.081 Cl
ATOM     13  C   UNL d   1       9.201   8.182 -11.945  0.00  0.00     0.002 A 
ATOM     14  C   UNL d   1       9.862   8.236 -10.703  0.00  0.00     0.018 A 
ENDBRANCH   4   7
BRANCH   1  15
ATOM     15  C   UNL d   1      11.171   9.293  -4.968  0.00  0.00     0.283 C 
BRANCH  15  16
ATOM     16  C   UNL d   1      12.332   9.188  -3.968  0.00  0.00     0.185 C 
ATOM     17  O   UNL d   1      11.960   9.971  -2.850  0.00  0.00    -0.221 OA
BRANCH  16  18
ATOM     18  C   UNL d   1      12.656   7.754  -3.500  0.00  0.00     0.035 C 
ATOM     19  C   UNL d   1      11.484   6.949  -2.907  0.00  0.00     0.003 C 
ENDBRANCH  16  18
ENDBRANCH  15  16
ENDBRANCH   1  15
TORSDOF 4
