REMARK  3 active torsions:
REMARK  status: ('A' for Active; 'I' for Inactive)
REMARK    1  A    between atoms: C_2  and  C_3 
REMARK    2  A    between atoms: C_5  and  O_6 
REMARK    3  A    between atoms: C_10  and  C_11 
ROOT
ATOM      1  C   UNL d   1      10.719   7.493  -7.249  0.00  0.00     0.246 C 
ATOM      2  C   UNL d   1      11.135   6.607  -6.046  0.00  0.00     0.064 C 
ATOM      3  C   UNL d   1      11.539   7.397  -4.827  0.00  0.00    -0.022 A 
ATOM      4  C   UNL d   1      12.079   6.712  -3.735  0.00  0.00    -0.004 A 
ATOM      5  C   UNL d   1      12.398   7.401  -2.553  0.00  0.00    -0.000 A 
ATOM      6  C   UNL d   1      12.156   8.786  -2.477  0.00  0.00    -0.000 A 
ATOM      7  C   UNL d   1      11.567   9.469  -3.562  0.00  0.00    -0.003 A 
ATOM      8  C   UNL d   1      11.258   8.758  -4.744  0.00  0.00     0.007 A 
ATOM      9  C   UNL d   1      10.553   9.437  -5.899  0.00  0.00     0.277 C 
ATOM     10  N   UNL d   1       9.800   8.513  -6.769  0.00  0.00     0.146 N 
ATOM     11  C   UNL d   1       9.301   9.303  -7.893  0.00  0.00     0.286 C 
ENDROOT
BRANCH   1  12
ATOM     12  C   UNL d   1      10.206   6.671  -8.443  0.00  0.00     0.005 A 
ATOM     13  C   UNL d   1      10.478   7.010  -9.805  0.00  0.00    -0.022 A 
ATOM     14  C   UNL d   1       9.867   6.287 -10.852  0.00  0.00     0.020 A 
ATOM     15  C   UNL d   1       8.997   5.164 -10.588  0.00  0.00     0.094 A 
ATOM     16  C   UNL d   1       8.777   4.818  -9.272  0.00  0.00     0.024 A 
ATOM     17  C   UNL d   1       9.309   5.585  -8.236  0.00  0.00    -0.001 A 
BRANCH  13  18
ATOM     18  C   UNL d   1      11.415   8.172 -10.189  0.00  0.00     0.026 C 
ATOM     19  C   UNL d   1      12.918   7.876  -9.976  0.00  0.00     0.005 C 
ENDBRANCH  13  18
BRANCH  15  20
ATOM     20  O   UNL d   1       8.364   4.425 -11.554  0.00  0.00    -0.328 OA
ATOM     21  C   UNL d   1       7.850   5.150 -12.638  0.00  0.00     0.181 C 
ENDBRANCH  15  20
ENDBRANCH   1  12
TORSDOF 3
