REMARK  3 active torsions:
REMARK  status: ('A' for Active; 'I' for Inactive)
REMARK       I    between atoms: C_2  and  N_4 
REMARK    1  A    between atoms: N_4  and  C_5 
REMARK    2  A    between atoms: C_8  and  C_9 
REMARK    3  A    between atoms: C_9  and  N_10 
ROOT
ATOM      1  N   UNL d   1       8.621   5.583  -9.699  0.00  0.00     0.142 N 
ATOM      2  C   UNL d   1       9.336   6.341 -10.706  0.00  0.00     0.254 C 
ATOM      3  C   UNL d   1       8.285   6.393 -11.806  0.00  0.00     0.070 C 
ATOM      4  C   UNL d   1       8.864   6.543 -13.169  0.00  0.00     0.151 C 
ATOM      5  O   UNL d   1       9.458   5.392 -13.732  0.00  0.00    -0.331 OA
ATOM      6  C   UNL d   1       8.571   4.363 -13.842  0.00  0.00     0.090 A 
ATOM      7  C   UNL d   1       8.705   3.442 -14.898  0.00  0.00     0.025 A 
ATOM      8  C   UNL d   1       7.806   2.378 -15.021  0.00  0.00     0.012 A 
ATOM      9  C   UNL d   1       6.748   2.231 -14.092  0.00  0.00     0.068 A 
ATOM     10  C   UNL d   1       5.879   1.098 -14.177  0.00  0.00     0.101 C 
ATOM     11  N   UNL d   1       5.149   0.180 -14.251  0.00  0.00    -0.191 NA
ATOM     12  C   UNL d   1       6.596   3.186 -13.056  0.00  0.00     0.008 A 
ATOM     13  C   UNL d   1       7.515   4.219 -12.909  0.00  0.00     0.003 A 
ATOM     14  C   UNL d   1       7.457   5.130 -11.693  0.00  0.00     0.062 C 
ATOM     15  C   UNL d   1       8.083   4.502 -10.472  0.00  0.00     0.255 C 
ENDROOT
BRANCH   1  16
ATOM     16  C   UNL d   1       9.495   5.101  -8.647  0.00  0.00     0.277 C 
BRANCH  16  17
ATOM     17  C   UNL d   1       9.896   6.205  -7.704  0.00  0.00     0.011 A 
ATOM     18  C   UNL d   1       9.116   7.356  -7.525  0.00  0.00    -0.001 A 
ATOM     19  C   UNL d   1       9.482   8.351  -6.616  0.00  0.00     0.019 A 
ATOM     20  C   UNL d   1      10.665   8.248  -5.866  0.00  0.00     0.084 A 
ATOM     21  C   UNL d   1      11.438   7.094  -6.092  0.00  0.00     0.019 A 
ATOM     22  C   UNL d   1      11.078   6.097  -6.981  0.00  0.00    -0.001 A 
BRANCH  20  23
ATOM     23  N   UNL d   1      11.005   9.294  -4.958  0.00  0.00    -0.212 NA
ATOM     24  C   UNL d   1      11.633   9.221  -3.762  0.00  0.00     0.256 C 
ATOM     25  C   UNL d   1      12.221   7.886  -3.236  0.00  0.00     0.100 C 
ATOM     26  O   UNL d   1      11.709  10.227  -3.046  0.00  0.00    -0.270 OA
ENDBRANCH  20  23
ENDBRANCH  16  17
ENDBRANCH   1  16
TORSDOF 3
