REMARK  10 active torsions:
REMARK  status: ('A' for Active; 'I' for Inactive)
REMARK    1  A    between atoms: O_2  and  C_3 
REMARK    2  A    between atoms: C_9  and  C_10 
REMARK    3  A    between atoms: C_12  and  C_13 
REMARK    4  A    between atoms: C_13  and  N_14 
REMARK    5  A    between atoms: N_14  and  C_15 
REMARK    6  A    between atoms: C_15  and  C_16 
REMARK    7  A    between atoms: C_16  and  C_17 
REMARK    8  A    between atoms: C_17  and  C_18 
REMARK    9  A    between atoms: C_18  and  O_19 
REMARK   10  A    between atoms: O_19  and  C_20 
ROOT
ATOM      1  C   UNL d   1       8.874   5.738 -11.870  0.00  0.00     0.290 C 
ENDROOT
BRANCH   1   2
ATOM      2  N   UNL d   1       8.679   6.114 -10.488  0.00  0.00     0.339 N 
BRANCH   2   3
ATOM      3  C   UNL d   1       9.961   6.456  -9.900  0.00  0.00     0.290 C 
BRANCH   3   4
ATOM      4  C   UNL d   1       9.736   6.955  -8.494  0.00  0.00     0.041 A 
ATOM      5  C   UNL d   1      10.655   6.495  -7.388  0.00  0.00     0.026 A 
ATOM      6  C   UNL d   1       9.220   6.008  -7.429  0.00  0.00     0.007 A 
BRANCH   5   7
ATOM      7  C   UNL d   1      11.107   7.460  -6.328  0.00  0.00     0.002 A 
ATOM      8  C   UNL d   1      11.460   8.797  -6.636  0.00  0.00     0.090 A 
ATOM      9  C   UNL d   1      11.819   9.678  -5.599  0.00  0.00     0.026 A 
ATOM     10  C   UNL d   1      11.879   9.227  -4.268  0.00  0.00     0.032 A 
ATOM     11  C   UNL d   1      11.593   7.884  -3.968  0.00  0.00     0.140 A 
ATOM     12  F   UNL d   1      11.641   7.454  -2.687  0.00  0.00    -0.204 F 
ATOM     13  C   UNL d   1      11.197   7.007  -4.993  0.00  0.00     0.027 A 
BRANCH   8  14
ATOM     14  O   UNL d   1      11.424   9.261  -7.927  0.00  0.00    -0.328 OA
ATOM     15  C   UNL d   1      12.375   8.721  -8.833  0.00  0.00     0.181 C 
ENDBRANCH   8  14
ENDBRANCH   5   7
ENDBRANCH   3   4
ENDBRANCH   2   3
ENDBRANCH   1   2
BRANCH   1  16
ATOM     16  C   UNL d   1       7.657   4.951 -12.354  0.00  0.00     0.041 C 
BRANCH  16  17
ATOM     17  C   UNL d   1       7.851   4.416 -13.780  0.00  0.00     0.035 C 
BRANCH  17  18
ATOM     18  C   UNL d   1       9.089   3.512 -13.961  0.00  0.00     0.149 C 
BRANCH  18  19
ATOM     19  O   UNL d   1       9.148   2.989 -15.276  0.00  0.00    -0.331 OA
BRANCH  19  20
ATOM     20  C   UNL d   1       8.241   2.032 -15.638  0.00  0.00     0.096 A 
ATOM     21  C   UNL d   1       7.226   1.634 -14.742  0.00  0.00     0.043 A 
ATOM     22  C   UNL d   1       6.275   0.692 -15.139  0.00  0.00     0.087 A 
ATOM     23  C   UNL d   1       6.309   0.124 -16.431  0.00  0.00     0.018 A 
ATOM     24  N   UNL d   1       5.252   0.332 -14.242  0.00  0.00    -0.208 NA
ATOM     25  C   UNL d   1       7.318   0.521 -17.340  0.00  0.00     0.004 A 
ATOM     26  C   UNL d   1       5.258  -0.851 -16.736  0.00  0.00     0.006 A 
ATOM     27  C   UNL d   1       8.279   1.471 -16.935  0.00  0.00     0.024 A 
ATOM     28  C   UNL d   1       4.316  -1.182 -15.819  0.00  0.00     0.063 A 
ATOM     29  C   UNL d   1       4.285  -0.565 -14.490  0.00  0.00     0.279 A 
ATOM     30  O   UNL d   1       3.456  -0.810 -13.612  0.00  0.00    -0.265 OA
ENDBRANCH  19  20
ENDBRANCH  18  19
ENDBRANCH  17  18
ENDBRANCH  16  17
ENDBRANCH   1  16
TORSDOF 10
