REMARK  8 active torsions:
REMARK  status: ('A' for Active; 'I' for Inactive)
REMARK    1  A    between atoms: C_2  and  C_3 
REMARK    2  A    between atoms: C_3  and  C_4 
REMARK    3  A    between atoms: N_15  and  C_16 
REMARK    4  A    between atoms: C_16  and  C_17 
REMARK    5  A    between atoms: C_17  and  C_18 
REMARK    6  A    between atoms: C_18  and  S_19 
REMARK    7  A    between atoms: S_19  and  C_20 
REMARK    8  A    between atoms: C_23  and  C_24 
ROOT
ATOM      1  C   UNL d   1       7.195   0.458 -21.393  0.00  0.00     0.047 C 
ENDROOT
BRANCH   1   2
ATOM      2  C   UNL d   1       8.076   1.643 -21.832  0.00  0.00     0.251 C 
BRANCH   2   3
ATOM      3  N   UNL d   1       8.091   2.646 -20.759  0.00  0.00     0.138 N 
ATOM      4  C   UNL d   1       8.634   2.179 -19.464  0.00  0.00     0.255 C 
ATOM      5  C   UNL d   1      10.133   1.792 -19.516  0.00  0.00     0.061 C 
ATOM      6  C   UNL d   1      11.065   2.982 -19.451  0.00  0.00    -0.022 A 
ATOM      7  C   UNL d   1      11.002   4.008 -20.434  0.00  0.00    -0.022 A 
ATOM      8  C   UNL d   1      11.975   3.094 -18.370  0.00  0.00     0.022 A 
ATOM      9  C   UNL d   1      11.860   5.127 -20.349  0.00  0.00     0.017 A 
ATOM     10  C   UNL d   1      10.027   3.939 -21.596  0.00  0.00     0.061 C 
ATOM     11  C   UNL d   1      12.769   5.246 -19.280  0.00  0.00     0.106 A 
ATOM     12  N   UNL d   1      13.692   6.215 -18.954  0.00  0.00    -0.224 NA
ATOM     13  C   UNL d   1      12.802   4.223 -18.312  0.00  0.00     0.119 A 
ATOM     14  C   UNL d   1      14.229   5.749 -17.818  0.00  0.00     0.159 A 
ATOM     15  O   UNL d   1      13.756   4.547 -17.369  0.00  0.00    -0.292 OA
ATOM     16  C   UNL d   1       8.551   3.954 -21.172  0.00  0.00     0.255 C 
BRANCH  14  17
ATOM     17  C   UNL d   1      15.340   6.388 -17.057  0.00  0.00     0.072 C 
BRANCH  17  18
ATOM     18  C   UNL d   1      16.726   5.841 -17.425  0.00  0.00     0.009 C 
ATOM     19  C   UNL d   1      17.110   6.110 -18.887  0.00  0.00     0.001 C 
ENDBRANCH  17  18
ENDBRANCH  14  17
ENDBRANCH   2   3
ENDBRANCH   1   2
BRANCH   1  20
ATOM     20  C   UNL d   1       6.892  -0.540 -22.564  0.00  0.00     0.067 C 
BRANCH  20  21
ATOM     21  S   UNL d   1       5.844  -1.967 -22.081  0.00  0.00    -0.075 SA
BRANCH  21  22
ATOM     22  C   UNL d   1       6.149  -2.041 -20.337  0.00  0.00     0.193 A 
ATOM     23  N   UNL d   1       5.485  -1.257 -19.462  0.00  0.00    -0.289 N 
ATOM     24  C   UNL d   1       6.101  -1.627 -18.293  0.00  0.00     0.167 A 
ATOM     25  C   UNL d   1       4.409  -0.269 -19.684  0.00  0.00     0.134 C 
ATOM     26  N   UNL d   1       7.053  -2.548 -18.462  0.00  0.00    -0.128 NA
ATOM     27  N   UNL d   1       7.056  -2.846 -19.806  0.00  0.00    -0.122 NA
BRANCH  24  28
ATOM     28  C   UNL d   1       5.766  -1.071 -16.987  0.00  0.00     0.037 A 
ATOM     29  C   UNL d   1       6.554  -0.078 -16.331  0.00  0.00     0.021 A 
ATOM     30  C   UNL d   1       6.157   0.466 -15.065  0.00  0.00     0.081 A 
ATOM     31  C   UNL d   1       7.754   0.385 -16.912  0.00  0.00     0.003 A 
ATOM     32  C   UNL d   1       4.984  -0.048 -14.472  0.00  0.00     0.019 A 
ATOM     33  N   UNL d   1       6.868   1.419 -14.432  0.00  0.00    -0.250 NA
ATOM     34  C   UNL d   1       4.213  -1.038 -15.108  0.00  0.00     0.002 A 
ATOM     35  C   UNL d   1       4.596  -1.541 -16.360  0.00  0.00     0.003 A 
ATOM     36  C   UNL d   1       7.985   1.900 -15.023  0.00  0.00     0.059 A 
ATOM     37  C   UNL d   1       8.750   2.964 -14.260  0.00  0.00     0.052 C 
ATOM     38  C   UNL d   1       8.458   1.429 -16.259  0.00  0.00     0.015 A 
ENDBRANCH  24  28
ENDBRANCH  21  22
ENDBRANCH  20  21
ENDBRANCH   1  20
TORSDOF 8
