REMARK  2 active torsions:
REMARK  status: ('A' for Active; 'I' for Inactive)
REMARK    1  A    between atoms: C_2  and  C_4 
REMARK    2  A    between atoms: C_4  and  C_6 
REMARK       I    between atoms: C_6  and  N_8 
REMARK       I    between atoms: N_8  and  C_9 
ROOT
ATOM      1  C   UNL d   1      11.590   8.853  -7.350  0.00  0.00     0.270 C 
ATOM      2  O   UNL d   1      10.448   9.103  -7.760  0.00  0.00    -0.269 OA
ATOM      3  N   UNL d   1      12.600   8.391  -8.114  0.00  0.00    -0.154 NA
ATOM      4  C   UNL d   1      12.616   8.049  -9.415  0.00  0.00     0.389 C 
ATOM      5  N   UNL d   1      11.472   8.161 -10.082  0.00  0.00    -0.084 N 
ATOM      6  O   UNL d   1      13.660   7.664  -9.962  0.00  0.00    -0.241 OA
ENDROOT
BRANCH   1   7
ATOM      7  C   UNL d   1      11.881   9.076  -5.848  0.00  0.00     0.138 C 
ATOM      8 BR   UNL d   1      10.873  10.682  -5.212  0.00  0.00    -0.072 Br
BRANCH   7   9
ATOM      9  C   UNL d   1      11.492   7.816  -5.007  0.00  0.00     0.020 C 
ATOM     10  C   UNL d   1      10.160   7.145  -5.407  0.00  0.00     0.001 C 
ATOM     11  C   UNL d   1      11.556   8.120  -3.493  0.00  0.00     0.001 C 
ENDBRANCH   7   9
ENDBRANCH   1   7
TORSDOF 2
