REMARK  5 active torsions:
REMARK  status: ('A' for Active; 'I' for Inactive)
REMARK    1  A    between atoms: C_2  and  C_3 
REMARK    2  A    between atoms: C_3  and  N_4 
REMARK    3  A    between atoms: N_4  and  C_5 
REMARK    4  A    between atoms: N_4  and  C_8 
REMARK    5  A    between atoms: C_5  and  C_6 
ROOT
ATOM      1  C   UNL d   1      10.639   7.989  -7.249  0.00  0.00     0.224 C 
ATOM      2  C   UNL d   1       9.938   9.175  -6.605  0.00  0.00     0.038 C 
ATOM      3  C   UNL d   1      10.822   9.779  -5.495  0.00  0.00     0.030 C 
ATOM      4  C   UNL d   1      11.434   8.748  -4.554  0.00  0.00     0.001 A 
ATOM      5  C   UNL d   1      11.503   7.381  -4.943  0.00  0.00    -0.022 A 
ATOM      6  C   UNL d   1      12.037   6.452  -4.078  0.00  0.00    -0.002 A 
ATOM      7  C   UNL d   1      12.531   6.793  -2.810  0.00  0.00     0.029 A 
ATOM      8  C   UNL d   1      12.486   8.139  -2.423  0.00  0.00     0.156 A 
ATOM      9  O   UNL d   1      13.031   8.494  -1.230  0.00  0.00    -0.188 OA
ATOM     10  C   UNL d   1      11.928   9.106  -3.281  0.00  0.00     0.152 A 
ATOM     11  O   UNL d   1      11.870  10.393  -2.857  0.00  0.00    -0.188 OA
ATOM     12  C   UNL d   1      10.978   6.874  -6.256  0.00  0.00     0.059 C 
ENDROOT
BRANCH   1  13
ATOM     13  N   UNL d   1       9.954   7.513  -8.458  0.00  0.00     0.135 N 
BRANCH  13  14
ATOM     14  C   UNL d   1      10.853   6.798  -9.352  0.00  0.00     0.250 C 
BRANCH  14  15
ATOM     15  C   UNL d   1      12.111   7.553  -9.738  0.00  0.00     0.035 C 
ATOM     16  C   UNL d   1      11.742   8.882 -10.396  0.00  0.00     0.002 C 
ENDBRANCH  14  15
ENDBRANCH  13  14
BRANCH  13  17
ATOM     17  C   UNL d   1       8.731   6.748  -8.172  0.00  0.00     0.250 C 
BRANCH  17  18
ATOM     18  C   UNL d   1       8.163   5.974  -9.391  0.00  0.00     0.035 C 
ATOM     19  C   UNL d   1       8.627   4.510  -9.441  0.00  0.00     0.002 C 
ENDBRANCH  17  18
ENDBRANCH  13  17
ENDBRANCH   1  13
TORSDOF 5
