REMARK  6 active torsions:
REMARK  status: ('A' for Active; 'I' for Inactive)
REMARK    1  A    between atoms: C_6  and  N_7 
REMARK    2  A    between atoms: N_10  and  C_11 
REMARK    3  A    between atoms: C_11  and  C_12 
REMARK    4  A    between atoms: C_12  and  C_13 
REMARK    5  A    between atoms: C_13  and  C_14 
REMARK    6  A    between atoms: N_16  and  C_17 
ROOT
ATOM      1  C   UNL d   1       7.703   5.772 -11.714  0.00  0.00     0.042 C 
ENDROOT
BRANCH   1   2
ATOM      2  C   UNL d   1       6.670   4.873 -12.427  0.00  0.00     0.251 C 
BRANCH   2   3
ATOM      3  N   UNL d   1       7.248   3.654 -12.988  0.00  0.00     0.141 N 
ATOM      4  C   UNL d   1       6.218   2.896 -13.713  0.00  0.00     0.274 C 
ATOM      5  C   UNL d   1       6.782   1.566 -14.264  0.00  0.00     0.137 C 
ATOM      6  N   UNL d   1       7.995   1.811 -15.033  0.00  0.00    -0.344 N 
ATOM      7  C   UNL d   1       8.998   2.635 -14.380  0.00  0.00     0.137 C 
ATOM      8  C   UNL d   1       8.381   3.938 -13.876  0.00  0.00     0.274 C 
BRANCH   6   9
ATOM      9  C   UNL d   1       8.190   1.304 -16.325  0.00  0.00     0.068 A 
ATOM     10  C   UNL d   1       7.180   1.494 -17.296  0.00  0.00     0.018 A 
ATOM     11  C   UNL d   1       7.360   1.021 -18.610  0.00  0.00     0.002 A 
ATOM     12  C   UNL d   1       8.542   0.354 -18.962  0.00  0.00     0.012 A 
ATOM     13  C   UNL d   1       9.548   0.148 -18.008  0.00  0.00     0.070 A 
ATOM     14 CL   UNL d   1      10.982  -0.701 -18.458  0.00  0.00    -0.081 Cl
ATOM     15  C   UNL d   1       9.385   0.626 -16.690  0.00  0.00     0.084 A 
ATOM     16 CL   UNL d   1      10.653   0.347 -15.541  0.00  0.00    -0.080 Cl
ENDBRANCH   6   9
ENDBRANCH   2   3
ENDBRANCH   1   2
BRANCH   1  17
ATOM     17  C   UNL d   1       8.502   5.072 -10.592  0.00  0.00     0.051 C 
BRANCH  17  18
ATOM     18  C   UNL d   1       9.349   6.020  -9.801  0.00  0.00     0.101 A 
ATOM     19  N   UNL d   1      10.258   6.872 -10.411  0.00  0.00    -0.133 NA
ATOM     20  N   UNL d   1      10.844   7.596  -9.511  0.00  0.00    -0.060 NA
ATOM     21  N   UNL d   1      10.357   7.209  -8.307  0.00  0.00    -0.209 N 
ATOM     22  C   UNL d   1       9.415   6.208  -8.446  0.00  0.00     0.119 A 
BRANCH  21  23
ATOM     23  C   UNL d   1      10.812   7.822  -7.117  0.00  0.00     0.088 A 
ATOM     24  C   UNL d   1      11.040   7.061  -5.989  0.00  0.00     0.038 A 
ATOM     25  C   UNL d   1      11.499   7.689  -4.805  0.00  0.00     0.086 A 
ATOM     26  N   UNL d   1      11.690   9.085  -4.830  0.00  0.00    -0.228 N 
ATOM     27  C   UNL d   1      11.861   7.278  -3.547  0.00  0.00     0.042 A 
ATOM     28  C   UNL d   1      11.462   9.844  -5.936  0.00  0.00     0.102 A 
ATOM     29  N   UNL d   1      12.126   9.553  -3.621  0.00  0.00    -0.164 NA
ATOM     30  C   UNL d   1      11.035   9.223  -7.088  0.00  0.00     0.040 A 
ATOM     31  C   UNL d   1      12.232   8.472  -2.880  0.00  0.00     0.122 A 
ENDBRANCH  21  23
ENDBRANCH  17  18
ENDBRANCH   1  17
TORSDOF 6
