REMARK  7 active torsions:
REMARK  status: ('A' for Active; 'I' for Inactive)
REMARK    1  A    between atoms: N_11  and  C_12 
REMARK    2  A    between atoms: C_12  and  C_13 
REMARK    3  A    between atoms: C_13  and  C_14 
REMARK    4  A    between atoms: C_14  and  C_15 
REMARK    5  A    between atoms: C_15  and  C_16 
REMARK    6  A    between atoms: C_16  and  N_17 
REMARK    7  A    between atoms: C_20  and  C_21 
ROOT
ATOM      1  N   UNL d   1       8.056   4.610 -12.455  0.00  0.00     0.142 N 
ATOM      2  C   UNL d   1       8.648   5.739 -13.180  0.00  0.00     0.276 C 
ATOM      3  C   UNL d   1       9.439   6.683 -12.285  0.00  0.00     0.005 C 
ATOM      4  C   UNL d   1       9.424   6.635 -10.926  0.00  0.00    -0.021 C 
ATOM      5  C   UNL d   1       8.516   5.622 -10.291  0.00  0.00     0.061 C 
ATOM      6  C   UNL d   1       7.447   5.101 -11.214  0.00  0.00     0.255 C 
ENDROOT
BRANCH   1   7
ATOM      7  C   UNL d   1       7.127   3.879 -13.322  0.00  0.00     0.251 C 
BRANCH   7   8
ATOM      8  C   UNL d   1       5.990   3.125 -12.540  0.00  0.00     0.035 C 
BRANCH   8   9
ATOM      9  C   UNL d   1       5.442   1.931 -13.319  0.00  0.00     0.004 C 
BRANCH   9  10
ATOM     10  C   UNL d   1       6.233   0.620 -13.072  0.00  0.00     0.025 C 
BRANCH  10  11
ATOM     11  C   UNL d   1       5.809  -0.564 -13.939  0.00  0.00     0.112 C 
BRANCH  11  12
ATOM     12  N   UNL d   1       5.933  -0.303 -15.377  0.00  0.00    -0.264 N 
ATOM     13  C   UNL d   1       4.896  -0.545 -16.209  0.00  0.00     0.263 A 
ATOM     14  O   UNL d   1       3.789  -0.998 -15.915  0.00  0.00    -0.267 OA
ATOM     15  C   UNL d   1       5.343  -0.120 -17.560  0.00  0.00     0.061 A 
ATOM     16  C   UNL d   1       6.635   0.329 -17.437  0.00  0.00     0.061 A 
ATOM     17  C   UNL d   1       4.669  -0.128 -18.792  0.00  0.00     0.005 A 
ATOM     18  C   UNL d   1       7.377   0.812 -18.519  0.00  0.00     0.005 A 
ATOM     19  C   UNL d   1       7.029   0.187 -16.021  0.00  0.00     0.263 A 
ATOM     20  C   UNL d   1       6.741   0.804 -19.779  0.00  0.00     0.000 A 
ATOM     21  C   UNL d   1       5.402   0.342 -19.911  0.00  0.00     0.000 A 
ATOM     22  O   UNL d   1       8.140   0.483 -15.575  0.00  0.00    -0.267 OA
ENDBRANCH  11  12
ENDBRANCH  10  11
ENDBRANCH   9  10
ENDBRANCH   8   9
ENDBRANCH   7   8
ENDBRANCH   1   7
BRANCH   4  23
ATOM     23  C   UNL d   1      10.181   7.558 -10.050  0.00  0.00     0.017 A 
ATOM     24  C   UNL d   1      10.272   7.579  -8.620  0.00  0.00     0.021 A 
ATOM     25  C   UNL d   1      11.203   8.617  -8.270  0.00  0.00     0.082 A 
ATOM     26  C   UNL d   1       9.726   6.824  -7.562  0.00  0.00     0.031 A 
ATOM     27  N   UNL d   1      11.620   9.175  -9.455  0.00  0.00    -0.244 NA
ATOM     28  C   UNL d   1      11.575   8.912  -6.952  0.00  0.00     0.021 A 
ATOM     29  C   UNL d   1      10.982   8.553 -10.494  0.00  0.00     0.099 A 
ATOM     30  C   UNL d   1      10.993   8.162  -5.923  0.00  0.00     0.031 A 
ATOM     31  C   UNL d   1      10.094   7.126  -6.238  0.00  0.00     0.140 A 
ATOM     32  F   UNL d   1       9.560   6.401  -5.232  0.00  0.00    -0.204 F 
ENDBRANCH   4  23
TORSDOF 7
