REMARK  4 active torsions:
REMARK  status: ('A' for Active; 'I' for Inactive)
REMARK    1  A    between atoms: C_4  and  C_5 
REMARK    2  A    between atoms: C_9  and  C_10 
REMARK    3  A    between atoms: C_10  and  N_11 
REMARK    4  A    between atoms: N_14  and  C_15 
ROOT
ATOM      1  N   UNL d   1      10.467   4.923 -13.586  0.00  0.00     0.144 N 
ATOM      2  C   UNL d   1      11.019   5.368 -14.872  0.00  0.00     0.268 C 
ATOM      3  C   UNL d   1      11.968   4.311 -15.446  0.00  0.00     0.112 C 
ATOM      4  N   UNL d   1      11.264   3.056 -15.654  0.00  0.00    -0.247 NA
ATOM      5  C   UNL d   1      10.677   2.594 -14.402  0.00  0.00     0.112 C 
ATOM      6  C   UNL d   1       9.755   3.653 -13.794  0.00  0.00     0.268 C 
ENDROOT
BRANCH   1   7
ATOM      7  C   UNL d   1       9.522   5.926 -13.060  0.00  0.00     0.277 C 
BRANCH   7   8
ATOM      8  C   UNL d   1       9.267   5.826 -11.571  0.00  0.00     0.011 A 
ATOM      9  C   UNL d   1       8.403   4.844 -11.065  0.00  0.00    -0.002 A 
ATOM     10  C   UNL d   1       8.268   4.705  -9.674  0.00  0.00    -0.000 A 
ATOM     11  C   UNL d   1       8.909   5.572  -8.781  0.00  0.00    -0.000 A 
ATOM     12  C   UNL d   1       9.749   6.587  -9.274  0.00  0.00    -0.000 A 
ATOM     13  C   UNL d   1       9.916   6.701 -10.671  0.00  0.00    -0.002 A 
BRANCH  12  14
ATOM     14  C   UNL d   1      10.423   7.499  -8.346  0.00  0.00    -0.000 A 
ATOM     15  C   UNL d   1       9.761   7.959  -7.184  0.00  0.00    -0.000 A 
ATOM     16  C   UNL d   1      10.409   8.829  -6.291  0.00  0.00    -0.000 A 
ATOM     17  C   UNL d   1      11.729   9.247  -6.544  0.00  0.00     0.000 A 
ATOM     18  C   UNL d   1      12.395   8.791  -7.692  0.00  0.00    -0.000 A 
ATOM     19  C   UNL d   1      11.743   7.938  -8.595  0.00  0.00    -0.000 A 
ENDBRANCH  12  14
ENDBRANCH   7   8
ENDBRANCH   1   7
BRANCH   4  20
ATOM     20  C   UNL d   1      10.439   2.928 -16.784  0.00  0.00     0.061 A 
ATOM     21  C   UNL d   1       9.954   1.654 -17.172  0.00  0.00     0.127 A 
ATOM     22  C   UNL d   1       9.063   1.534 -18.282  0.00  0.00     0.117 A 
ATOM     23  O   UNL d   1      10.358   0.527 -16.475  0.00  0.00    -0.325 OA
ATOM     24  C   UNL d   1       8.695   2.681 -19.012  0.00  0.00     0.026 A 
ATOM     25  O   UNL d   1       8.580   0.305 -18.685  0.00  0.00    -0.326 OA
ATOM     26  C   UNL d   1       9.193   3.939 -18.633  0.00  0.00     0.003 A 
ATOM     27  C   UNL d   1      10.060   4.072 -17.530  0.00  0.00     0.013 A 
ATOM     28  C   UNL d   1       8.718  -0.731 -17.721  0.00  0.00     0.181 C 
ATOM     29  C   UNL d   1      10.142  -0.715 -17.143  0.00  0.00     0.181 C 
ENDBRANCH   4  20
TORSDOF 4
