REMARK  5 active torsions:
REMARK  status: ('A' for Active; 'I' for Inactive)
REMARK       I    between atoms: C_2  and  N_3 
REMARK    1  A    between atoms: C_2  and  C_16 
REMARK    2  A    between atoms: N_3  and  C_4 
REMARK    3  A    between atoms: N_7  and  C_8 
REMARK    4  A    between atoms: C_8  and  C_9 
REMARK    5  A    between atoms: C_20  and  C_21 
ROOT
ATOM      1  O   UNL d   1      10.405   6.430 -10.308  0.00  0.00    -0.266 OA
ATOM      2  C   UNL d   1       9.309   5.902 -10.160  0.00  0.00     0.275 C 
ATOM      3  N   UNL d   1       8.637   5.930  -9.003  0.00  0.00    -0.234 NA
ENDROOT
BRANCH   2   4
ATOM      4  C   UNL d   1       8.652   5.176 -11.296  0.00  0.00     0.058 A 
ATOM      5  C   UNL d   1       9.427   4.472 -12.235  0.00  0.00     0.005 A 
ATOM      6  C   UNL d   1       8.840   3.857 -13.357  0.00  0.00     0.000 A 
ATOM      7  C   UNL d   1       7.444   3.980 -13.546  0.00  0.00     0.000 A 
ATOM      8  C   UNL d   1       6.666   4.728 -12.640  0.00  0.00     0.000 A 
ATOM      9  C   UNL d   1       7.275   5.359 -11.544  0.00  0.00     0.005 A 
BRANCH   6  10
ATOM     10  C   UNL d   1       9.671   3.089 -14.295  0.00  0.00     0.000 A 
ATOM     11  C   UNL d   1      10.926   3.578 -14.729  0.00  0.00     0.000 A 
ATOM     12  C   UNL d   1      11.714   2.837 -15.627  0.00  0.00     0.000 A 
ATOM     13  C   UNL d   1      11.264   1.588 -16.095  0.00  0.00     0.000 A 
ATOM     14  C   UNL d   1      10.026   1.081 -15.657  0.00  0.00     0.000 A 
ATOM     15  C   UNL d   1       9.236   1.831 -14.768  0.00  0.00     0.000 A 
ENDBRANCH   6  10
ENDBRANCH   2   4
BRANCH   3  16
ATOM     16  C   UNL d   1       8.849   6.919  -7.931  0.00  0.00     0.142 C 
ATOM     17  C   UNL d   1      10.025   6.610  -7.064  0.00  0.00     0.275 C 
ATOM     18  N   UNL d   1      10.413   7.937  -6.638  0.00  0.00     0.143 N 
ATOM     19  C   UNL d   1      10.435   8.733  -7.842  0.00  0.00     0.253 C 
ATOM     20  C   UNL d   1       9.086   8.383  -8.401  0.00  0.00     0.062 C 
BRANCH  18  21
ATOM     21  C   UNL d   1      11.740   7.841  -6.129  0.00  0.00     0.277 C 
BRANCH  21  22
ATOM     22  C   UNL d   1      11.836   8.093  -4.655  0.00  0.00     0.011 A 
ATOM     23  C   UNL d   1      11.759   9.414  -4.213  0.00  0.00    -0.002 A 
ATOM     24  C   UNL d   1      11.902   9.684  -2.844  0.00  0.00    -0.000 A 
ATOM     25  C   UNL d   1      12.190   8.644  -1.946  0.00  0.00    -0.000 A 
ATOM     26  C   UNL d   1      12.236   7.311  -2.383  0.00  0.00    -0.000 A 
ATOM     27  C   UNL d   1      12.092   7.031  -3.755  0.00  0.00    -0.002 A 
ENDBRANCH  21  22
ENDBRANCH  18  21
ENDBRANCH   3  16
TORSDOF 5
