REMARK  10 active torsions:
REMARK  status: ('A' for Active; 'I' for Inactive)
REMARK    1  A    between atoms: C_6  and  C_7 
REMARK    2  A    between atoms: C_7  and  N_8 
REMARK       I    between atoms: N_8  and  C_9 
REMARK    3  A    between atoms: C_9  and  C_11 
REMARK    4  A    between atoms: C_11  and  C_12 
REMARK    5  A    between atoms: C_12  and  O_13 
REMARK    6  A    between atoms: O_13  and  C_14 
REMARK    7  A    between atoms: C_14  and  C_15 
REMARK    8  A    between atoms: C_15  and  N_16 
REMARK    9  A    between atoms: N_19  and  C_20 
REMARK   10  A    between atoms: C_25  and  C_26 
ROOT
ATOM      1  N   UNL d   1      11.050  10.389  -4.626  0.00  0.00    -0.191 NA
ATOM      2  C   UNL d   1      10.823   9.480  -5.298  0.00  0.00     0.101 C 
ATOM      3  C   UNL d   1      10.534   8.338  -6.130  0.00  0.00     0.068 A 
ATOM      4  C   UNL d   1       9.389   8.326  -6.941  0.00  0.00     0.010 A 
ATOM      5  C   UNL d   1       9.110   7.195  -7.709  0.00  0.00    -0.002 A 
ATOM      6  C   UNL d   1       9.988   6.099  -7.738  0.00  0.00     0.002 A 
ATOM      7  C   UNL d   1      11.154   6.147  -6.945  0.00  0.00    -0.002 A 
ATOM      8  C   UNL d   1      11.397   7.232  -6.093  0.00  0.00     0.010 A 
ENDROOT
BRANCH   6   9
ATOM      9  C   UNL d   1       9.693   4.880  -8.612  0.00  0.00     0.155 C 
BRANCH   9  10
ATOM     10  N   UNL d   1       8.914   5.149  -9.814  0.00  0.00    -0.233 NA
ATOM     11  C   UNL d   1       9.183   6.093 -10.719  0.00  0.00     0.254 C 
ATOM     12  O   UNL d   1      10.112   6.895 -10.627  0.00  0.00    -0.270 OA
BRANCH  11  13
ATOM     13  C   UNL d   1       8.280   6.113 -11.933  0.00  0.00     0.122 C 
BRANCH  13  14
ATOM     14  C   UNL d   1       9.124   5.875 -13.165  0.00  0.00     0.152 C 
BRANCH  14  15
ATOM     15  O   UNL d   1       9.668   4.561 -13.178  0.00  0.00    -0.352 OA
BRANCH  15  16
ATOM     16  C   UNL d   1      10.404   4.237 -14.348  0.00  0.00     0.178 C 
BRANCH  16  17
ATOM     17  C   UNL d   1       9.466   4.226 -15.565  0.00  0.00     0.282 C 
BRANCH  17  18
ATOM     18  N   UNL d   1      10.069   3.825 -16.814  0.00  0.00     0.144 N 
ATOM     19  C   UNL d   1       9.302   4.350 -17.946  0.00  0.00     0.274 C 
ATOM     20  C   UNL d   1       9.930   4.008 -19.296  0.00  0.00     0.138 C 
ATOM     21  N   UNL d   1      10.136   2.564 -19.382  0.00  0.00    -0.330 N 
ATOM     22  C   UNL d   1      10.812   1.942 -18.240  0.00  0.00     0.138 C 
ATOM     23  C   UNL d   1      10.152   2.367 -16.927  0.00  0.00     0.274 C 
BRANCH  21  24
ATOM     24  C   UNL d   1       9.650   1.821 -20.451  0.00  0.00     0.140 A 
ATOM     25  C   UNL d   1      10.450   0.838 -21.106  0.00  0.00     0.034 A 
ATOM     26  C   UNL d   1       9.868   0.124 -22.169  0.00  0.00     0.005 A 
ATOM     27  C   UNL d   1       8.548   0.402 -22.558  0.00  0.00     0.021 A 
ATOM     28  C   UNL d   1       7.849   1.401 -21.861  0.00  0.00     0.101 A 
ATOM     29  N   UNL d   1       8.376   2.093 -20.837  0.00  0.00    -0.227 NA
BRANCH  25  30
ATOM     30  C   UNL d   1      11.855   0.573 -20.749  0.00  0.00     0.003 A 
ATOM     31  C   UNL d   1      12.185  -0.539 -19.945  0.00  0.00     0.002 A 
ATOM     32  C   UNL d   1      13.522  -0.793 -19.584  0.00  0.00     0.030 A 
ATOM     33  C   UNL d   1      14.543   0.065 -20.027  0.00  0.00     0.140 A 
ATOM     34  C   UNL d   1      14.227   1.179 -20.827  0.00  0.00     0.030 A 
ATOM     35  F   UNL d   1      15.830  -0.170 -19.668  0.00  0.00    -0.204 F 
ATOM     36  C   UNL d   1      12.887   1.430 -21.185  0.00  0.00     0.002 A 
ENDBRANCH  25  30
ENDBRANCH  21  24
ENDBRANCH  17  18
ENDBRANCH  16  17
ENDBRANCH  15  16
ENDBRANCH  14  15
ENDBRANCH  13  14
ENDBRANCH  11  13
ENDBRANCH   9  10
ENDBRANCH   6   9
TORSDOF 10
