REMARK  12 active torsions:
REMARK  status: ('A' for Active; 'I' for Inactive)
REMARK    1  A    between atoms: O_2  and  C_3 
REMARK    2  A    between atoms: C_5  and  C_6 
REMARK    3  A    between atoms: C_6  and  C_7 
REMARK    4  A    between atoms: C_7  and  N_8 
REMARK    5  A    between atoms: N_8  and  C_9 
REMARK    6  A    between atoms: C_9  and  C_10 
REMARK    7  A    between atoms: C_10  and  C_12 
REMARK    8  A    between atoms: C_22  and  O_23 
REMARK    9  A    between atoms: O_23  and  C_24 
REMARK   10  A    between atoms: C_24  and  C_25 
REMARK   11  A    between atoms: C_25  and  C_26 
REMARK   12  A    between atoms: C_26  and  C_27 
ROOT
ATOM      1  C   UNL d   1       7.839   5.651 -12.424  0.00  0.00     0.116 C 
ATOM      2  C   UNL d   1       7.508   4.720 -13.433  0.00  0.00     0.022 C 
ATOM      3  C   UNL d   1       8.364   3.635 -13.710  0.00  0.00    -0.018 C 
ATOM      4  C   UNL d   1       9.461   3.403 -12.885  0.00  0.00    -0.002 C 
ATOM      5  C   UNL d   1       9.643   4.205 -11.754  0.00  0.00     0.026 C 
ATOM      6  C   UNL d   1       8.916   5.398 -11.549  0.00  0.00     0.116 C 
ENDROOT
BRANCH   3   7
ATOM      7  C   UNL d   1       8.110   2.700 -14.856  0.00  0.00     0.052 C 
BRANCH   7   8
ATOM      8  C   UNL d   1       8.966   3.128 -16.049  0.00  0.00     0.125 C 
BRANCH   8   9
ATOM      9  N   UNL d   1       8.646   2.267 -17.180  0.00  0.00    -0.292 NA
BRANCH   9  10
ATOM     10  C   UNL d   1       8.931   2.792 -18.504  0.00  0.00     0.157 C 
BRANCH  10  11
ATOM     11  C   UNL d   1       8.669   1.729 -19.614  0.00  0.00     0.198 C 
ATOM     12  O   UNL d   1       8.885   2.409 -20.832  0.00  0.00    -0.216 OA
BRANCH  11  13
ATOM     13  C   UNL d   1       7.287   1.029 -19.556  0.00  0.00     0.012 A 
ATOM     14  C   UNL d   1       6.982   0.159 -18.480  0.00  0.00     0.028 A 
ATOM     15  C   UNL d   1       5.705  -0.434 -18.354  0.00  0.00     0.156 A 
ATOM     16  C   UNL d   1       4.752  -0.258 -19.368  0.00  0.00     0.156 A 
ATOM     17  O   UNL d   1       5.473  -1.151 -17.213  0.00  0.00    -0.188 OA
ATOM     18  C   UNL d   1       5.060   0.530 -20.484  0.00  0.00     0.029 A 
ATOM     19  O   UNL d   1       3.519  -0.871 -19.282  0.00  0.00    -0.188 OA
ATOM     20  C   UNL d   1       6.323   1.189 -20.581  0.00  0.00     0.001 A 
ENDBRANCH  11  13
ENDBRANCH  10  11
ENDBRANCH   9  10
ENDBRANCH   8   9
ENDBRANCH   7   8
ENDBRANCH   3   7
BRANCH   1  21
ATOM     21  O   UNL d   1       7.151   6.815 -12.250  0.00  0.00    -0.326 OA
ATOM     22  C   UNL d   1       5.752   6.716 -12.265  0.00  0.00     0.181 C 
ENDBRANCH   1  21
BRANCH   6  23
ATOM     23  O   UNL d   1       9.101   6.244 -10.471  0.00  0.00    -0.329 OA
BRANCH  23  24
ATOM     24  C   UNL d   1      10.298   6.156  -9.703  0.00  0.00     0.149 C 
BRANCH  24  25
ATOM     25  C   UNL d   1      10.163   7.019  -8.452  0.00  0.00     0.037 C 
BRANCH  25  26
ATOM     26  C   UNL d   1      11.420   6.954  -7.557  0.00  0.00     0.029 C 
BRANCH  26  27
ATOM     27  C   UNL d   1      11.340   7.879  -6.361  0.00  0.00    -0.022 A 
ATOM     28  C   UNL d   1      11.498   7.367  -5.053  0.00  0.00    -0.004 A 
ATOM     29  C   UNL d   1      11.499   8.253  -3.957  0.00  0.00    -0.000 A 
ATOM     30  C   UNL d   1      11.263   9.624  -4.155  0.00  0.00    -0.000 A 
ATOM     31  C   UNL d   1      11.073  10.128  -5.454  0.00  0.00    -0.000 A 
ATOM     32  C   UNL d   1      11.137   9.254  -6.559  0.00  0.00    -0.004 A 
ENDBRANCH  26  27
ENDBRANCH  25  26
ENDBRANCH  24  25
ENDBRANCH  23  24
ENDBRANCH   6  23
TORSDOF 12
