REMARK  7 active torsions:
REMARK  status: ('A' for Active; 'I' for Inactive)
REMARK    1  A    between atoms: C_6  and  S_7 
REMARK    2  A    between atoms: S_7  and  N_10 
REMARK    3  A    between atoms: N_10  and  C_11 
REMARK    4  A    between atoms: C_11  and  C_12 
REMARK    5  A    between atoms: C_12  and  C_13 
REMARK    6  A    between atoms: C_13  and  N_14 
REMARK    7  A    between atoms: N_17  and  C_18 
ROOT
ATOM      1  N   UNL d   1       9.452   6.072 -11.977  0.00  0.00     0.141 N 
ATOM      2  C   UNL d   1       9.472   4.701 -11.468  0.00  0.00     0.274 C 
ATOM      3  C   UNL d   1       9.952   3.767 -12.589  0.00  0.00     0.138 C 
ATOM      4  N   UNL d   1       9.118   3.888 -13.771  0.00  0.00    -0.329 N 
ATOM      5  C   UNL d   1       8.946   5.242 -14.230  0.00  0.00     0.138 C 
ATOM      6  C   UNL d   1       8.481   6.145 -13.068  0.00  0.00     0.274 C 
ENDROOT
BRANCH   1   7
ATOM      7  C   UNL d   1       9.056   6.985 -10.930  0.00  0.00     0.253 C 
BRANCH   7   8
ATOM      8  C   UNL d   1      10.229   7.888 -10.508  0.00  0.00     0.062 C 
BRANCH   8   9
ATOM      9  C   UNL d   1       9.765   8.948  -9.511  0.00  0.00     0.141 C 
BRANCH   9  10
ATOM     10  N   UNL d   1       9.115   8.357  -8.326  0.00  0.00    -0.185 NA
BRANCH  10  11
ATOM     11  S   UNL d   1       9.742   7.065  -7.354  0.00  0.00     0.281 S 
ATOM     12  O   UNL d   1      10.581   6.189  -8.178  0.00  0.00    -0.199 OA
ATOM     13  O   UNL d   1       8.620   6.490  -6.608  0.00  0.00    -0.199 OA
BRANCH  11  14
ATOM     14  C   UNL d   1      10.823   7.882  -6.205  0.00  0.00     0.105 A 
ATOM     15  C   UNL d   1      11.415   9.122  -6.528  0.00  0.00     0.013 A 
ATOM     16  C   UNL d   1      12.234   9.762  -5.588  0.00  0.00     0.000 A 
ATOM     17  C   UNL d   1      12.454   9.186  -4.322  0.00  0.00    -0.004 A 
ATOM     18  C   UNL d   1      11.872   7.935  -4.012  0.00  0.00    -0.021 A 
ATOM     19  C   UNL d   1      12.084   7.314  -2.656  0.00  0.00     0.031 C 
ATOM     20  C   UNL d   1      11.066   7.267  -4.960  0.00  0.00     0.009 A 
ENDBRANCH  11  14
ENDBRANCH  10  11
ENDBRANCH   9  10
ENDBRANCH   8   9
ENDBRANCH   7   8
ENDBRANCH   1   7
BRANCH   4  21
ATOM     21  C   UNL d   1       8.455   2.803 -14.367  0.00  0.00     0.148 A 
ATOM     22  C   UNL d   1       9.103   1.959 -15.355  0.00  0.00     0.042 A 
ATOM     23  C   UNL d   1       8.192   0.957 -15.785  0.00  0.00     0.050 A 
ATOM     24  C   UNL d   1      10.392   1.956 -15.938  0.00  0.00     0.004 A 
ATOM     25  S   UNL d   1       6.686   1.189 -14.919  0.00  0.00     0.015 SA
ATOM     26  C   UNL d   1       8.546  -0.012 -16.745  0.00  0.00     0.008 A 
ATOM     27  N   UNL d   1       7.192   2.549 -14.078  0.00  0.00    -0.192 NA
ATOM     28  C   UNL d   1       9.838   0.001 -17.300  0.00  0.00     0.001 A 
ATOM     29  C   UNL d   1      10.759   0.989 -16.901  0.00  0.00     0.000 A 
ENDBRANCH   4  21
TORSDOF 7
