REMARK  8 active torsions:
REMARK  status: ('A' for Active; 'I' for Inactive)
REMARK    1  A    between atoms: C_3  and  S_4 
REMARK    2  A    between atoms: S_4  and  C_5 
REMARK    3  A    between atoms: C_5  and  C_6 
REMARK    4  A    between atoms: C_6  and  C_7 
REMARK    5  A    between atoms: C_7  and  N_8 
REMARK    6  A    between atoms: C_13  and  C_14 
REMARK    7  A    between atoms: C_17  and  C_18 
REMARK    8  A    between atoms: C_28  and  C_29 
ROOT
ATOM      1  N   UNL d   1       9.817   5.649 -11.427  0.00  0.00     0.137 N 
ATOM      2  C   UNL d   1       9.022   4.669 -10.693  0.00  0.00     0.250 C 
ATOM      3  C   UNL d   1       9.593   4.338  -9.282  0.00  0.00     0.036 C 
ATOM      4  C   UNL d   1       9.409   5.369  -8.232  0.00  0.00     0.006 A 
ATOM      5  C   UNL d   1       8.321   6.388  -8.217  0.00  0.00     0.004 A 
ATOM      6  C   UNL d   1       9.775   6.816  -8.363  0.00  0.00     0.021 A 
ATOM      7  C   UNL d   1      10.315   7.367  -9.672  0.00  0.00     0.039 C 
ATOM      8  C   UNL d   1       9.550   7.004 -10.960  0.00  0.00     0.251 C 
ENDROOT
BRANCH   1   9
ATOM      9  C   UNL d   1       9.489   5.574 -12.851  0.00  0.00     0.251 C 
BRANCH   9  10
ATOM     10  C   UNL d   1      10.166   4.365 -13.524  0.00  0.00     0.047 C 
BRANCH  10  11
ATOM     11  C   UNL d   1       9.697   4.219 -14.981  0.00  0.00     0.067 C 
BRANCH  11  12
ATOM     12  S   UNL d   1      10.773   3.129 -15.947  0.00  0.00    -0.075 SA
BRANCH  12  13
ATOM     13  C   UNL d   1      12.106   4.240 -16.269  0.00  0.00     0.193 A 
ATOM     14  N   UNL d   1      12.995   4.037 -17.267  0.00  0.00    -0.289 N 
ATOM     15  C   UNL d   1      13.000   2.922 -18.221  0.00  0.00     0.134 C 
ATOM     16  C   UNL d   1      13.825   5.092 -17.120  0.00  0.00     0.169 A 
ATOM     17  N   UNL d   1      13.492   5.880 -16.082  0.00  0.00    -0.128 NA
ATOM     18  N   UNL d   1      12.341   5.327 -15.541  0.00  0.00    -0.122 NA
BRANCH  16  19
ATOM     19  C   UNL d   1      14.996   5.428 -17.914  0.00  0.00     0.059 A 
ATOM     20  C   UNL d   1      16.181   5.859 -17.320  0.00  0.00     0.125 A 
ATOM     21  N   UNL d   1      17.293   6.154 -18.023  0.00  0.00    -0.146 NA
ATOM     22  N   UNL d   1      17.290   6.019 -19.361  0.00  0.00    -0.146 NA
ATOM     23  C   UNL d   1      16.160   5.653 -20.001  0.00  0.00     0.122 A 
ATOM     24  C   UNL d   1      14.951   5.357 -19.326  0.00  0.00     0.027 A 
ENDBRANCH  16  19
ENDBRANCH  12  13
ENDBRANCH  11  12
ENDBRANCH  10  11
ENDBRANCH   9  10
ENDBRANCH   1   9
BRANCH   6  25
ATOM     25  C   UNL d   1      10.401   7.475  -7.172  0.00  0.00    -0.023 A 
ATOM     26  C   UNL d   1      11.123   6.690  -6.246  0.00  0.00    -0.004 A 
ATOM     27  C   UNL d   1      11.653   7.274  -5.081  0.00  0.00     0.004 A 
ATOM     28  C   UNL d   1      11.553   8.652  -4.900  0.00  0.00     0.071 A 
ATOM     29  C   UNL d   1      10.858   9.456  -5.834  0.00  0.00     0.004 A 
ATOM     30  C   UNL d   1      10.235   8.847  -6.945  0.00  0.00    -0.004 A 
BRANCH  28  31
ATOM     31  C   UNL d   1      12.296   9.276  -3.768  0.00  0.00     0.419 C 
ATOM     32  F   UNL d   1      12.655   8.408  -2.817  0.00  0.00    -0.166 F 
ATOM     33  F   UNL d   1      13.394   9.780  -4.328  0.00  0.00    -0.166 F 
ATOM     34  F   UNL d   1      11.528  10.219  -3.232  0.00  0.00    -0.166 F 
ENDBRANCH  28  31
ENDBRANCH   6  25
TORSDOF 8
