REMARK  7 active torsions:
REMARK  status: ('A' for Active; 'I' for Inactive)
REMARK    1  A    between atoms: C_6  and  N_7 
REMARK    2  A    between atoms: N_10  and  C_11 
REMARK    3  A    between atoms: C_11  and  C_12 
REMARK    4  A    between atoms: C_12  and  C_13 
REMARK    5  A    between atoms: C_13  and  C_14 
REMARK    6  A    between atoms: C_14  and  O_15 
REMARK    7  A    between atoms: O_15  and  C_16 
ROOT
ATOM      1  N   UNL d   1       9.127   6.346 -10.701  0.00  0.00    -0.344 N 
ATOM      2  C   UNL d   1       9.138   4.914 -10.484  0.00  0.00     0.137 C 
ATOM      3  C   UNL d   1       9.497   4.231 -11.806  0.00  0.00     0.274 C 
ATOM      4  N   UNL d   1       8.570   4.590 -12.882  0.00  0.00     0.141 N 
ATOM      5  C   UNL d   1       8.649   6.044 -13.070  0.00  0.00     0.274 C 
ATOM      6  C   UNL d   1       8.267   6.793 -11.788  0.00  0.00     0.137 C 
ENDROOT
BRANCH   4   7
ATOM      7  C   UNL d   1       8.975   3.905 -14.102  0.00  0.00     0.251 C 
BRANCH   7   8
ATOM      8  C   UNL d   1       8.512   2.441 -14.063  0.00  0.00     0.038 C 
BRANCH   8   9
ATOM      9  C   UNL d   1       8.759   1.670 -15.364  0.00  0.00     0.035 C 
BRANCH   9  10
ATOM     10  C   UNL d   1       7.867   2.120 -16.538  0.00  0.00     0.151 C 
BRANCH  10  11
ATOM     11  O   UNL d   1       7.708   1.077 -17.497  0.00  0.00    -0.315 OA
BRANCH  11  12
ATOM     12  C   UNL d   1       6.790   0.072 -17.239  0.00  0.00     0.179 A 
ATOM     13  N   UNL d   1       6.791  -0.974 -18.122  0.00  0.00    -0.208 N 
ATOM     14  C   UNL d   1       5.893  -2.058 -18.023  0.00  0.00     0.087 A 
ATOM     15  N   UNL d   1       7.635  -1.133 -19.203  0.00  0.00    -0.162 NA
ATOM     16  C   UNL d   1       4.955  -2.054 -16.958  0.00  0.00     0.019 A 
ATOM     17  C   UNL d   1       6.181  -2.898 -19.061  0.00  0.00     0.042 A 
ATOM     18  C   UNL d   1       4.960  -1.014 -16.062  0.00  0.00     0.005 A 
ATOM     19  C   UNL d   1       5.881   0.048 -16.192  0.00  0.00     0.044 A 
ATOM     20  C   UNL d   1       7.254  -2.271 -19.742  0.00  0.00     0.122 A 
ENDBRANCH  11  12
ENDBRANCH  10  11
ENDBRANCH   9  10
ENDBRANCH   8   9
ENDBRANCH   7   8
ENDBRANCH   4   7
BRANCH   1  21
ATOM     21  C   UNL d   1       9.772   7.253  -9.850  0.00  0.00     0.068 A 
ATOM     22  C   UNL d   1      10.538   8.293 -10.433  0.00  0.00     0.018 A 
ATOM     23  C   UNL d   1      11.247   9.198  -9.634  0.00  0.00     0.002 A 
ATOM     24  C   UNL d   1      11.159   9.128  -8.233  0.00  0.00     0.012 A 
ATOM     25  C   UNL d   1      10.380   8.132  -7.638  0.00  0.00     0.070 A 
ATOM     26 CL   UNL d   1      10.307   8.086  -5.923  0.00  0.00    -0.081 Cl
ATOM     27  C   UNL d   1       9.682   7.206  -8.425  0.00  0.00     0.084 A 
ATOM     28 CL   UNL d   1       8.662   6.072  -7.643  0.00  0.00    -0.080 Cl
ENDBRANCH   1  21
TORSDOF 7
