REMARK  6 active torsions:
REMARK  status: ('A' for Active; 'I' for Inactive)
REMARK       I    between atoms: C_2  and  N_3 
REMARK    1  A    between atoms: C_2  and  C_27 
REMARK    2  A    between atoms: N_3  and  C_4 
REMARK    3  A    between atoms: C_7  and  C_8 
REMARK    4  A    between atoms: C_8  and  C_9 
REMARK    5  A    between atoms: C_9  and  N_10 
REMARK    6  A    between atoms: N_13  and  C_14 
ROOT
ATOM      1  N   UNL d   1       8.893   5.438 -11.932  0.00  0.00     0.141 N 
ATOM      2  C   UNL d   1       8.724   6.093 -13.221  0.00  0.00     0.274 C 
ATOM      3  C   UNL d   1       8.308   5.089 -14.297  0.00  0.00     0.138 C 
ATOM      4  N   UNL d   1       9.272   4.012 -14.380  0.00  0.00    -0.330 N 
ATOM      5  C   UNL d   1       9.616   3.388 -13.125  0.00  0.00     0.138 C 
ATOM      6  C   UNL d   1       9.970   4.464 -12.108  0.00  0.00     0.274 C 
ENDROOT
BRANCH   1   7
ATOM      7  C   UNL d   1       9.317   6.471 -10.989  0.00  0.00     0.250 C 
BRANCH   7   8
ATOM      8  C   UNL d   1       9.281   5.948  -9.551  0.00  0.00     0.035 C 
BRANCH   8   9
ATOM      9  C   UNL d   1       9.504   7.054  -8.514  0.00  0.00     0.002 C 
ATOM     10  C   UNL d   1       9.451   6.438  -7.114  0.00  0.00     0.002 C 
ATOM     11  C   UNL d   1       9.712   7.493  -6.051  0.00  0.00     0.024 C 
ATOM     12  C   UNL d   1      11.058   8.206  -6.284  0.00  0.00     0.106 C 
ATOM     13  C   UNL d   1      11.077   8.865  -7.659  0.00  0.00     0.024 C 
ATOM     14  C   UNL d   1      10.830   7.814  -8.739  0.00  0.00     0.002 C 
BRANCH  12  15
ATOM     15  N   UNL d   1      11.312   9.185  -5.241  0.00  0.00    -0.240 NA
ATOM     16  C   UNL d   1      11.712   8.920  -3.995  0.00  0.00     0.251 C 
ATOM     17  O   UNL d   1      11.819   9.832  -3.178  0.00  0.00    -0.271 OA
BRANCH  16  18
ATOM     18  C   UNL d   1      11.963   7.483  -3.640  0.00  0.00     0.081 A 
ATOM     19  C   UNL d   1      12.785   7.202  -2.406  0.00  0.00     0.010 A 
ATOM     20  C   UNL d   1      11.303   6.963  -2.380  0.00  0.00     0.010 A 
ENDBRANCH  16  18
ENDBRANCH  12  15
ENDBRANCH   8   9
ENDBRANCH   7   8
ENDBRANCH   1   7
BRANCH   4  21
ATOM     21  C   UNL d   1       9.809   3.557 -15.593  0.00  0.00     0.138 A 
ATOM     22  C   UNL d   1      10.018   2.194 -15.856  0.00  0.00     0.036 A 
ATOM     23  C   UNL d   1      10.582   1.789 -17.057  0.00  0.00     0.095 A 
ATOM     24  C   UNL d   1       9.691   0.976 -15.052  0.00  0.00     0.064 C 
ATOM     25  C   UNL d   1      10.961   2.755 -18.002  0.00  0.00     0.045 A 
ATOM     26  O   UNL d   1      10.682   0.434 -17.180  0.00  0.00    -0.331 OA
ATOM     27  C   UNL d   1      10.715   4.101 -17.670  0.00  0.00     0.103 A 
ATOM     28  N   UNL d   1      10.146   4.499 -16.506  0.00  0.00    -0.228 NA
ATOM     29  C   UNL d   1      10.005  -0.152 -16.053  0.00  0.00     0.154 C 
ENDBRANCH   4  21
TORSDOF 6
