REMARK  8 active torsions:
REMARK  status: ('A' for Active; 'I' for Inactive)
REMARK    1  A    between atoms: C_2  and  C_3 
REMARK       I    between atoms: C_2  and  N_11 
REMARK    2  A    between atoms: C_14  and  C_16 
REMARK    3  A    between atoms: C_16  and  N_17 
REMARK    4  A    between atoms: N_17  and  C_18 
REMARK    5  A    between atoms: C_18  and  C_19 
REMARK    6  A    between atoms: C_19  and  O_20 
REMARK    7  A    between atoms: O_20  and  C_21 
REMARK    8  A    between atoms: C_25  and  C_26 
ROOT
ATOM      1  O   UNL d   1       5.052   1.463 -12.846  0.00  0.00    -0.267 OA
ATOM      2  C   UNL d   1       5.879   1.693 -13.698  0.00  0.00     0.257 C 
ATOM      3  N   UNL d   1       6.612   2.823 -13.723  0.00  0.00    -0.317 N 
ATOM      4  C   UNL d   1       6.076   4.076 -13.153  0.00  0.00     0.107 C 
ATOM      5  C   UNL d   1       7.032   4.660 -12.114  0.00  0.00     0.059 C 
ATOM      6  C   UNL d   1       8.442   4.810 -12.685  0.00  0.00     0.172 C 
ATOM      7  F   UNL d   1       8.425   5.697 -13.677  0.00  0.00    -0.238 F 
ATOM      8  C   UNL d   1       8.955   3.502 -13.292  0.00  0.00     0.059 C 
ATOM      9  C   UNL d   1       7.961   2.942 -14.304  0.00  0.00     0.107 C 
ENDROOT
BRANCH   6  10
ATOM     10  C   UNL d   1       9.411   5.308 -11.628  0.00  0.00     0.323 C 
BRANCH  10  11
ATOM     11  N   UNL d   1       9.275   6.740 -11.419  0.00  0.00     0.345 N 
BRANCH  11  12
ATOM     12  C   UNL d   1      10.295   7.117 -10.475  0.00  0.00     0.323 C 
BRANCH  12  13
ATOM     13  C   UNL d   1      10.094   8.603 -10.125  0.00  0.00     0.187 C 
BRANCH  13  14
ATOM     14  O   UNL d   1      10.911   9.055  -9.052  0.00  0.00    -0.329 OA
BRANCH  14  15
ATOM     15  C   UNL d   1      10.714   8.519  -7.798  0.00  0.00     0.094 C 
ATOM     16  C   UNL d   1      11.559   8.999  -6.777  0.00  0.00     0.028 C 
ATOM     17  C   UNL d   1      11.508   8.419  -5.482  0.00  0.00     0.073 C 
ATOM     18  C   UNL d   1      10.677   7.304  -5.236  0.00  0.00     0.004 C 
ATOM     19  C   UNL d   1       9.820   6.853  -6.268  0.00  0.00     0.002 C 
ATOM     20  C   UNL d   1       9.774   7.503  -7.487  0.00  0.00     0.024 C 
BRANCH  17  21
ATOM     21  C   UNL d   1      12.353   8.985  -4.350  0.00  0.00     0.419 C 
ATOM     22  F   UNL d   1      12.734   7.980  -3.553  0.00  0.00    -0.166 F 
ATOM     23  F   UNL d   1      13.436   9.611  -4.807  0.00  0.00    -0.166 F 
ATOM     24  F   UNL d   1      11.616   9.853  -3.651  0.00  0.00    -0.166 F 
ENDBRANCH  17  21
ENDBRANCH  14  15
ENDBRANCH  13  14
ENDBRANCH  12  13
ENDBRANCH  11  12
ENDBRANCH  10  11
ENDBRANCH   6  10
BRANCH   2  25
ATOM     25  C   UNL d   1       6.037   0.719 -14.854  0.00  0.00     0.057 A 
ATOM     26  C   UNL d   1       6.344   1.159 -16.154  0.00  0.00     0.018 A 
ATOM     27  C   UNL d   1       6.408   0.281 -17.245  0.00  0.00     0.085 A 
ATOM     28  C   UNL d   1       6.123  -1.084 -17.044  0.00  0.00     0.151 A 
ATOM     29 CL   UNL d   1       6.831   0.867 -18.813  0.00  0.00    -0.080 Cl
ATOM     30  C   UNL d   1       5.750  -1.519 -15.759  0.00  0.00     0.031 A 
ATOM     31  F   UNL d   1       6.272  -1.968 -18.052  0.00  0.00    -0.203 F 
ATOM     32  C   UNL d   1       5.727  -0.648 -14.661  0.00  0.00     0.007 A 
ENDBRANCH   2  25
TORSDOF 8
