REMARK  5 active torsions:
REMARK  status: ('A' for Active; 'I' for Inactive)
REMARK    1  A    between atoms: O_2  and  C_3 
REMARK    2  A    between atoms: C_6  and  C_7 
REMARK    3  A    between atoms: C_9  and  C_10 
REMARK    4  A    between atoms: C_10  and  N_11 
REMARK    5  A    between atoms: N_14  and  C_15 
ROOT
ATOM      1  N   UNL d   1       9.109   6.823 -10.936  0.00  0.00     0.141 N 
ATOM      2  C   UNL d   1       8.256   7.018 -12.117  0.00  0.00     0.274 C 
ATOM      3  C   UNL d   1       7.319   5.810 -12.317  0.00  0.00     0.137 C 
ATOM      4  N   UNL d   1       8.103   4.598 -12.378  0.00  0.00    -0.344 N 
ATOM      5  C   UNL d   1       8.997   4.389 -11.278  0.00  0.00     0.137 C 
ATOM      6  C   UNL d   1       9.863   5.603 -11.125  0.00  0.00     0.274 C 
ENDROOT
BRANCH   1   7
ATOM      7  C   UNL d   1       9.925   8.014 -10.726  0.00  0.00     0.251 C 
BRANCH   7   8
ATOM      8  C   UNL d   1      10.920   7.870  -9.582  0.00  0.00     0.038 A 
ATOM      9  C   UNL d   1      11.161   8.982  -8.608  0.00  0.00     0.024 A 
ATOM     10  C   UNL d   1      12.247   8.586  -9.592  0.00  0.00     0.007 A 
BRANCH   9  11
ATOM     11  C   UNL d   1      11.275   8.682  -7.149  0.00  0.00    -0.022 A 
ATOM     12  C   UNL d   1      11.917   9.607  -6.316  0.00  0.00    -0.002 A 
ATOM     13  C   UNL d   1      12.129   9.313  -4.960  0.00  0.00     0.024 A 
ATOM     14  C   UNL d   1      11.694   8.104  -4.385  0.00  0.00     0.094 A 
ATOM     15  C   UNL d   1      11.047   7.172  -5.213  0.00  0.00     0.024 A 
ATOM     16  C   UNL d   1      10.823   7.460  -6.574  0.00  0.00    -0.002 A 
BRANCH  14  17
ATOM     17  O   UNL d   1      11.867   7.773  -3.057  0.00  0.00    -0.328 OA
ATOM     18  C   UNL d   1      12.397   8.802  -2.207  0.00  0.00     0.181 C 
ENDBRANCH  14  17
ENDBRANCH   9  11
ENDBRANCH   7   8
ENDBRANCH   1   7
BRANCH   4  19
ATOM     19  C   UNL d   1       7.992   3.648 -13.415  0.00  0.00     0.067 A 
ATOM     20  C   UNL d   1       6.754   3.041 -13.725  0.00  0.00     0.074 A 
ATOM     21  C   UNL d   1       6.700   2.049 -14.722  0.00  0.00     0.024 A 
ATOM     22 CL   UNL d   1       5.318   3.401 -12.832  0.00  0.00    -0.081 Cl
ATOM     23  C   UNL d   1       7.854   1.685 -15.438  0.00  0.00     0.059 A 
ATOM     24  C   UNL d   1       9.090   2.280 -15.123  0.00  0.00     0.013 A 
ATOM     25 CL   UNL d   1       7.746   0.516 -16.695  0.00  0.00    -0.082 Cl
ATOM     26  C   UNL d   1       9.160   3.248 -14.102  0.00  0.00     0.019 A 
ENDBRANCH   4  19
TORSDOF 5
