REMARK  10 active torsions:
REMARK  status: ('A' for Active; 'I' for Inactive)
REMARK    1  A    between atoms: S_2  and  C_3 
REMARK    2  A    between atoms: C_8  and  N_9 
REMARK    3  A    between atoms: N_12  and  C_13 
REMARK    4  A    between atoms: C_13  and  C_14 
REMARK    5  A    between atoms: C_14  and  C_15 
REMARK    6  A    between atoms: C_15  and  C_16 
REMARK    7  A    between atoms: C_16  and  C_17 
REMARK    8  A    between atoms: C_17  and  C_18 
REMARK       I    between atoms: C_18  and  N_20 
REMARK    9  A    between atoms: N_20  and  C_21 
REMARK   10  A    between atoms: C_21  and  C_22 
ROOT
ATOM      1  C   UNL d   1       9.281   6.194 -11.175  0.00  0.00     0.250 C 
ENDROOT
BRANCH   1   2
ATOM      2  N   UNL d   1       9.039   5.463 -12.410  0.00  0.00     0.141 N 
ATOM      3  C   UNL d   1       7.596   5.389 -12.648  0.00  0.00     0.274 C 
ATOM      4  C   UNL d   1       7.343   4.618 -13.947  0.00  0.00     0.137 C 
ATOM      5  N   UNL d   1       7.952   3.292 -13.915  0.00  0.00    -0.344 N 
ATOM      6  C   UNL d   1       9.358   3.297 -13.543  0.00  0.00     0.137 C 
ATOM      7  C   UNL d   1       9.561   4.099 -12.262  0.00  0.00     0.274 C 
BRANCH   5   8
ATOM      8  C   UNL d   1       7.237   2.157 -14.258  0.00  0.00     0.062 A 
ATOM      9  C   UNL d   1       7.717   1.158 -15.169  0.00  0.00     0.041 A 
ATOM     10  C   UNL d   1       6.977  -0.011 -15.384  0.00  0.00     0.008 A 
ATOM     11  C   UNL d   1       5.748  -0.228 -14.727  0.00  0.00     0.001 A 
ATOM     12  C   UNL d   1       5.260   0.736 -13.845  0.00  0.00     0.002 A 
ATOM     13  C   UNL d   1       5.985   1.923 -13.634  0.00  0.00     0.017 A 
BRANCH   9  14
ATOM     14  S   UNL d   1       9.239   1.321 -16.068  0.00  0.00    -0.111 SA
ATOM     15  C   UNL d   1       9.201   2.913 -16.930  0.00  0.00     0.074 C 
ENDBRANCH   9  14
ENDBRANCH   5   8
ENDBRANCH   1   2
BRANCH   1  16
ATOM     16  C   UNL d   1       9.260   7.711 -11.415  0.00  0.00     0.035 C 
BRANCH  16  17
ATOM     17  C   UNL d   1       9.669   8.487 -10.158  0.00  0.00     0.003 C 
BRANCH  17  18
ATOM     18  C   UNL d   1      11.149   8.276  -9.782  0.00  0.00     0.010 C 
BRANCH  18  19
ATOM     19  C   UNL d   1      11.627   9.256  -8.721  0.00  0.00     0.090 C 
BRANCH  19  20
ATOM     20  C   UNL d   1      10.951   9.159  -7.343  0.00  0.00     0.252 C 
ATOM     21  O   UNL d   1      10.071   8.331  -7.108  0.00  0.00    -0.271 OA
ATOM     22  N   UNL d   1      11.371  10.036  -6.420  0.00  0.00    -0.233 NA
BRANCH  22  23
ATOM     23  C   UNL d   1      10.901  10.074  -5.046  0.00  0.00     0.155 C 
BRANCH  23  24
ATOM     24  C   UNL d   1      11.503   9.026  -4.114  0.00  0.00     0.005 A 
ATOM     25  C   UNL d   1      12.004   9.406  -2.863  0.00  0.00     0.018 A 
ATOM     26  C   UNL d   1      12.578   8.435  -2.027  0.00  0.00     0.099 A 
ATOM     27  N   UNL d   1      12.645   7.126  -2.366  0.00  0.00    -0.243 NA
ATOM     28  C   UNL d   1      12.132   6.757  -3.548  0.00  0.00     0.099 A 
ATOM     29  C   UNL d   1      11.550   7.648  -4.453  0.00  0.00     0.018 A 
ENDBRANCH  23  24
ENDBRANCH  22  23
ENDBRANCH  19  20
ENDBRANCH  18  19
ENDBRANCH  17  18
ENDBRANCH  16  17
ENDBRANCH   1  16
TORSDOF 10
