REMARK  7 active torsions:
REMARK  status: ('A' for Active; 'I' for Inactive)
REMARK    1  A    between atoms: O_2  and  C_3 
REMARK    2  A    between atoms: C_4  and  C_5 
REMARK       I    between atoms: C_5  and  N_7 
REMARK    3  A    between atoms: N_7  and  C_8 
REMARK    4  A    between atoms: C_8  and  C_9 
REMARK    5  A    between atoms: C_9  and  N_10 
REMARK    6  A    between atoms: N_13  and  C_14 
REMARK    7  A    between atoms: C_18  and  N_19 
ROOT
ATOM      1  C   UNL d   1       8.373   5.659 -11.979  0.00  0.00     0.164 C 
ENDROOT
BRANCH   1   2
ATOM      2  N   UNL d   1       8.443   4.637 -13.017  0.00  0.00    -0.232 NA
ATOM      3  C   UNL d   1       9.576   4.234 -13.611  0.00  0.00     0.277 C 
ATOM      4  O   UNL d   1      10.660   4.766 -13.363  0.00  0.00    -0.266 OA
BRANCH   3   5
ATOM      5  C   UNL d   1       9.445   3.087 -14.594  0.00  0.00     0.080 A 
ATOM      6  C   UNL d   1      10.519   2.691 -15.443  0.00  0.00     0.099 A 
ATOM      7  C   UNL d   1      10.375   1.562 -16.288  0.00  0.00     0.023 A 
ATOM      8  C   UNL d   1       9.147   0.849 -16.340  0.00  0.00     0.008 A 
ATOM      9  C   UNL d   1      11.451   1.136 -17.100  0.00  0.00     0.002 A 
ATOM     10  C   UNL d   1       8.075   1.261 -15.522  0.00  0.00     0.035 A 
ATOM     11  C   UNL d   1       9.014  -0.257 -17.211  0.00  0.00     0.001 A 
ATOM     12  C   UNL d   1       8.231   2.356 -14.664  0.00  0.00     0.013 A 
ATOM     13 BR   UNL d   1       6.385   0.381 -15.526  0.00  0.00    -0.049 Br
ATOM     14  C   UNL d   1      10.095  -0.672 -18.012  0.00  0.00     0.000 A 
ATOM     15  C   UNL d   1      11.315   0.027 -17.957  0.00  0.00     0.000 A 
BRANCH   6  16
ATOM     16  O   UNL d   1      11.723   3.355 -15.450  0.00  0.00    -0.328 OA
ATOM     17  C   UNL d   1      11.726   4.545 -16.227  0.00  0.00     0.181 C 
ENDBRANCH   6  16
ENDBRANCH   3   5
ENDBRANCH   1   2
BRANCH   1  18
ATOM     18  C   UNL d   1       9.202   5.226 -10.753  0.00  0.00     0.277 C 
BRANCH  18  19
ATOM     19  N   UNL d   1       9.042   6.160  -9.655  0.00  0.00     0.143 N 
ATOM     20  C   UNL d   1       9.399   5.531  -8.390  0.00  0.00     0.274 C 
ATOM     21  C   UNL d   1       9.127   6.516  -7.244  0.00  0.00     0.137 C 
ATOM     22  N   UNL d   1       9.908   7.744  -7.433  0.00  0.00    -0.344 N 
ATOM     23  C   UNL d   1       9.650   8.372  -8.736  0.00  0.00     0.137 C 
ATOM     24  C   UNL d   1       9.859   7.358  -9.865  0.00  0.00     0.274 C 
BRANCH  22  25
ATOM     25  C   UNL d   1      10.777   8.259  -6.470  0.00  0.00     0.058 A 
ATOM     26  C   UNL d   1      10.985   7.643  -5.197  0.00  0.00     0.040 A 
ATOM     27  C   UNL d   1      11.865   8.176  -4.226  0.00  0.00     0.128 A 
ATOM     28  C   UNL d   1      12.578   9.346  -4.516  0.00  0.00     0.024 A 
ATOM     29  C   UNL d   1      12.375   9.980  -5.754  0.00  0.00     0.003 A 
ATOM     30  C   UNL d   1      11.510   9.445  -6.713  0.00  0.00     0.017 A 
BRANCH  27  31
ATOM     31  N   UNL d   1      12.032   7.513  -2.917  0.00  0.00    -0.114 N 
ATOM     32  O   UNL d   1      11.520   6.408  -2.761  0.00  0.00    -0.532 OA
ATOM     33  O   UNL d   1      12.661   8.095  -2.044  0.00  0.00    -0.532 OA
ENDBRANCH  27  31
ENDBRANCH  22  25
ENDBRANCH  18  19
ENDBRANCH   1  18
TORSDOF 7
