REMARK  9 active torsions:
REMARK  status: ('A' for Active; 'I' for Inactive)
REMARK       I    between atoms: C_2  and  N_3 
REMARK    1  A    between atoms: C_2  and  C_24 
REMARK    2  A    between atoms: N_3  and  C_4 
REMARK    3  A    between atoms: C_4  and  C_5 
REMARK    4  A    between atoms: C_6  and  C_7 
REMARK    5  A    between atoms: C_7  and  N_8 
REMARK    6  A    between atoms: N_11  and  C_12 
REMARK    7  A    between atoms: C_17  and  O_18 
REMARK    8  A    between atoms: O_18  and  C_19 
REMARK    9  A    between atoms: C_19  and  C_20 
ROOT
ATOM      1  C   UNL d   1       8.675   4.710 -14.405  0.00  0.00     0.276 C 
ENDROOT
BRANCH   1   2
ATOM      2  C   UNL d   1       8.715   4.404 -12.924  0.00  0.00     0.006 C 
ATOM      3  C   UNL d   1       8.646   5.370 -11.998  0.00  0.00    -0.003 C 
BRANCH   3   4
ATOM      4  C   UNL d   1       8.727   5.131 -10.514  0.00  0.00     0.155 C 
BRANCH   4   5
ATOM      5  N   UNL d   1       9.855   5.764  -9.857  0.00  0.00    -0.228 NA
ATOM      6  C   UNL d   1      10.041   7.086  -9.720  0.00  0.00     0.293 C 
ATOM      7  O   UNL d   1       9.761   7.929 -10.578  0.00  0.00    -0.264 OA
BRANCH   6   8
ATOM      8  C   UNL d   1      10.517   7.516  -8.403  0.00  0.00     0.139 A 
ATOM      9  N   UNL d   1      10.740   6.603  -7.373  0.00  0.00    -0.241 NA
ATOM     10  C   UNL d   1      11.105   7.258  -6.220  0.00  0.00     0.082 A 
ATOM     11  C   UNL d   1      11.076   8.653  -6.529  0.00  0.00     0.021 A 
ATOM     12  C   UNL d   1      11.460   6.784  -4.951  0.00  0.00     0.021 A 
ATOM     13  C   UNL d   1      10.696   8.781  -7.910  0.00  0.00     0.026 A 
ATOM     14  C   UNL d   1      11.388   9.554  -5.485  0.00  0.00     0.029 A 
ATOM     15  C   UNL d   1      11.746   9.082  -4.207  0.00  0.00     0.131 A 
ATOM     16  O   UNL d   1      11.954   9.976  -3.201  0.00  0.00    -0.190 OA
ATOM     17  C   UNL d   1      11.836   7.696  -3.951  0.00  0.00     0.029 A 
ENDBRANCH   6   8
ENDBRANCH   4   5
ENDBRANCH   3   4
ENDBRANCH   1   2
BRANCH   1  18
ATOM     18  N   UNL d   1       9.932   4.370 -15.068  0.00  0.00     0.145 N 
ATOM     19  C   UNL d   1      11.097   5.023 -14.451  0.00  0.00     0.275 C 
ATOM     20  C   UNL d   1      12.391   4.593 -15.160  0.00  0.00     0.137 C 
ATOM     21  N   UNL d   1      12.317   4.891 -16.584  0.00  0.00    -0.343 N 
ATOM     22  C   UNL d   1      11.147   4.306 -17.227  0.00  0.00     0.137 C 
ATOM     23  C   UNL d   1       9.871   4.764 -16.487  0.00  0.00     0.275 C 
BRANCH  21  24
ATOM     24  C   UNL d   1      13.246   5.737 -17.223  0.00  0.00     0.079 A 
ATOM     25  C   UNL d   1      12.867   6.723 -18.170  0.00  0.00     0.110 A 
ATOM     26  C   UNL d   1      13.886   7.476 -18.835  0.00  0.00     0.026 A 
ATOM     27  C   UNL d   1      15.247   7.271 -18.541  0.00  0.00     0.002 A 
ATOM     28  C   UNL d   1      15.611   6.331 -17.573  0.00  0.00     0.002 A 
ATOM     29  C   UNL d   1      14.616   5.570 -16.921  0.00  0.00     0.019 A 
BRANCH  25  30
ATOM     30  O   UNL d   1      11.523   6.902 -18.408  0.00  0.00    -0.326 OA
BRANCH  30  31
ATOM     31  C   UNL d   1      11.123   7.672 -19.537  0.00  0.00     0.187 C 
BRANCH  31  32
ATOM     32  C   UNL d   1       9.657   7.333 -19.806  0.00  0.00     0.226 C 
ATOM     33  F   UNL d   1       9.203   8.044 -20.835  0.00  0.00    -0.232 F 
ENDBRANCH  31  32
ENDBRANCH  30  31
ENDBRANCH  25  30
ENDBRANCH  21  24
ENDBRANCH   1  18
TORSDOF 9
