REMARK  7 active torsions:
REMARK  status: ('A' for Active; 'I' for Inactive)
REMARK    1  A    between atoms: C_2  and  C_3 
REMARK    2  A    between atoms: C_7  and  O_8 
REMARK    3  A    between atoms: C_10  and  C_11 
REMARK       I    between atoms: C_11  and  N_13 
REMARK    4  A    between atoms: N_13  and  C_14 
REMARK    5  A    between atoms: C_14  and  C_15 
REMARK    6  A    between atoms: N_19  and  C_20 
REMARK    7  A    between atoms: C_22  and  C_23 
ROOT
ATOM      1  C   UNL d   1       9.932   7.224  -7.623  0.00  0.00    -0.024 A 
ATOM      2  C   UNL d   1      10.435   8.488  -7.954  0.00  0.00     0.025 A 
ATOM      3  C   UNL d   1      10.547   8.844  -9.293  0.00  0.00     0.153 A 
ATOM      4  O   UNL d   1      11.196   9.982  -9.613  0.00  0.00    -0.188 OA
ATOM      5  C   UNL d   1      10.084   8.029 -10.324  0.00  0.00     0.124 A 
ATOM      6  C   UNL d   1       9.577   6.777 -10.038  0.00  0.00     0.078 A 
ATOM      7  C   UNL d   1       9.532   6.335  -8.683  0.00  0.00    -0.019 A 
ENDROOT
BRANCH   6   8
ATOM      8  C   UNL d   1       9.144   5.921 -11.177  0.00  0.00     0.277 C 
ATOM      9  O   UNL d   1       9.823   5.827 -12.213  0.00  0.00    -0.266 OA
ATOM     10  N   UNL d   1       8.020   5.260 -10.974  0.00  0.00    -0.232 NA
BRANCH  10  11
ATOM     11  C   UNL d   1       7.721   4.135 -11.773  0.00  0.00     0.162 C 
BRANCH  11  12
ATOM     12  C   UNL d   1       7.122   4.580 -13.092  0.00  0.00     0.243 C 
ATOM     13  N   UNL d   1       7.054   3.483 -14.049  0.00  0.00     0.137 N 
ATOM     14  C   UNL d   1       5.901   2.696 -13.654  0.00  0.00     0.250 C 
ATOM     15  C   UNL d   1       4.885   3.757 -13.220  0.00  0.00     0.037 C 
ATOM     16  C   UNL d   1       5.667   4.993 -12.838  0.00  0.00     0.037 C 
BRANCH  13  17
ATOM     17  C   UNL d   1       8.268   2.700 -14.311  0.00  0.00     0.250 C 
ATOM     18  C   UNL d   1       9.411   3.589 -14.826  0.00  0.00     0.037 C 
ENDBRANCH  13  17
ENDBRANCH  11  12
ENDBRANCH  10  11
ENDBRANCH   6   8
BRANCH   5  19
ATOM     19  O   UNL d   1      10.173   8.403 -11.625  0.00  0.00    -0.326 OA
ATOM     20  C   UNL d   1       8.977   8.953 -12.155  0.00  0.00     0.181 C 
ENDBRANCH   5  19
BRANCH   7  21
ATOM     21  C   UNL d   1       9.045   4.936  -8.387  0.00  0.00     0.026 C 
ATOM     22  C   UNL d   1       9.870   3.780  -8.971  0.00  0.00     0.005 C 
ENDBRANCH   7  21
BRANCH   1  23
ATOM     23  C   UNL d   1       9.849   6.968  -6.116  0.00  0.00     0.026 C 
ATOM     24  C   UNL d   1      11.239   6.804  -5.475  0.00  0.00     0.005 C 
ENDBRANCH   1  23
TORSDOF 7
