REMARK  8 active torsions:
REMARK  status: ('A' for Active; 'I' for Inactive)
REMARK    1  A    between atoms: C_6  and  C_7 
REMARK    2  A    between atoms: C_10  and  S_11 
REMARK    3  A    between atoms: S_11  and  C_12 
REMARK    4  A    between atoms: C_12  and  C_13 
REMARK    5  A    between atoms: C_13  and  C_14 
REMARK    6  A    between atoms: C_14  and  N_15 
REMARK    7  A    between atoms: C_19  and  C_20 
REMARK    8  A    between atoms: C_23  and  C_24 
ROOT
ATOM      1  N   UNL d   1      10.216   5.192 -13.291  0.00  0.00     0.137 N 
ATOM      2  C   UNL d   1       9.379   4.060 -12.874  0.00  0.00     0.251 C 
ATOM      3  C   UNL d   1       8.808   4.526 -11.560  0.00  0.00     0.039 A 
ATOM      4  C   UNL d   1       7.527   5.315 -11.431  0.00  0.00     0.008 A 
ATOM      5  C   UNL d   1       8.863   6.011 -11.537  0.00  0.00     0.052 A 
ATOM      6  C   UNL d   1       9.460   6.372 -12.878  0.00  0.00     0.254 C 
ENDROOT
BRANCH   1   7
ATOM      7  C   UNL d   1      10.507   5.235 -14.724  0.00  0.00     0.251 C 
BRANCH   7   8
ATOM      8  C   UNL d   1      11.279   3.988 -15.171  0.00  0.00     0.047 C 
BRANCH   8   9
ATOM      9  C   UNL d   1      11.566   3.954 -16.687  0.00  0.00     0.067 C 
BRANCH   9  10
ATOM     10  S   UNL d   1      11.735   2.240 -17.277  0.00  0.00    -0.075 SA
BRANCH  10  11
ATOM     11  C   UNL d   1      10.055   1.702 -17.127  0.00  0.00     0.193 A 
ATOM     12  N   UNL d   1       9.157   1.824 -18.101  0.00  0.00    -0.122 NA
ATOM     13  N   UNL d   1       7.976   1.344 -17.582  0.00  0.00    -0.126 NA
ATOM     14  C   UNL d   1       8.252   0.960 -16.331  0.00  0.00     0.191 A 
ATOM     15  N   UNL d   1       9.552   1.145 -16.003  0.00  0.00    -0.287 N 
ATOM     16  C   UNL d   1      10.215   0.862 -14.740  0.00  0.00     0.134 C 
BRANCH  14  17
ATOM     17  C   UNL d   1       7.218   0.422 -15.441  0.00  0.00     0.151 A 
ATOM     18  C   UNL d   1       5.954  -0.056 -15.675  0.00  0.00     0.087 A 
ATOM     19  C   UNL d   1       5.209  -0.191 -16.964  0.00  0.00     0.054 C 
ATOM     20  N   UNL d   1       5.401  -0.453 -14.464  0.00  0.00    -0.221 NA
ATOM     21  C   UNL d   1       6.355  -0.215 -13.573  0.00  0.00     0.225 A 
ATOM     22  O   UNL d   1       7.481   0.329 -14.100  0.00  0.00    -0.282 OA
ENDBRANCH  14  17
ENDBRANCH  10  11
ENDBRANCH   9  10
ENDBRANCH   8   9
ENDBRANCH   7   8
ENDBRANCH   1   7
BRANCH   5  23
ATOM     23  C   UNL d   1       9.479   6.676 -10.315  0.00  0.00    -0.021 A 
ATOM     24  C   UNL d   1       9.969   8.001 -10.394  0.00  0.00    -0.004 A 
ATOM     25  C   UNL d   1      10.543   8.626  -9.271  0.00  0.00     0.004 A 
ATOM     26  C   UNL d   1      10.620   7.946  -8.040  0.00  0.00     0.071 A 
ATOM     27  C   UNL d   1      10.117   6.638  -7.937  0.00  0.00     0.004 A 
ATOM     28  C   UNL d   1       9.546   6.018  -9.059  0.00  0.00    -0.004 A 
BRANCH  26  29
ATOM     29  C   UNL d   1      11.237   8.616  -6.832  0.00  0.00     0.419 C 
ATOM     30  F   UNL d   1      12.406   9.135  -7.196  0.00  0.00    -0.166 F 
ATOM     31  F   UNL d   1      10.431   9.589  -6.410  0.00  0.00    -0.166 F 
ATOM     32  F   UNL d   1      11.435   7.768  -5.824  0.00  0.00    -0.166 F 
ENDBRANCH  26  29
ENDBRANCH   5  23
TORSDOF 8
