REMARK  6 active torsions:
REMARK  status: ('A' for Active; 'I' for Inactive)
REMARK    1  A    between atoms: C_2  and  C_3 
REMARK    2  A    between atoms: C_3  and  N_4 
REMARK    3  A    between atoms: N_4  and  C_5 
REMARK    4  A    between atoms: N_4  and  C_8 
REMARK    5  A    between atoms: C_5  and  C_6 
REMARK    6  A    between atoms: C_12  and  O_13 
ROOT
ATOM      1  C   UNL d   1       9.174   6.533 -10.578  0.00  0.00     0.224 C 
ATOM      2  C   UNL d   1      10.519   7.246 -10.707  0.00  0.00     0.038 C 
ATOM      3  C   UNL d   1      10.880   8.265  -9.627  0.00  0.00     0.030 C 
ATOM      4  C   UNL d   1      10.488   7.827  -8.241  0.00  0.00    -0.004 C 
ATOM      5  C   UNL d   1      11.042   8.493  -7.124  0.00  0.00     0.090 C 
ATOM      6  C   UNL d   1      10.687   8.053  -5.818  0.00  0.00     0.024 C 
ATOM      7  C   UNL d   1       9.803   7.003  -5.686  0.00  0.00     0.002 C 
ATOM      8  C   UNL d   1       9.179   6.423  -6.792  0.00  0.00    -0.004 C 
ATOM      9  C   UNL d   1       9.560   6.771  -8.093  0.00  0.00    -0.023 C 
ATOM     10  C   UNL d   1       8.969   5.928  -9.212  0.00  0.00     0.053 C 
ATOM     11  C   UNL d   1       9.617   4.562  -9.177  0.00  0.00     0.007 C 
ENDROOT
BRANCH   1  12
ATOM     12  N   UNL d   1       8.712   5.745 -11.728  0.00  0.00     0.135 N 
BRANCH  12  13
ATOM     13  C   UNL d   1       7.446   5.027 -11.468  0.00  0.00     0.250 C 
BRANCH  13  14
ATOM     14  C   UNL d   1       7.067   4.125 -12.650  0.00  0.00     0.035 C 
ATOM     15  C   UNL d   1       5.770   3.381 -12.384  0.00  0.00     0.002 C 
ENDBRANCH  13  14
ENDBRANCH  12  13
BRANCH  12  16
ATOM     16  C   UNL d   1       8.579   6.623 -12.904  0.00  0.00     0.250 C 
BRANCH  16  17
ATOM     17  C   UNL d   1       7.459   7.703 -12.753  0.00  0.00     0.035 C 
ATOM     18  C   UNL d   1       7.961   9.085 -12.289  0.00  0.00     0.002 C 
ENDBRANCH  16  17
ENDBRANCH  12  16
ENDBRANCH   1  12
BRANCH   5  19
ATOM     19  O   UNL d   1      11.935   9.527  -7.305  0.00  0.00    -0.328 OA
ATOM     20  C   UNL d   1      12.266  10.320  -6.176  0.00  0.00     0.181 C 
ENDBRANCH   5  19
TORSDOF 6
