REMARK  2 active torsions:
REMARK  status: ('A' for Active; 'I' for Inactive)
REMARK    1  A    between atoms: C_6  and  C_7 
REMARK    2  A    between atoms: C_7  and  N_8 
ROOT
ATOM      1  F   UNL d   1      13.303   7.987  -9.535  0.00  0.00    -0.204 F 
ATOM      2  C   UNL d   1      12.184   8.134  -8.789  0.00  0.00     0.140 A 
ATOM      3  C   UNL d   1      10.955   7.619  -9.246  0.00  0.00     0.030 A 
ATOM      4  C   UNL d   1       9.795   7.769  -8.458  0.00  0.00     0.002 A 
ATOM      5  C   UNL d   1       9.860   8.445  -7.222  0.00  0.00    -0.002 A 
ATOM      6  C   UNL d   1      11.087   8.961  -6.762  0.00  0.00     0.013 A 
ATOM      7  C   UNL d   1      12.246   8.791  -7.545  0.00  0.00     0.027 A 
ENDROOT
BRANCH   6   8
ATOM      8  C   UNL d   1      11.161   9.643  -5.409  0.00  0.00     0.277 C 
BRANCH   8   9
ATOM      9  N   UNL d   1      12.027   8.948  -4.450  0.00  0.00     0.141 N 
ATOM     10  C   UNL d   1      11.820   9.451  -3.098  0.00  0.00     0.251 C 
ATOM     11  C   UNL d   1      12.433   8.397  -2.191  0.00  0.00     0.037 C 
ATOM     12  C   UNL d   1      12.393   7.122  -3.021  0.00  0.00     0.037 C 
ATOM     13  C   UNL d   1      11.737   7.522  -4.339  0.00  0.00     0.251 C 
ENDBRANCH   8   9
ENDBRANCH   6   8
TORSDOF 2
