REMARK  8 active torsions:
REMARK  status: ('A' for Active; 'I' for Inactive)
REMARK       I    between atoms: N_2  and  C_3 
REMARK    1  A    between atoms: C_3  and  C_5 
REMARK    2  A    between atoms: C_9  and  O_10 
REMARK    3  A    between atoms: O_10  and  C_11 
REMARK    4  A    between atoms: C_11  and  C_12 
REMARK    5  A    between atoms: C_12  and  C_13 
REMARK    6  A    between atoms: C_13  and  C_14 
REMARK    7  A    between atoms: C_14  and  N_15 
REMARK    8  A    between atoms: N_18  and  C_19 
ROOT
ATOM      1  N   UNL d   1       9.409   6.101 -10.368  0.00  0.00     0.141 N 
ATOM      2  C   UNL d   1       9.998   7.431 -10.545  0.00  0.00     0.274 C 
ATOM      3  C   UNL d   1      11.231   7.573  -9.628  0.00  0.00     0.138 C 
ATOM      4  N   UNL d   1      10.879   7.339  -8.221  0.00  0.00    -0.329 N 
ATOM      5  C   UNL d   1      10.094   6.131  -8.004  0.00  0.00     0.138 C 
ATOM      6  C   UNL d   1       8.928   6.032  -8.986  0.00  0.00     0.274 C 
ENDROOT
BRANCH   1   7
ATOM      7  C   UNL d   1       8.306   5.969 -11.318  0.00  0.00     0.251 C 
BRANCH   7   8
ATOM      8  C   UNL d   1       7.762   4.537 -11.410  0.00  0.00     0.038 C 
BRANCH   8   9
ATOM      9  C   UNL d   1       6.471   4.495 -12.256  0.00  0.00     0.035 C 
BRANCH   9  10
ATOM     10  C   UNL d   1       6.261   3.174 -12.985  0.00  0.00     0.149 C 
BRANCH  10  11
ATOM     11  O   UNL d   1       7.374   3.011 -13.856  0.00  0.00    -0.329 OA
BRANCH  11  12
ATOM     12  C   UNL d   1       7.369   1.975 -14.758  0.00  0.00     0.113 A 
ATOM     13  C   UNL d   1       8.471   1.853 -15.629  0.00  0.00     0.123 A 
ATOM     14  N   UNL d   1       8.552   0.936 -16.616  0.00  0.00    -0.240 NA
ATOM     15  C   UNL d   1       7.519   0.083 -16.768  0.00  0.00     0.104 A 
ATOM     16  C   UNL d   1       6.374   0.092 -15.939  0.00  0.00     0.079 A 
ATOM     17  C   UNL d   1       6.322   1.035 -14.892  0.00  0.00     0.032 A 
BRANCH  16  18
ATOM     18  C   UNL d   1       5.258  -0.895 -16.121  0.00  0.00     0.277 C 
ATOM     19  N   UNL d   1       5.067  -1.339 -17.374  0.00  0.00    -0.232 NA
ATOM     20  C   UNL d   1       4.087  -2.345 -17.749  0.00  0.00     0.155 C 
ATOM     21  O   UNL d   1       4.546  -1.212 -15.168  0.00  0.00    -0.266 OA
ENDBRANCH  16  18
ENDBRANCH  11  12
ENDBRANCH  10  11
ENDBRANCH   9  10
ENDBRANCH   8   9
ENDBRANCH   7   8
ENDBRANCH   1   7
BRANCH   4  22
ATOM     22  C   UNL d   1      11.093   8.282  -7.181  0.00  0.00     0.148 A 
ATOM     23  C   UNL d   1      11.359   7.902  -5.793  0.00  0.00     0.042 A 
ATOM     24  C   UNL d   1      11.592   9.063  -5.003  0.00  0.00     0.053 A 
ATOM     25  C   UNL d   1      11.484   6.660  -5.130  0.00  0.00     0.006 A 
ATOM     26  S   UNL d   1      11.467  10.439  -6.056  0.00  0.00     0.015 SA
ATOM     27  C   UNL d   1      11.907   9.002  -3.630  0.00  0.00     0.038 A 
ATOM     28  N   UNL d   1      11.117   9.568  -7.443  0.00  0.00    -0.192 NA
ATOM     29  C   UNL d   1      12.012   7.750  -3.004  0.00  0.00     0.141 A 
ATOM     30  F   UNL d   1      12.313   7.677  -1.689  0.00  0.00    -0.204 F 
ATOM     31  C   UNL d   1      11.810   6.584  -3.760  0.00  0.00     0.030 A 
ENDBRANCH   4  22
TORSDOF 8
