REMARK  8 active torsions:
REMARK  status: ('A' for Active; 'I' for Inactive)
REMARK    1  A    between atoms: C_2  and  C_3 
REMARK    2  A    between atoms: C_3  and  N_4 
REMARK    3  A    between atoms: N_4  and  C_5 
REMARK    4  A    between atoms: N_4  and  C_20 
REMARK    5  A    between atoms: C_5  and  C_6 
REMARK    6  A    between atoms: C_6  and  C_7 
REMARK    7  A    between atoms: C_7  and  N_8 
REMARK    8  A    between atoms: N_11  and  C_12 
ROOT
ATOM      1  N   UNL d   1      10.137   7.966  -8.437  0.00  0.00     0.135 N 
ENDROOT
BRANCH   1   2
ATOM      2  C   UNL d   1      11.130   8.623  -9.313  0.00  0.00     0.250 C 
BRANCH   2   3
ATOM      3  C   UNL d   1      12.571   8.216  -8.926  0.00  0.00     0.035 C 
ATOM      4  C   UNL d   1      13.402   7.699 -10.084  0.00  0.00     0.002 C 
ENDBRANCH   2   3
ENDBRANCH   1   2
BRANCH   1   5
ATOM      5  C   UNL d   1      10.003   6.529  -8.724  0.00  0.00     0.252 C 
BRANCH   5   6
ATOM      6  C   UNL d   1       9.452   6.275 -10.107  0.00  0.00     0.071 C 
BRANCH   6   7
ATOM      7  C   UNL d   1       8.773   4.902 -10.240  0.00  0.00     0.253 C 
BRANCH   7   8
ATOM      8  N   UNL d   1       8.597   4.462 -11.628  0.00  0.00     0.141 N 
ATOM      9  C   UNL d   1       8.414   5.576 -12.569  0.00  0.00     0.274 C 
ATOM     10  C   UNL d   1       8.241   5.088 -14.006  0.00  0.00     0.137 C 
ATOM     11  N   UNL d   1       9.350   4.206 -14.374  0.00  0.00    -0.344 N 
ATOM     12  C   UNL d   1       9.555   3.096 -13.445  0.00  0.00     0.137 C 
ATOM     13  C   UNL d   1       9.739   3.648 -12.036  0.00  0.00     0.274 C 
BRANCH  11  14
ATOM     14  C   UNL d   1      10.137   4.399 -15.510  0.00  0.00     0.056 A 
ATOM     15  C   UNL d   1      11.443   3.852 -15.585  0.00  0.00     0.017 A 
ATOM     16  C   UNL d   1      12.242   4.022 -16.726  0.00  0.00     0.002 A 
ATOM     17  C   UNL d   1      11.752   4.751 -17.818  0.00  0.00     0.000 A 
ATOM     18  C   UNL d   1      10.465   5.310 -17.771  0.00  0.00     0.002 A 
ATOM     19  C   UNL d   1       9.665   5.141 -16.624  0.00  0.00     0.017 A 
ENDBRANCH  11  14
ENDBRANCH   7   8
ENDBRANCH   6   7
ENDBRANCH   5   6
ENDBRANCH   1   5
BRANCH   1  20
ATOM     20  C   UNL d   1      10.236   8.199  -6.974  0.00  0.00     0.224 C 
ATOM     21  C   UNL d   1      11.141   7.198  -6.237  0.00  0.00     0.059 C 
ATOM     22  C   UNL d   1      11.403   7.581  -4.826  0.00  0.00    -0.022 A 
ATOM     23  C   UNL d   1      11.313   8.915  -4.348  0.00  0.00    -0.026 A 
ATOM     24  C   UNL d   1      12.018   6.606  -4.049  0.00  0.00     0.023 A 
ATOM     25  C   UNL d   1      10.681   9.995  -5.175  0.00  0.00     0.028 C 
ATOM     26  C   UNL d   1      11.723   9.208  -3.046  0.00  0.00    -0.003 A 
ATOM     27  C   UNL d   1      10.626   9.680  -6.668  0.00  0.00     0.038 C 
ATOM     28  C   UNL d   1      12.267   8.200  -2.244  0.00  0.00     0.027 A 
ATOM     29  C   UNL d   1      12.455   6.924  -2.767  0.00  0.00     0.131 A 
ATOM     30  O   UNL d   1      13.030   5.994  -2.006  0.00  0.00    -0.190 OA
ENDBRANCH   1  20
TORSDOF 8
