REMARK  7 active torsions:
REMARK  status: ('A' for Active; 'I' for Inactive)
REMARK    1  A    between atoms: C_2  and  C_5 
REMARK    2  A    between atoms: C_5  and  C_6 
REMARK       I    between atoms: C_6  and  N_8 
REMARK    3  A    between atoms: N_8  and  C_9 
REMARK    4  A    between atoms: C_12  and  C_13 
REMARK    5  A    between atoms: C_13  and  C_14 
REMARK    6  A    between atoms: C_14  and  N_15 
REMARK    7  A    between atoms: N_18  and  C_19 
ROOT
ATOM      1  C   UNL d   1       6.986   1.331 -14.242  0.00  0.00     0.250 C 
ENDROOT
BRANCH   1   2
ATOM      2  C   UNL d   1       7.253   2.769 -14.711  0.00  0.00     0.035 C 
BRANCH   2   3
ATOM      3  C   UNL d   1       7.920   3.648 -13.644  0.00  0.00     0.002 C 
ATOM      4  C   UNL d   1       8.824   4.735 -14.252  0.00  0.00     0.002 C 
ATOM      5  C   UNL d   1       9.492   5.565 -13.152  0.00  0.00     0.024 C 
ATOM      6  C   UNL d   1       8.448   6.180 -12.196  0.00  0.00     0.106 C 
ATOM      7  C   UNL d   1       7.475   5.113 -11.627  0.00  0.00     0.024 C 
ATOM      8  C   UNL d   1       6.841   4.282 -12.734  0.00  0.00     0.002 C 
BRANCH   6   9
ATOM      9  N   UNL d   1       9.115   6.966 -11.161  0.00  0.00    -0.240 NA
ATOM     10  C   UNL d   1       9.834   6.514 -10.122  0.00  0.00     0.254 C 
ATOM     11  O   UNL d   1       9.849   5.339  -9.763  0.00  0.00    -0.271 OA
BRANCH  10  12
ATOM     12  C   UNL d   1      10.695   7.533  -9.383  0.00  0.00     0.120 C 
BRANCH  12  13
ATOM     13  C   UNL d   1      10.420   7.616  -7.862  0.00  0.00     0.136 C 
ATOM     14  C   UNL d   1       8.938   7.881  -7.537  0.00  0.00     0.034 C 
ATOM     15  C   UNL d   1      11.309   8.704  -7.252  0.00  0.00     0.034 C 
ATOM     16  O   UNL d   1      10.787   6.406  -7.227  0.00  0.00    -0.226 OA
ENDBRANCH  12  13
ENDBRANCH  10  12
ENDBRANCH   6   9
ENDBRANCH   2   3
ENDBRANCH   1   2
BRANCH   1  17
ATOM     17  N   UNL d   1       6.062   0.639 -15.150  0.00  0.00     0.141 N 
ATOM     18  C   UNL d   1       6.669   0.444 -16.468  0.00  0.00     0.274 C 
ATOM     19  C   UNL d   1       5.682  -0.243 -17.418  0.00  0.00     0.137 C 
ATOM     20  N   UNL d   1       5.231  -1.506 -16.850  0.00  0.00    -0.343 N 
ATOM     21  C   UNL d   1       4.712  -1.397 -15.490  0.00  0.00     0.137 C 
ATOM     22  C   UNL d   1       5.726  -0.667 -14.586  0.00  0.00     0.274 C 
BRANCH  20  23
ATOM     23  C   UNL d   1       5.320  -2.733 -17.547  0.00  0.00     0.081 A 
ATOM     24  C   UNL d   1       5.283  -2.798 -18.951  0.00  0.00     0.135 A 
ATOM     25  C   UNL d   1       5.380  -3.999 -19.644  0.00  0.00     0.121 A 
ATOM     26  O   UNL d   1       5.129  -1.789 -19.858  0.00  0.00    -0.298 OA
ATOM     27  C   UNL d   1       5.511  -5.224 -18.973  0.00  0.00     0.026 A 
ATOM     28  O   UNL d   1       5.307  -3.765 -20.972  0.00  0.00    -0.299 OA
ATOM     29  C   UNL d   1       5.548  -5.202 -17.569  0.00  0.00     0.004 A 
ATOM     30  C   UNL d   1       5.455  -3.965 -16.860  0.00  0.00     0.019 A 
ATOM     31  C   UNL d   1       5.176  -2.377 -21.120  0.00  0.00     0.304 A 
ENDBRANCH  20  23
ENDBRANCH   1  17
TORSDOF 7
