REMARK  4 active torsions:
REMARK  status: ('A' for Active; 'I' for Inactive)
REMARK    1  A    between atoms: O_2  and  C_3 
REMARK    2  A    between atoms: C_8  and  N_9 
REMARK    3  A    between atoms: N_12  and  C_13 
REMARK    4  A    between atoms: C_13  and  C_14 
ROOT
ATOM      1  N   UNL d   1       9.696   3.740 -14.798  0.00  0.00    -0.343 N 
ATOM      2  C   UNL d   1       9.541   5.183 -14.738  0.00  0.00     0.137 C 
ATOM      3  C   UNL d   1       8.784   5.588 -13.447  0.00  0.00     0.274 C 
ATOM      4  N   UNL d   1       9.473   5.074 -12.262  0.00  0.00     0.141 N 
ATOM      5  C   UNL d   1       9.500   3.610 -12.364  0.00  0.00     0.274 C 
ATOM      6  C   UNL d   1      10.275   3.136 -13.608  0.00  0.00     0.137 C 
ENDROOT
BRANCH   4   7
ATOM      7  C   UNL d   1       8.763   5.487 -11.042  0.00  0.00     0.251 C 
BRANCH   7   8
ATOM      8  C   UNL d   1       9.674   6.318 -10.121  0.00  0.00     0.045 C 
ATOM      9  C   UNL d   1       9.145   6.273  -8.683  0.00  0.00     0.029 C 
ATOM     10  C   UNL d   1       9.954   7.126  -7.732  0.00  0.00    -0.019 A 
ATOM     11  C   UNL d   1      10.711   8.229  -8.190  0.00  0.00     0.031 A 
ATOM     12  C   UNL d   1       9.945   6.827  -6.362  0.00  0.00    -0.004 A 
ATOM     13  C   UNL d   1      10.757   8.585  -9.627  0.00  0.00     0.173 C 
ATOM     14  C   UNL d   1      11.445   9.003  -7.264  0.00  0.00     0.003 A 
ATOM     15  C   UNL d   1       9.867   7.777 -10.593  0.00  0.00     0.071 C 
ATOM     16  O   UNL d   1      11.459   9.497 -10.042  0.00  0.00    -0.291 OA
ATOM     17  C   UNL d   1      11.450   8.690  -5.899  0.00  0.00     0.000 A 
ATOM     18  C   UNL d   1      10.704   7.587  -5.456  0.00  0.00    -0.000 A 
ENDBRANCH   7   8
ENDBRANCH   4   7
BRANCH   1  19
ATOM     19  C   UNL d   1       9.247   2.984 -15.891  0.00  0.00     0.079 A 
ATOM     20  C   UNL d   1       8.431   1.835 -15.719  0.00  0.00     0.110 A 
ATOM     21  C   UNL d   1       8.020   1.098 -16.860  0.00  0.00     0.026 A 
ATOM     22  C   UNL d   1       8.393   1.508 -18.152  0.00  0.00     0.002 A 
ATOM     23  C   UNL d   1       9.179   2.660 -18.324  0.00  0.00     0.002 A 
ATOM     24  C   UNL d   1       9.601   3.394 -17.198  0.00  0.00     0.019 A 
BRANCH  20  25
ATOM     25  O   UNL d   1       8.044   1.508 -14.437  0.00  0.00    -0.327 OA
ATOM     26  C   UNL d   1       7.206   0.383 -14.242  0.00  0.00     0.181 C 
ENDBRANCH  20  25
ENDBRANCH   1  19
TORSDOF 4
