REMARK  3 active torsions:
REMARK  status: ('A' for Active; 'I' for Inactive)
REMARK    1  A    between atoms: N_3  and  C_4 
REMARK    2  A    between atoms: C_4  and  C_5 
REMARK    3  A    between atoms: N_13  and  C_14 
ROOT
ATOM      1  O   UNL d   1       8.272   7.608  -6.836  0.00  0.00    -0.247 OA
ATOM      2  C   UNL d   1       9.284   7.053  -7.252  0.00  0.00     0.328 A 
ATOM      3  N   UNL d   1       9.343   6.143  -8.229  0.00  0.00    -0.300 N 
ATOM      4  C   UNL d   1      10.672   5.679  -8.459  0.00  0.00     0.131 A 
ATOM      5  C   UNL d   1      11.515   6.447  -7.451  0.00  0.00     0.135 A 
ATOM      6  N   UNL d   1      10.525   7.236  -6.780  0.00  0.00    -0.280 N 
ENDROOT
BRANCH   3   7
ATOM      7  C   UNL d   1       8.264   5.569  -9.011  0.00  0.00     0.106 C 
BRANCH   7   8
ATOM      8  C   UNL d   1       8.604   5.246 -10.479  0.00  0.00     0.027 C 
ATOM      9  C   UNL d   1       7.331   4.798 -11.234  0.00  0.00     0.040 C 
ATOM     10  C   UNL d   1       7.612   4.446 -12.696  0.00  0.00     0.290 C 
ATOM     11  N   UNL d   1       8.207   5.585 -13.379  0.00  0.00     0.339 N 
ATOM     12  C   UNL d   1       9.446   5.972 -12.723  0.00  0.00     0.290 C 
ATOM     13  C   UNL d   1       9.204   6.428 -11.290  0.00  0.00     0.040 C 
ENDBRANCH   7   8
ENDBRANCH   3   7
BRANCH   6  14
ATOM     14  C   UNL d   1      10.883   8.093  -5.742  0.00  0.00     0.065 A 
ATOM     15  C   UNL d   1      11.520   7.586  -4.592  0.00  0.00     0.029 A 
ATOM     16  C   UNL d   1      11.827   8.454  -3.522  0.00  0.00     0.059 A 
ATOM     17  C   UNL d   1      11.496   9.817  -3.618  0.00  0.00     0.011 A 
ATOM     18 CL   UNL d   1      12.493   7.841  -2.055  0.00  0.00    -0.082 Cl
ATOM     19  C   UNL d   1      10.904  10.332  -4.783  0.00  0.00     0.002 A 
ATOM     20  C   UNL d   1      10.617   9.467  -5.854  0.00  0.00     0.017 A 
ENDBRANCH   6  14
TORSDOF 3
