REMARK  4 active torsions:
REMARK  status: ('A' for Active; 'I' for Inactive)
REMARK    1  A    between atoms: C_3  and  O_4 
REMARK    2  A    between atoms: O_4  and  C_5 
REMARK    3  A    between atoms: C_6  and  O_7 
REMARK    4  A    between atoms: C_15  and  N_16 
REMARK       I    between atoms: N_16  and  C_17 
ROOT
ATOM      1  C   UNL d   1      12.406   7.167 -16.026  0.00  0.00     0.079 C 
ATOM      2  C   UNL d   1      11.580   6.266 -16.056  0.00  0.00    -0.121 C 
ATOM      3  C   UNL d   1      10.584   5.189 -16.087  0.00  0.00     0.212 C 
ENDROOT
BRANCH   3   4
ATOM      4  O   UNL d   1      10.583   4.542 -14.823  0.00  0.00    -0.316 OA
BRANCH   4   5
ATOM      5  C   UNL d   1       9.887   3.357 -14.802  0.00  0.00     0.117 C 
ATOM      6  C   UNL d   1       8.604   3.276 -14.191  0.00  0.00     0.024 C 
ATOM      7  C   UNL d   1       7.868   2.088 -14.439  0.00  0.00     0.005 C 
ATOM      8  C   UNL d   1       8.005   4.359 -13.387  0.00  0.00    -0.000 A 
ATOM      9  C   UNL d   1       8.466   0.983 -15.056  0.00  0.00    -0.018 C 
ATOM     10  C   UNL d   1       6.417   1.956 -13.895  0.00  0.00     0.018 C 
ATOM     11  C   UNL d   1       9.785   1.046 -15.523  0.00  0.00     0.022 C 
ATOM     12  C   UNL d   1       7.631  -0.256 -15.072  0.00  0.00     0.044 C 
ATOM     13  C   UNL d   1      10.501   2.251 -15.439  0.00  0.00     0.116 C 
ATOM     14  C   UNL d   1       6.477  -0.361 -14.073  0.00  0.00     0.081 C 
ATOM     15  N   UNL d   1       5.617   0.787 -14.327  0.00  0.00    -0.254 NA
ATOM     16  C   UNL d   1       4.475   0.531 -13.452  0.00  0.00     0.094 C 
ATOM     17  C   UNL d   1       5.695   3.307 -13.854  0.00  0.00     0.064 C 
ATOM     18  C   UNL d   1       6.612   4.370 -13.264  0.00  0.00    -0.017 A 
ATOM     19  C   UNL d   1       5.974   5.478 -12.701  0.00  0.00    -0.002 A 
ATOM     20  C   UNL d   1       6.719   6.544 -12.187  0.00  0.00     0.019 A 
ATOM     21  C   UNL d   1       8.121   6.516 -12.229  0.00  0.00     0.084 A 
ATOM     22  C   UNL d   1       8.767   5.420 -12.828  0.00  0.00     0.019 A 
BRANCH  13  23
ATOM     23  O   UNL d   1      11.764   2.436 -15.951  0.00  0.00    -0.326 OA
ATOM     24  C   UNL d   1      12.186   1.545 -16.965  0.00  0.00     0.181 C 
ENDBRANCH  13  23
BRANCH  21  25
ATOM     25  N   UNL d   1       8.875   7.573 -11.674  0.00  0.00    -0.212 NA
ATOM     26  C   UNL d   1       9.794   7.422 -10.717  0.00  0.00     0.256 C 
ATOM     27  C   UNL d   1      10.316   8.719 -10.113  0.00  0.00     0.100 C 
ATOM     28  O   UNL d   1      10.180   6.318 -10.299  0.00  0.00    -0.270 OA
ENDBRANCH  21  25
ENDBRANCH   4   5
ENDBRANCH   3   4
TORSDOF 4
