REMARK  8 active torsions:
REMARK  status: ('A' for Active; 'I' for Inactive)
REMARK    1  A    between atoms: C_2  and  C_3 
REMARK       I    between atoms: C_2  and  N_21 
REMARK    2  A    between atoms: C_3  and  C_4 
REMARK    3  A    between atoms: C_4  and  C_5 
REMARK    4  A    between atoms: C_5  and  C_6 
REMARK    5  A    between atoms: C_6  and  C_7 
REMARK    6  A    between atoms: C_7  and  N_8 
REMARK    7  A    between atoms: N_11  and  C_12 
REMARK    8  A    between atoms: N_21  and  C_22 
ROOT
ATOM      1  C   UNL d   1       8.229   6.475 -11.668  0.00  0.00     0.003 C 
ENDROOT
BRANCH   1   2
ATOM      2  C   UNL d   1       9.613   6.914 -11.191  0.00  0.00     0.010 C 
BRANCH   2   3
ATOM      3  C   UNL d   1       9.625   8.209 -10.346  0.00  0.00     0.090 C 
BRANCH   3   4
ATOM      4  C   UNL d   1      11.002   8.668  -9.843  0.00  0.00     0.252 C 
ATOM      5  O   UNL d   1      11.839   9.158 -10.584  0.00  0.00    -0.271 OA
ATOM      6  N   UNL d   1      11.303   8.558  -8.553  0.00  0.00    -0.235 NA
BRANCH   6   7
ATOM      7  C   UNL d   1      10.461   8.032  -7.493  0.00  0.00     0.128 C 
ATOM      8  C   UNL d   1      10.900   8.582  -6.162  0.00  0.00    -0.004 A 
ATOM      9  C   UNL d   1      11.455   7.769  -5.136  0.00  0.00    -0.024 A 
ATOM     10  C   UNL d   1      10.718   9.946  -5.955  0.00  0.00    -0.003 A 
ATOM     11  C   UNL d   1      11.682   6.293  -5.345  0.00  0.00     0.026 C 
ATOM     12  C   UNL d   1      11.877   8.334  -3.917  0.00  0.00    -0.004 A 
ATOM     13  C   UNL d   1      11.771   6.017  -6.847  0.00  0.00     0.007 C 
ATOM     14  C   UNL d   1      10.480   6.495  -7.534  0.00  0.00     0.029 C 
ATOM     15  C   UNL d   1      11.649   9.698  -3.699  0.00  0.00    -0.000 A 
ATOM     16  C   UNL d   1      11.051  10.479  -4.727  0.00  0.00    -0.000 A 
ENDBRANCH   6   7
ENDBRANCH   3   4
ENDBRANCH   2   3
ENDBRANCH   1   2
BRANCH   1  17
ATOM     17  C   UNL d   1       8.188   5.060 -12.215  0.00  0.00     0.035 C 
BRANCH  17  18
ATOM     18  C   UNL d   1       6.764   4.691 -12.666  0.00  0.00     0.250 C 
BRANCH  18  19
ATOM     19  N   UNL d   1       6.650   3.256 -12.844  0.00  0.00     0.141 N 
ATOM     20  C   UNL d   1       5.243   2.908 -12.964  0.00  0.00     0.274 C 
ATOM     21  C   UNL d   1       5.082   1.381 -13.123  0.00  0.00     0.137 C 
ATOM     22  N   UNL d   1       5.879   0.873 -14.242  0.00  0.00    -0.343 N 
ATOM     23  C   UNL d   1       7.282   1.273 -14.215  0.00  0.00     0.137 C 
ATOM     24  C   UNL d   1       7.376   2.800 -14.036  0.00  0.00     0.274 C 
BRANCH  22  25
ATOM     25  C   UNL d   1       5.360   0.065 -15.264  0.00  0.00     0.084 A 
ATOM     26  C   UNL d   1       4.247  -0.806 -15.052  0.00  0.00     0.155 A 
ATOM     27  C   UNL d   1       3.726  -1.549 -16.098  0.00  0.00     0.031 A 
ATOM     28  F   UNL d   1       3.668  -0.907 -13.825  0.00  0.00    -0.203 F 
ATOM     29  C   UNL d   1       4.282  -1.516 -17.393  0.00  0.00     0.002 A 
ATOM     30  C   UNL d   1       5.388  -0.666 -17.624  0.00  0.00     0.002 A 
ATOM     31  C   UNL d   1       5.900   0.111 -16.583  0.00  0.00     0.019 A 
ENDBRANCH  22  25
ENDBRANCH  18  19
ENDBRANCH  17  18
ENDBRANCH   1  17
TORSDOF 8
