REMARK  9 active torsions:
REMARK  status: ('A' for Active; 'I' for Inactive)
REMARK    1  A    between atoms: S_2  and  O_5 
REMARK    2  A    between atoms: O_5  and  C_6 
REMARK    3  A    between atoms: N_19  and  C_20 
REMARK    4  A    between atoms: C_20  and  C_21 
REMARK    5  A    between atoms: C_21  and  C_22 
REMARK    6  A    between atoms: C_22  and  C_23 
REMARK    7  A    between atoms: C_23  and  N_24 
REMARK       I    between atoms: N_24  and  C_25 
REMARK    8  A    between atoms: C_25  and  C_27 
REMARK    9  A    between atoms: C_30  and  C_31 
ROOT
ATOM      1  C   UNL d   1       8.340   1.766 -19.809  0.00  0.00     0.109 A 
ATOM      2  C   UNL d   1       7.462   1.757 -20.912  0.00  0.00     0.025 A 
ATOM      3  C   UNL d   1       6.248   1.049 -20.845  0.00  0.00     0.002 A 
ATOM      4  C   UNL d   1       5.908   0.339 -19.678  0.00  0.00    -0.004 A 
ATOM      5  C   UNL d   1       6.790   0.319 -18.574  0.00  0.00    -0.023 A 
ATOM      6  C   UNL d   1       8.006   1.038 -18.642  0.00  0.00    -0.002 A 
ATOM      7  C   UNL d   1       8.955   0.977 -17.454  0.00  0.00     0.030 C 
ATOM      8  C   UNL d   1       8.240   1.019 -16.093  0.00  0.00     0.038 C 
ATOM      9  C   UNL d   1       6.765   0.515 -16.091  0.00  0.00     0.224 C 
ATOM     10  C   UNL d   1       6.480  -0.437 -17.282  0.00  0.00     0.053 C 
ATOM     11  C   UNL d   1       5.046  -0.997 -17.200  0.00  0.00     0.008 C 
ATOM     12  C   UNL d   1       4.811  -1.644 -15.835  0.00  0.00     0.036 C 
ATOM     13  C   UNL d   1       5.036  -0.604 -14.738  0.00  0.00     0.250 C 
ATOM     14  N   UNL d   1       6.399  -0.070 -14.787  0.00  0.00     0.135 N 
ENDROOT
BRANCH  14  15
ATOM     15  C   UNL d   1       6.620   0.839 -13.660  0.00  0.00     0.250 C 
BRANCH  15  16
ATOM     16  C   UNL d   1       5.773   2.130 -13.711  0.00  0.00     0.037 C 
BRANCH  16  17
ATOM     17  C   UNL d   1       6.126   3.206 -12.687  0.00  0.00     0.029 C 
BRANCH  17  18
ATOM     18  C   UNL d   1       7.371   3.981 -13.114  0.00  0.00     0.129 C 
BRANCH  18  19
ATOM     19  N   UNL d   1       7.893   4.733 -11.993  0.00  0.00    -0.234 NA
ATOM     20  C   UNL d   1       9.038   5.424 -12.024  0.00  0.00     0.275 C 
ATOM     21  O   UNL d   1       9.732   5.566 -13.030  0.00  0.00    -0.266 OA
BRANCH  20  22
ATOM     22  C   UNL d   1       9.418   6.050 -10.721  0.00  0.00     0.058 A 
ATOM     23  C   UNL d   1       9.905   7.369 -10.693  0.00  0.00     0.005 A 
ATOM     24  C   UNL d   1      10.324   7.949  -9.482  0.00  0.00     0.000 A 
ATOM     25  C   UNL d   1      10.239   7.240  -8.257  0.00  0.00     0.000 A 
ATOM     26  C   UNL d   1       9.729   5.923  -8.305  0.00  0.00     0.000 A 
ATOM     27  C   UNL d   1       9.333   5.326  -9.515  0.00  0.00     0.005 A 
BRANCH  25  28
ATOM     28  C   UNL d   1      10.660   7.855  -6.973  0.00  0.00     0.000 A 
ATOM     29  C   UNL d   1      10.665   9.259  -6.803  0.00  0.00     0.000 A 
ATOM     30  C   UNL d   1      11.059   9.858  -5.590  0.00  0.00     0.000 A 
ATOM     31  C   UNL d   1      11.461   9.058  -4.509  0.00  0.00     0.000 A 
ATOM     32  C   UNL d   1      11.465   7.658  -4.651  0.00  0.00     0.000 A 
ATOM     33  C   UNL d   1      11.069   7.068  -5.870  0.00  0.00     0.000 A 
ENDBRANCH  25  28
ENDBRANCH  20  22
ENDBRANCH  18  19
ENDBRANCH  17  18
ENDBRANCH  16  17
ENDBRANCH  15  16
ENDBRANCH  14  15
BRANCH   1  34
ATOM     34  O   UNL d   1       9.520   2.453 -19.889  0.00  0.00    -0.231 OA
BRANCH  34  35
ATOM     35  S   UNL d   1       9.460   4.091 -19.488  0.00  0.00     0.285 S 
ATOM     36  C   UNL d   1      11.241   4.483 -19.651  0.00  0.00     0.172 C 
ATOM     37  O   UNL d   1       9.068   4.198 -18.076  0.00  0.00    -0.197 OA
ATOM     38  O   UNL d   1       8.712   4.785 -20.544  0.00  0.00    -0.197 OA
ENDBRANCH  34  35
ENDBRANCH   1  34
TORSDOF 9
