REMARK  5 active torsions:
REMARK  status: ('A' for Active; 'I' for Inactive)
REMARK    1  A    between atoms: C_2  and  C_3 
REMARK    2  A    between atoms: C_2  and  C_10 
REMARK    3  A    between atoms: N_13  and  C_14 
REMARK    4  A    between atoms: C_14  and  C_15 
REMARK    5  A    between atoms: C_15  and  N_16 
ROOT
ATOM      1  C   UNL d   1      10.411   7.264  -7.512  0.00  0.00     0.066 C 
ATOM      2  C   UNL d   1      10.691   7.628  -8.982  0.00  0.00     0.043 C 
ATOM      3  C   UNL d   1      10.371   6.445  -9.886  0.00  0.00     0.251 C 
ATOM      4  N   UNL d   1       8.985   6.019  -9.767  0.00  0.00     0.139 N 
ATOM      5  C   UNL d   1       8.739   5.576  -8.392  0.00  0.00     0.251 C 
ATOM      6  C   UNL d   1       8.977   6.721  -7.395  0.00  0.00     0.043 C 
ENDROOT
BRANCH   4   7
ATOM      7  C   UNL d   1       8.701   4.934 -10.692  0.00  0.00     0.275 C 
BRANCH   7   8
ATOM      8  C   UNL d   1       8.519   5.445 -12.143  0.00  0.00     0.147 C 
BRANCH   8   9
ATOM      9  N   UNL d   1       8.534   4.327 -13.124  0.00  0.00    -0.270 N 
ATOM     10  C   UNL d   1       9.773   3.978 -13.599  0.00  0.00     0.264 A 
ATOM     11  C   UNL d   1       9.839   2.852 -14.588  0.00  0.00     0.074 A 
ATOM     12  O   UNL d   1      10.822   4.540 -13.266  0.00  0.00    -0.267 OA
ATOM     13  C   UNL d   1       8.641   2.217 -14.947  0.00  0.00     0.088 A 
ATOM     14  C   UNL d   1      11.056   2.427 -15.166  0.00  0.00     0.006 A 
ATOM     15  N   UNL d   1       7.447   2.674 -14.362  0.00  0.00    -0.219 NA
ATOM     16  C   UNL d   1       8.636   1.157 -15.874  0.00  0.00     0.019 A 
ATOM     17  C   UNL d   1       7.349   3.682 -13.454  0.00  0.00     0.204 A 
ATOM     18  S   UNL d   1       5.829   3.990 -12.841  0.00  0.00    -0.038 SA
ATOM     19  C   UNL d   1       9.850   0.736 -16.453  0.00  0.00     0.002 A 
ATOM     20  C   UNL d   1      11.058   1.373 -16.102  0.00  0.00     0.000 A 
ENDBRANCH   8   9
ENDBRANCH   7   8
ENDBRANCH   4   7
BRANCH   1  21
ATOM     21  C   UNL d   1      10.605   8.482  -6.594  0.00  0.00     0.173 C 
ATOM     22  O   UNL d   1      10.286   9.589  -7.012  0.00  0.00    -0.291 OA
BRANCH  21  23
ATOM     23  C   UNL d   1      11.159   8.300  -5.232  0.00  0.00     0.035 A 
ATOM     24  C   UNL d   1      11.460   7.025  -4.684  0.00  0.00     0.005 A 
ATOM     25  C   UNL d   1      11.973   6.920  -3.381  0.00  0.00     0.030 A 
ATOM     26  C   UNL d   1      12.187   8.077  -2.609  0.00  0.00     0.140 A 
ATOM     27  C   UNL d   1      11.876   9.340  -3.135  0.00  0.00     0.030 A 
ATOM     28  F   UNL d   1      12.659   7.985  -1.350  0.00  0.00    -0.204 F 
ATOM     29  C   UNL d   1      11.369   9.453  -4.440  0.00  0.00     0.005 A 
ENDBRANCH  21  23
ENDBRANCH   1  21
TORSDOF 5
