REMARK  6 active torsions:
REMARK  status: ('A' for Active; 'I' for Inactive)
REMARK    1  A    between atoms: C_3  and  C_4 
REMARK    2  A    between atoms: N_13  and  C_14 
REMARK    3  A    between atoms: N_17  and  C_18 
REMARK    4  A    between atoms: C_18  and  C_19 
REMARK    5  A    between atoms: C_19  and  C_20 
REMARK    6  A    between atoms: C_20  and  C_21 
ROOT
ATOM      1  C   UNL d   1       9.610   7.375  -9.271  0.00  0.00     0.094 C 
ATOM      2  C   UNL d   1       9.457   5.850  -9.409  0.00  0.00     0.058 C 
ATOM      3  C   UNL d   1       8.573   5.471 -10.592  0.00  0.00     0.252 C 
ATOM      4  N   UNL d   1       9.136   5.964 -11.850  0.00  0.00     0.137 N 
ATOM      5  C   UNL d   1       9.136   7.426 -11.820  0.00  0.00     0.252 C 
ATOM      6  C   UNL d   1      10.011   7.912 -10.668  0.00  0.00     0.058 C 
ENDROOT
BRANCH   1   7
ATOM      7  N   UNL d   1      10.581   7.741  -8.229  0.00  0.00    -0.284 N 
ATOM      8  C   UNL d   1      10.383   7.553  -6.865  0.00  0.00     0.059 A 
ATOM      9  C   UNL d   1       9.178   6.835  -6.288  0.00  0.00     0.052 C 
ATOM     10  C   UNL d   1      11.410   8.117  -6.224  0.00  0.00     0.098 A 
ATOM     11  N   UNL d   1      12.236   8.679  -7.175  0.00  0.00    -0.191 NA
ATOM     12  C   UNL d   1      11.766   8.389  -8.389  0.00  0.00     0.350 A 
ATOM     13  O   UNL d   1      12.336   8.694  -9.431  0.00  0.00    -0.244 OA
BRANCH  10  14
ATOM     14  C   UNL d   1      11.701   8.159  -4.800  0.00  0.00     0.019 A 
ATOM     15  C   UNL d   1      11.851   6.994  -4.019  0.00  0.00     0.002 A 
ATOM     16  C   UNL d   1      12.129   7.106  -2.648  0.00  0.00     0.000 A 
ATOM     17  C   UNL d   1      12.261   8.384  -2.062  0.00  0.00     0.000 A 
ATOM     18  C   UNL d   1      12.116   9.535  -2.858  0.00  0.00     0.000 A 
ATOM     19  C   UNL d   1      11.848   9.431  -4.223  0.00  0.00     0.002 A 
ENDBRANCH  10  14
ENDBRANCH   1   7
BRANCH   4  20
ATOM     20  C   UNL d   1       8.304   5.522 -12.955  0.00  0.00     0.251 C 
BRANCH  20  21
ATOM     21  C   UNL d   1       8.640   4.077 -13.361  0.00  0.00     0.040 C 
BRANCH  21  22
ATOM     22  C   UNL d   1       9.479   4.006 -14.653  0.00  0.00     0.028 C 
BRANCH  22  23
ATOM     23  C   UNL d   1       9.582   2.599 -15.216  0.00  0.00    -0.022 A 
ATOM     24  C   UNL d   1      10.836   2.091 -15.615  0.00  0.00    -0.004 A 
ATOM     25  C   UNL d   1      10.930   0.786 -16.141  0.00  0.00    -0.000 A 
ATOM     26  C   UNL d   1       9.781  -0.013 -16.262  0.00  0.00    -0.000 A 
ATOM     27  C   UNL d   1       8.529   0.489 -15.870  0.00  0.00    -0.000 A 
ATOM     28  C   UNL d   1       8.427   1.798 -15.361  0.00  0.00    -0.004 A 
ENDBRANCH  22  23
ENDBRANCH  21  22
ENDBRANCH  20  21
ENDBRANCH   4  20
TORSDOF 6
