REMARK  5 active torsions:
REMARK  status: ('A' for Active; 'I' for Inactive)
REMARK    1  A    between atoms: C_9  and  N_10 
REMARK    2  A    between atoms: N_10  and  C_11 
REMARK    3  A    between atoms: N_10  and  C_14 
REMARK    4  A    between atoms: C_11  and  C_12 
REMARK    5  A    between atoms: C_14  and  C_15 
ROOT
ATOM      1  C   UNL d   1      11.864   6.636  -3.779  0.00  0.00    -0.009 C 
ATOM      2  C   UNL d   1      11.469   7.362  -4.652  0.00  0.00    -0.043 C 
ATOM      3  C   UNL d   1      11.048   8.203  -5.706  0.00  0.00     0.077 C 
ATOM      4  C   UNL d   1      10.808   9.574  -5.347  0.00  0.00    -0.043 C 
ATOM      5  C   UNL d   1      10.637  10.690  -5.063  0.00  0.00    -0.009 C 
ATOM      6  C   UNL d   1      10.887   7.830  -6.980  0.00  0.00    -0.029 C 
ATOM      7  C   UNL d   1      11.209   6.427  -7.382  0.00  0.00     0.025 C 
ATOM      8  C   UNL d   1      10.185   5.833  -8.357  0.00  0.00     0.038 C 
ATOM      9  C   UNL d   1       9.900   6.733  -9.592  0.00  0.00     0.220 C 
ATOM     10  C   UNL d   1       9.506   8.139  -9.052  0.00  0.00     0.038 C 
ATOM     11  C   UNL d   1      10.555   8.759  -8.154  0.00  0.00     0.025 C 
ENDROOT
BRANCH   9  12
ATOM     12  N   UNL d   1       8.839   6.160 -10.443  0.00  0.00     0.135 N 
BRANCH  12  13
ATOM     13  C   UNL d   1       8.456   7.060 -11.556  0.00  0.00     0.250 C 
BRANCH  13  14
ATOM     14  C   UNL d   1       7.058   6.704 -12.116  0.00  0.00     0.035 C 
ATOM     15  C   UNL d   1       6.399   7.922 -12.765  0.00  0.00     0.002 C 
ENDBRANCH  13  14
ENDBRANCH  12  13
BRANCH  12  16
ATOM     16  C   UNL d   1       9.046   4.769 -10.877  0.00  0.00     0.250 C 
BRANCH  16  17
ATOM     17  C   UNL d   1       9.639   4.702 -12.305  0.00  0.00     0.035 C 
ATOM     18  C   UNL d   1       9.642   3.314 -12.877  0.00  0.00     0.002 C 
ENDBRANCH  16  17
ENDBRANCH  12  16
ENDBRANCH   9  12
TORSDOF 5
