REMARK  4 active torsions:
REMARK  status: ('A' for Active; 'I' for Inactive)
REMARK    1  A    between atoms: O_2  and  C_3 
REMARK    2  A    between atoms: C_9  and  C_10 
REMARK    3  A    between atoms: C_10  and  N_11 
REMARK    4  A    between atoms: N_14  and  C_15 
ROOT
ATOM      1  N   UNL d   1      11.175   2.584 -15.937  0.00  0.00     0.146 N 
ATOM      2  C   UNL d   1      12.011   1.939 -16.930  0.00  0.00     0.286 C 
ATOM      3  C   UNL d   1      12.844   2.936 -17.731  0.00  0.00     0.286 C 
ATOM      4  N   UNL d   1      11.992   3.896 -18.441  0.00  0.00     0.148 N 
ATOM      5  C   UNL d   1      11.144   4.571 -17.429  0.00  0.00     0.286 C 
ATOM      6  C   UNL d   1      10.326   3.577 -16.575  0.00  0.00     0.286 C 
ENDROOT
BRANCH   4   7
ATOM      7  C   UNL d   1      12.746   4.831 -19.318  0.00  0.00     0.297 C 
ATOM      8  C   UNL d   1      11.900   5.985 -19.925  0.00  0.00     0.269 C 
ATOM      9  N   UNL d   1      10.805   5.690 -20.681  0.00  0.00    -0.302 N 
ATOM     10  O   UNL d   1      12.238   7.139 -19.666  0.00  0.00    -0.270 OA
ATOM     11  C   UNL d   1      10.519   4.410 -21.237  0.00  0.00     0.054 A 
ATOM     12  C   UNL d   1       9.646   6.583 -20.881  0.00  0.00     0.075 C 
ATOM     13  C   UNL d   1      11.455   3.427 -21.625  0.00  0.00    -0.006 A 
ATOM     14  C   UNL d   1       9.142   4.258 -21.403  0.00  0.00    -0.005 A 
ATOM     15  C   UNL d   1      12.892   3.905 -21.754  0.00  0.00     0.030 C 
ATOM     16  C   UNL d   1      10.929   2.197 -22.085  0.00  0.00    -0.003 A 
ATOM     17  C   UNL d   1      13.614   4.188 -20.435  0.00  0.00     0.048 C 
ATOM     18  C   UNL d   1       9.530   1.991 -22.174  0.00  0.00    -0.001 A 
ATOM     19  C   UNL d   1       8.625   3.031 -21.864  0.00  0.00    -0.003 A 
ATOM     20  C   UNL d   1       8.491   5.587 -21.130  0.00  0.00     0.049 C 
ATOM     21  C   UNL d   1       9.283   7.464 -19.668  0.00  0.00     0.023 C 
ATOM     22  C   UNL d   1       9.892   7.473 -22.116  0.00  0.00     0.023 C 
ENDBRANCH   4   7
BRANCH   1  23
ATOM     23  C   UNL d   1      10.423   1.632 -15.087  0.00  0.00     0.279 C 
BRANCH  23  24
ATOM     24  C   UNL d   1       9.206   1.008 -15.759  0.00  0.00     0.034 A 
ATOM     25  C   UNL d   1       7.902   1.447 -15.429  0.00  0.00     0.092 A 
ATOM     26  C   UNL d   1       6.789   0.903 -16.125  0.00  0.00     0.025 A 
ATOM     27  C   UNL d   1       6.983  -0.017 -17.175  0.00  0.00     0.013 A 
ATOM     28  C   UNL d   1       8.276  -0.426 -17.515  0.00  0.00     0.058 A 
ATOM     29 CL   UNL d   1       8.538  -1.547 -18.800  0.00  0.00    -0.082 Cl
ATOM     30  C   UNL d   1       9.383   0.039 -16.775  0.00  0.00     0.011 A 
BRANCH  25  31
ATOM     31  O   UNL d   1       7.770   2.404 -14.440  0.00  0.00    -0.328 OA
ATOM     32  C   UNL d   1       6.471   2.789 -14.015  0.00  0.00     0.181 C 
ENDBRANCH  25  31
ENDBRANCH  23  24
ENDBRANCH   1  23
TORSDOF 4
