REMARK  7 active torsions:
REMARK  status: ('A' for Active; 'I' for Inactive)
REMARK    1  A    between atoms: C_6  and  C_7 
REMARK    2  A    between atoms: C_10  and  S_11 
REMARK    3  A    between atoms: S_11  and  C_12 
REMARK    4  A    between atoms: C_12  and  C_13 
REMARK    5  A    between atoms: C_13  and  C_14 
REMARK    6  A    between atoms: C_14  and  N_15 
REMARK    7  A    between atoms: C_22  and  C_23 
ROOT
ATOM      1  N   UNL d   1      12.273   1.026 -20.092  0.00  0.00     0.138 N 
ATOM      2  C   UNL d   1      13.340   1.428 -21.007  0.00  0.00     0.255 C 
ATOM      3  C   UNL d   1      13.408   2.937 -21.313  0.00  0.00     0.061 C 
ATOM      4  C   UNL d   1      14.084   3.759 -20.225  0.00  0.00    -0.022 A 
ATOM      5  C   UNL d   1      15.243   4.503 -20.557  0.00  0.00     0.017 A 
ATOM      6  C   UNL d   1      15.890   5.296 -19.584  0.00  0.00     0.106 A 
ATOM      7  N   UNL d   1      17.016   6.093 -19.630  0.00  0.00    -0.224 NA
ATOM      8  C   UNL d   1      17.115   6.555 -18.373  0.00  0.00     0.158 A 
ATOM      9  O   UNL d   1      16.147   6.136 -17.499  0.00  0.00    -0.292 OA
ATOM     10  C   UNL d   1      15.357   5.314 -18.279  0.00  0.00     0.119 A 
ATOM     11  C   UNL d   1      14.215   4.582 -17.919  0.00  0.00     0.022 A 
ATOM     12  C   UNL d   1      13.570   3.797 -18.902  0.00  0.00    -0.022 A 
ATOM     13  C   UNL d   1      12.325   3.017 -18.508  0.00  0.00     0.061 C 
ATOM     14  C   UNL d   1      12.448   1.492 -18.713  0.00  0.00     0.255 C 
ENDROOT
BRANCH   1  15
ATOM     15  C   UNL d   1      10.937   1.219 -20.663  0.00  0.00     0.251 C 
BRANCH  15  16
ATOM     16  C   UNL d   1       9.940   0.166 -20.163  0.00  0.00     0.047 C 
BRANCH  16  17
ATOM     17  C   UNL d   1       8.633   0.208 -20.971  0.00  0.00     0.067 C 
BRANCH  17  18
ATOM     18  S   UNL d   1       7.374  -0.879 -20.278  0.00  0.00    -0.075 SA
BRANCH  18  19
ATOM     19  C   UNL d   1       7.038  -0.025 -18.761  0.00  0.00     0.193 A 
ATOM     20  N   UNL d   1       7.397   1.236 -18.487  0.00  0.00    -0.122 NA
ATOM     21  N   UNL d   1       6.964   1.459 -17.201  0.00  0.00    -0.126 NA
ATOM     22  C   UNL d   1       6.334   0.343 -16.817  0.00  0.00     0.191 A 
ATOM     23  N   UNL d   1       6.354  -0.622 -17.765  0.00  0.00    -0.287 N 
ATOM     24  C   UNL d   1       5.760  -1.956 -17.776  0.00  0.00     0.134 C 
BRANCH  22  25
ATOM     25  C   UNL d   1       5.704   0.256 -15.487  0.00  0.00     0.151 A 
ATOM     26  C   UNL d   1       4.650  -0.455 -14.956  0.00  0.00     0.087 A 
ATOM     27  C   UNL d   1       3.714  -1.460 -15.561  0.00  0.00     0.054 C 
ATOM     28  N   UNL d   1       4.495  -0.102 -13.647  0.00  0.00    -0.221 NA
ATOM     29  C   UNL d   1       5.460   0.778 -13.392  0.00  0.00     0.225 A 
ATOM     30  O   UNL d   1       6.241   1.035 -14.484  0.00  0.00    -0.282 OA
ENDBRANCH  22  25
ENDBRANCH  18  19
ENDBRANCH  17  18
ENDBRANCH  16  17
ENDBRANCH  15  16
ENDBRANCH   1  15
BRANCH   8  31
ATOM     31  C   UNL d   1      18.165   7.487 -17.868  0.00  0.00     0.064 A 
ATOM     32  C   UNL d   1      19.129   7.023 -16.801  0.00  0.00     0.009 A 
ATOM     33  C   UNL d   1      19.619   7.253 -18.210  0.00  0.00     0.009 A 
ENDBRANCH   8  31
TORSDOF 7
