REMARK  8 active torsions:
REMARK  status: ('A' for Active; 'I' for Inactive)
REMARK    1  A    between atoms: C_2  and  C_3 
REMARK    2  A    between atoms: C_2  and  C_20 
REMARK    3  A    between atoms: C_3  and  C_4 
REMARK    4  A    between atoms: C_4  and  N_5 
REMARK    5  A    between atoms: N_5  and  C_6 
REMARK    6  A    between atoms: C_6  and  C_7 
REMARK    7  A    between atoms: C_20  and  N_21 
REMARK    8  A    between atoms: N_24  and  C_25 
ROOT
ATOM      1  O   UNL d   1       6.347   0.599 -16.406  0.00  0.00    -0.221 OA
ATOM      2  C   UNL d   1       7.244   1.685 -16.324  0.00  0.00     0.188 C 
ENDROOT
BRANCH   2   3
ATOM      3  C   UNL d   1       8.318   1.471 -17.409  0.00  0.00     0.073 C 
BRANCH   3   4
ATOM      4  C   UNL d   1       9.278   2.662 -17.545  0.00  0.00     0.293 C 
BRANCH   4   5
ATOM      5  N   UNL d   1      10.145   2.473 -18.703  0.00  0.00     0.344 N 
BRANCH   5   6
ATOM      6  C   UNL d   1      10.819   3.702 -19.102  0.00  0.00     0.317 C 
BRANCH   6   7
ATOM      7  C   UNL d   1       9.858   4.777 -19.575  0.00  0.00     0.013 A 
ATOM      8  C   UNL d   1       9.288   4.700 -20.866  0.00  0.00    -0.006 A 
ATOM      9  C   UNL d   1       8.368   5.698 -21.248  0.00  0.00    -0.018 A 
ATOM     10  C   UNL d   1       8.011   6.731 -20.379  0.00  0.00    -0.004 A 
ATOM     11  C   UNL d   1       7.645   5.813 -22.577  0.00  0.00     0.053 A 
ATOM     12  C   UNL d   1       8.556   6.798 -19.088  0.00  0.00    -0.001 A 
ATOM     13  C   UNL d   1       7.044   7.590 -21.056  0.00  0.00    -0.004 A 
ATOM     14  C   UNL d   1       9.490   5.826 -18.692  0.00  0.00    -0.002 A 
ATOM     15  C   UNL d   1       6.826   7.070 -22.337  0.00  0.00    -0.018 A 
ATOM     16  C   UNL d   1       6.371   8.746 -20.624  0.00  0.00    -0.000 A 
ATOM     17  C   UNL d   1       5.940   7.694 -23.234  0.00  0.00    -0.004 A 
ATOM     18  C   UNL d   1       5.262   8.858 -22.810  0.00  0.00    -0.000 A 
ATOM     19  C   UNL d   1       5.474   9.381 -21.512  0.00  0.00    -0.000 A 
ENDBRANCH   6   7
ENDBRANCH   5   6
ENDBRANCH   4   5
ENDBRANCH   3   4
ENDBRANCH   2   3
BRANCH   2  20
ATOM     20  C   UNL d   1       7.844   1.716 -14.907  0.00  0.00     0.283 C 
BRANCH  20  21
ATOM     21  N   UNL d   1       8.319   3.035 -14.478  0.00  0.00     0.144 N 
ATOM     22  C   UNL d   1       7.311   3.752 -13.676  0.00  0.00     0.274 C 
ATOM     23  C   UNL d   1       7.789   5.140 -13.187  0.00  0.00     0.137 C 
ATOM     24  N   UNL d   1       9.082   5.024 -12.538  0.00  0.00    -0.344 N 
ATOM     25  C   UNL d   1      10.115   4.302 -13.270  0.00  0.00     0.137 C 
ATOM     26  C   UNL d   1       9.567   2.945 -13.729  0.00  0.00     0.274 C 
BRANCH  24  27
ATOM     27  C   UNL d   1       9.307   5.593 -11.263  0.00  0.00     0.068 A 
ATOM     28  C   UNL d   1       9.417   6.988 -11.061  0.00  0.00     0.084 A 
ATOM     29  C   UNL d   1       9.763   7.499  -9.784  0.00  0.00     0.070 A 
ATOM     30 CL   UNL d   1       9.106   8.086 -12.351  0.00  0.00    -0.080 Cl
ATOM     31  C   UNL d   1       9.883   6.634  -8.682  0.00  0.00     0.012 A 
ATOM     32 CL   UNL d   1       9.982   9.185  -9.529  0.00  0.00    -0.081 Cl
ATOM     33  C   UNL d   1       9.705   5.253  -8.865  0.00  0.00     0.002 A 
ATOM     34  C   UNL d   1       9.459   4.747 -10.154  0.00  0.00     0.018 A 
ENDBRANCH  24  27
ENDBRANCH  20  21
ENDBRANCH   2  20
TORSDOF 8
