REMARK  3 active torsions:
REMARK  status: ('A' for Active; 'I' for Inactive)
REMARK    1  A    between atoms: N_2  and  C_4 
REMARK    2  A    between atoms: C_4  and  C_5 
REMARK    3  A    between atoms: C_9  and  C_10 
ROOT
ATOM      1  C   UNL d   1       9.831   1.400 -16.448  0.00  0.00     0.185 A 
ATOM      2  C   UNL d   1      10.379   2.129 -17.679  0.00  0.00     0.040 C 
ATOM      3  O   UNL d   1       8.399   1.364 -16.556  0.00  0.00    -0.324 OA
ATOM      4  C   UNL d   1       7.866   2.107 -15.563  0.00  0.00     0.119 A 
ATOM      5  C   UNL d   1       8.723   2.686 -14.727  0.00  0.00     0.061 A 
ATOM      6  C   UNL d   1      10.037   2.299 -15.221  0.00  0.00     0.202 A 
ATOM      7  O   UNL d   1      11.152   2.623 -14.810  0.00  0.00    -0.289 OA
ENDROOT
BRANCH   5   8
ATOM      8  C   UNL d   1       8.384   3.607 -13.617  0.00  0.00     0.005 A 
ATOM      9  C   UNL d   1       9.386   4.066 -12.729  0.00  0.00     0.000 A 
ATOM     10  C   UNL d   1       9.046   4.922 -11.672  0.00  0.00     0.000 A 
ATOM     11  C   UNL d   1       7.713   5.325 -11.492  0.00  0.00     0.000 A 
ATOM     12  C   UNL d   1       6.710   4.867 -12.366  0.00  0.00     0.000 A 
ATOM     13  C   UNL d   1       7.045   4.009 -13.428  0.00  0.00     0.000 A 
ENDBRANCH   5   8
BRANCH   1  14
ATOM     14  C   UNL d   1      10.362  -0.040 -16.226  0.00  0.00     0.285 C 
BRANCH  14  15
ATOM     15  N   UNL d   1      10.279  -0.911 -17.430  0.00  0.00     0.144 N 
ATOM     16  C   UNL d   1      11.290  -0.678 -18.425  0.00  0.00     0.286 C 
ATOM     17  C   UNL d   1       8.920  -0.939 -17.991  0.00  0.00     0.286 C 
ENDBRANCH  14  15
ENDBRANCH   1  14
TORSDOF 3
