REMARK  7 active torsions:
REMARK  status: ('A' for Active; 'I' for Inactive)
REMARK    1  A    between atoms: C_3  and  S_4 
REMARK    2  A    between atoms: S_4  and  C_5 
REMARK    3  A    between atoms: C_5  and  C_6 
REMARK    4  A    between atoms: C_6  and  C_7 
REMARK    5  A    between atoms: C_7  and  N_8 
REMARK    6  A    between atoms: N_13  and  C_14 
REMARK    7  A    between atoms: C_25  and  C_26 
ROOT
ATOM      1  C   UNL d   1       7.526   1.513 -16.813  0.00  0.00     0.047 C 
ENDROOT
BRANCH   1   2
ATOM      2  C   UNL d   1       8.282   2.325 -15.761  0.00  0.00     0.067 C 
BRANCH   2   3
ATOM      3  S   UNL d   1       7.186   2.734 -14.375  0.00  0.00    -0.075 SA
BRANCH   3   4
ATOM      4  C   UNL d   1       8.225   3.837 -13.474  0.00  0.00     0.193 A 
ATOM      5  N   UNL d   1       7.835   4.404 -12.312  0.00  0.00    -0.289 N 
ATOM      6  C   UNL d   1       6.540   4.309 -11.662  0.00  0.00     0.134 C 
ATOM      7  C   UNL d   1       8.946   5.095 -11.964  0.00  0.00     0.167 A 
ATOM      8  N   UNL d   1       9.913   5.040 -12.885  0.00  0.00    -0.128 NA
ATOM      9  N   UNL d   1       9.452   4.199 -13.861  0.00  0.00    -0.122 NA
BRANCH   7  10
ATOM     10  C   UNL d   1       9.152   5.857 -10.725  0.00  0.00     0.042 A 
ATOM     11  C   UNL d   1       9.853   7.011 -10.754  0.00  0.00     0.064 A 
ATOM     12  C   UNL d   1      10.099   7.837  -9.572  0.00  0.00     0.261 A 
ATOM     13  N   UNL d   1       9.578   7.364  -8.408  0.00  0.00    -0.292 N 
ATOM     14  O   UNL d   1      10.727   8.898  -9.628  0.00  0.00    -0.267 OA
ATOM     15  C   UNL d   1       8.887   6.141  -8.343  0.00  0.00     0.079 A 
ATOM     16  C   UNL d   1       9.727   8.143  -7.177  0.00  0.00     0.134 C 
ATOM     17  C   UNL d   1       8.657   5.398  -9.437  0.00  0.00     0.022 A 
ENDBRANCH   7  10
ENDBRANCH   3   4
ENDBRANCH   2   3
ENDBRANCH   1   2
BRANCH   1  18
ATOM     18  C   UNL d   1       8.273   1.394 -18.152  0.00  0.00     0.251 C 
BRANCH  18  19
ATOM     19  N   UNL d   1       7.536   0.598 -19.130  0.00  0.00     0.139 N 
ATOM     20  C   UNL d   1       7.505  -0.830 -18.851  0.00  0.00     0.272 C 
ATOM     21  C   UNL d   1       6.295  -1.361 -19.631  0.00  0.00     0.117 C 
ATOM     22  C   UNL d   1       5.545  -0.134 -20.130  0.00  0.00     0.058 C 
ATOM     23  N   UNL d   1       6.655  -2.149 -20.802  0.00  0.00    -0.348 N 
ATOM     24  C   UNL d   1       6.165   1.037 -19.381  0.00  0.00     0.252 C 
ATOM     25  C   UNL d   1       5.752  -0.127 -21.645  0.00  0.00     0.028 C 
ATOM     26  C   UNL d   1       5.972  -1.606 -21.970  0.00  0.00     0.102 C 
BRANCH  23  27
ATOM     27  C   UNL d   1       6.932  -3.530 -20.693  0.00  0.00     0.056 A 
ATOM     28  C   UNL d   1       7.001  -4.333 -21.855  0.00  0.00     0.019 A 
ATOM     29  C   UNL d   1       7.288  -5.709 -21.767  0.00  0.00     0.031 A 
ATOM     30  C   UNL d   1       7.515  -6.301 -20.515  0.00  0.00     0.140 A 
ATOM     31  C   UNL d   1       7.455  -5.522 -19.348  0.00  0.00     0.031 A 
ATOM     32  F   UNL d   1       7.798  -7.624 -20.438  0.00  0.00    -0.204 F 
ATOM     33  C   UNL d   1       7.166  -4.144 -19.435  0.00  0.00     0.019 A 
ENDBRANCH  23  27
ENDBRANCH  18  19
ENDBRANCH   1  18
TORSDOF 7
