REMARK  8 active torsions:
REMARK  status: ('A' for Active; 'I' for Inactive)
REMARK    1  A    between atoms: C_2  and  C_3 
REMARK    2  A    between atoms: C_3  and  C_4 
REMARK    3  A    between atoms: C_4  and  S_5 
REMARK    4  A    between atoms: S_5  and  C_6 
REMARK    5  A    between atoms: C_12  and  N_13 
REMARK    6  A    between atoms: C_14  and  N_15 
REMARK    7  A    between atoms: C_20  and  O_21 
REMARK    8  A    between atoms: C_23  and  O_24 
ROOT
ATOM      1  N   UNL d   1       9.075   3.270 -17.471  0.00  0.00    -0.226 NA
ATOM      2  C   UNL d   1      10.127   3.468 -18.187  0.00  0.00     0.175 C 
ENDROOT
BRANCH   1   3
ATOM      3  C   UNL d   1       8.281   2.142 -17.721  0.00  0.00     0.083 A 
ATOM      4  C   UNL d   1       8.104   1.563 -19.013  0.00  0.00     0.019 A 
ATOM      5  C   UNL d   1       7.282   0.432 -19.186  0.00  0.00    -0.002 A 
ATOM      6  C   UNL d   1       6.609  -0.081 -18.061  0.00  0.00    -0.017 A 
ATOM      7  C   UNL d   1       5.707  -1.286 -18.015  0.00  0.00     0.053 A 
ATOM      8  C   UNL d   1       6.728   0.502 -16.797  0.00  0.00     0.003 A 
ATOM      9  C   UNL d   1       5.327  -1.265 -16.549  0.00  0.00    -0.015 A 
ATOM     10  C   UNL d   1       5.886  -0.257 -15.854  0.00  0.00     0.021 A 
ATOM     11  C   UNL d   1       7.586   1.608 -16.614  0.00  0.00     0.019 A 
BRANCH  10  12
ATOM     12  S   UNL d   1       5.527  -0.022 -14.131  0.00  0.00    -0.114 SA
BRANCH  12  13
ATOM     13  C   UNL d   1       6.063   1.665 -13.772  0.00  0.00     0.062 C 
BRANCH  13  14
ATOM     14  C   UNL d   1       5.345   2.265 -12.556  0.00  0.00     0.012 C 
BRANCH  14  15
ATOM     15  C   UNL d   1       5.877   3.652 -12.165  0.00  0.00     0.001 C 
ATOM     16  C   UNL d   1       5.707   4.702 -13.268  0.00  0.00     0.000 C 
ENDBRANCH  14  15
ENDBRANCH  13  14
ENDBRANCH  12  13
ENDBRANCH  10  12
ENDBRANCH   1   3
BRANCH   2  17
ATOM     17  N   UNL d   1      10.978   4.557 -18.070  0.00  0.00    -0.327 N 
ATOM     18  C   UNL d   1      11.849   4.935 -19.179  0.00  0.00     0.130 C 
ATOM     19  C   UNL d   1      13.288   5.216 -18.780  0.00  0.00    -0.002 A 
ATOM     20  C   UNL d   1      13.652   5.311 -17.419  0.00  0.00    -0.020 A 
ATOM     21  C   UNL d   1      14.275   5.396 -19.772  0.00  0.00     0.024 A 
ATOM     22  C   UNL d   1      12.622   5.108 -16.322  0.00  0.00     0.050 C 
ATOM     23  C   UNL d   1      14.982   5.578 -17.063  0.00  0.00     0.022 A 
ATOM     24  C   UNL d   1      11.187   5.289 -16.826  0.00  0.00     0.108 C 
ATOM     25  C   UNL d   1      15.984   5.758 -18.052  0.00  0.00     0.116 A 
ATOM     26  C   UNL d   1      15.609   5.688 -19.415  0.00  0.00     0.116 A 
BRANCH  25  27
ATOM     27  O   UNL d   1      17.308   5.988 -17.739  0.00  0.00    -0.326 OA
ATOM     28  C   UNL d   1      17.720   5.821 -16.390  0.00  0.00     0.181 C 
ENDBRANCH  25  27
BRANCH  26  29
ATOM     29  O   UNL d   1      16.527   5.822 -20.431  0.00  0.00    -0.326 OA
ATOM     30  C   UNL d   1      17.192   7.079 -20.517  0.00  0.00     0.181 C 
ENDBRANCH  26  29
ENDBRANCH   2  17
TORSDOF 8
