REMARK  4 active torsions:
REMARK  status: ('A' for Active; 'I' for Inactive)
REMARK    1  A    between atoms: S_2  and  C_3 
REMARK    2  A    between atoms: N_9  and  C_10 
REMARK    3  A    between atoms: C_10  and  C_11 
REMARK    4  A    between atoms: C_11  and  C_12 
ROOT
ATOM      1  C   UNL d   1      11.627   4.359 -16.142  0.00  0.00     0.027 A 
ATOM      2  C   UNL d   1      12.143   3.120 -16.540  0.00  0.00     0.007 A 
ATOM      3  C   UNL d   1      11.456   1.948 -16.188  0.00  0.00     0.008 A 
ATOM      4  C   UNL d   1      10.254   2.003 -15.453  0.00  0.00     0.045 A 
ATOM      5  C   UNL d   1       9.698   3.251 -15.034  0.00  0.00     0.067 A 
ATOM      6  C   UNL d   1      10.437   4.419 -15.390  0.00  0.00     0.024 A 
ATOM      7  N   UNL d   1       8.463   3.307 -14.333  0.00  0.00    -0.327 N 
ATOM      8  C   UNL d   1       7.557   2.229 -14.159  0.00  0.00     0.066 A 
ATOM      9  C   UNL d   1       6.248   2.428 -13.647  0.00  0.00     0.018 A 
ATOM     10  C   UNL d   1       5.373   1.359 -13.406  0.00  0.00     0.002 A 
ATOM     11  C   UNL d   1       5.732   0.049 -13.741  0.00  0.00     0.001 A 
ATOM     12  C   UNL d   1       7.020  -0.184 -14.246  0.00  0.00     0.008 A 
ATOM     13  C   UNL d   1       7.920   0.884 -14.463  0.00  0.00     0.045 A 
ATOM     14  S   UNL d   1       9.507   0.450 -15.093  0.00  0.00    -0.084 SA
ENDROOT
BRANCH   7  15
ATOM     15  C   UNL d   1       8.181   4.553 -13.587  0.00  0.00     0.108 C 
BRANCH  15  16
ATOM     16  C   UNL d   1       8.916   4.602 -12.232  0.00  0.00     0.058 C 
BRANCH  16  17
ATOM     17  C   UNL d   1       8.827   5.968 -11.499  0.00  0.00     0.221 C 
ATOM     18  N   UNL d   1       9.778   6.044 -10.376  0.00  0.00     0.137 N 
ATOM     19  C   UNL d   1       9.672   7.338  -9.694  0.00  0.00     0.250 C 
ATOM     20  C   UNL d   1       9.514   5.001  -9.381  0.00  0.00     0.285 C 
ATOM     21  C   UNL d   1      10.024   8.500 -10.645  0.00  0.00     0.035 C 
ATOM     22  C   UNL d   1       9.124   8.491 -11.879  0.00  0.00     0.004 C 
ATOM     23  C   UNL d   1       9.113   7.108 -12.494  0.00  0.00     0.033 C 
ENDBRANCH  16  17
ENDBRANCH  15  16
ENDBRANCH   7  15
BRANCH   1  24
ATOM     24  S   UNL d   1      12.449   5.871 -16.557  0.00  0.00    -0.113 SA
ATOM     25  C   UNL d   1      13.331   5.595 -18.119  0.00  0.00     0.074 C 
ENDBRANCH   1  24
TORSDOF 4
