REMARK  9 active torsions:
REMARK  status: ('A' for Active; 'I' for Inactive)
REMARK    1  A    between atoms: C_2  and  C_3 
REMARK       I    between atoms: C_2  and  N_23 
REMARK    2  A    between atoms: C_3  and  C_4 
REMARK    3  A    between atoms: C_4  and  C_5 
REMARK    4  A    between atoms: C_5  and  C_6 
REMARK    5  A    between atoms: C_6  and  C_7 
REMARK    6  A    between atoms: C_7  and  N_8 
REMARK    7  A    between atoms: N_11  and  C_12 
REMARK    8  A    between atoms: C_17  and  N_18 
REMARK    9  A    between atoms: N_23  and  C_24 
ROOT
ATOM      1  C   UNL d   1       9.048   4.091 -12.212  0.00  0.00     0.035 C 
ENDROOT
BRANCH   1   2
ATOM      2  C   UNL d   1       9.322   3.793 -13.688  0.00  0.00     0.003 C 
BRANCH   2   3
ATOM      3  C   UNL d   1       8.896   2.382 -14.098  0.00  0.00     0.010 C 
BRANCH   3   4
ATOM      4  C   UNL d   1       8.870   2.223 -15.618  0.00  0.00     0.090 C 
BRANCH   4   5
ATOM      5  C   UNL d   1       9.116   0.778 -16.013  0.00  0.00     0.252 C 
ATOM      6  O   UNL d   1      10.255   0.320 -16.000  0.00  0.00    -0.271 OA
ATOM      7  N   UNL d   1       8.094   0.006 -16.355  0.00  0.00    -0.235 NA
BRANCH   7   8
ATOM      8  C   UNL d   1       6.687   0.246 -16.139  0.00  0.00     0.128 C 
ATOM      9  C   UNL d   1       5.869  -0.235 -17.343  0.00  0.00    -0.004 A 
ATOM     10  C   UNL d   1       4.610  -0.871 -17.173  0.00  0.00    -0.024 A 
ATOM     11  C   UNL d   1       6.357  -0.002 -18.651  0.00  0.00    -0.003 A 
ATOM     12  C   UNL d   1       4.035  -1.147 -15.789  0.00  0.00     0.026 C 
ATOM     13  C   UNL d   1       3.856  -1.231 -18.308  0.00  0.00    -0.004 A 
ATOM     14  C   UNL d   1       4.744  -0.393 -14.649  0.00  0.00     0.007 C 
ATOM     15  C   UNL d   1       6.253  -0.447 -14.810  0.00  0.00     0.029 C 
ATOM     16  C   UNL d   1       4.346  -0.968 -19.602  0.00  0.00    -0.000 A 
ATOM     17  C   UNL d   1       5.601  -0.356 -19.779  0.00  0.00    -0.000 A 
ENDBRANCH   7   8
ENDBRANCH   4   5
ENDBRANCH   3   4
ENDBRANCH   2   3
ENDBRANCH   1   2
BRANCH   1  18
ATOM     18  C   UNL d   1       9.441   5.502 -11.805  0.00  0.00     0.250 C 
BRANCH  18  19
ATOM     19  N   UNL d   1       9.106   5.775 -10.408  0.00  0.00     0.141 N 
ATOM     20  C   UNL d   1       9.182   7.209 -10.254  0.00  0.00     0.274 C 
ATOM     21  C   UNL d   1       8.931   7.579  -8.758  0.00  0.00     0.137 C 
ATOM     22  N   UNL d   1       9.884   6.966  -7.858  0.00  0.00    -0.343 N 
ATOM     23  C   UNL d   1       9.995   5.546  -8.027  0.00  0.00     0.137 C 
ATOM     24  C   UNL d   1      10.171   5.284  -9.526  0.00  0.00     0.274 C 
BRANCH  22  25
ATOM     25  C   UNL d   1      10.609   7.729  -6.952  0.00  0.00     0.078 A 
ATOM     26  C   UNL d   1      11.550   8.676  -7.385  0.00  0.00     0.142 A 
ATOM     27  C   UNL d   1      12.250   9.479  -6.454  0.00  0.00     0.025 A 
ATOM     28  C   UNL d   1      12.065   9.257  -5.076  0.00  0.00     0.002 A 
ATOM     29  C   UNL d   1      11.179   8.268  -4.635  0.00  0.00     0.002 A 
ATOM     30  C   UNL d   1      10.416   7.526  -5.577  0.00  0.00     0.019 A 
BRANCH  26  31
ATOM     31  N   UNL d   1      11.841   8.790  -8.807  0.00  0.00    -0.112 N 
ATOM     32  O   UNL d   1      11.122   9.527  -9.469  0.00  0.00    -0.532 OA
ATOM     33  O   UNL d   1      12.789   8.150  -9.233  0.00  0.00    -0.532 OA
ENDBRANCH  26  31
ENDBRANCH  22  25
ENDBRANCH  18  19
ENDBRANCH   1  18
TORSDOF 9
