REMARK  8 active torsions:
REMARK  status: ('A' for Active; 'I' for Inactive)
REMARK    1  A    between atoms: O_2  and  C_3 
REMARK    2  A    between atoms: C_8  and  N_9 
REMARK    3  A    between atoms: N_12  and  C_13 
REMARK    4  A    between atoms: C_13  and  C_14 
REMARK    5  A    between atoms: C_14  and  C_15 
REMARK    6  A    between atoms: C_15  and  C_16 
REMARK    7  A    between atoms: C_16  and  N_17 
REMARK       I    between atoms: N_17  and  C_18 
REMARK    8  A    between atoms: C_18  and  C_20 
ROOT
ATOM      1  N   UNL d   1       8.068   4.010 -13.947  0.00  0.00    -0.343 N 
ATOM      2  C   UNL d   1       7.091   4.166 -12.875  0.00  0.00     0.137 C 
ATOM      3  C   UNL d   1       7.784   4.728 -11.616  0.00  0.00     0.274 C 
ATOM      4  N   UNL d   1       8.483   5.975 -11.928  0.00  0.00     0.141 N 
ATOM      5  C   UNL d   1       9.517   5.698 -12.925  0.00  0.00     0.274 C 
ATOM      6  C   UNL d   1       8.877   5.185 -14.221  0.00  0.00     0.137 C 
ENDROOT
BRANCH   4   7
ATOM      7  C   UNL d   1       9.082   6.500 -10.702  0.00  0.00     0.251 C 
BRANCH   7   8
ATOM      8  C   UNL d   1       9.531   7.978 -10.860  0.00  0.00     0.037 C 
BRANCH   8   9
ATOM      9  C   UNL d   1      10.221   8.529  -9.602  0.00  0.00     0.029 C 
BRANCH   9  10
ATOM     10  C   UNL d   1       9.308   8.571  -8.359  0.00  0.00     0.129 C 
BRANCH  10  11
ATOM     11  N   UNL d   1      10.062   8.720  -7.124  0.00  0.00    -0.234 NA
ATOM     12  C   UNL d   1      10.863   7.776  -6.600  0.00  0.00     0.275 C 
ATOM     13  O   UNL d   1      11.144   6.722  -7.171  0.00  0.00    -0.266 OA
BRANCH  12  14
ATOM     14  C   UNL d   1      11.349   8.046  -5.206  0.00  0.00     0.058 A 
ATOM     15  C   UNL d   1      11.409   9.361  -4.689  0.00  0.00     0.005 A 
ATOM     16  C   UNL d   1      11.850   9.582  -3.371  0.00  0.00     0.000 A 
ATOM     17  C   UNL d   1      12.263   8.500  -2.571  0.00  0.00     0.000 A 
ATOM     18  C   UNL d   1      12.227   7.191  -3.084  0.00  0.00     0.000 A 
ATOM     19  C   UNL d   1      11.771   6.968  -4.397  0.00  0.00     0.005 A 
ENDBRANCH  12  14
ENDBRANCH  10  11
ENDBRANCH   9  10
ENDBRANCH   8   9
ENDBRANCH   7   8
ENDBRANCH   4   7
BRANCH   1  20
ATOM     20  C   UNL d   1       8.276   2.777 -14.589  0.00  0.00     0.079 A 
ATOM     21  C   UNL d   1       9.581   2.309 -14.897  0.00  0.00     0.110 A 
ATOM     22  C   UNL d   1       9.727   1.084 -15.597  0.00  0.00     0.026 A 
ATOM     23  C   UNL d   1       8.601   0.334 -15.971  0.00  0.00     0.002 A 
ATOM     24  C   UNL d   1       7.310   0.788 -15.649  0.00  0.00     0.002 A 
ATOM     25  C   UNL d   1       7.155   2.008 -14.964  0.00  0.00     0.019 A 
BRANCH  21  26
ATOM     26  O   UNL d   1      10.667   3.045 -14.469  0.00  0.00    -0.327 OA
ATOM     27  C   UNL d   1      11.850   2.973 -15.242  0.00  0.00     0.181 C 
ENDBRANCH  21  26
ENDBRANCH   1  20
TORSDOF 8
