REMARK  8 active torsions:
REMARK  status: ('A' for Active; 'I' for Inactive)
REMARK    1  A    between atoms: S_2  and  N_5 
REMARK    2  A    between atoms: N_5  and  C_6 
REMARK    3  A    between atoms: C_8  and  O_9 
REMARK    4  A    between atoms: O_9  and  C_10 
REMARK    5  A    between atoms: C_10  and  C_11 
REMARK    6  A    between atoms: C_11  and  N_12 
REMARK    7  A    between atoms: N_12  and  C_13 
REMARK    8  A    between atoms: C_13  and  C_14 
ROOT
ATOM      1  C   UNL d   1       8.522   3.995 -13.488  0.00  0.00     0.123 A 
ATOM      2  C   UNL d   1       9.362   4.680 -12.579  0.00  0.00     0.046 A 
ATOM      3  C   UNL d   1       8.839   5.351 -11.460  0.00  0.00     0.096 A 
ATOM      4  C   UNL d   1       7.441   5.375 -11.270  0.00  0.00     0.027 A 
ATOM      5  C   UNL d   1       6.585   4.710 -12.162  0.00  0.00     0.033 A 
ATOM      6  C   UNL d   1       7.123   4.014 -13.267  0.00  0.00     0.159 A 
ATOM      7  F   UNL d   1       6.287   3.366 -14.115  0.00  0.00    -0.203 F 
ENDROOT
BRANCH   3   8
ATOM      8  O   UNL d   1       9.756   5.982 -10.659  0.00  0.00    -0.329 OA
BRANCH   8   9
ATOM      9  C   UNL d   1       9.453   6.183  -9.291  0.00  0.00     0.187 C 
BRANCH   9  10
ATOM     10  C   UNL d   1      10.296   7.361  -8.804  0.00  0.00     0.323 C 
BRANCH  10  11
ATOM     11  N   UNL d   1      10.088   7.497  -7.374  0.00  0.00     0.347 N 
BRANCH  11  12
ATOM     12  C   UNL d   1      10.825   8.637  -6.857  0.00  0.00     0.317 C 
BRANCH  12  13
ATOM     13  C   UNL d   1      11.243   8.453  -5.406  0.00  0.00     0.014 A 
ATOM     14  C   UNL d   1      11.455   9.583  -4.591  0.00  0.00    -0.002 A 
ATOM     15  C   UNL d   1      11.861   9.422  -3.255  0.00  0.00    -0.000 A 
ATOM     16  C   UNL d   1      12.065   8.132  -2.722  0.00  0.00    -0.000 A 
ATOM     17  C   UNL d   1      11.864   7.002  -3.534  0.00  0.00    -0.000 A 
ATOM     18  C   UNL d   1      11.462   7.162  -4.871  0.00  0.00    -0.002 A 
ENDBRANCH  12  13
ENDBRANCH  11  12
ENDBRANCH  10  11
ENDBRANCH   9  10
ENDBRANCH   8   9
ENDBRANCH   3   8
BRANCH   1  19
ATOM     19  N   UNL d   1       9.034   3.284 -14.585  0.00  0.00    -0.160 NA
BRANCH  19  20
ATOM     20  S   UNL d   1      10.648   3.107 -15.233  0.00  0.00     0.266 S 
ATOM     21  C   UNL d   1      10.840   1.298 -15.282  0.00  0.00     0.165 C 
ATOM     22  O   UNL d   1      11.623   3.640 -14.284  0.00  0.00    -0.203 OA
ATOM     23  O   UNL d   1      10.582   3.620 -16.615  0.00  0.00    -0.203 OA
ENDBRANCH  19  20
ENDBRANCH   1  19
TORSDOF 8
