REMARK  5 active torsions:
REMARK  status: ('A' for Active; 'I' for Inactive)
REMARK    1  A    between atoms: O_2  and  C_3 
REMARK    2  A    between atoms: N_11  and  C_12 
REMARK    3  A    between atoms: C_12  and  C_13 
REMARK    4  A    between atoms: C_13  and  N_14 
REMARK    5  A    between atoms: N_17  and  C_18 
ROOT
ATOM      1  C   UNL d   1       8.981   6.833 -12.016  0.00  0.00     0.140 C 
ENDROOT
BRANCH   1   2
ATOM      2  N   UNL d   1       8.447   5.637 -12.688  0.00  0.00    -0.314 N 
ATOM      3  C   UNL d   1       7.032   5.381 -12.403  0.00  0.00     0.109 C 
ATOM      4  C   UNL d   1       6.659   3.894 -12.454  0.00  0.00     0.053 C 
ATOM      5  C   UNL d   1       7.287   3.187 -13.650  0.00  0.00     0.007 A 
ATOM      6  C   UNL d   1       6.666   2.038 -14.220  0.00  0.00     0.090 A 
ATOM      7  C   UNL d   1       8.505   3.687 -14.174  0.00  0.00     0.054 A 
ATOM      8  C   UNL d   1       7.273   1.425 -15.346  0.00  0.00     0.024 A 
ATOM      9  C   UNL d   1       8.472   1.925 -15.870  0.00  0.00     0.002 A 
ATOM     10  C   UNL d   1       9.093   3.040 -15.285  0.00  0.00     0.004 A 
ATOM     11  C   UNL d   1       9.187   4.873 -13.534  0.00  0.00     0.257 C 
ATOM     12  O   UNL d   1      10.364   5.123 -13.799  0.00  0.00    -0.267 OA
BRANCH   6  13
ATOM     13  O   UNL d   1       5.503   1.577 -13.638  0.00  0.00    -0.328 OA
ATOM     14  C   UNL d   1       4.936   0.367 -14.133  0.00  0.00     0.181 C 
ENDBRANCH   6  13
ENDBRANCH   1   2
BRANCH   1  15
ATOM     15  C   UNL d   1       9.887   6.459 -10.832  0.00  0.00     0.274 C 
BRANCH  15  16
ATOM     16  N   UNL d   1       9.862   7.471  -9.777  0.00  0.00     0.143 N 
ATOM     17  C   UNL d   1       9.187   6.910  -8.598  0.00  0.00     0.274 C 
ATOM     18  C   UNL d   1       9.082   7.956  -7.470  0.00  0.00     0.137 C 
ATOM     19  N   UNL d   1      10.399   8.495  -7.161  0.00  0.00    -0.344 N 
ATOM     20  C   UNL d   1      11.192   8.953  -8.293  0.00  0.00     0.137 C 
ATOM     21  C   UNL d   1      11.221   7.880  -9.397  0.00  0.00     0.274 C 
BRANCH  19  22
ATOM     22  C   UNL d   1      10.925   8.449  -5.868  0.00  0.00     0.056 A 
ATOM     23  C   UNL d   1      11.304   7.221  -5.274  0.00  0.00     0.018 A 
ATOM     24  C   UNL d   1      11.859   7.197  -3.976  0.00  0.00     0.013 A 
ATOM     25  C   UNL d   1      12.002   8.391  -3.250  0.00  0.00     0.058 A 
ATOM     26  C   UNL d   1      11.604   9.606  -3.826  0.00  0.00     0.013 A 
ATOM     27 CL   UNL d   1      12.663   8.385  -1.664  0.00  0.00    -0.082 Cl
ATOM     28  C   UNL d   1      11.087   9.648  -5.138  0.00  0.00     0.018 A 
ENDBRANCH  19  22
ENDBRANCH  15  16
ENDBRANCH   1  15
TORSDOF 5
