REMARK  7 active torsions:
REMARK  status: ('A' for Active; 'I' for Inactive)
REMARK       I    between atoms: C_2  and  N_3 
REMARK    1  A    between atoms: C_2  and  C_21 
REMARK    2  A    between atoms: N_3  and  C_4 
REMARK    3  A    between atoms: C_4  and  C_5 
REMARK    4  A    between atoms: C_5  and  C_6 
REMARK    5  A    between atoms: C_6  and  C_7 
REMARK    6  A    between atoms: C_7  and  N_8 
REMARK    7  A    between atoms: N_11  and  C_12 
ROOT
ATOM      1  C   UNL d   1       8.107   6.556 -12.175  0.00  0.00     0.029 C 
ENDROOT
BRANCH   1   2
ATOM      2  C   UNL d   1       9.476   7.032 -11.678  0.00  0.00     0.129 C 
BRANCH   2   3
ATOM      3  N   UNL d   1       9.475   7.442 -10.285  0.00  0.00    -0.234 NA
ATOM      4  C   UNL d   1       9.846   6.704  -9.232  0.00  0.00     0.275 C 
ATOM      5  O   UNL d   1       9.903   5.473  -9.266  0.00  0.00    -0.266 OA
BRANCH   4   6
ATOM      6  C   UNL d   1      10.233   7.474  -7.992  0.00  0.00     0.058 A 
ATOM      7  C   UNL d   1      10.649   6.785  -6.834  0.00  0.00     0.005 A 
ATOM      8  C   UNL d   1      11.056   7.480  -5.676  0.00  0.00     0.000 A 
ATOM      9  C   UNL d   1      11.063   8.891  -5.665  0.00  0.00     0.000 A 
ATOM     10  C   UNL d   1      11.469   6.781  -4.527  0.00  0.00     0.000 A 
ATOM     11  C   UNL d   1      10.675   9.590  -6.821  0.00  0.00     0.000 A 
ATOM     12  C   UNL d   1      11.457   9.590  -4.505  0.00  0.00     0.000 A 
ATOM     13  C   UNL d   1      10.254   8.891  -7.970  0.00  0.00     0.005 A 
ATOM     14  C   UNL d   1      11.863   8.882  -3.356  0.00  0.00     0.000 A 
ATOM     15  C   UNL d   1      11.872   7.473  -3.368  0.00  0.00     0.000 A 
ENDBRANCH   4   6
ENDBRANCH   2   3
ENDBRANCH   1   2
BRANCH   1  16
ATOM     16  C   UNL d   1       7.792   5.108 -11.802  0.00  0.00     0.037 C 
BRANCH  16  17
ATOM     17  C   UNL d   1       6.461   4.647 -12.426  0.00  0.00     0.251 C 
BRANCH  17  18
ATOM     18  N   UNL d   1       6.525   3.241 -12.796  0.00  0.00     0.141 N 
ATOM     19  C   UNL d   1       7.259   3.042 -14.049  0.00  0.00     0.274 C 
ATOM     20  C   UNL d   1       7.397   1.543 -14.386  0.00  0.00     0.137 C 
ATOM     21  N   UNL d   1       6.082   0.913 -14.415  0.00  0.00    -0.344 N 
ATOM     22  C   UNL d   1       5.269   1.146 -13.225  0.00  0.00     0.137 C 
ATOM     23  C   UNL d   1       5.199   2.655 -12.889  0.00  0.00     0.274 C 
BRANCH  21  24
ATOM     24  C   UNL d   1       5.609   0.201 -15.541  0.00  0.00     0.056 A 
ATOM     25  C   UNL d   1       6.069   0.518 -16.845  0.00  0.00     0.018 A 
ATOM     26  C   UNL d   1       5.609  -0.187 -17.970  0.00  0.00     0.013 A 
ATOM     27  C   UNL d   1       4.667  -1.217 -17.823  0.00  0.00     0.058 A 
ATOM     28  C   UNL d   1       4.189  -1.538 -16.540  0.00  0.00     0.013 A 
ATOM     29 CL   UNL d   1       4.098  -2.067 -19.210  0.00  0.00    -0.082 Cl
ATOM     30  C   UNL d   1       4.652  -0.836 -15.407  0.00  0.00     0.018 A 
ENDBRANCH  21  24
ENDBRANCH  17  18
ENDBRANCH  16  17
ENDBRANCH   1  16
TORSDOF 7
