REMARK  7 active torsions:
REMARK  status: ('A' for Active; 'I' for Inactive)
REMARK       I    between atoms: C_2  and  N_3 
REMARK    1  A    between atoms: C_2  and  C_20 
REMARK    2  A    between atoms: N_3  and  C_4 
REMARK    3  A    between atoms: C_4  and  C_5 
REMARK    4  A    between atoms: C_5  and  C_6 
REMARK    5  A    between atoms: C_6  and  C_7 
REMARK    6  A    between atoms: C_7  and  N_8 
REMARK    7  A    between atoms: N_11  and  C_12 
ROOT
ATOM      1  C   UNL d   1       8.359   4.026 -12.546  0.00  0.00     0.029 C 
ENDROOT
BRANCH   1   2
ATOM      2  C   UNL d   1       8.222   4.348 -14.037  0.00  0.00     0.129 C 
BRANCH   2   3
ATOM      3  N   UNL d   1       9.475   4.777 -14.644  0.00  0.00    -0.233 NA
ATOM      4  C   UNL d   1      10.513   3.985 -14.943  0.00  0.00     0.298 C 
ATOM      5  O   UNL d   1      10.556   2.781 -14.687  0.00  0.00    -0.263 OA
BRANCH   4   6
ATOM      6  C   UNL d   1      11.629   4.654 -15.634  0.00  0.00     0.157 A 
ATOM      7  O   UNL d   1      11.544   6.006 -15.875  0.00  0.00    -0.302 OA
ATOM      8  C   UNL d   1      12.697   6.377 -16.531  0.00  0.00     0.100 A 
ATOM      9  C   UNL d   1      13.525   5.244 -16.702  0.00  0.00     0.025 A 
ATOM     10  C   UNL d   1      13.044   7.659 -16.987  0.00  0.00     0.025 A 
ATOM     11  C   UNL d   1      12.812   4.147 -16.114  0.00  0.00     0.032 A 
ATOM     12  C   UNL d   1      14.763   5.443 -17.359  0.00  0.00     0.002 A 
ATOM     13  C   UNL d   1      15.131   6.725 -17.832  0.00  0.00     0.000 A 
ATOM     14  C   UNL d   1      14.272   7.829 -17.651  0.00  0.00     0.002 A 
ENDBRANCH   4   6
ENDBRANCH   2   3
ENDBRANCH   1   2
BRANCH   1  15
ATOM     15  C   UNL d   1       8.731   5.248 -11.699  0.00  0.00     0.037 C 
BRANCH  15  16
ATOM     16  C   UNL d   1       8.880   4.882 -10.216  0.00  0.00     0.251 C 
BRANCH  16  17
ATOM     17  N   UNL d   1       8.991   6.075  -9.389  0.00  0.00     0.141 N 
ATOM     18  C   UNL d   1      10.310   6.699  -9.499  0.00  0.00     0.274 C 
ATOM     19  C   UNL d   1      10.396   7.967  -8.639  0.00  0.00     0.137 C 
ATOM     20  N   UNL d   1      10.077   7.650  -7.254  0.00  0.00    -0.344 N 
ATOM     21  C   UNL d   1       8.801   6.971  -7.074  0.00  0.00     0.137 C 
ATOM     22  C   UNL d   1       8.731   5.729  -7.988  0.00  0.00     0.274 C 
BRANCH  20  23
ATOM     23  C   UNL d   1      10.923   8.006  -6.185  0.00  0.00     0.056 A 
ATOM     24  C   UNL d   1      11.694   9.184  -6.242  0.00  0.00     0.017 A 
ATOM     25  C   UNL d   1      12.538   9.537  -5.171  0.00  0.00     0.002 A 
ATOM     26  C   UNL d   1      12.610   8.735  -4.020  0.00  0.00     0.000 A 
ATOM     27  C   UNL d   1      11.856   7.555  -3.950  0.00  0.00     0.002 A 
ATOM     28  C   UNL d   1      11.024   7.190  -5.027  0.00  0.00     0.017 A 
ENDBRANCH  20  23
ENDBRANCH  16  17
ENDBRANCH  15  16
ENDBRANCH   1  15
TORSDOF 7
