REMARK  1 active torsions:
REMARK  status: ('A' for Active; 'I' for Inactive)
REMARK       I    between atoms: C_2  and  N_4 
REMARK    1  A    between atoms: N_7  and  C_8 
ROOT
ATOM      1  N   UNL d   1       8.022   4.793 -11.289  0.00  0.00    -0.086 N 
ATOM      2  C   UNL d   1       8.945   5.744 -11.398  0.00  0.00     0.364 C 
ATOM      3  O   UNL d   1       9.459   5.985 -12.489  0.00  0.00    -0.243 OA
ATOM      4  N   UNL d   1       9.193   6.431 -10.261  0.00  0.00    -0.296 N 
ATOM      5  C   UNL d   1       8.852   5.981  -8.895  0.00  0.00     0.130 C 
ATOM      6  C   UNL d   1      10.114   5.907  -8.044  0.00  0.00     0.126 C 
ATOM      7  N   UNL d   1      10.841   7.174  -8.074  0.00  0.00    -0.344 N 
ATOM      8  C   UNL d   1      11.140   7.705  -9.409  0.00  0.00     0.126 C 
ATOM      9  C   UNL d   1       9.866   7.747 -10.269  0.00  0.00     0.130 C 
ENDROOT
BRANCH   7  10
ATOM     10  C   UNL d   1      11.089   7.885  -6.883  0.00  0.00     0.057 A 
ATOM     11  C   UNL d   1      11.307   7.191  -5.665  0.00  0.00     0.028 A 
ATOM     12  C   UNL d   1      11.583   7.887  -4.476  0.00  0.00     0.059 A 
ATOM     13  C   UNL d   1      11.642   9.290  -4.475  0.00  0.00     0.011 A 
ATOM     14 CL   UNL d   1      11.878   7.013  -3.020  0.00  0.00    -0.082 Cl
ATOM     15  C   UNL d   1      11.421   9.992  -5.673  0.00  0.00     0.002 A 
ATOM     16  C   UNL d   1      11.147   9.299  -6.866  0.00  0.00     0.017 A 
ENDBRANCH   7  10
TORSDOF 1
