REMARK  0 active torsions:
REMARK  status: ('A' for Active; 'I' for Inactive)
ROOT
ATOM      1  C   UNL d   1       5.448   2.301 -12.757  0.00  0.00     0.036 C 
ATOM      2  C   UNL d   1       5.981   1.829 -14.128  0.00  0.00     0.224 C 
ATOM      3  C   UNL d   1       6.736   2.991 -14.764  0.00  0.00     0.061 C 
ATOM      4  C   UNL d   1       7.936   3.481 -13.986  0.00  0.00    -0.005 A 
ATOM      5  C   UNL d   1       9.216   2.967 -13.928  0.00  0.00     0.059 A 
ATOM      6  N   UNL d   1       9.989   3.751 -13.100  0.00  0.00    -0.250 NA
ATOM      7  C   UNL d   1       9.267   4.811 -12.611  0.00  0.00     0.081 A 
ATOM      8  C   UNL d   1       9.608   5.873 -11.767  0.00  0.00     0.019 C 
ATOM      9  C   UNL d   1       8.668   6.872 -11.538  0.00  0.00     0.002 C 
ATOM     10  C   UNL d   1       7.371   6.743 -12.094  0.00  0.00     0.000 C 
ATOM     11  C   UNL d   1       6.989   5.606 -12.795  0.00  0.00     0.001 C 
ATOM     12  C   UNL d   1       7.963   4.649 -13.164  0.00  0.00     0.015 A 
ATOM     13  C   UNL d   1       9.805   1.745 -14.538  0.00  0.00     0.071 C 
ATOM     14  C   UNL d   1       9.681   1.728 -16.052  0.00  0.00    -0.020 A 
ATOM     15  C   UNL d   1      10.379   2.713 -16.777  0.00  0.00    -0.004 A 
ATOM     16  C   UNL d   1      10.309   2.751 -18.181  0.00  0.00    -0.000 A 
ATOM     17  C   UNL d   1       9.547   1.796 -18.877  0.00  0.00    -0.000 A 
ATOM     18  C   UNL d   1       8.848   0.814 -18.162  0.00  0.00    -0.004 A 
ATOM     19  C   UNL d   1       8.902   0.777 -16.756  0.00  0.00    -0.024 A 
ATOM     20  C   UNL d   1       8.130  -0.329 -16.078  0.00  0.00     0.061 C 
ATOM     21  C   UNL d   1       6.742   0.067 -15.564  0.00  0.00     0.255 C 
ATOM     22  N   UNL d   1       6.822   0.639 -14.207  0.00  0.00     0.138 N 
ATOM     23  C   UNL d   1       6.441  -0.375 -13.238  0.00  0.00     0.285 C 
ENDROOT
TORSDOF 0
