REMARK  5 active torsions:
REMARK  status: ('A' for Active; 'I' for Inactive)
REMARK    1  A    between atoms: C_2  and  C_3 
REMARK    2  A    between atoms: C_3  and  C_4 
REMARK    3  A    between atoms: C_4  and  N_5 
REMARK    4  A    between atoms: N_8  and  C_9 
REMARK    5  A    between atoms: C_13  and  C_14 
ROOT
ATOM      1  N   UNL d   1      10.352   7.933 -10.136  0.00  0.00     0.141 N 
ATOM      2  C   UNL d   1       9.447   8.302  -9.073  0.00  0.00     0.274 C 
ATOM      3  C   UNL d   1      10.170   9.045  -7.949  0.00  0.00     0.137 C 
ATOM      4  N   UNL d   1      11.292   8.280  -7.490  0.00  0.00    -0.344 N 
ATOM      5  C   UNL d   1      12.256   7.903  -8.497  0.00  0.00     0.137 C 
ATOM      6  C   UNL d   1      11.458   7.145  -9.576  0.00  0.00     0.274 C 
ENDROOT
BRANCH   4   7
ATOM      7  C   UNL d   1      11.403   7.962  -6.129  0.00  0.00     0.067 A 
ATOM      8  C   UNL d   1      11.500   8.974  -5.159  0.00  0.00     0.069 A 
ATOM      9  C   UNL d   1      11.754   8.649  -3.808  0.00  0.00    -0.010 A 
ATOM     10 CL   UNL d   1      11.406  10.620  -5.653  0.00  0.00    -0.081 Cl
ATOM     11  C   UNL d   1      11.927   7.320  -3.418  0.00  0.00    -0.003 A 
ATOM     12  C   UNL d   1      11.862   6.351  -4.417  0.00  0.00     0.001 A 
ATOM     13  C   UNL d   1      11.546   6.636  -5.748  0.00  0.00     0.018 A 
BRANCH   9  14
ATOM     14  C   UNL d   1      11.905   9.730  -2.795  0.00  0.00     0.027 C 
ATOM     15  C   UNL d   1      12.268   9.248  -1.383  0.00  0.00     0.005 C 
ENDBRANCH   9  14
ENDBRANCH   4   7
BRANCH   1  16
ATOM     16  C   UNL d   1       9.617   7.259 -11.211  0.00  0.00     0.250 C 
BRANCH  16  17
ATOM     17  C   UNL d   1       9.288   5.759 -10.960  0.00  0.00     0.035 C 
BRANCH  17  18
ATOM     18  C   UNL d   1       8.738   5.028 -12.191  0.00  0.00     0.002 C 
ATOM     19  C   UNL d   1       9.797   4.868 -13.297  0.00  0.00     0.000 C 
ENDBRANCH  17  18
ENDBRANCH  16  17
ENDBRANCH   1  16
TORSDOF 5
