REMARK  8 active torsions:
REMARK  status: ('A' for Active; 'I' for Inactive)
REMARK    1  A    between atoms: O_2  and  C_3 
REMARK    2  A    between atoms: C_8  and  N_9 
REMARK    3  A    between atoms: N_12  and  C_13 
REMARK    4  A    between atoms: C_13  and  C_14 
REMARK    5  A    between atoms: C_14  and  C_15 
REMARK    6  A    between atoms: C_15  and  C_16 
REMARK    7  A    between atoms: C_16  and  C_17 
REMARK    8  A    between atoms: C_19  and  C_20 
ROOT
ATOM      1  C   UNL d   1       8.870   3.299 -13.729  0.00  0.00     0.250 C 
ENDROOT
BRANCH   1   2
ATOM      2  N   UNL d   1       7.956   2.773 -14.737  0.00  0.00     0.141 N 
ATOM      3  C   UNL d   1       8.679   2.547 -15.993  0.00  0.00     0.274 C 
ATOM      4  C   UNL d   1       7.722   2.018 -17.079  0.00  0.00     0.137 C 
ATOM      5  N   UNL d   1       7.038   0.821 -16.615  0.00  0.00    -0.343 N 
ATOM      6  C   UNL d   1       6.418   0.917 -15.299  0.00  0.00     0.137 C 
ATOM      7  C   UNL d   1       7.393   1.495 -14.280  0.00  0.00     0.274 C 
BRANCH   5   8
ATOM      8  C   UNL d   1       6.987  -0.362 -17.377  0.00  0.00     0.079 A 
ATOM      9  C   UNL d   1       5.804  -1.143 -17.448  0.00  0.00     0.110 A 
ATOM     10  C   UNL d   1       5.822  -2.360 -18.177  0.00  0.00     0.026 A 
ATOM     11  C   UNL d   1       6.986  -2.780 -18.849  0.00  0.00     0.002 A 
ATOM     12  C   UNL d   1       8.144  -1.991 -18.799  0.00  0.00     0.002 A 
ATOM     13  C   UNL d   1       8.150  -0.795 -18.058  0.00  0.00     0.019 A 
BRANCH   9  14
ATOM     14  O   UNL d   1       4.667  -0.662 -16.826  0.00  0.00    -0.327 OA
ATOM     15  C   UNL d   1       3.593  -1.559 -16.593  0.00  0.00     0.181 C 
ENDBRANCH   9  14
ENDBRANCH   5   8
ENDBRANCH   1   2
BRANCH   1  16
ATOM     16  C   UNL d   1       8.124   4.159 -12.694  0.00  0.00     0.036 C 
BRANCH  16  17
ATOM     17  C   UNL d   1       9.094   4.765 -11.666  0.00  0.00     0.009 C 
BRANCH  17  18
ATOM     18  C   UNL d   1       8.379   5.511 -10.528  0.00  0.00     0.054 C 
BRANCH  18  19
ATOM     19  C   UNL d   1       9.300   6.278  -9.637  0.00  0.00     0.104 A 
ATOM     20  O   UNL d   1      10.190   7.099 -10.243  0.00  0.00    -0.215 OA
ATOM     21  N   UNL d   1      10.938   7.745  -9.258  0.00  0.00    -0.127 NA
ATOM     22  C   UNL d   1      10.466   7.321  -8.096  0.00  0.00     0.110 A 
ATOM     23  C   UNL d   1       9.419   6.375  -8.279  0.00  0.00     0.044 A 
BRANCH  22  24
ATOM     24  C   UNL d   1      11.031   7.844  -6.848  0.00  0.00     0.020 A 
ATOM     25  C   UNL d   1      11.694   9.091  -6.826  0.00  0.00     0.004 A 
ATOM     26  C   UNL d   1      12.243   9.590  -5.628  0.00  0.00     0.030 A 
ATOM     27  C   UNL d   1      12.122   8.850  -4.436  0.00  0.00     0.140 A 
ATOM     28  C   UNL d   1      11.471   7.602  -4.451  0.00  0.00     0.030 A 
ATOM     29  F   UNL d   1      12.639   9.322  -3.278  0.00  0.00    -0.204 F 
ATOM     30  C   UNL d   1      10.918   7.109  -5.649  0.00  0.00     0.004 A 
ENDBRANCH  22  24
ENDBRANCH  18  19
ENDBRANCH  17  18
ENDBRANCH  16  17
ENDBRANCH   1  16
TORSDOF 8
