REMARK  7 active torsions:
REMARK  status: ('A' for Active; 'I' for Inactive)
REMARK    1  A    between atoms: C_5  and  O_6 
REMARK    2  A    between atoms: O_6  and  C_7 
REMARK    3  A    between atoms: C_7  and  C_8 
REMARK    4  A    between atoms: C_8  and  N_9 
REMARK    5  A    between atoms: N_9  and  C_10 
REMARK    6  A    between atoms: C_10  and  C_11 
REMARK       I    between atoms: N_15  and  C_16 
REMARK    7  A    between atoms: C_16  and  C_18 
ROOT
ATOM      1  C   UNL d   1       8.931   5.640 -11.733  0.00  0.00     0.172 C 
ATOM      2  F   UNL d   1       8.700   6.829 -12.280  0.00  0.00    -0.238 F 
ATOM      3  C   UNL d   1       9.655   4.788 -12.793  0.00  0.00     0.059 C 
ATOM      4  C   UNL d   1       8.747   4.561 -14.019  0.00  0.00     0.107 C 
ATOM      5  N   UNL d   1       7.502   3.871 -13.595  0.00  0.00    -0.317 N 
ATOM      6  C   UNL d   1       7.031   2.699 -14.047  0.00  0.00     0.257 C 
ATOM      7  O   UNL d   1       5.901   2.276 -13.781  0.00  0.00    -0.267 OA
ATOM      8  C   UNL d   1       6.738   4.688 -12.626  0.00  0.00     0.107 C 
ATOM      9  C   UNL d   1       7.581   4.984 -11.377  0.00  0.00     0.059 C 
ENDROOT
BRANCH   1  10
ATOM     10  C   UNL d   1       9.825   5.851 -10.500  0.00  0.00     0.323 C 
BRANCH  10  11
ATOM     11  N   UNL d   1       9.125   6.613  -9.485  0.00  0.00     0.345 N 
BRANCH  11  12
ATOM     12  C   UNL d   1      10.064   7.385  -8.708  0.00  0.00     0.323 C 
BRANCH  12  13
ATOM     13  C   UNL d   1       9.285   8.354  -7.802  0.00  0.00     0.189 C 
BRANCH  13  14
ATOM     14  O   UNL d   1      10.164   9.194  -7.061  0.00  0.00    -0.312 OA
BRANCH  14  15
ATOM     15  C   UNL d   1      10.767   8.688  -5.933  0.00  0.00     0.178 A 
ATOM     16  C   UNL d   1      11.305   9.596  -5.003  0.00  0.00     0.044 A 
ATOM     17  C   UNL d   1      11.886   9.094  -3.825  0.00  0.00     0.001 A 
ATOM     18  C   UNL d   1      11.933   7.698  -3.641  0.00  0.00    -0.003 A 
ATOM     19  C   UNL d   1      12.524   7.086  -2.394  0.00  0.00     0.033 C 
ATOM     20  C   UNL d   1      11.396   6.869  -4.645  0.00  0.00     0.097 A 
ATOM     21  N   UNL d   1      10.808   7.349  -5.753  0.00  0.00    -0.221 NA
ENDBRANCH  14  15
ENDBRANCH  13  14
ENDBRANCH  12  13
ENDBRANCH  11  12
ENDBRANCH  10  11
ENDBRANCH   1  10
BRANCH   6  22
ATOM     22  C   UNL d   1       7.925   1.831 -14.893  0.00  0.00     0.057 A 
ATOM     23  C   UNL d   1       7.443   1.272 -16.100  0.00  0.00     0.018 A 
ATOM     24  C   UNL d   1       8.291   0.484 -16.901  0.00  0.00     0.085 A 
ATOM     25  C   UNL d   1       9.617   0.220 -16.495  0.00  0.00     0.151 A 
ATOM     26 CL   UNL d   1       7.708  -0.160 -18.394  0.00  0.00    -0.080 Cl
ATOM     27  C   UNL d   1      10.085   0.752 -15.270  0.00  0.00     0.031 A 
ATOM     28  F   UNL d   1      10.456  -0.498 -17.274  0.00  0.00    -0.203 F 
ATOM     29  C   UNL d   1       9.233   1.504 -14.466  0.00  0.00     0.007 A 
ENDBRANCH   6  22
TORSDOF 7
