REMARK  3 active torsions:
REMARK  status: ('A' for Active; 'I' for Inactive)
REMARK    1  A    between atoms: C_9  and  C_10 
REMARK    2  A    between atoms: C_10  and  C_11 
REMARK    3  A    between atoms: C_11  and  N_12 
ROOT
ATOM      1  C   UNL d   1       8.988   4.647 -11.869  0.00  0.00     0.036 C 
ENDROOT
BRANCH   1   2
ATOM      2  C   UNL d   1       8.086   4.745 -13.111  0.00  0.00     0.011 C 
ATOM      3  C   UNL d   1       6.703   4.078 -12.875  0.00  0.00     0.026 C 
ATOM      4  C   UNL d   1       6.761   2.825 -13.701  0.00  0.00    -0.024 A 
ATOM      5  C   UNL d   1       7.906   2.788 -14.488  0.00  0.00    -0.026 A 
ATOM      6  C   UNL d   1       5.867   1.743 -13.657  0.00  0.00     0.025 A 
ATOM      7  C   UNL d   1       8.197   1.684 -15.304  0.00  0.00    -0.002 A 
ATOM      8  C   UNL d   1       8.748   4.015 -14.312  0.00  0.00     0.026 C 
ATOM      9  C   UNL d   1       7.294   0.597 -15.297  0.00  0.00     0.029 A 
ATOM     10  C   UNL d   1       6.139   0.624 -14.476  0.00  0.00     0.140 A 
ATOM     11  F   UNL d   1       5.292  -0.427 -14.470  0.00  0.00    -0.204 F 
ENDBRANCH   1   2
BRANCH   1  12
ATOM     12  C   UNL d   1       8.415   5.395 -10.651  0.00  0.00     0.251 C 
BRANCH  12  13
ATOM     13  N   UNL d   1       9.497   6.016  -9.905  0.00  0.00     0.142 N 
ATOM     14  C   UNL d   1       9.040   6.337  -8.552  0.00  0.00     0.276 C 
ATOM     15  C   UNL d   1      10.029   7.169  -7.755  0.00  0.00     0.007 A 
ATOM     16  C   UNL d   1      11.033   7.911  -8.419  0.00  0.00    -0.022 A 
ATOM     17  C   UNL d   1       9.925   7.238  -6.353  0.00  0.00    -0.003 A 
ATOM     18  C   UNL d   1      11.144   7.825  -9.926  0.00  0.00     0.061 C 
ATOM     19  C   UNL d   1      11.944   8.690  -7.686  0.00  0.00    -0.004 A 
ATOM     20  C   UNL d   1       9.871   7.263 -10.577  0.00  0.00     0.255 C 
ATOM     21  C   UNL d   1      11.826   8.779  -6.287  0.00  0.00    -0.000 A 
ATOM     22  C   UNL d   1      10.835   8.032  -5.623  0.00  0.00    -0.000 A 
ENDBRANCH  12  13
ENDBRANCH   1  12
TORSDOF 3
