REMARK  0 active torsions:
REMARK  status: ('A' for Active; 'I' for Inactive)
ROOT
ATOM      1  N   UNL d   1       9.864   7.955 -10.549  0.00  0.00    -0.191 NA
ATOM      2  C   UNL d   1      10.192   7.904  -9.438  0.00  0.00     0.101 C 
ATOM      3  C   UNL d   1      10.607   7.839  -8.040  0.00  0.00     0.068 A 
ATOM      4  C   UNL d   1      10.989   6.613  -7.464  0.00  0.00     0.010 A 
ATOM      5  C   UNL d   1      11.422   6.552  -6.127  0.00  0.00    -0.004 A 
ATOM      6  C   UNL d   1      11.446   7.716  -5.339  0.00  0.00    -0.022 A 
ATOM      7  C   UNL d   1      11.046   8.943  -5.904  0.00  0.00     0.010 A 
ATOM      8  C   UNL d   1      10.641   9.004  -7.249  0.00  0.00     0.008 A 
ATOM      9  C   UNL d   1      11.107  10.212  -5.080  0.00  0.00     0.316 C 
ATOM     10  N   UNL d   1      11.167   9.986  -3.641  0.00  0.00     0.344 N 
ATOM     11  C   UNL d   1      12.235   9.048  -3.333  0.00  0.00     0.295 C 
ATOM     12  C   UNL d   1      11.875   7.656  -3.885  0.00  0.00     0.064 C 
ENDROOT
TORSDOF 0
