REMARK  9 active torsions:
REMARK  status: ('A' for Active; 'I' for Inactive)
REMARK    1  A    between atoms: C_2  and  C_3 
REMARK    2  A    between atoms: C_3  and  N_4 
REMARK    3  A    between atoms: N_4  and  C_5 
REMARK    4  A    between atoms: N_4  and  C_26 
REMARK    5  A    between atoms: C_5  and  C_6 
REMARK    6  A    between atoms: C_6  and  C_7 
REMARK    7  A    between atoms: C_10  and  N_11 
REMARK    8  A    between atoms: N_11  and  C_12 
REMARK    9  A    between atoms: C_15  and  N_16 
ROOT
ATOM      1  C   UNL d   1      10.155   3.692 -14.800  0.00  0.00    -0.020 A 
ATOM      2  C   UNL d   1      10.373   2.344 -14.459  0.00  0.00    -0.003 A 
ATOM      3  C   UNL d   1      10.898   1.473 -15.429  0.00  0.00     0.019 A 
ATOM      4  C   UNL d   1      11.228   1.957 -16.719  0.00  0.00     0.081 A 
ATOM      5  C   UNL d   1      11.063   3.337 -17.019  0.00  0.00     0.019 A 
ATOM      6  C   UNL d   1      10.480   4.181 -16.070  0.00  0.00    -0.003 A 
ENDROOT
BRANCH   1   7
ATOM      7  C   UNL d   1       9.614   4.628 -13.796  0.00  0.00     0.062 C 
BRANCH   7   8
ATOM      8  C   UNL d   1       8.268   4.194 -13.266  0.00  0.00     0.255 C 
BRANCH   8   9
ATOM      9  N   UNL d   1       7.431   5.329 -12.834  0.00  0.00     0.136 N 
BRANCH   9  10
ATOM     10  C   UNL d   1       6.047   4.899 -12.582  0.00  0.00     0.250 C 
BRANCH  10  11
ATOM     11  C   UNL d   1       5.932   3.581 -11.779  0.00  0.00     0.035 C 
ATOM     12  C   UNL d   1       5.768   2.330 -12.669  0.00  0.00     0.002 C 
ENDBRANCH  10  11
ENDBRANCH   9  10
BRANCH   9  13
ATOM     13  C   UNL d   1       7.967   6.200 -11.789  0.00  0.00     0.224 C 
ATOM     14  C   UNL d   1       8.386   5.412 -10.527  0.00  0.00     0.059 C 
ATOM     15  C   UNL d   1       9.223   6.200  -9.549  0.00  0.00    -0.022 A 
ATOM     16  C   UNL d   1       9.858   7.419  -9.889  0.00  0.00    -0.001 A 
ATOM     17  C   UNL d   1       9.387   5.638  -8.267  0.00  0.00    -0.004 A 
ATOM     18  C   UNL d   1       9.634   8.082 -11.244  0.00  0.00     0.030 C 
ATOM     19  C   UNL d   1      10.676   8.058  -8.924  0.00  0.00     0.127 A 
ATOM     20  C   UNL d   1       9.129   7.103 -12.283  0.00  0.00     0.038 C 
ATOM     21  O   UNL d   1      11.325   9.201  -9.236  0.00  0.00    -0.191 OA
ATOM     22  C   UNL d   1      10.818   7.505  -7.648  0.00  0.00     0.027 A 
ATOM     23  C   UNL d   1      10.171   6.314  -7.310  0.00  0.00     0.002 A 
ENDBRANCH   9  13
ENDBRANCH   8   9
ENDBRANCH   7   8
ENDBRANCH   1   7
BRANCH   4  24
ATOM     24  N   UNL d   1      11.734   1.045 -17.645  0.00  0.00    -0.244 NA
BRANCH  24  25
ATOM     25  C   UNL d   1      11.833   1.136 -19.043  0.00  0.00     0.103 A 
ATOM     26  C   UNL d   1      12.604   0.176 -19.724  0.00  0.00     0.149 A 
ATOM     27  C   UNL d   1      12.757   0.232 -21.150  0.00  0.00     0.153 A 
ATOM     28  N   UNL d   1      13.263  -0.878 -19.238  0.00  0.00    -0.100 NA
ATOM     29  C   UNL d   1      12.148   1.262 -21.874  0.00  0.00     0.148 A 
ATOM     30  N   UNL d   1      13.512  -0.806 -21.542  0.00  0.00    -0.100 NA
ATOM     31  C   UNL d   1      11.357   2.208 -21.175  0.00  0.00     0.027 A 
ATOM     32  C   UNL d   1      11.165   2.121 -19.797  0.00  0.00     0.022 A 
ATOM     33  O   UNL d   1      13.826  -1.485 -20.363  0.00  0.00    -0.106 OA
BRANCH  29  34
ATOM     34  N   UNL d   1      12.257   1.376 -23.351  0.00  0.00    -0.112 N 
ATOM     35  O   UNL d   1      12.965   0.583 -23.964  0.00  0.00    -0.532 OA
ATOM     36  O   UNL d   1      11.612   2.260 -23.898  0.00  0.00    -0.532 OA
ENDBRANCH  29  34
ENDBRANCH  24  25
ENDBRANCH   4  24
TORSDOF 9
