REMARK  3 active torsions:
REMARK  status: ('A' for Active; 'I' for Inactive)
REMARK       I    between atoms: N_4  and  C_5 
REMARK    1  A    between atoms: C_5  and  C_7 
REMARK    2  A    between atoms: C_10  and  C_11 
REMARK       I    between atoms: N_22  and  C_23 
REMARK    3  A    between atoms: C_23  and  C_25 
ROOT
ATOM      1  C   UNL d   1      10.772   5.190 -15.249  0.00  0.00     0.026 C 
ATOM      2  C   UNL d   1      10.886   3.703 -14.872  0.00  0.00     0.106 C 
ATOM      3  C   UNL d   1      10.155   3.383 -13.556  0.00  0.00     0.127 C 
ATOM      4  N   UNL d   1       8.698   3.547 -13.743  0.00  0.00    -0.313 N 
ATOM      5  C   UNL d   1       7.878   4.356 -13.012  0.00  0.00     0.257 C 
ATOM      6  O   UNL d   1       6.666   4.424 -13.209  0.00  0.00    -0.267 OA
ATOM      7  C   UNL d   1       8.192   2.681 -14.823  0.00  0.00     0.129 C 
ATOM      8  C   UNL d   1       8.916   3.011 -16.150  0.00  0.00     0.129 C 
ATOM      9  N   UNL d   1      10.364   2.834 -15.950  0.00  0.00    -0.315 N 
ATOM     10  C   UNL d   1      11.174   2.028 -16.685  0.00  0.00     0.257 C 
ATOM     11  O   UNL d   1      12.399   2.084 -16.598  0.00  0.00    -0.267 OA
ENDROOT
BRANCH   5  12
ATOM     12  C   UNL d   1       8.483   5.172 -11.909  0.00  0.00     0.056 A 
ATOM     13  C   UNL d   1       9.258   6.312 -12.201  0.00  0.00     0.005 A 
ATOM     14  C   UNL d   1       9.817   7.075 -11.153  0.00  0.00     0.000 A 
ATOM     15  C   UNL d   1       9.628   6.711  -9.802  0.00  0.00     0.002 A 
ATOM     16  C   UNL d   1       8.819   5.585  -9.522  0.00  0.00     0.000 A 
ATOM     17  C   UNL d   1       8.252   4.827 -10.566  0.00  0.00     0.005 A 
BRANCH  15  18
ATOM     18  C   UNL d   1      10.220   7.526  -8.714  0.00  0.00     0.028 A 
ATOM     19  C   UNL d   1      11.550   8.017  -8.775  0.00  0.00     0.140 A 
ATOM     20  C   UNL d   1      12.083   8.781  -7.728  0.00  0.00     0.030 A 
ATOM     21  F   UNL d   1      12.342   7.750  -9.839  0.00  0.00    -0.204 F 
ATOM     22  C   UNL d   1      11.304   9.088  -6.598  0.00  0.00     0.002 A 
ATOM     23  C   UNL d   1       9.986   8.611  -6.527  0.00  0.00     0.000 A 
ATOM     24  C   UNL d   1       9.445   7.846  -7.577  0.00  0.00     0.002 A 
ENDBRANCH  15  18
ENDBRANCH   5  12
BRANCH  10  25
ATOM     25  C   UNL d   1      10.567   1.079 -17.679  0.00  0.00     0.057 A 
ATOM     26  C   UNL d   1       9.454   0.270 -17.348  0.00  0.00     0.024 A 
ATOM     27  C   UNL d   1       8.882  -0.543 -18.333  0.00  0.00     0.082 A 
ATOM     28  C   UNL d   1       9.438  -0.679 -19.639  0.00  0.00     0.019 A 
ATOM     29  N   UNL d   1       7.772  -1.359 -18.314  0.00  0.00    -0.244 NA
ATOM     30  C   UNL d   1      10.604   0.076 -19.925  0.00  0.00     0.002 A 
ATOM     31  C   UNL d   1       8.622  -1.616 -20.369  0.00  0.00     0.022 A 
ATOM     32  C   UNL d   1      11.154   0.944 -18.958  0.00  0.00     0.005 A 
ATOM     33  C   UNL d   1       7.611  -2.007 -19.528  0.00  0.00     0.099 A 
ENDBRANCH  10  25
TORSDOF 3
