REMARK  3 active torsions:
REMARK  status: ('A' for Active; 'I' for Inactive)
REMARK    1  A    between atoms: C_8  and  C_9 
REMARK    2  A    between atoms: C_9  and  N_10 
REMARK    3  A    between atoms: C_13  and  C_14 
ROOT
ATOM      1  N   UNL d   1       8.005   4.979 -12.370  0.00  0.00     0.142 N 
ATOM      2  C   UNL d   1       8.160   6.390 -12.742  0.00  0.00     0.276 C 
ATOM      3  C   UNL d   1       9.065   7.177 -11.816  0.00  0.00     0.005 C 
ATOM      4  C   UNL d   1       9.395   6.765 -10.571  0.00  0.00    -0.021 C 
ATOM      5  C   UNL d   1       8.861   5.430 -10.085  0.00  0.00     0.061 C 
ATOM      6  C   UNL d   1       7.693   4.941 -10.945  0.00  0.00     0.255 C 
ENDROOT
BRANCH   1   7
ATOM      7  C   UNL d   1       9.183   4.150 -12.641  0.00  0.00     0.252 C 
BRANCH   7   8
ATOM      8  C   UNL d   1       9.217   3.611 -14.079  0.00  0.00     0.048 C 
ATOM      9  C   UNL d   1       9.947   2.245 -14.131  0.00  0.00     0.056 C 
ATOM     10  C   UNL d   1      10.275   1.913 -15.542  0.00  0.00     0.100 A 
ATOM     11  C   UNL d   1      10.287   2.757 -16.614  0.00  0.00     0.136 A 
ATOM     12  O   UNL d   1      10.652   0.662 -15.929  0.00  0.00    -0.296 OA
ATOM     13  N   UNL d   1      10.628   2.024 -17.738  0.00  0.00    -0.221 NA
ATOM     14  C   UNL d   1       9.962   4.158 -16.515  0.00  0.00     0.192 C 
ATOM     15  C   UNL d   1      10.841   0.797 -17.272  0.00  0.00     0.159 A 
ATOM     16  C   UNL d   1      11.261  -0.379 -18.074  0.00  0.00     0.080 C 
ATOM     17  C   UNL d   1       9.813   4.657 -15.071  0.00  0.00     0.073 C 
ATOM     18  O   UNL d   1       9.811   4.949 -17.448  0.00  0.00    -0.290 OA
ENDBRANCH   7   8
ENDBRANCH   1   7
BRANCH   4  19
ATOM     19  C   UNL d   1      10.298   7.560  -9.731  0.00  0.00     0.016 A 
ATOM     20  C   UNL d   1      10.367   7.552  -8.286  0.00  0.00     0.019 A 
ATOM     21  C   UNL d   1      11.388   8.498  -7.932  0.00  0.00     0.084 A 
ATOM     22  C   UNL d   1       9.716   6.884  -7.222  0.00  0.00     0.004 A 
ATOM     23  N   UNL d   1      11.854   9.020  -9.122  0.00  0.00    -0.244 NA
ATOM     24  C   UNL d   1      11.755   8.748  -6.591  0.00  0.00     0.049 A 
ATOM     25  C   UNL d   1      11.187   8.483 -10.194  0.00  0.00     0.099 A 
ATOM     26  C   UNL d   1      11.116   8.032  -5.568  0.00  0.00     0.142 A 
ATOM     27  F   UNL d   1      11.493   8.227  -4.281  0.00  0.00    -0.204 F 
ATOM     28  C   UNL d   1      10.101   7.111  -5.886  0.00  0.00     0.030 A 
ENDBRANCH   4  19
TORSDOF 3
