REMARK  4 active torsions:
REMARK  status: ('A' for Active; 'I' for Inactive)
REMARK    1  A    between atoms: N_3  and  C_4 
REMARK    2  A    between atoms: C_4  and  C_5 
REMARK    3  A    between atoms: C_5  and  N_6 
REMARK    4  A    between atoms: N_15  and  C_16 
ROOT
ATOM      1  O   UNL d   1      10.347   4.488 -12.999  0.00  0.00    -0.246 OA
ATOM      2  C   UNL d   1       9.137   4.643 -12.833  0.00  0.00     0.336 A 
ATOM      3  N   UNL d   1       8.584   5.531 -11.987  0.00  0.00    -0.276 N 
ATOM      4  C   UNL d   1       7.212   5.451 -12.060  0.00  0.00     0.099 A 
ATOM      5  C   UNL d   1       6.926   4.504 -12.949  0.00  0.00     0.103 A 
ATOM      6  N   UNL d   1       8.120   3.991 -13.451  0.00  0.00    -0.258 N 
ENDROOT
BRANCH   3   7
ATOM      7  C   UNL d   1       9.278   6.483 -11.134  0.00  0.00     0.146 C 
BRANCH   7   8
ATOM      8  C   UNL d   1       9.466   5.910  -9.714  0.00  0.00     0.275 C 
BRANCH   8   9
ATOM      9  N   UNL d   1      10.225   6.820  -8.851  0.00  0.00     0.139 N 
ATOM     10  C   UNL d   1      10.619   6.089  -7.648  0.00  0.00     0.250 C 
ATOM     11  C   UNL d   1      11.774   6.776  -6.912  0.00  0.00     0.035 C 
ATOM     12  C   UNL d   1      11.357   7.780  -5.820  0.00  0.00     0.002 C 
ATOM     13  C   UNL d   1      10.192   8.704  -6.194  0.00  0.00     0.002 C 
ATOM     14  C   UNL d   1      10.097   9.041  -7.683  0.00  0.00     0.035 C 
ATOM     15  C   UNL d   1       9.383   7.965  -8.505  0.00  0.00     0.250 C 
ENDBRANCH   8   9
ENDBRANCH   7   8
ENDBRANCH   3   7
BRANCH   6  16
ATOM     16  C   UNL d   1       8.204   2.945 -14.439  0.00  0.00     0.069 A 
ATOM     17  C   UNL d   1       9.402   2.686 -15.153  0.00  0.00     0.029 A 
ATOM     18  C   UNL d   1       9.465   1.669 -16.126  0.00  0.00     0.059 A 
ATOM     19  C   UNL d   1       8.324   0.901 -16.423  0.00  0.00     0.011 A 
ATOM     20 CL   UNL d   1      10.944   1.382 -16.970  0.00  0.00    -0.082 Cl
ATOM     21  C   UNL d   1       7.127   1.145 -15.727  0.00  0.00     0.002 A 
ATOM     22  C   UNL d   1       7.067   2.150 -14.740  0.00  0.00     0.018 A 
ENDBRANCH   6  16
TORSDOF 4
