REMARK  2 active torsions:
REMARK  status: ('A' for Active; 'I' for Inactive)
REMARK    1  A    between atoms: C_2  and  C_3 
REMARK    2  A    between atoms: C_9  and  C_10 
ROOT
ATOM      1  C   UNL d   1       7.459   1.753 -14.434  0.00  0.00    -0.022 A 
ATOM      2  C   UNL d   1       8.242   0.771 -15.066  0.00  0.00    -0.003 A 
ATOM      3  C   UNL d   1       9.596   1.030 -15.359  0.00  0.00     0.019 A 
ATOM      4  C   UNL d   1      10.168   2.274 -15.027  0.00  0.00     0.083 A 
ATOM      5  C   UNL d   1       9.402   3.248 -14.334  0.00  0.00     0.035 A 
ATOM      6  C   UNL d   1       8.043   2.985 -14.079  0.00  0.00    -0.001 A 
ATOM      7  C   UNL d   1       9.973   4.543 -13.819  0.00  0.00     0.079 C 
ATOM      8  N   UNL d   1      10.783   5.258 -14.485  0.00  0.00    -0.244 NA
ATOM      9  C   UNL d   1      11.365   4.976 -15.738  0.00  0.00     0.100 A 
ATOM     10  C   UNL d   1      11.676   6.090 -16.538  0.00  0.00     0.032 A 
ATOM     11  C   UNL d   1      12.334   5.944 -17.773  0.00  0.00     0.059 A 
ATOM     12 CL   UNL d   1      12.666   7.329 -18.750  0.00  0.00    -0.082 Cl
ATOM     13  C   UNL d   1      12.728   4.660 -18.202  0.00  0.00     0.013 A 
ATOM     14  C   UNL d   1      12.453   3.535 -17.395  0.00  0.00     0.021 A 
ATOM     15  C   UNL d   1      11.763   3.687 -16.175  0.00  0.00     0.099 A 
ATOM     16  N   UNL d   1      11.464   2.527 -15.456  0.00  0.00    -0.244 NA
ENDROOT
BRANCH   7  17
ATOM     17  C   UNL d   1       9.652   5.005 -12.431  0.00  0.00    -0.005 C 
ATOM     18  C   UNL d   1       9.278   4.018 -11.355  0.00  0.00     0.063 C 
ATOM     19  C   UNL d   1       9.396   4.556  -9.902  0.00  0.00     0.255 C 
ATOM     20  N   UNL d   1       8.771   5.854  -9.798  0.00  0.00     0.141 N 
ATOM     21  C   UNL d   1       9.383   6.854 -10.682  0.00  0.00     0.241 C 
ATOM     22  C   UNL d   1       8.662   6.256  -8.398  0.00  0.00     0.286 C 
ATOM     23  C   UNL d   1       9.563   6.320 -12.101  0.00  0.00     0.004 C 
ATOM     24  C   UNL d   1      10.726   7.475 -10.156  0.00  0.00     0.040 C 
ENDBRANCH   7  17
BRANCH   1  25
ATOM     25  C   UNL d   1       6.001   1.468 -14.099  0.00  0.00     0.026 C 
ATOM     26  C   UNL d   1       5.777   0.237 -13.203  0.00  0.00     0.005 C 
ENDBRANCH   1  25
TORSDOF 2
