REMARK  5 active torsions:
REMARK  status: ('A' for Active; 'I' for Inactive)
REMARK    1  A    between atoms: C_2  and  C_3 
REMARK       I    between atoms: C_2  and  N_13 
REMARK    2  A    between atoms: N_16  and  C_17 
REMARK    3  A    between atoms: C_17  and  C_18 
REMARK    4  A    between atoms: C_18  and  O_19 
REMARK    5  A    between atoms: O_19  and  C_20 
ROOT
ATOM      1  O   UNL d   1      10.952   9.057 -10.358  0.00  0.00    -0.266 OA
ATOM      2  C   UNL d   1      10.471   8.091  -9.780  0.00  0.00     0.275 C 
ATOM      3  N   UNL d   1       9.582   7.250 -10.391  0.00  0.00    -0.311 N 
ATOM      4  C   UNL d   1       9.028   7.541 -11.734  0.00  0.00     0.140 C 
ATOM      5  C   UNL d   1       9.138   6.297 -12.652  0.00  0.00     0.274 C 
ATOM      6  N   UNL d   1       8.558   5.104 -12.051  0.00  0.00     0.144 N 
ATOM      7  C   UNL d   1       9.152   4.884 -10.745  0.00  0.00     0.274 C 
ATOM      8  C   UNL d   1       8.906   6.075  -9.815  0.00  0.00     0.140 C 
ENDROOT
BRANCH   2   9
ATOM      9  C   UNL d   1      10.813   7.929  -8.349  0.00  0.00     0.137 A 
ATOM     10  N   UNL d   1      11.078   9.114  -7.638  0.00  0.00    -0.241 NA
ATOM     11  C   UNL d   1      11.372   8.833  -6.325  0.00  0.00     0.082 A 
ATOM     12  C   UNL d   1      11.267   7.423  -6.220  0.00  0.00     0.020 A 
ATOM     13  C   UNL d   1      11.747   9.637  -5.220  0.00  0.00     0.020 A 
ATOM     14  C   UNL d   1      11.003   6.871  -7.508  0.00  0.00     0.025 A 
ATOM     15  C   UNL d   1      11.480   6.830  -4.967  0.00  0.00     0.013 A 
ATOM     16  C   UNL d   1      11.858   7.604  -3.853  0.00  0.00     0.058 A 
ATOM     17 CL   UNL d   1      12.150   6.798  -2.373  0.00  0.00    -0.082 Cl
ATOM     18  C   UNL d   1      11.988   9.000  -3.978  0.00  0.00     0.013 A 
ENDBRANCH   2   9
BRANCH   6  19
ATOM     19  C   UNL d   1       8.784   3.980 -12.951  0.00  0.00     0.283 C 
BRANCH  19  20
ATOM     20  C   UNL d   1       7.412   3.626 -13.565  0.00  0.00     0.184 C 
BRANCH  20  21
ATOM     21  O   UNL d   1       7.559   2.567 -14.496  0.00  0.00    -0.327 OA
BRANCH  21  22
ATOM     22  C   UNL d   1       6.692   1.504 -14.566  0.00  0.00     0.113 A 
ATOM     23  C   UNL d   1       5.737   1.206 -13.576  0.00  0.00     0.123 A 
ATOM     24  N   UNL d   1       4.887   0.163 -13.641  0.00  0.00    -0.240 NA
ATOM     25  C   UNL d   1       4.927  -0.643 -14.727  0.00  0.00     0.099 A 
ATOM     26  C   UNL d   1       5.855  -0.458 -15.778  0.00  0.00     0.023 A 
ATOM     27  C   UNL d   1       6.763   0.633 -15.685  0.00  0.00     0.027 A 
ENDBRANCH  21  22
ENDBRANCH  20  21
ENDBRANCH  19  20
ENDBRANCH   6  19
TORSDOF 5
