REMARK  8 active torsions:
REMARK  status: ('A' for Active; 'I' for Inactive)
REMARK    1  A    between atoms: O_2  and  C_3 
REMARK    2  A    between atoms: C_6  and  O_7 
REMARK    3  A    between atoms: O_7  and  C_8 
REMARK    4  A    between atoms: C_8  and  C_9 
REMARK    5  A    between atoms: C_9  and  N_10 
REMARK    6  A    between atoms: N_10  and  C_11 
REMARK    7  A    between atoms: C_11  and  C_12 
REMARK       I    between atoms: N_16  and  C_17 
REMARK    8  A    between atoms: C_17  and  C_19 
ROOT
ATOM      1  C   UNL d   1       8.527   5.345 -12.118  0.00  0.00     0.172 C 
ATOM      2  F   UNL d   1       8.317   6.397 -12.912  0.00  0.00    -0.238 F 
ATOM      3  C   UNL d   1       7.355   4.371 -12.311  0.00  0.00     0.059 C 
ATOM      4  C   UNL d   1       7.337   3.744 -13.714  0.00  0.00     0.107 C 
ATOM      5  N   UNL d   1       8.644   3.128 -14.045  0.00  0.00    -0.317 N 
ATOM      6  C   UNL d   1       8.835   1.860 -14.444  0.00  0.00     0.257 C 
ATOM      7  O   UNL d   1       9.944   1.318 -14.534  0.00  0.00    -0.267 OA
ATOM      8  C   UNL d   1       9.778   4.070 -13.933  0.00  0.00     0.107 C 
ATOM      9  C   UNL d   1       9.844   4.663 -12.526  0.00  0.00     0.059 C 
ENDROOT
BRANCH   1  10
ATOM     10  C   UNL d   1       8.573   5.855 -10.678  0.00  0.00     0.323 C 
BRANCH  10  11
ATOM     11  N   UNL d   1       9.672   6.786 -10.511  0.00  0.00     0.345 N 
BRANCH  11  12
ATOM     12  C   UNL d   1       9.634   7.249  -9.140  0.00  0.00     0.323 C 
BRANCH  12  13
ATOM     13  C   UNL d   1      10.671   8.364  -8.925  0.00  0.00     0.187 C 
BRANCH  13  14
ATOM     14  O   UNL d   1      10.404   9.112  -7.752  0.00  0.00    -0.329 OA
BRANCH  14  15
ATOM     15  C   UNL d   1      10.861   8.644  -6.543  0.00  0.00     0.094 A 
ATOM     16  C   UNL d   1      11.184   9.633  -5.600  0.00  0.00     0.026 A 
ATOM     17  C   UNL d   1      11.687   9.275  -4.341  0.00  0.00     0.026 A 
ATOM     18  C   UNL d   1      11.854   7.916  -3.981  0.00  0.00     0.094 A 
ATOM     19  C   UNL d   1      11.480   6.923  -4.912  0.00  0.00     0.026 A 
ATOM     20  C   UNL d   1      11.016   7.278  -6.192  0.00  0.00     0.026 A 
BRANCH  18  21
ATOM     21  O   UNL d   1      12.335   7.475  -2.765  0.00  0.00    -0.328 OA
ATOM     22  C   UNL d   1      12.690   8.484  -1.834  0.00  0.00     0.181 C 
ENDBRANCH  18  21
ENDBRANCH  14  15
ENDBRANCH  13  14
ENDBRANCH  12  13
ENDBRANCH  11  12
ENDBRANCH  10  11
ENDBRANCH   1  10
BRANCH   6  23
ATOM     23  C   UNL d   1       7.632   1.073 -14.899  0.00  0.00     0.057 A 
ATOM     24  C   UNL d   1       7.156   1.232 -16.214  0.00  0.00     0.017 A 
ATOM     25  C   UNL d   1       6.052   0.474 -16.669  0.00  0.00     0.069 A 
ATOM     26  C   UNL d   1       5.403  -0.415 -15.785  0.00  0.00     0.068 A 
ATOM     27 CL   UNL d   1       5.504   0.668 -18.297  0.00  0.00    -0.082 Cl
ATOM     28  C   UNL d   1       5.882  -0.572 -14.472  0.00  0.00     0.012 A 
ATOM     29 CL   UNL d   1       4.025  -1.321 -16.287  0.00  0.00    -0.082 Cl
ATOM     30  C   UNL d   1       7.005   0.158 -14.032  0.00  0.00     0.006 A 
ENDBRANCH   6  23
TORSDOF 8
