REMARK  6 active torsions:
REMARK  status: ('A' for Active; 'I' for Inactive)
REMARK    1  A    between atoms: N_2  and  C_4 
REMARK    2  A    between atoms: C_4  and  C_5 
REMARK    3  A    between atoms: C_5  and  O_6 
REMARK    4  A    between atoms: O_6  and  C_7 
REMARK    5  A    between atoms: C_12  and  C_13 
REMARK    6  A    between atoms: C_13  and  C_14 
ROOT
ATOM      1  C   UNL d   1       8.891   4.986 -13.159  0.00  0.00     0.090 A 
ATOM      2  C   UNL d   1       8.154   3.834 -13.570  0.00  0.00     0.024 A 
ATOM      3  C   UNL d   1       6.778   3.761 -13.330  0.00  0.00     0.002 A 
ATOM      4  C   UNL d   1       6.111   4.809 -12.646  0.00  0.00    -0.000 A 
ATOM      5  C   UNL d   1       6.840   5.938 -12.219  0.00  0.00    -0.002 A 
ATOM      6  C   UNL d   1       8.222   6.024 -12.473  0.00  0.00     0.004 A 
ENDROOT
BRANCH   6   7
ATOM      7  C   UNL d   1       9.022   7.220 -11.947  0.00  0.00     0.055 C 
BRANCH   7   8
ATOM      8  C   UNL d   1       9.568   7.006 -10.538  0.00  0.00    -0.018 A 
ATOM      9  C   UNL d   1       9.075   5.971  -9.700  0.00  0.00    -0.004 A 
ATOM     10  C   UNL d   1       9.561   5.823  -8.397  0.00  0.00    -0.000 A 
ATOM     11  C   UNL d   1      10.554   6.691  -7.898  0.00  0.00    -0.000 A 
ATOM     12  C   UNL d   1      11.057   7.717  -8.724  0.00  0.00    -0.000 A 
ATOM     13  C   UNL d   1      10.565   7.871 -10.031  0.00  0.00    -0.004 A 
ENDBRANCH   7   8
ENDBRANCH   6   7
BRANCH   1  14
ATOM     14  O   UNL d   1      10.227   5.161 -13.404  0.00  0.00    -0.329 OA
BRANCH  14  15
ATOM     15  C   UNL d   1      10.933   4.116 -14.037  0.00  0.00     0.184 C 
BRANCH  15  16
ATOM     16  C   UNL d   1      10.506   3.977 -15.525  0.00  0.00     0.283 C 
BRANCH  16  17
ATOM     17  N   UNL d   1      11.194   2.885 -16.217  0.00  0.00     0.144 N 
ATOM     18  C   UNL d   1      11.022   1.591 -15.563  0.00  0.00     0.286 C 
ATOM     19  C   UNL d   1      12.617   3.173 -16.407  0.00  0.00     0.286 C 
ENDBRANCH  16  17
ENDBRANCH  15  16
ENDBRANCH  14  15
ENDBRANCH   1  14
TORSDOF 6
