REMARK  3 active torsions:
REMARK  status: ('A' for Active; 'I' for Inactive)
REMARK    1  A    between atoms: C_4  and  C_5 
REMARK    2  A    between atoms: C_8  and  C_9 
REMARK    3  A    between atoms: C_9  and  N_10 
ROOT
ATOM      1  N   UNL d   1       8.865   5.699 -11.874  0.00  0.00     0.145 N 
ATOM      2  C   UNL d   1       7.409   5.682 -11.678  0.00  0.00     0.275 C 
ATOM      3  C   UNL d   1       6.831   4.280 -11.930  0.00  0.00     0.137 C 
ATOM      4  N   UNL d   1       7.212   3.781 -13.247  0.00  0.00    -0.346 N 
ATOM      5  C   UNL d   1       6.632   2.574 -13.680  0.00  0.00     0.057 A 
ATOM      6  C   UNL d   1       5.462   1.981 -13.152  0.00  0.00     0.017 A 
ATOM      7  C   UNL d   1       5.008   0.736 -13.628  0.00  0.00     0.003 A 
ATOM      8  C   UNL d   1       5.713   0.069 -14.645  0.00  0.00     0.019 A 
ATOM      9  C   UNL d   1       6.867   0.627 -15.159  0.00  0.00     0.083 A 
ATOM     10  N   UNL d   1       7.736   0.203 -16.121  0.00  0.00    -0.244 NA
ATOM     11  C   UNL d   1       8.777   1.109 -16.268  0.00  0.00     0.095 A 
ATOM     12  C   UNL d   1       8.499   2.109 -15.374  0.00  0.00     0.002 A 
ATOM     13  C   UNL d   1       7.307   1.843 -14.677  0.00  0.00     0.031 A 
ATOM     14  C   UNL d   1       9.097   3.416 -14.915  0.00  0.00     0.052 C 
ATOM     15  C   UNL d   1       8.665   3.880 -13.496  0.00  0.00     0.119 C 
ATOM     16  C   UNL d   1       9.145   5.315 -13.248  0.00  0.00     0.273 C 
ENDROOT
BRANCH   1  17
ATOM     17  C   UNL d   1       9.378   7.038 -11.572  0.00  0.00     0.277 C 
BRANCH  17  18
ATOM     18  C   UNL d   1       9.812   7.237 -10.128  0.00  0.00     0.011 A 
ATOM     19  C   UNL d   1      10.306   8.494  -9.730  0.00  0.00    -0.002 A 
ATOM     20  C   UNL d   1      10.719   8.713  -8.403  0.00  0.00    -0.000 A 
ATOM     21  C   UNL d   1      10.636   7.686  -7.433  0.00  0.00    -0.000 A 
ATOM     22  C   UNL d   1      10.144   6.427  -7.853  0.00  0.00    -0.000 A 
ATOM     23  C   UNL d   1       9.748   6.197  -9.176  0.00  0.00    -0.002 A 
BRANCH  21  24
ATOM     24  C   UNL d   1      11.062   7.915  -6.032  0.00  0.00    -0.000 A 
ATOM     25  C   UNL d   1      11.463   6.836  -5.206  0.00  0.00    -0.000 A 
ATOM     26  C   UNL d   1      11.865   7.034  -3.870  0.00  0.00     0.000 A 
ATOM     27  C   UNL d   1      11.870   8.332  -3.326  0.00  0.00     0.000 A 
ATOM     28  C   UNL d   1      11.467   9.418  -4.125  0.00  0.00     0.000 A 
ATOM     29  C   UNL d   1      11.059   9.211  -5.457  0.00  0.00    -0.000 A 
ENDBRANCH  21  24
ENDBRANCH  17  18
ENDBRANCH   1  17
TORSDOF 3
