REMARK  6 active torsions:
REMARK  status: ('A' for Active; 'I' for Inactive)
REMARK    1  A    between atoms: C_2  and  C_4 
REMARK       I    between atoms: C_4  and  N_6 
REMARK    2  A    between atoms: N_6  and  C_7 
REMARK    3  A    between atoms: C_10  and  C_11 
REMARK    4  A    between atoms: C_11  and  C_12 
REMARK    5  A    between atoms: C_12  and  N_13 
REMARK    6  A    between atoms: N_16  and  C_17 
ROOT
ATOM      1  N   UNL d   1       7.702   5.296 -11.980  0.00  0.00     0.141 N 
ATOM      2  C   UNL d   1       6.478   4.498 -11.837  0.00  0.00     0.274 C 
ATOM      3  C   UNL d   1       5.931   4.101 -13.220  0.00  0.00     0.137 C 
ATOM      4  N   UNL d   1       6.960   3.400 -13.983  0.00  0.00    -0.343 N 
ATOM      5  C   UNL d   1       8.244   4.086 -14.063  0.00  0.00     0.137 C 
ATOM      6  C   UNL d   1       8.712   4.477 -12.657  0.00  0.00     0.274 C 
ENDROOT
BRANCH   1   7
ATOM      7  C   UNL d   1       8.188   5.665 -10.652  0.00  0.00     0.250 C 
BRANCH   7   8
ATOM      8  C   UNL d   1       9.193   6.836 -10.716  0.00  0.00     0.035 C 
BRANCH   8   9
ATOM      9  C   UNL d   1      10.007   7.013  -9.423  0.00  0.00     0.002 C 
ATOM     10  C   UNL d   1      11.068   8.117  -9.607  0.00  0.00     0.002 C 
ATOM     11  C   UNL d   1      11.912   8.315  -8.342  0.00  0.00     0.024 C 
ATOM     12  C   UNL d   1      11.010   8.640  -7.142  0.00  0.00     0.106 C 
ATOM     13  C   UNL d   1       9.978   7.516  -6.927  0.00  0.00     0.024 C 
ATOM     14  C   UNL d   1       9.136   7.321  -8.188  0.00  0.00     0.002 C 
BRANCH  12  15
ATOM     15  N   UNL d   1      11.843   8.764  -5.958  0.00  0.00    -0.240 NA
ATOM     16  C   UNL d   1      11.555   9.449  -4.851  0.00  0.00     0.251 C 
ATOM     17  O   UNL d   1      10.626  10.244  -4.786  0.00  0.00    -0.271 OA
BRANCH  16  18
ATOM     18  C   UNL d   1      12.462   9.167  -3.648  0.00  0.00     0.081 C 
ATOM     19  C   UNL d   1      12.503   7.665  -3.286  0.00  0.00     0.010 C 
ATOM     20  C   UNL d   1      12.022   9.944  -2.427  0.00  0.00     0.010 C 
ENDBRANCH  16  18
ENDBRANCH  12  15
ENDBRANCH   8   9
ENDBRANCH   7   8
ENDBRANCH   1   7
BRANCH   4  21
ATOM     21  C   UNL d   1       6.764   2.106 -14.515  0.00  0.00     0.081 A 
ATOM     22  C   UNL d   1       7.414   1.668 -15.690  0.00  0.00     0.135 A 
ATOM     23  C   UNL d   1       7.160   0.424 -16.243  0.00  0.00     0.121 A 
ATOM     24  O   UNL d   1       8.296   2.326 -16.502  0.00  0.00    -0.298 OA
ATOM     25  C   UNL d   1       6.244  -0.463 -15.660  0.00  0.00     0.026 A 
ATOM     26  O   UNL d   1       7.887   0.254 -17.372  0.00  0.00    -0.299 OA
ATOM     27  C   UNL d   1       5.599  -0.074 -14.474  0.00  0.00     0.004 A 
ATOM     28  C   UNL d   1       5.860   1.192 -13.900  0.00  0.00     0.019 A 
ATOM     29  C   UNL d   1       8.621   1.437 -17.540  0.00  0.00     0.304 A 
ENDBRANCH   4  21
TORSDOF 6
