REMARK  6 active torsions:
REMARK  status: ('A' for Active; 'I' for Inactive)
REMARK       I    between atoms: C_2  and  N_3 
REMARK    1  A    between atoms: C_2  and  C_26 
REMARK    2  A    between atoms: N_3  and  C_4 
REMARK    3  A    between atoms: C_7  and  C_8 
REMARK    4  A    between atoms: C_8  and  C_9 
REMARK    5  A    between atoms: C_9  and  N_10 
REMARK    6  A    between atoms: N_13  and  C_14 
ROOT
ATOM      1  C   UNL d   1       9.376   5.878 -11.688  0.00  0.00     0.035 C 
ENDROOT
BRANCH   1   2
ATOM      2  C   UNL d   1       9.816   5.820 -10.207  0.00  0.00     0.002 C 
ATOM      3  C   UNL d   1      10.976   6.802  -9.971  0.00  0.00     0.002 C 
ATOM      4  C   UNL d   1      11.320   6.962  -8.501  0.00  0.00     0.024 C 
ATOM      5  C   UNL d   1      10.159   7.449  -7.679  0.00  0.00     0.107 C 
ATOM      6  C   UNL d   1       8.989   6.462  -7.849  0.00  0.00     0.024 C 
ATOM      7  C   UNL d   1       8.639   6.258  -9.337  0.00  0.00     0.002 C 
BRANCH   5   8
ATOM      8  N   UNL d   1      10.574   7.433  -6.288  0.00  0.00    -0.236 NA
ATOM      9  C   UNL d   1      10.882   8.526  -5.589  0.00  0.00     0.275 C 
ATOM     10  O   UNL d   1      10.703   9.673  -6.005  0.00  0.00    -0.266 OA
BRANCH   9  11
ATOM     11  C   UNL d   1      11.461   8.276  -4.242  0.00  0.00     0.058 A 
ATOM     12  C   UNL d   1      11.607   6.963  -3.714  0.00  0.00     0.005 A 
ATOM     13  C   UNL d   1      12.157   6.782  -2.436  0.00  0.00     0.000 A 
ATOM     14  C   UNL d   1      12.550   7.884  -1.674  0.00  0.00     0.000 A 
ATOM     15  C   UNL d   1      12.332   9.176  -2.161  0.00  0.00     0.000 A 
ATOM     16  C   UNL d   1      11.858   9.371  -3.455  0.00  0.00     0.005 A 
ENDBRANCH   9  11
ENDBRANCH   5   8
ENDBRANCH   1   2
BRANCH   1  17
ATOM     17  C   UNL d   1       9.734   4.579 -12.407  0.00  0.00     0.250 C 
BRANCH  17  18
ATOM     18  N   UNL d   1       9.600   4.695 -13.848  0.00  0.00     0.141 N 
ATOM     19  C   UNL d   1      10.127   3.512 -14.552  0.00  0.00     0.274 C 
ATOM     20  C   UNL d   1       9.384   2.230 -14.135  0.00  0.00     0.137 C 
ATOM     21  N   UNL d   1       7.948   2.414 -14.310  0.00  0.00    -0.344 N 
ATOM     22  C   UNL d   1       7.356   3.620 -13.734  0.00  0.00     0.137 C 
ATOM     23  C   UNL d   1       8.192   4.854 -14.174  0.00  0.00     0.274 C 
BRANCH  21  24
ATOM     24  C   UNL d   1       7.177   1.429 -14.933  0.00  0.00     0.068 A 
ATOM     25  C   UNL d   1       5.979   0.927 -14.355  0.00  0.00     0.084 A 
ATOM     26  C   UNL d   1       5.203  -0.019 -15.052  0.00  0.00     0.070 A 
ATOM     27 CL   UNL d   1       5.447   1.436 -12.794  0.00  0.00    -0.080 Cl
ATOM     28  C   UNL d   1       5.625  -0.489 -16.307  0.00  0.00     0.012 A 
ATOM     29 CL   UNL d   1       3.720  -0.612 -14.385  0.00  0.00    -0.081 Cl
ATOM     30  C   UNL d   1       6.822  -0.013 -16.872  0.00  0.00     0.002 A 
ATOM     31  C   UNL d   1       7.596   0.935 -16.188  0.00  0.00     0.018 A 
ENDBRANCH  21  24
ENDBRANCH  17  18
ENDBRANCH   1  17
TORSDOF 6
