REMARK  7 active torsions:
REMARK  status: ('A' for Active; 'I' for Inactive)
REMARK    1  A    between atoms: C_4  and  C_5 
REMARK    2  A    between atoms: C_5  and  C_6 
REMARK       I    between atoms: C_6  and  N_8 
REMARK    3  A    between atoms: N_8  and  C_9 
REMARK    4  A    between atoms: C_12  and  C_13 
REMARK    5  A    between atoms: C_13  and  C_14 
REMARK    6  A    between atoms: C_14  and  N_15 
REMARK    7  A    between atoms: N_18  and  C_19 
ROOT
ATOM      1  C   UNL d   1       8.515   4.511 -12.593  0.00  0.00     0.035 C 
ENDROOT
BRANCH   1   2
ATOM      2  C   UNL d   1       9.290   5.468 -11.663  0.00  0.00     0.002 C 
ATOM      3  C   UNL d   1       8.671   6.870 -11.660  0.00  0.00     0.002 C 
ATOM      4  C   UNL d   1       9.466   7.836 -10.771  0.00  0.00     0.024 C 
ATOM      5  C   UNL d   1       9.563   7.305  -9.327  0.00  0.00     0.106 C 
ATOM      6  C   UNL d   1      10.175   5.910  -9.311  0.00  0.00     0.024 C 
ATOM      7  C   UNL d   1       9.419   4.927 -10.223  0.00  0.00     0.002 C 
BRANCH   5   8
ATOM      8  N   UNL d   1      10.374   8.230  -8.539  0.00  0.00    -0.240 NA
ATOM      9  C   UNL d   1      10.192   8.445  -7.232  0.00  0.00     0.258 C 
ATOM     10  O   UNL d   1       9.305   7.898  -6.578  0.00  0.00    -0.270 OA
BRANCH   9  11
ATOM     11  C   UNL d   1      11.158   9.410  -6.554  0.00  0.00     0.143 C 
BRANCH  11  12
ATOM     12  C   UNL d   1      11.497   8.940  -5.177  0.00  0.00     0.113 A 
ATOM     13  C   UNL d   1      11.627   9.596  -3.987  0.00  0.00     0.040 A 
ATOM     14  C   UNL d   1      12.055   8.571  -3.100  0.00  0.00     0.088 A 
ATOM     15  C   UNL d   1      12.306   8.672  -1.645  0.00  0.00     0.055 C 
ATOM     16  N   UNL d   1      12.127   7.396  -3.682  0.00  0.00    -0.131 NA
ATOM     17  O   UNL d   1      11.695   7.606  -4.994  0.00  0.00    -0.215 OA
ENDBRANCH  11  12
ENDBRANCH   9  11
ENDBRANCH   5   8
ENDBRANCH   1   2
BRANCH   1  18
ATOM     18  C   UNL d   1       9.454   3.576 -13.389  0.00  0.00     0.250 C 
BRANCH  18  19
ATOM     19  N   UNL d   1       8.880   3.267 -14.687  0.00  0.00     0.141 N 
ATOM     20  C   UNL d   1       9.907   2.717 -15.583  0.00  0.00     0.274 C 
ATOM     21  C   UNL d   1       9.316   2.398 -16.976  0.00  0.00     0.138 C 
ATOM     22  N   UNL d   1       8.165   1.503 -16.828  0.00  0.00    -0.330 N 
ATOM     23  C   UNL d   1       7.162   1.925 -15.851  0.00  0.00     0.138 C 
ATOM     24  C   UNL d   1       7.828   2.270 -14.511  0.00  0.00     0.274 C 
BRANCH  22  25
ATOM     25  C   UNL d   1       8.013   0.316 -17.554  0.00  0.00     0.138 A 
ATOM     26  C   UNL d   1       6.756  -0.234 -17.924  0.00  0.00     0.036 A 
ATOM     27  C   UNL d   1       6.683  -1.418 -18.627  0.00  0.00     0.095 A 
ATOM     28  C   UNL d   1       5.364   0.279 -17.724  0.00  0.00     0.064 A 
ATOM     29  C   UNL d   1       7.860  -2.100 -18.974  0.00  0.00     0.045 A 
ATOM     30  O   UNL d   1       5.405  -1.789 -18.953  0.00  0.00    -0.331 OA
ATOM     31  C   UNL d   1       9.073  -1.494 -18.585  0.00  0.00     0.103 A 
ATOM     32  N   UNL d   1       9.153  -0.331 -17.909  0.00  0.00    -0.228 NA
ATOM     33  C   UNL d   1       4.521  -0.736 -18.527  0.00  0.00     0.154 A 
ENDBRANCH  22  25
ENDBRANCH  18  19
ENDBRANCH   1  18
TORSDOF 7
