REMARK  4 active torsions:
REMARK  status: ('A' for Active; 'I' for Inactive)
REMARK    1  A    between atoms: C_3  and  C_4 
REMARK    2  A    between atoms: N_19  and  C_20 
REMARK    3  A    between atoms: C_20  and  C_21 
REMARK    4  A    between atoms: C_21  and  C_22 
ROOT
ATOM      1  O   UNL d   1       9.772   3.628 -13.613  0.00  0.00    -0.289 OA
ATOM      2  C   UNL d   1       8.696   4.008 -13.147  0.00  0.00     0.200 A 
ATOM      3  C   UNL d   1       7.348   3.527 -13.429  0.00  0.00     0.061 A 
ATOM      4  C   UNL d   1       6.556   4.269 -12.651  0.00  0.00     0.119 A 
ATOM      5  O   UNL d   1       7.165   5.252 -11.960  0.00  0.00    -0.326 OA
ATOM      6  C   UNL d   1       8.582   5.143 -12.137  0.00  0.00     0.157 A 
ATOM      7  C   UNL d   1       9.236   4.824 -10.788  0.00  0.00     0.071 C 
ATOM      8  C   UNL d   1       9.213   6.045  -9.855  0.00  0.00     0.253 C 
ATOM      9  N   UNL d   1       9.908   7.184 -10.461  0.00  0.00     0.138 N 
ATOM     10  C   UNL d   1       9.248   7.570 -11.712  0.00  0.00     0.253 C 
ATOM     11  C   UNL d   1       9.203   6.414 -12.717  0.00  0.00     0.071 C 
ENDROOT
BRANCH   3  12
ATOM     12  C   UNL d   1       6.978   2.333 -14.228  0.00  0.00     0.005 A 
ATOM     13  C   UNL d   1       5.873   1.525 -13.882  0.00  0.00     0.000 A 
ATOM     14  C   UNL d   1       5.488   0.459 -14.729  0.00  0.00     0.000 A 
ATOM     15  C   UNL d   1       6.216   0.208 -15.919  0.00  0.00     0.000 A 
ATOM     16  C   UNL d   1       4.350  -0.323 -14.435  0.00  0.00     0.000 A 
ATOM     17  C   UNL d   1       7.338   0.994 -16.233  0.00  0.00     0.000 A 
ATOM     18  C   UNL d   1       5.811  -0.819 -16.796  0.00  0.00     0.000 A 
ATOM     19  C   UNL d   1       7.725   2.040 -15.385  0.00  0.00     0.000 A 
ATOM     20  C   UNL d   1       4.685  -1.603 -16.487  0.00  0.00     0.000 A 
ATOM     21  C   UNL d   1       3.951  -1.347 -15.315  0.00  0.00     0.000 A 
ENDBRANCH   3  12
BRANCH   9  22
ATOM     22  C   UNL d   1       9.899   8.300  -9.516  0.00  0.00     0.255 C 
BRANCH  22  23
ATOM     23  C   UNL d   1      11.322   8.558  -8.979  0.00  0.00     0.062 C 
BRANCH  23  24
ATOM     24  C   UNL d   1      11.382   8.432  -7.468  0.00  0.00    -0.020 A 
ATOM     25  C   UNL d   1      11.343   7.154  -6.872  0.00  0.00    -0.004 A 
ATOM     26  C   UNL d   1      11.379   7.022  -5.471  0.00  0.00    -0.000 A 
ATOM     27  C   UNL d   1      11.463   8.169  -4.660  0.00  0.00    -0.000 A 
ATOM     28  C   UNL d   1      11.489   9.448  -5.248  0.00  0.00    -0.000 A 
ATOM     29  C   UNL d   1      11.447   9.580  -6.649  0.00  0.00    -0.004 A 
ENDBRANCH  23  24
ENDBRANCH  22  23
ENDBRANCH   9  22
TORSDOF 4
