REMARK  2 active torsions:
REMARK  status: ('A' for Active; 'I' for Inactive)
REMARK    1  A    between atoms: O_2  and  C_3 
REMARK    2  A    between atoms: C_9  and  C_10 
ROOT
ATOM      1  C   UNL d   1       7.198   1.844 -14.347  0.00  0.00     0.094 A 
ATOM      2  C   UNL d   1       7.926   0.825 -14.991  0.00  0.00     0.026 A 
ATOM      3  C   UNL d   1       9.277   1.014 -15.332  0.00  0.00     0.021 A 
ATOM      4  C   UNL d   1       9.932   2.227 -15.020  0.00  0.00     0.083 A 
ATOM      5  C   UNL d   1       9.233   3.244 -14.316  0.00  0.00     0.037 A 
ATOM      6  C   UNL d   1       7.865   3.056 -14.037  0.00  0.00     0.027 A 
ATOM      7  C   UNL d   1       9.859   4.510 -13.824  0.00  0.00     0.079 C 
ATOM      8  N   UNL d   1      10.672   5.198 -14.519  0.00  0.00    -0.244 NA
ATOM      9  C   UNL d   1      11.186   4.889 -15.780  0.00  0.00     0.100 A 
ATOM     10  C   UNL d   1      11.480   5.991 -16.610  0.00  0.00     0.032 A 
ATOM     11  C   UNL d   1      12.105   5.817 -17.855  0.00  0.00     0.059 A 
ATOM     12 CL   UNL d   1      12.453   7.186 -18.847  0.00  0.00    -0.082 Cl
ATOM     13  C   UNL d   1      12.461   4.521 -18.278  0.00  0.00     0.013 A 
ATOM     14  C   UNL d   1      12.178   3.411 -17.457  0.00  0.00     0.021 A 
ATOM     15  C   UNL d   1      11.538   3.584 -16.218  0.00  0.00     0.099 A 
ATOM     16  N   UNL d   1      11.228   2.435 -15.486  0.00  0.00    -0.244 NA
ENDROOT
BRANCH   7  17
ATOM     17  C   UNL d   1       9.571   5.001 -12.447  0.00  0.00    -0.005 C 
ATOM     18  C   UNL d   1       9.177   4.022 -11.371  0.00  0.00     0.063 C 
ATOM     19  C   UNL d   1       9.330   4.567  -9.932  0.00  0.00     0.255 C 
ATOM     20  N   UNL d   1       8.731   5.881  -9.833  0.00  0.00     0.141 N 
ATOM     21  C   UNL d   1       9.364   6.859 -10.723  0.00  0.00     0.241 C 
ATOM     22  C   UNL d   1       8.678   6.316  -8.439  0.00  0.00     0.286 C 
ATOM     23  C   UNL d   1       9.555   6.309 -12.136  0.00  0.00     0.004 C 
ATOM     24  C   UNL d   1      10.719   7.385 -10.178  0.00  0.00     0.040 C 
ENDBRANCH   7  17
BRANCH   1  25
ATOM     25  O   UNL d   1       5.880   1.618 -13.997  0.00  0.00    -0.328 OA
ATOM     26  C   UNL d   1       5.306   2.447 -12.996  0.00  0.00     0.181 C 
ENDBRANCH   1  25
TORSDOF 2
