REMARK  1 active torsions:
REMARK  status: ('A' for Active; 'I' for Inactive)
REMARK    1  A    between atoms: N_6  and  C_7 
ROOT
ATOM      1  C   UNL d   1      12.633   7.826  -2.058  0.00  0.00     0.045 C 
ATOM      2  C   UNL d   1      12.036   8.421  -3.310  0.00  0.00     0.039 A 
ATOM      3  C   UNL d   1      11.646   9.675  -3.502  0.00  0.00     0.071 A 
ATOM      4  C   UNL d   1      11.108   9.777  -4.839  0.00  0.00     0.276 A 
ATOM      5  O   UNL d   1      10.659  10.783  -5.376  0.00  0.00    -0.266 OA
ATOM      6  N   UNL d   1      11.178   8.538  -5.362  0.00  0.00    -0.232 N 
ATOM      7  N   UNL d   1      11.771   7.686  -4.434  0.00  0.00    -0.172 NA
ATOM      8  C   UNL d   1      11.143   6.382  -4.373  0.00  0.00     0.119 C 
ENDROOT
BRANCH   6   9
ATOM      9  C   UNL d   1      10.985   8.187  -6.726  0.00  0.00     0.079 A 
ATOM     10  C   UNL d   1       9.865   7.417  -7.109  0.00  0.00     0.019 A 
ATOM     11  C   UNL d   1       9.687   7.049  -8.454  0.00  0.00     0.002 A 
ATOM     12  C   UNL d   1      10.619   7.460  -9.426  0.00  0.00     0.000 A 
ATOM     13  C   UNL d   1      11.735   8.234  -9.051  0.00  0.00     0.002 A 
ATOM     14  C   UNL d   1      11.921   8.594  -7.702  0.00  0.00     0.019 A 
ENDBRANCH   6   9
TORSDOF 1
