REMARK  2 active torsions:
REMARK  status: ('A' for Active; 'I' for Inactive)
REMARK    1  A    between atoms: C_2  and  N_3 
REMARK    2  A    between atoms: C_7  and  C_8 
ROOT
ATOM      1  C   UNL d   1      10.714   8.513  -6.269  0.00  0.00     0.038 A 
ATOM      2  C   UNL d   1      10.663   9.848  -6.414  0.00  0.00     0.100 A 
ATOM      3  N   UNL d   1      11.075  10.511  -5.312  0.00  0.00    -0.244 NA
ATOM      4  C   UNL d   1      11.488   9.604  -4.391  0.00  0.00     0.084 A 
ATOM      5  C   UNL d   1      12.024   9.768  -3.124  0.00  0.00     0.050 A 
ATOM      6  C   UNL d   1      12.474   8.647  -2.424  0.00  0.00     0.152 A 
ATOM      7  F   UNL d   1      13.121   8.774  -1.256  0.00  0.00    -0.203 F 
ATOM      8  C   UNL d   1      12.236   7.381  -2.968  0.00  0.00     0.085 A 
ATOM      9 CL   UNL d   1      12.667   6.023  -2.084  0.00  0.00    -0.080 Cl
ATOM     10  C   UNL d   1      11.635   7.203  -4.215  0.00  0.00     0.015 A 
ATOM     11  C   UNL d   1      11.289   8.331  -4.980  0.00  0.00     0.022 A 
ENDROOT
BRANCH   1  12
ATOM     12  C   UNL d   1      10.232   7.510  -7.171  0.00  0.00     0.082 A 
ATOM     13  N   UNL d   1      10.504   7.508  -8.528  0.00  0.00    -0.309 N 
ATOM     14  C   UNL d   1       9.946   6.381  -8.986  0.00  0.00     0.179 A 
ATOM     15  N   UNL d   1       9.332   5.645  -8.073  0.00  0.00    -0.223 NA
ATOM     16  C   UNL d   1       9.468   6.409  -6.914  0.00  0.00     0.118 A 
BRANCH  13  17
ATOM     17  C   UNL d   1      11.211   8.489  -9.330  0.00  0.00     0.108 C 
ATOM     18  C   UNL d   1      12.564   7.983  -9.823  0.00  0.00     0.027 C 
ENDBRANCH  13  17
ENDBRANCH   1  12
TORSDOF 2
