REMARK  7 active torsions:
REMARK  status: ('A' for Active; 'I' for Inactive)
REMARK    1  A    between atoms: C_6  and  C_7 
REMARK    2  A    between atoms: C_10  and  S_11 
REMARK    3  A    between atoms: S_11  and  C_12 
REMARK    4  A    between atoms: C_12  and  C_13 
REMARK    5  A    between atoms: C_13  and  C_14 
REMARK    6  A    between atoms: C_14  and  N_15 
REMARK    7  A    between atoms: N_20  and  C_21 
ROOT
ATOM      1  C   UNL d   1       7.467   2.742 -14.514  0.00  0.00     0.251 C 
ENDROOT
BRANCH   1   2
ATOM      2  C   UNL d   1       8.618   3.766 -14.478  0.00  0.00     0.047 C 
BRANCH   2   3
ATOM      3  C   UNL d   1       8.368   4.944 -13.551  0.00  0.00     0.067 C 
BRANCH   3   4
ATOM      4  S   UNL d   1       8.030   4.414 -11.851  0.00  0.00    -0.075 SA
BRANCH   4   5
ATOM      5  C   UNL d   1       8.856   5.647 -10.900  0.00  0.00     0.193 A 
ATOM      6  N   UNL d   1       9.515   6.680 -11.435  0.00  0.00    -0.122 NA
ATOM      7  N   UNL d   1      10.095   7.334 -10.383  0.00  0.00    -0.126 NA
ATOM      8  C   UNL d   1       9.696   6.689  -9.288  0.00  0.00     0.191 A 
ATOM      9  N   UNL d   1       8.938   5.613  -9.554  0.00  0.00    -0.287 N 
ATOM     10  C   UNL d   1       8.317   4.686  -8.644  0.00  0.00     0.134 C 
BRANCH   8  11
ATOM     11  C   UNL d   1      10.064   7.164  -7.965  0.00  0.00     0.151 A 
ATOM     12  C   UNL d   1      10.625   8.333  -7.547  0.00  0.00     0.087 A 
ATOM     13  C   UNL d   1      11.064   9.527  -8.345  0.00  0.00     0.054 C 
ATOM     14  N   UNL d   1      10.781   8.307  -6.170  0.00  0.00    -0.221 NA
ATOM     15  C   UNL d   1      10.274   7.129  -5.826  0.00  0.00     0.225 A 
ATOM     16  O   UNL d   1       9.818   6.391  -6.869  0.00  0.00    -0.282 OA
ENDBRANCH   8  11
ENDBRANCH   4   5
ENDBRANCH   3   4
ENDBRANCH   2   3
ENDBRANCH   1   2
BRANCH   1  17
ATOM     17  N   UNL d   1       7.434   1.986 -15.760  0.00  0.00     0.139 N 
ATOM     18  C   UNL d   1       8.717   1.439 -16.188  0.00  0.00     0.272 C 
ATOM     19  C   UNL d   1       8.345   0.285 -17.119  0.00  0.00     0.117 C 
ATOM     20  C   UNL d   1       6.856   0.055 -16.931  0.00  0.00     0.058 C 
ATOM     21  N   UNL d   1       8.567   0.610 -18.526  0.00  0.00    -0.348 N 
ATOM     22  C   UNL d   1       6.505   0.863 -15.688  0.00  0.00     0.252 C 
ATOM     23  C   UNL d   1       6.218   0.510 -18.247  0.00  0.00     0.028 C 
ATOM     24  C   UNL d   1       7.348   0.337 -19.273  0.00  0.00     0.102 C 
BRANCH  21  25
ATOM     25  C   UNL d   1       9.822   0.417 -19.144  0.00  0.00     0.058 A 
ATOM     26  C   UNL d   1      10.871  -0.293 -18.510  0.00  0.00     0.046 A 
ATOM     27  C   UNL d   1      12.109  -0.475 -19.148  0.00  0.00     0.142 A 
ATOM     28  C   UNL d   1      12.339   0.071 -20.419  0.00  0.00     0.030 A 
ATOM     29  F   UNL d   1      13.063  -1.202 -18.537  0.00  0.00    -0.204 F 
ATOM     30  C   UNL d   1      11.316   0.791 -21.063  0.00  0.00     0.004 A 
ATOM     31  C   UNL d   1      10.060   0.954 -20.433  0.00  0.00     0.017 A 
ENDBRANCH  21  25
ENDBRANCH   1  17
TORSDOF 7
