REMARK  7 active torsions:
REMARK  status: ('A' for Active; 'I' for Inactive)
REMARK    1  A    between atoms: C_2  and  C_3 
REMARK    2  A    between atoms: C_7  and  O_8 
REMARK    3  A    between atoms: C_10  and  C_11 
REMARK       I    between atoms: C_11  and  N_13 
REMARK    4  A    between atoms: N_13  and  C_14 
REMARK    5  A    between atoms: C_14  and  C_15 
REMARK    6  A    between atoms: N_19  and  C_20 
REMARK    7  A    between atoms: C_22  and  O_23 
ROOT
ATOM      1  C   UNL d   1       7.313   1.520 -14.549  0.00  0.00     0.003 A 
ATOM      2  C   UNL d   1       8.337   0.666 -14.988  0.00  0.00     0.027 A 
ATOM      3  C   UNL d   1       9.677   1.054 -14.912  0.00  0.00     0.153 A 
ATOM      4  O   UNL d   1      10.640   0.175 -15.299  0.00  0.00    -0.188 OA
ATOM      5  C   UNL d   1      10.017   2.340 -14.436  0.00  0.00     0.126 A 
ATOM      6  C   UNL d   1       9.002   3.221 -13.974  0.00  0.00     0.104 A 
ATOM      7  C   UNL d   1       7.636   2.807 -14.034  0.00  0.00     0.097 A 
ENDROOT
BRANCH   6   8
ATOM      8  C   UNL d   1       9.410   4.603 -13.482  0.00  0.00     0.279 C 
ATOM      9  O   UNL d   1      10.351   5.203 -13.982  0.00  0.00    -0.265 OA
ATOM     10  N   UNL d   1       8.733   5.050 -12.417  0.00  0.00    -0.232 NA
BRANCH  10  11
ATOM     11  C   UNL d   1       8.890   6.343 -11.753  0.00  0.00     0.162 C 
BRANCH  11  12
ATOM     12  C   UNL d   1       9.540   6.146 -10.366  0.00  0.00     0.243 C 
ATOM     13  N   UNL d   1       9.809   7.403  -9.680  0.00  0.00     0.137 N 
ATOM     14  C   UNL d   1      10.073   7.010  -8.306  0.00  0.00     0.250 C 
ATOM     15  C   UNL d   1       9.037   5.940  -8.010  0.00  0.00     0.037 C 
ATOM     16  C   UNL d   1       8.682   5.361  -9.370  0.00  0.00     0.037 C 
BRANCH  13  17
ATOM     17  C   UNL d   1      10.907   8.154 -10.270  0.00  0.00     0.250 C 
ATOM     18  C   UNL d   1      11.067   9.491  -9.579  0.00  0.00     0.037 C 
ENDBRANCH  13  17
ENDBRANCH  11  12
ENDBRANCH  10  11
ENDBRANCH   6   8
BRANCH   5  19
ATOM     19  O   UNL d   1      11.340   2.693 -14.365  0.00  0.00    -0.326 OA
ATOM     20  C   UNL d   1      11.890   3.053 -15.620  0.00  0.00     0.181 C 
ENDBRANCH   5  19
BRANCH   7  21
ATOM     21  O   UNL d   1       6.622   3.634 -13.588  0.00  0.00    -0.328 OA
ATOM     22  C   UNL d   1       6.146   3.392 -12.258  0.00  0.00     0.181 C 
ENDBRANCH   7  21
BRANCH   1  23
ATOM     23  C   UNL d   1       5.870   1.046 -14.677  0.00  0.00     0.028 C 
ATOM     24  C   UNL d   1       5.616  -0.373 -14.155  0.00  0.00     0.005 C 
ENDBRANCH   1  23
TORSDOF 7
