REMARK  5 active torsions:
REMARK  status: ('A' for Active; 'I' for Inactive)
REMARK    1  A    between atoms: C_8  and  N_9 
REMARK    2  A    between atoms: N_12  and  C_13 
REMARK    3  A    between atoms: C_13  and  C_14 
REMARK    4  A    between atoms: C_14  and  C_15 
REMARK    5  A    between atoms: C_15  and  C_16 
ROOT
ATOM      1  C   UNL d   1       8.488   7.881 -12.270  0.00  0.00     0.250 C 
ENDROOT
BRANCH   1   2
ATOM      2  N   UNL d   1       7.834   6.815 -13.017  0.00  0.00     0.141 N 
ATOM      3  C   UNL d   1       6.632   6.321 -12.331  0.00  0.00     0.274 C 
ATOM      4  C   UNL d   1       5.890   5.242 -13.134  0.00  0.00     0.137 C 
ATOM      5  N   UNL d   1       6.829   4.234 -13.594  0.00  0.00    -0.343 N 
ATOM      6  C   UNL d   1       8.064   4.718 -14.231  0.00  0.00     0.137 C 
ATOM      7  C   UNL d   1       8.751   5.731 -13.351  0.00  0.00     0.274 C 
BRANCH   5   8
ATOM      8  C   UNL d   1       6.521   2.877 -13.418  0.00  0.00     0.081 A 
ATOM      9  C   UNL d   1       5.628   2.441 -12.394  0.00  0.00     0.019 A 
ATOM     10  C   UNL d   1       5.448   1.053 -12.140  0.00  0.00     0.003 A 
ATOM     11  C   UNL d   1       6.057   0.075 -12.954  0.00  0.00     0.021 A 
ATOM     12  C   UNL d   1       6.899   0.537 -13.955  0.00  0.00     0.111 A 
ATOM     13  N   UNL d   1       7.667  -0.158 -14.849  0.00  0.00    -0.184 NA
ATOM     14  C   UNL d   1       7.135   1.868 -14.185  0.00  0.00     0.138 A 
ATOM     15  C   UNL d   1       8.369   0.726 -15.645  0.00  0.00     0.392 A 
ATOM     16  O   UNL d   1       9.146   0.474 -16.559  0.00  0.00    -0.236 OA
ATOM     17  O   UNL d   1       8.021   1.964 -15.226  0.00  0.00    -0.255 OA
ENDBRANCH   5   8
ENDBRANCH   1   2
BRANCH   1  18
ATOM     18  C   UNL d   1       9.076   7.359 -10.955  0.00  0.00     0.035 C 
BRANCH  18  19
ATOM     19  C   UNL d   1       9.495   8.481 -10.013  0.00  0.00     0.003 C 
BRANCH  19  20
ATOM     20  C   UNL d   1       9.700   8.007  -8.552  0.00  0.00     0.006 C 
ATOM     21  C   UNL d   1      10.235   9.163  -7.697  0.00  0.00     0.045 C 
ATOM     22  C   UNL d   1      10.769   8.708  -6.367  0.00  0.00     0.055 A 
ATOM     23  C   UNL d   1      11.067   7.440  -5.959  0.00  0.00    -0.007 A 
ATOM     24  N   UNL d   1      11.065   9.591  -5.356  0.00  0.00    -0.250 NA
ATOM     25  C   UNL d   1      10.852   6.304  -6.931  0.00  0.00     0.028 C 
ATOM     26  C   UNL d   1      11.590   7.541  -4.583  0.00  0.00     0.017 A 
ATOM     27  C   UNL d   1      10.619   6.770  -8.405  0.00  0.00     0.005 C 
ATOM     28  C   UNL d   1      11.561   8.940  -4.279  0.00  0.00     0.081 A 
ATOM     29  C   UNL d   1      12.088   6.709  -3.556  0.00  0.00     0.031 A 
ATOM     30  C   UNL d   1      11.984   9.458  -3.051  0.00  0.00     0.021 A 
ATOM     31  C   UNL d   1      12.467   8.613  -2.067  0.00  0.00     0.031 A 
ATOM     32  C   UNL d   1      12.515   7.232  -2.317  0.00  0.00     0.140 A 
ATOM     33  F   UNL d   1      13.004   6.394  -1.392  0.00  0.00    -0.204 F 
ENDBRANCH  19  20
ENDBRANCH  18  19
ENDBRANCH   1  18
TORSDOF 5
