REMARK  9 active torsions:
REMARK  status: ('A' for Active; 'I' for Inactive)
REMARK    1  A    between atoms: O_2  and  C_3 
REMARK    2  A    between atoms: C_8  and  N_9 
REMARK    3  A    between atoms: N_12  and  C_13 
REMARK    4  A    between atoms: C_13  and  C_14 
REMARK    5  A    between atoms: C_14  and  C_15 
REMARK    6  A    between atoms: C_15  and  C_16 
REMARK    7  A    between atoms: C_16  and  N_17 
REMARK       I    between atoms: N_17  and  C_18 
REMARK    8  A    between atoms: C_18  and  C_20 
REMARK    9  A    between atoms: C_23  and  C_24 
ROOT
ATOM      1  C   UNL d   1       9.502   4.366 -12.450  0.00  0.00     0.029 C 
ENDROOT
BRANCH   1   2
ATOM      2  C   UNL d   1       9.215   3.462 -13.644  0.00  0.00     0.037 C 
BRANCH   2   3
ATOM      3  C   UNL d   1      10.484   3.004 -14.399  0.00  0.00     0.251 C 
BRANCH   3   4
ATOM      4  N   UNL d   1      10.202   2.100 -15.524  0.00  0.00     0.141 N 
ATOM      5  C   UNL d   1       9.261   1.027 -15.167  0.00  0.00     0.274 C 
ATOM      6  C   UNL d   1       9.063   0.048 -16.330  0.00  0.00     0.137 C 
ATOM      7  N   UNL d   1       8.611   0.789 -17.505  0.00  0.00    -0.343 N 
ATOM      8  C   UNL d   1       9.481   1.899 -17.889  0.00  0.00     0.137 C 
ATOM      9  C   UNL d   1       9.709   2.841 -16.688  0.00  0.00     0.274 C 
BRANCH   7  10
ATOM     10  C   UNL d   1       7.402   0.531 -18.175  0.00  0.00     0.079 A 
ATOM     11  C   UNL d   1       6.195   0.217 -17.484  0.00  0.00     0.110 A 
ATOM     12  C   UNL d   1       5.030  -0.111 -18.234  0.00  0.00     0.026 A 
ATOM     13  C   UNL d   1       5.041  -0.073 -19.638  0.00  0.00     0.002 A 
ATOM     14  C   UNL d   1       6.218   0.272 -20.320  0.00  0.00     0.002 A 
ATOM     15  C   UNL d   1       7.389   0.567 -19.589  0.00  0.00     0.019 A 
BRANCH  11  16
ATOM     16  O   UNL d   1       6.198   0.279 -16.107  0.00  0.00    -0.327 OA
ATOM     17  C   UNL d   1       5.116  -0.290 -15.394  0.00  0.00     0.181 C 
ENDBRANCH  11  16
ENDBRANCH   7  10
ENDBRANCH   3   4
ENDBRANCH   2   3
ENDBRANCH   1   2
BRANCH   1  18
ATOM     18  C   UNL d   1       8.195   4.832 -11.768  0.00  0.00     0.129 C 
BRANCH  18  19
ATOM     19  N   UNL d   1       8.469   5.822 -10.739  0.00  0.00    -0.233 NA
ATOM     20  C   UNL d   1       9.175   5.586  -9.627  0.00  0.00     0.298 C 
ATOM     21  O   UNL d   1       9.451   4.456  -9.221  0.00  0.00    -0.263 OA
BRANCH  20  22
ATOM     22  C   UNL d   1       9.665   6.775  -8.921  0.00  0.00     0.157 A 
ATOM     23  O   UNL d   1      10.107   6.648  -7.641  0.00  0.00    -0.302 OA
ATOM     24  C   UNL d   1      10.551   7.875  -7.250  0.00  0.00     0.100 A 
ATOM     25  C   UNL d   1      10.422   8.771  -8.273  0.00  0.00     0.027 A 
ATOM     26  C   UNL d   1       9.858   8.059  -9.361  0.00  0.00     0.032 A 
BRANCH  24  27
ATOM     27  C   UNL d   1      11.059   8.007  -5.891  0.00  0.00     0.023 A 
ATOM     28  C   UNL d   1      11.242   9.284  -5.309  0.00  0.00     0.003 A 
ATOM     29  C   UNL d   1      11.724   9.399  -3.993  0.00  0.00     0.011 A 
ATOM     30  C   UNL d   1      12.038   8.246  -3.250  0.00  0.00     0.058 A 
ATOM     31  C   UNL d   1      11.860   6.976  -3.819  0.00  0.00     0.011 A 
ATOM     32 CL   UNL d   1      12.648   8.389  -1.642  0.00  0.00    -0.082 Cl
ATOM     33  C   UNL d   1      11.375   6.859  -5.132  0.00  0.00     0.003 A 
ENDBRANCH  24  27
ENDBRANCH  20  22
ENDBRANCH  18  19
ENDBRANCH   1  18
TORSDOF 9
