REMARK  4 active torsions:
REMARK  status: ('A' for Active; 'I' for Inactive)
REMARK    1  A    between atoms: C_5  and  N_6 
REMARK    2  A    between atoms: N_9  and  C_10 
REMARK    3  A    between atoms: C_10  and  C_11 
REMARK    4  A    between atoms: C_14  and  C_15 
ROOT
ATOM      1  N   UNL d   1      11.133   7.275  -8.074  0.00  0.00    -0.179 N 
ATOM      2  C   UNL d   1      11.700   7.859  -9.284  0.00  0.00     0.155 C 
ATOM      3  C   UNL d   1      10.596   8.072 -10.325  0.00  0.00     0.275 C 
ATOM      4  N   UNL d   1       9.953   6.787 -10.620  0.00  0.00     0.147 N 
ATOM      5  C   UNL d   1       9.307   6.311  -9.400  0.00  0.00     0.275 C 
ATOM      6  C   UNL d   1      10.350   6.068  -8.302  0.00  0.00     0.155 C 
ENDROOT
BRANCH   4   7
ATOM      7  C   UNL d   1       8.985   6.985 -11.700  0.00  0.00     0.297 C 
BRANCH   7   8
ATOM      8  C   UNL d   1       8.224   5.825 -12.253  0.00  0.00     0.113 A 
ATOM      9  N   UNL d   1       8.826   4.869 -13.070  0.00  0.00    -0.228 NA
ATOM     10  C   UNL d   1       7.867   3.991 -13.375  0.00  0.00     0.162 A 
ATOM     11  N   UNL d   1       6.704   4.353 -12.806  0.00  0.00    -0.224 NA
ATOM     12  C   UNL d   1       6.899   5.516 -12.079  0.00  0.00     0.117 A 
BRANCH  10  13
ATOM     13  C   UNL d   1       8.069   2.804 -14.207  0.00  0.00     0.036 A 
ATOM     14  C   UNL d   1       9.367   2.449 -14.645  0.00  0.00     0.003 A 
ATOM     15  C   UNL d   1       9.562   1.304 -15.443  0.00  0.00     0.000 A 
ATOM     16  C   UNL d   1       8.464   0.501 -15.806  0.00  0.00     0.000 A 
ATOM     17  C   UNL d   1       7.172   0.840 -15.365  0.00  0.00     0.000 A 
ATOM     18  C   UNL d   1       6.976   1.984 -14.568  0.00  0.00     0.003 A 
ENDBRANCH  10  13
ENDBRANCH   7   8
ENDBRANCH   4   7
BRANCH   1  19
ATOM     19  C   UNL d   1      11.296   7.832  -6.822  0.00  0.00     0.727 A 
ATOM     20  N   UNL d   1      11.259   6.990  -5.787  0.00  0.00    -0.060 NA
ATOM     21  C   UNL d   1      11.463   7.508  -4.568  0.00  0.00     0.115 A 
ATOM     22  C   UNL d   1      11.698   8.882  -4.385  0.00  0.00     0.018 A 
ATOM     23  C   UNL d   1      11.882   9.482  -3.014  0.00  0.00     0.034 C 
ATOM     24  C   UNL d   1      11.691   9.684  -5.543  0.00  0.00     0.115 A 
ATOM     25  N   UNL d   1      11.505   9.148  -6.762  0.00  0.00    -0.060 NA
ENDBRANCH   1  19
TORSDOF 4
