REMARK  7 active torsions:
REMARK  status: ('A' for Active; 'I' for Inactive)
REMARK    1  A    between atoms: C_2  and  C_5 
REMARK    2  A    between atoms: C_5  and  C_6 
REMARK       I    between atoms: C_6  and  N_8 
REMARK    3  A    between atoms: N_8  and  C_9 
REMARK    4  A    between atoms: C_12  and  C_13 
REMARK    5  A    between atoms: C_13  and  C_14 
REMARK    6  A    between atoms: C_14  and  N_15 
REMARK    7  A    between atoms: C_18  and  C_19 
ROOT
ATOM      1  C   UNL d   1       8.737   5.370 -10.458  0.00  0.00     0.250 C 
ENDROOT
BRANCH   1   2
ATOM      2  C   UNL d   1       9.383   5.681 -11.823  0.00  0.00     0.035 C 
BRANCH   2   3
ATOM      3  C   UNL d   1       9.522   4.446 -12.729  0.00  0.00     0.002 C 
ATOM      4  C   UNL d   1       8.189   4.144 -13.425  0.00  0.00     0.002 C 
ATOM      5  C   UNL d   1       8.305   2.926 -14.342  0.00  0.00     0.024 C 
ATOM      6  C   UNL d   1       9.445   3.102 -15.374  0.00  0.00     0.106 C 
ATOM      7  C   UNL d   1      10.779   3.408 -14.691  0.00  0.00     0.024 C 
ATOM      8  C   UNL d   1      10.650   4.625 -13.768  0.00  0.00     0.002 C 
BRANCH   6   9
ATOM      9  N   UNL d   1       9.591   1.901 -16.188  0.00  0.00    -0.240 NA
ATOM     10  C   UNL d   1       8.789   1.614 -17.220  0.00  0.00     0.251 C 
ATOM     11  O   UNL d   1       7.896   2.373 -17.594  0.00  0.00    -0.271 OA
BRANCH  10  12
ATOM     12  C   UNL d   1       9.017   0.278 -17.934  0.00  0.00     0.090 C 
BRANCH  12  13
ATOM     13  C   UNL d   1       7.839  -0.243 -18.814  0.00  0.00     0.009 C 
ATOM     14  C   UNL d   1       8.209  -1.630 -19.376  0.00  0.00     0.001 C 
ATOM     15  C   UNL d   1       7.586   0.689 -20.025  0.00  0.00     0.001 C 
ATOM     16  C   UNL d   1       6.548  -0.398 -17.976  0.00  0.00     0.001 C 
ENDBRANCH  12  13
ENDBRANCH  10  12
ENDBRANCH   6   9
ENDBRANCH   2   3
ENDBRANCH   1   2
BRANCH   1  17
ATOM     17  N   UNL d   1       9.172   6.276  -9.391  0.00  0.00     0.137 N 
ATOM     18  C   UNL d   1       8.559   5.834  -8.136  0.00  0.00     0.251 C 
ATOM     19  C   UNL d   1       8.915   6.798  -6.989  0.00  0.00     0.040 C 
ATOM     20  C   UNL d   1      10.441   6.920  -6.827  0.00  0.00     0.026 C 
ATOM     21  C   UNL d   1      11.077   7.252  -8.169  0.00  0.00     0.040 C 
ATOM     22  C   UNL d   1      10.627   6.258  -9.232  0.00  0.00     0.251 C 
BRANCH  20  23
ATOM     23  C   UNL d   1      10.827   7.957  -5.789  0.00  0.00    -0.024 A 
ATOM     24  C   UNL d   1      11.480   7.626  -4.582  0.00  0.00    -0.001 A 
ATOM     25  C   UNL d   1      11.816   8.569  -3.625  0.00  0.00     0.090 A 
ATOM     26  C   UNL d   1      11.873   6.288  -4.095  0.00  0.00     0.061 A 
ATOM     27  C   UNL d   1      11.493   9.915  -3.818  0.00  0.00     0.024 A 
ATOM     28  O   UNL d   1      12.420   8.031  -2.519  0.00  0.00    -0.331 OA
ATOM     29  C   UNL d   1      10.876  10.286  -5.036  0.00  0.00     0.002 A 
ATOM     30  C   UNL d   1      10.547   9.320  -6.006  0.00  0.00    -0.004 A 
ATOM     31  C   UNL d   1      12.566   6.623  -2.757  0.00  0.00     0.154 A 
ENDBRANCH  20  23
ENDBRANCH   1  17
TORSDOF 7
