REMARK  4 active torsions:
REMARK  status: ('A' for Active; 'I' for Inactive)
REMARK    1  A    between atoms: C_5  and  C_6 
REMARK    2  A    between atoms: C_6  and  N_7 
REMARK    3  A    between atoms: C_10  and  C_11 
REMARK    4  A    between atoms: C_11  and  C_12 
REMARK       I    between atoms: C_12  and  N_14 
ROOT
ATOM      1  N   UNL d   1       9.161   5.255 -11.924  0.00  0.00     0.141 N 
ATOM      2  C   UNL d   1       9.598   5.995 -13.111  0.00  0.00     0.251 C 
ATOM      3  C   UNL d   1      10.469   5.127 -14.009  0.00  0.00     0.036 C 
ATOM      4  C   UNL d   1       9.663   3.915 -14.471  0.00  0.00     0.013 C 
ATOM      5  C   UNL d   1       9.088   3.240 -13.229  0.00  0.00     0.036 C 
ATOM      6  C   UNL d   1       8.273   4.204 -12.389  0.00  0.00     0.251 C 
ENDROOT
BRANCH   4   7
ATOM      7  C   UNL d   1      10.561   3.029 -15.323  0.00  0.00     0.088 C 
BRANCH   7   8
ATOM      8  C   UNL d   1       9.913   1.785 -15.938  0.00  0.00     0.237 C 
ATOM      9  O   UNL d   1       8.836   1.425 -15.496  0.00  0.00    -0.272 OA
ATOM     10  N   UNL d   1      10.519   1.109 -16.955  0.00  0.00    -0.301 N 
ATOM     11  C   UNL d   1      10.024  -0.228 -17.355  0.00  0.00     0.093 A 
ATOM     12  C   UNL d   1      11.656   1.490 -17.732  0.00  0.00     0.058 A 
ATOM     13  C   UNL d   1      10.942  -0.671 -18.522  0.00  0.00     0.051 A 
ATOM     14  C   UNL d   1       8.514  -0.336 -17.759  0.00  0.00     0.025 C 
ATOM     15  C   UNL d   1      11.919   0.464 -18.653  0.00  0.00    -0.004 A 
ATOM     16  C   UNL d   1      12.995   0.538 -19.567  0.00  0.00    -0.003 A 
ATOM     17  C   UNL d   1      13.812   1.692 -19.559  0.00  0.00    -0.000 A 
ATOM     18  C   UNL d   1      13.538   2.736 -18.656  0.00  0.00     0.002 A 
ATOM     19  C   UNL d   1      12.485   2.643 -17.743  0.00  0.00     0.017 A 
ENDBRANCH   7   8
ENDBRANCH   4   7
BRANCH   1  20
ATOM     20  C   UNL d   1       8.419   6.122 -11.024  0.00  0.00     0.277 C 
BRANCH  20  21
ATOM     21  C   UNL d   1       9.305   6.787  -9.980  0.00  0.00     0.011 A 
ATOM     22  C   UNL d   1      10.226   7.798 -10.336  0.00  0.00    -0.003 A 
ATOM     23  C   UNL d   1      10.998   8.437  -9.365  0.00  0.00    -0.005 A 
ATOM     24  C   UNL d   1      10.812   8.132  -8.009  0.00  0.00    -0.026 A 
ATOM     25  C   UNL d   1      11.643   8.877  -6.991  0.00  0.00     0.031 C 
ATOM     26  C   UNL d   1       9.861   7.151  -7.634  0.00  0.00    -0.026 A 
ATOM     27  C   UNL d   1       9.124   6.469  -8.619  0.00  0.00    -0.007 A 
ATOM     28  C   UNL d   1       9.613   6.847  -6.174  0.00  0.00     0.031 C 
ENDBRANCH  20  21
ENDBRANCH   1  20
TORSDOF 4
