REMARK  7 active torsions:
REMARK  status: ('A' for Active; 'I' for Inactive)
REMARK       I    between atoms: C_2  and  N_3 
REMARK    1  A    between atoms: C_2  and  C_20 
REMARK    2  A    between atoms: N_3  and  C_4 
REMARK    3  A    between atoms: C_4  and  C_5 
REMARK    4  A    between atoms: C_5  and  C_6 
REMARK    5  A    between atoms: C_6  and  C_7 
REMARK    6  A    between atoms: C_7  and  N_8 
REMARK    7  A    between atoms: N_11  and  C_12 
ROOT
ATOM      1  C   UNL d   1       9.005   6.789 -11.507  0.00  0.00     0.029 C 
ENDROOT
BRANCH   1   2
ATOM      2  C   UNL d   1      10.314   7.196 -10.839  0.00  0.00     0.129 C 
BRANCH   2   3
ATOM      3  N   UNL d   1      10.281   7.251  -9.388  0.00  0.00    -0.233 NA
ATOM      4  C   UNL d   1      10.057   8.442  -8.799  0.00  0.00     0.293 C 
ATOM      5  O   UNL d   1       9.572   9.395  -9.404  0.00  0.00    -0.264 OA
BRANCH   4   6
ATOM      6  C   UNL d   1      10.580   8.568  -7.403  0.00  0.00     0.139 A 
ATOM      7  N   UNL d   1      10.886   9.821  -6.987  0.00  0.00    -0.239 NA
ATOM      8  C   UNL d   1      11.323  10.004  -5.732  0.00  0.00     0.099 A 
ATOM      9  C   UNL d   1      11.535   8.950  -4.830  0.00  0.00     0.019 A 
ATOM     10  C   UNL d   1      11.242   7.653  -5.290  0.00  0.00     0.003 A 
ATOM     11  C   UNL d   1      12.015   9.166  -3.521  0.00  0.00     0.002 A 
ATOM     12  C   UNL d   1      10.742   7.437  -6.583  0.00  0.00     0.024 A 
ATOM     13  C   UNL d   1      11.442   6.566  -4.441  0.00  0.00     0.000 A 
ATOM     14  C   UNL d   1      11.924   6.766  -3.134  0.00  0.00     0.000 A 
ATOM     15  C   UNL d   1      12.215   8.060  -2.668  0.00  0.00     0.000 A 
ENDBRANCH   4   6
ENDBRANCH   2   3
ENDBRANCH   1   2
BRANCH   1  16
ATOM     16  C   UNL d   1       8.687   5.300 -11.526  0.00  0.00     0.037 C 
BRANCH  16  17
ATOM     17  C   UNL d   1       7.266   5.061 -12.113  0.00  0.00     0.251 C 
BRANCH  17  18
ATOM     18  N   UNL d   1       7.108   3.648 -12.480  0.00  0.00     0.141 N 
ATOM     19  C   UNL d   1       7.877   3.343 -13.700  0.00  0.00     0.275 C 
ATOM     20  C   UNL d   1       7.808   1.844 -14.069  0.00  0.00     0.155 C 
ATOM     21  N   UNL d   1       6.422   1.410 -14.150  0.00  0.00    -0.179 N 
ATOM     22  C   UNL d   1       5.577   1.770 -13.006  0.00  0.00     0.155 C 
ATOM     23  C   UNL d   1       5.698   3.281 -12.673  0.00  0.00     0.275 C 
BRANCH  21  24
ATOM     24  C   UNL d   1       5.950   0.738 -15.266  0.00  0.00     0.727 A 
ATOM     25  N   UNL d   1       6.538   1.037 -16.434  0.00  0.00    -0.060 NA
ATOM     26  C   UNL d   1       6.045   0.436 -17.544  0.00  0.00     0.120 A 
ATOM     27  C   UNL d   1       5.003  -0.492 -17.468  0.00  0.00     0.043 A 
ATOM     28  C   UNL d   1       4.492  -0.777 -16.194  0.00  0.00     0.120 A 
ATOM     29  N   UNL d   1       4.965  -0.134 -15.091  0.00  0.00    -0.060 NA
ENDBRANCH  21  24
ENDBRANCH  17  18
ENDBRANCH  16  17
ENDBRANCH   1  16
TORSDOF 7
