REMARK  7 active torsions:
REMARK  status: ('A' for Active; 'I' for Inactive)
REMARK    1  A    between atoms: O_2  and  C_3 
REMARK    2  A    between atoms: C_8  and  N_9 
REMARK    3  A    between atoms: N_12  and  C_13 
REMARK    4  A    between atoms: C_13  and  C_14 
REMARK    5  A    between atoms: C_14  and  C_16 
REMARK    6  A    between atoms: C_16  and  N_17 
REMARK    7  A    between atoms: C_21  and  C_23 
ROOT
ATOM      1  C   UNL d   1      10.937   8.850 -10.242  0.00  0.00     0.208 C 
ATOM      2  O   UNL d   1      12.201   9.191 -10.804  0.00  0.00    -0.219 OA
ENDROOT
BRANCH   1   3
ATOM      3  C   UNL d   1       9.995   8.465 -11.418  0.00  0.00     0.285 C 
BRANCH   3   4
ATOM      4  N   UNL d   1       9.128   7.306 -11.265  0.00  0.00     0.144 N 
ATOM      5  C   UNL d   1       9.837   6.058 -11.502  0.00  0.00     0.274 C 
ATOM      6  C   UNL d   1       8.940   4.873 -11.162  0.00  0.00     0.137 C 
ATOM      7  N   UNL d   1       7.731   4.973 -11.957  0.00  0.00    -0.343 N 
ATOM      8  C   UNL d   1       7.005   6.229 -11.904  0.00  0.00     0.137 C 
ATOM      9  C   UNL d   1       7.985   7.375 -12.168  0.00  0.00     0.274 C 
BRANCH   7  10
ATOM     10  C   UNL d   1       7.319   3.945 -12.796  0.00  0.00     0.079 A 
ATOM     11  C   UNL d   1       8.194   3.364 -13.745  0.00  0.00     0.110 A 
ATOM     12  C   UNL d   1       7.724   2.251 -14.485  0.00  0.00     0.026 A 
ATOM     13  C   UNL d   1       6.439   1.725 -14.258  0.00  0.00     0.002 A 
ATOM     14  C   UNL d   1       5.606   2.298 -13.283  0.00  0.00     0.002 A 
ATOM     15  C   UNL d   1       6.035   3.423 -12.566  0.00  0.00     0.019 A 
BRANCH  11  16
ATOM     16  O   UNL d   1       9.468   3.882 -13.892  0.00  0.00    -0.327 OA
ATOM     17  C   UNL d   1      10.447   3.107 -14.572  0.00  0.00     0.181 C 
ENDBRANCH  11  16
ENDBRANCH   7  10
ENDBRANCH   3   4
ENDBRANCH   1   3
BRANCH   1  18
ATOM     18  C   UNL d   1      11.122   7.733  -9.165  0.00  0.00     0.148 C 
BRANCH  18  19
ATOM     19  N   UNL d   1      10.793   8.248  -7.849  0.00  0.00    -0.247 N 
ATOM     20  C   UNL d   1      11.595   8.929  -7.031  0.00  0.00     0.265 C 
ATOM     21  C   UNL d   1      10.843   9.173  -5.734  0.00  0.00     0.179 C 
ATOM     22  O   UNL d   1      12.755   9.240  -7.230  0.00  0.00    -0.269 OA
ATOM     23  N   UNL d   1       9.568   8.582  -6.092  0.00  0.00    -0.209 NA
ATOM     24  C   UNL d   1      10.707  10.666  -5.539  0.00  0.00     0.039 C 
ATOM     25  C   UNL d   1       9.595   7.968  -7.280  0.00  0.00     0.348 C 
ATOM     26  O   UNL d   1       8.705   7.273  -7.747  0.00  0.00    -0.245 OA
BRANCH  21  27
ATOM     27  C   UNL d   1      11.493   8.433  -4.580  0.00  0.00     0.009 A 
ATOM     28  C   UNL d   1      11.894   9.131  -3.422  0.00  0.00     0.028 A 
ATOM     29  C   UNL d   1      12.433   8.442  -2.330  0.00  0.00     0.140 A 
ATOM     30  C   UNL d   1      12.594   7.054  -2.372  0.00  0.00     0.030 A 
ATOM     31  F   UNL d   1      12.790   9.136  -1.255  0.00  0.00    -0.204 F 
ATOM     32  C   UNL d   1      12.261   6.382  -3.538  0.00  0.00     0.002 A 
ATOM     33  C   UNL d   1      11.676   7.029  -4.633  0.00  0.00    -0.002 A 
ENDBRANCH  21  27
ENDBRANCH  18  19
ENDBRANCH   1  18
TORSDOF 7
