REMARK  5 active torsions:
REMARK  status: ('A' for Active; 'I' for Inactive)
REMARK    1  A    between atoms: C_12  and  C_13 
REMARK    2  A    between atoms: C_13  and  N_14 
REMARK    3  A    between atoms: N_14  and  C_15 
REMARK    4  A    between atoms: C_15  and  C_16 
REMARK    5  A    between atoms: C_16  and  C_17 
ROOT
ATOM      1  N   UNL d   1       8.402   4.812 -10.945  0.00  0.00    -0.293 NA
ENDROOT
BRANCH   1   2
ATOM      2  C   UNL d   1       8.871   5.201 -12.271  0.00  0.00     0.152 C 
BRANCH   2   3
ATOM      3  C   UNL d   1       9.267   3.922 -13.049  0.00  0.00     0.175 C 
ATOM      4  C   UNL d   1       8.081   3.334 -13.828  0.00  0.00     0.181 C 
ATOM      5  O   UNL d   1       8.452   2.192 -14.592  0.00  0.00    -0.326 OA
ATOM      6  C   UNL d   1       9.673   2.325 -15.247  0.00  0.00     0.114 A 
ATOM      7  C   UNL d   1      10.068   1.425 -16.269  0.00  0.00     0.029 A 
ATOM      8  C   UNL d   1      10.565   3.389 -14.943  0.00  0.00     0.116 A 
ATOM      9  C   UNL d   1       9.396   0.192 -16.840  0.00  0.00     0.120 A 
ATOM     10  C   UNL d   1      11.275   1.620 -16.953  0.00  0.00     0.083 A 
ATOM     11  C   UNL d   1      10.428  -0.213 -17.902  0.00  0.00     0.260 A 
ATOM     12  O   UNL d   1      10.303  -1.196 -18.625  0.00  0.00    -0.270 OA
ATOM     13  N   UNL d   1      11.464   0.634 -17.920  0.00  0.00    -0.212 NA
ATOM     14  C   UNL d   1      12.162   2.680 -16.694  0.00  0.00     0.021 A 
ATOM     15  C   UNL d   1      11.764   3.557 -15.661  0.00  0.00     0.028 A 
ATOM     16  O   UNL d   1      10.261   4.313 -13.973  0.00  0.00    -0.327 OA
ENDBRANCH   2   3
ENDBRANCH   1   2
BRANCH   1  17
ATOM     17  C   UNL d   1       8.657   5.747  -9.880  0.00  0.00     0.120 C 
BRANCH  17  18
ATOM     18  C   UNL d   1      10.164   5.807  -9.558  0.00  0.00     0.026 C 
BRANCH  18  19
ATOM     19  C   UNL d   1      10.607   6.908  -8.597  0.00  0.00     0.007 C 
ATOM     20  C   UNL d   1      10.860   6.387  -7.168  0.00  0.00     0.028 C 
ATOM     21  C   UNL d   1      11.014   7.535  -6.186  0.00  0.00    -0.007 A 
ATOM     22  C   UNL d   1      10.658   8.823  -6.515  0.00  0.00     0.055 A 
ATOM     23  C   UNL d   1      11.498   7.605  -4.843  0.00  0.00     0.017 A 
ATOM     24  C   UNL d   1      10.136   9.271  -7.803  0.00  0.00     0.045 C 
ATOM     25  N   UNL d   1      10.918   9.669  -5.487  0.00  0.00    -0.250 NA
ATOM     26  C   UNL d   1       9.678   8.136  -8.686  0.00  0.00     0.007 C 
ATOM     27  C   UNL d   1      11.456   8.980  -4.397  0.00  0.00     0.081 A 
ATOM     28  C   UNL d   1      11.858   9.430  -3.148  0.00  0.00     0.021 A 
ATOM     29  C   UNL d   1      12.365   8.479  -2.222  0.00  0.00     0.031 A 
ATOM     30  C   UNL d   1      12.431   7.119  -2.607  0.00  0.00     0.140 A 
ATOM     31  F   UNL d   1      12.914   6.165  -1.757  0.00  0.00    -0.204 F 
ATOM     32  C   UNL d   1      12.025   6.689  -3.876  0.00  0.00     0.031 A 
ENDBRANCH  18  19
ENDBRANCH  17  18
ENDBRANCH   1  17
TORSDOF 5
