REMARK  4 active torsions:
REMARK  status: ('A' for Active; 'I' for Inactive)
REMARK    1  A    between atoms: C_3  and  C_4 
REMARK    2  A    between atoms: C_4  and  N_5 
REMARK    3  A    between atoms: N_8  and  C_9 
REMARK    4  A    between atoms: N_19  and  C_20 
ROOT
ATOM      1  C   UNL d   1       8.143   6.337 -12.125  0.00  0.00     0.280 C 
ENDROOT
BRANCH   1   2
ATOM      2  C   UNL d   1       7.899   5.030 -12.827  0.00  0.00     0.045 A 
ATOM      3  C   UNL d   1       8.772   4.311 -13.598  0.00  0.00     0.060 A 
ATOM      4  C   UNL d   1      10.194   4.637 -13.942  0.00  0.00     0.052 C 
ATOM      5  N   UNL d   1       8.094   3.186 -14.054  0.00  0.00    -0.234 N 
ATOM      6  N   UNL d   1       6.803   3.206 -13.637  0.00  0.00    -0.164 NA
ATOM      7  C   UNL d   1       6.689   4.288 -12.887  0.00  0.00     0.119 A 
BRANCH   5   8
ATOM      8  C   UNL d   1       8.558   2.115 -14.876  0.00  0.00     0.083 A 
ATOM      9  C   UNL d   1       9.893   1.647 -14.786  0.00  0.00     0.019 A 
ATOM     10  C   UNL d   1      10.354   0.611 -15.616  0.00  0.00     0.002 A 
ATOM     11  C   UNL d   1       9.477  -0.011 -16.522  0.00  0.00     0.000 A 
ATOM     12  C   UNL d   1       8.138   0.420 -16.601  0.00  0.00     0.002 A 
ATOM     13  C   UNL d   1       7.682   1.481 -15.789  0.00  0.00     0.019 A 
ENDBRANCH   5   8
ENDBRANCH   1   2
BRANCH   1  14
ATOM     14  N   UNL d   1       9.253   6.260 -11.177  0.00  0.00     0.146 N 
ATOM     15  C   UNL d   1       9.807   7.602 -10.963  0.00  0.00     0.275 C 
ATOM     16  C   UNL d   1      11.012   7.539 -10.005  0.00  0.00     0.137 C 
ATOM     17  N   UNL d   1      10.606   6.932  -8.746  0.00  0.00    -0.344 N 
ATOM     18  C   UNL d   1       9.936   5.634  -8.876  0.00  0.00     0.137 C 
ATOM     19  C   UNL d   1       8.774   5.729  -9.893  0.00  0.00     0.275 C 
BRANCH  17  20
ATOM     20  C   UNL d   1      10.805   7.568  -7.505  0.00  0.00     0.056 A 
ATOM     21  C   UNL d   1      10.799   8.978  -7.394  0.00  0.00     0.017 A 
ATOM     22  C   UNL d   1      11.017   9.606  -6.155  0.00  0.00     0.002 A 
ATOM     23  C   UNL d   1      11.223   8.836  -4.997  0.00  0.00     0.000 A 
ATOM     24  C   UNL d   1      11.218   7.430  -5.095  0.00  0.00     0.002 A 
ATOM     25  C   UNL d   1      11.023   6.805  -6.338  0.00  0.00     0.017 A 
ENDBRANCH  17  20
ENDBRANCH   1  14
TORSDOF 4
