REMARK  11 active torsions:
REMARK  status: ('A' for Active; 'I' for Inactive)
REMARK    1  A    between atoms: O_2  and  C_3 
REMARK    2  A    between atoms: C_6  and  C_7 
REMARK    3  A    between atoms: C_8  and  C_9 
REMARK       I    between atoms: C_9  and  N_11 
REMARK    4  A    between atoms: N_11  and  C_12 
REMARK    5  A    between atoms: C_12  and  C_13 
REMARK    6  A    between atoms: C_13  and  C_14 
REMARK    7  A    between atoms: C_14  and  C_15 
REMARK    8  A    between atoms: C_15  and  N_16 
REMARK    9  A    between atoms: C_22  and  O_23 
REMARK   10  A    between atoms: O_23  and  S_24 
REMARK   11  A    between atoms: S_24  and  C_27 
ROOT
ATOM      1  N   UNL d   1       8.259   2.770 -15.236  0.00  0.00     0.142 N 
ATOM      2  C   UNL d   1       9.547   2.632 -15.918  0.00  0.00     0.255 C 
ATOM      3  C   UNL d   1       9.294   2.226 -17.382  0.00  0.00     0.061 C 
ATOM      4  C   UNL d   1       8.349   1.048 -17.503  0.00  0.00    -0.022 A 
ATOM      5  C   UNL d   1       8.273   0.314 -18.698  0.00  0.00    -0.002 A 
ATOM      6  C   UNL d   1       7.398  -0.782 -18.791  0.00  0.00     0.025 A 
ATOM      7  C   UNL d   1       6.564  -1.127 -17.710  0.00  0.00     0.113 A 
ATOM      8  C   UNL d   1       6.639  -0.390 -16.510  0.00  0.00     0.023 A 
ATOM      9  C   UNL d   1       7.529   0.692 -16.405  0.00  0.00     0.009 A 
ATOM     10  C   UNL d   1       7.648   1.450 -15.095  0.00  0.00     0.277 C 
ENDROOT
BRANCH   1  11
ATOM     11  C   UNL d   1       8.471   3.358 -13.916  0.00  0.00     0.251 C 
BRANCH  11  12
ATOM     12  C   UNL d   1       7.179   3.970 -13.337  0.00  0.00     0.037 C 
BRANCH  12  13
ATOM     13  C   UNL d   1       7.383   4.679 -11.994  0.00  0.00     0.029 C 
BRANCH  13  14
ATOM     14  C   UNL d   1       8.467   5.777 -12.024  0.00  0.00     0.129 C 
BRANCH  14  15
ATOM     15  N   UNL d   1       8.665   6.389 -10.713  0.00  0.00    -0.234 NA
ATOM     16  C   UNL d   1       9.277   5.820  -9.676  0.00  0.00     0.275 C 
ATOM     17  O   UNL d   1       9.613   4.630  -9.642  0.00  0.00    -0.266 OA
BRANCH  16  18
ATOM     18  C   UNL d   1       9.520   6.786  -8.625  0.00  0.00     0.062 C 
ATOM     19  C   UNL d   1      10.380   6.488  -7.632  0.00  0.00     0.005 C 
BRANCH  19  20
ATOM     20  C   UNL d   1      10.748   7.356  -6.515  0.00  0.00     0.000 A 
ATOM     21  C   UNL d   1      11.440   6.762  -5.447  0.00  0.00     0.002 A 
ATOM     22  C   UNL d   1      11.812   7.505  -4.325  0.00  0.00     0.024 A 
ATOM     23  C   UNL d   1      11.506   8.894  -4.236  0.00  0.00     0.094 A 
ATOM     24  C   UNL d   1      10.824   9.492  -5.318  0.00  0.00     0.024 A 
ATOM     25  C   UNL d   1      10.433   8.732  -6.439  0.00  0.00     0.002 A 
BRANCH  23  26
ATOM     26  O   UNL d   1      11.819   9.675  -3.146  0.00  0.00    -0.328 OA
ATOM     27  C   UNL d   1      12.394   9.014  -2.035  0.00  0.00     0.181 C 
ENDBRANCH  23  26
ENDBRANCH  19  20
ENDBRANCH  16  18
ENDBRANCH  14  15
ENDBRANCH  13  14
ENDBRANCH  12  13
ENDBRANCH  11  12
ENDBRANCH   1  11
BRANCH   7  28
ATOM     28  O   UNL d   1       5.638  -2.116 -17.873  0.00  0.00    -0.224 OA
BRANCH  28  29
ATOM     29  S   UNL d   1       4.023  -1.656 -18.109  0.00  0.00     0.374 S 
ATOM     30  O   UNL d   1       3.370  -2.765 -18.838  0.00  0.00    -0.189 OA
ATOM     31  O   UNL d   1       3.503  -1.212 -16.802  0.00  0.00    -0.189 OA
BRANCH  29  32
ATOM     32  C   UNL d   1       4.172  -0.210 -19.276  0.00  0.00     0.524 C 
ATOM     33  F   UNL d   1       4.765   0.816 -18.680  0.00  0.00    -0.155 F 
ATOM     34  F   UNL d   1       4.848  -0.586 -20.360  0.00  0.00    -0.155 F 
ATOM     35  F   UNL d   1       2.952   0.172 -19.641  0.00  0.00    -0.155 F 
ENDBRANCH  29  32
ENDBRANCH  28  29
ENDBRANCH   7  28
TORSDOF 11
