REMARK  8 active torsions:
REMARK  status: ('A' for Active; 'I' for Inactive)
REMARK    1  A    between atoms: O_2  and  C_3 
REMARK    2  A    between atoms: C_8  and  N_9 
REMARK    3  A    between atoms: N_12  and  C_13 
REMARK    4  A    between atoms: C_13  and  C_14 
REMARK    5  A    between atoms: C_14  and  C_15 
REMARK    6  A    between atoms: C_15  and  C_16 
REMARK    7  A    between atoms: C_16  and  N_17 
REMARK    8  A    between atoms: C_19  and  C_20 
ROOT
ATOM      1  C   UNL d   1       9.448   4.135 -12.518  0.00  0.00     0.037 C 
ENDROOT
BRANCH   1   2
ATOM      2  C   UNL d   1       9.809   4.306 -14.007  0.00  0.00     0.251 C 
BRANCH   2   3
ATOM      3  N   UNL d   1      10.227   3.045 -14.620  0.00  0.00     0.141 N 
ATOM      4  C   UNL d   1       9.110   2.095 -14.661  0.00  0.00     0.274 C 
ATOM      5  C   UNL d   1       9.572   0.752 -15.255  0.00  0.00     0.137 C 
ATOM      6  N   UNL d   1      10.129   0.965 -16.585  0.00  0.00    -0.343 N 
ATOM      7  C   UNL d   1      11.167   1.989 -16.661  0.00  0.00     0.137 C 
ATOM      8  C   UNL d   1      10.682   3.297 -15.991  0.00  0.00     0.274 C 
BRANCH   6   9
ATOM      9  C   UNL d   1       9.639   0.326 -17.737  0.00  0.00     0.079 A 
ATOM     10  C   UNL d   1       8.246   0.142 -17.960  0.00  0.00     0.110 A 
ATOM     11  C   UNL d   1       7.817  -0.537 -19.130  0.00  0.00     0.026 A 
ATOM     12  C   UNL d   1       8.746  -1.004 -20.076  0.00  0.00     0.002 A 
ATOM     13  C   UNL d   1      10.120  -0.801 -19.865  0.00  0.00     0.002 A 
ATOM     14  C   UNL d   1      10.561  -0.147 -18.698  0.00  0.00     0.019 A 
BRANCH  10  15
ATOM     15  O   UNL d   1       7.359   0.671 -17.041  0.00  0.00    -0.327 OA
ATOM     16  C   UNL d   1       5.984   0.352 -17.157  0.00  0.00     0.181 C 
ENDBRANCH  10  15
ENDBRANCH   6   9
ENDBRANCH   2   3
ENDBRANCH   1   2
BRANCH   1  17
ATOM     17  C   UNL d   1       9.307   5.480 -11.807  0.00  0.00     0.029 C 
BRANCH  17  18
ATOM     18  C   UNL d   1       8.901   5.359 -10.322  0.00  0.00     0.129 C 
BRANCH  18  19
ATOM     19  N   UNL d   1       9.481   6.383  -9.468  0.00  0.00    -0.231 N 
ATOM     20  N   UNL d   1       9.862   7.580  -9.972  0.00  0.00    -0.064 NA
ATOM     21  N   UNL d   1      10.354   8.267  -8.995  0.00  0.00    -0.129 NA
ATOM     22  C   UNL d   1      10.282   7.526  -7.817  0.00  0.00     0.123 A 
ATOM     23  C   UNL d   1       9.710   6.320  -8.112  0.00  0.00     0.118 A 
BRANCH  22  24
ATOM     24  C   UNL d   1      10.781   8.053  -6.552  0.00  0.00     0.021 A 
ATOM     25  C   UNL d   1      11.138   7.178  -5.505  0.00  0.00     0.003 A 
ATOM     26  C   UNL d   1      11.634   7.668  -4.277  0.00  0.00     0.019 A 
ATOM     27  C   UNL d   1      11.741   9.084  -4.131  0.00  0.00     0.081 A 
ATOM     28  C   UNL d   1      12.075   7.056  -3.057  0.00  0.00     0.022 A 
ATOM     29  C   UNL d   1      11.372   9.967  -5.160  0.00  0.00     0.019 A 
ATOM     30  N   UNL d   1      12.232   9.284  -2.858  0.00  0.00    -0.244 NA
ATOM     31  C   UNL d   1      10.903   9.444  -6.373  0.00  0.00     0.003 A 
ATOM     32  C   UNL d   1      12.423   8.077  -2.212  0.00  0.00     0.099 A 
ENDBRANCH  22  24
ENDBRANCH  18  19
ENDBRANCH  17  18
ENDBRANCH   1  17
TORSDOF 8
