REMARK  6 active torsions:
REMARK  status: ('A' for Active; 'I' for Inactive)
REMARK    1  A    between atoms: C_9  and  N_10 
REMARK       I    between atoms: N_10  and  C_11 
REMARK    2  A    between atoms: C_11  and  C_13 
REMARK    3  A    between atoms: C_13  and  C_14 
REMARK    4  A    between atoms: C_14  and  C_15 
REMARK    5  A    between atoms: C_15  and  N_16 
REMARK    6  A    between atoms: N_19  and  C_20 
ROOT
ATOM      1  N   UNL d   1       3.463  -0.731 -14.039  0.00  0.00    -0.191 NA
ATOM      2  C   UNL d   1       4.354  -0.562 -14.759  0.00  0.00     0.104 C 
ATOM      3  C   UNL d   1       5.447  -0.330 -15.633  0.00  0.00     0.107 A 
ATOM      4  C   UNL d   1       5.755  -1.055 -16.806  0.00  0.00     0.132 A 
ATOM      5  N   UNL d   1       6.813  -0.582 -17.433  0.00  0.00    -0.163 NA
ATOM      6  N   UNL d   1       7.247   0.452 -16.631  0.00  0.00    -0.228 N 
ATOM      7  C   UNL d   1       8.338   1.230 -16.862  0.00  0.00     0.102 A 
ATOM      8  C   UNL d   1       8.637   2.242 -15.977  0.00  0.00     0.040 A 
ATOM      9  C   UNL d   1       7.823   2.480 -14.832  0.00  0.00     0.087 A 
ATOM     10  C   UNL d   1       6.716   1.682 -14.604  0.00  0.00     0.039 A 
ATOM     11  C   UNL d   1       6.406   0.635 -15.514  0.00  0.00     0.096 A 
ENDROOT
BRANCH   9  12
ATOM     12  N   UNL d   1       8.193   3.565 -13.985  0.00  0.00    -0.212 NA
ATOM     13  C   UNL d   1       7.407   4.324 -13.190  0.00  0.00     0.256 C 
ATOM     14  O   UNL d   1       6.236   4.073 -12.905  0.00  0.00    -0.270 OA
BRANCH  13  15
ATOM     15  C   UNL d   1       8.049   5.602 -12.645  0.00  0.00     0.092 C 
BRANCH  15  16
ATOM     16  C   UNL d   1       8.398   5.497 -11.152  0.00  0.00     0.045 C 
BRANCH  16  17
ATOM     17  C   UNL d   1       9.369   6.612 -10.723  0.00  0.00     0.251 C 
BRANCH  17  18
ATOM     18  N   UNL d   1       9.843   6.424  -9.355  0.00  0.00     0.141 N 
ATOM     19  C   UNL d   1      11.081   7.185  -9.174  0.00  0.00     0.274 C 
ATOM     20  C   UNL d   1      11.613   6.985  -7.736  0.00  0.00     0.137 C 
ATOM     21  N   UNL d   1      10.607   7.380  -6.787  0.00  0.00    -0.344 N 
ATOM     22  C   UNL d   1       9.305   6.769  -6.957  0.00  0.00     0.137 C 
ATOM     23  C   UNL d   1       8.841   6.941  -8.411  0.00  0.00     0.274 C 
BRANCH  21  24
ATOM     24  C   UNL d   1      10.906   8.265  -5.749  0.00  0.00     0.068 A 
ATOM     25  C   UNL d   1      11.500   7.844  -4.543  0.00  0.00     0.084 A 
ATOM     26  C   UNL d   1      11.782   8.729  -3.492  0.00  0.00     0.070 A 
ATOM     27 CL   UNL d   1      11.854   6.230  -4.287  0.00  0.00    -0.080 Cl
ATOM     28  C   UNL d   1      11.428  10.055  -3.646  0.00  0.00     0.012 A 
ATOM     29 CL   UNL d   1      12.494   8.206  -2.012  0.00  0.00    -0.081 Cl
ATOM     30  C   UNL d   1      10.845  10.491  -4.847  0.00  0.00     0.002 A 
ATOM     31  C   UNL d   1      10.607   9.616  -5.925  0.00  0.00     0.018 A 
ENDBRANCH  21  24
ENDBRANCH  17  18
ENDBRANCH  16  17
ENDBRANCH  15  16
ENDBRANCH  13  15
ENDBRANCH   9  12
TORSDOF 6
