REMARK  8 active torsions:
REMARK  status: ('A' for Active; 'I' for Inactive)
REMARK       I    between atoms: N_2  and  C_3 
REMARK    1  A    between atoms: C_3  and  C_5 
REMARK    2  A    between atoms: C_7  and  O_8 
REMARK    3  A    between atoms: O_8  and  C_9 
REMARK    4  A    between atoms: C_9  and  C_10 
REMARK    5  A    between atoms: C_10  and  C_11 
REMARK    6  A    between atoms: C_11  and  C_12 
REMARK    7  A    between atoms: C_12  and  N_13 
REMARK    8  A    between atoms: N_16  and  C_17 
ROOT
ATOM      1  C   UNL d   1       9.562   6.067 -11.677  0.00  0.00     0.251 C 
ENDROOT
BRANCH   1   2
ATOM      2  C   UNL d   1       8.924   4.709 -11.972  0.00  0.00     0.038 C 
BRANCH   2   3
ATOM      3  C   UNL d   1       8.768   4.505 -13.488  0.00  0.00     0.035 C 
BRANCH   3   4
ATOM      4  C   UNL d   1       8.497   3.054 -13.899  0.00  0.00     0.149 C 
BRANCH   4   5
ATOM      5  O   UNL d   1       7.108   2.788 -13.713  0.00  0.00    -0.331 OA
BRANCH   5   6
ATOM      6  C   UNL d   1       6.571   1.696 -14.358  0.00  0.00     0.094 A 
ATOM      7  C   UNL d   1       6.895   1.358 -15.694  0.00  0.00     0.031 A 
ATOM      8  C   UNL d   1       6.258   0.278 -16.341  0.00  0.00     0.087 A 
ATOM      9  C   UNL d   1       5.256  -0.449 -15.656  0.00  0.00     0.145 A 
ATOM     10  C   UNL d   1       4.922  -0.114 -14.333  0.00  0.00     0.032 A 
ATOM     11  F   UNL d   1       4.582  -1.457 -16.262  0.00  0.00    -0.204 F 
ATOM     12  C   UNL d   1       5.578   0.952 -13.684  0.00  0.00     0.026 A 
BRANCH   8  13
ATOM     13  C   UNL d   1       6.590  -0.015 -17.773  0.00  0.00     0.277 C 
ATOM     14  N   UNL d   1       6.732  -1.315 -18.063  0.00  0.00    -0.232 NA
ATOM     15  C   UNL d   1       6.976  -1.859 -19.388  0.00  0.00     0.155 C 
ATOM     16  O   UNL d   1       6.771   0.899 -18.581  0.00  0.00    -0.266 OA
ENDBRANCH   8  13
ENDBRANCH   5   6
ENDBRANCH   4   5
ENDBRANCH   3   4
ENDBRANCH   2   3
ENDBRANCH   1   2
BRANCH   1  17
ATOM     17  N   UNL d   1       9.394   6.467 -10.289  0.00  0.00     0.141 N 
ATOM     18  C   UNL d   1       9.509   7.925 -10.190  0.00  0.00     0.274 C 
ATOM     19  C   UNL d   1       9.256   8.364  -8.732  0.00  0.00     0.138 C 
ATOM     20  N   UNL d   1      10.200   7.718  -7.847  0.00  0.00    -0.329 N 
ATOM     21  C   UNL d   1      10.231   6.279  -7.965  0.00  0.00     0.138 C 
ATOM     22  C   UNL d   1      10.437   5.921  -9.434  0.00  0.00     0.274 C 
BRANCH  20  23
ATOM     23  C   UNL d   1      10.938   8.444  -6.906  0.00  0.00     0.148 A 
ATOM     24  C   UNL d   1      11.304   7.982  -5.583  0.00  0.00     0.042 A 
ATOM     25  C   UNL d   1      12.063   9.001  -4.930  0.00  0.00     0.050 A 
ATOM     26  C   UNL d   1      11.075   6.795  -4.853  0.00  0.00     0.004 A 
ATOM     27  S   UNL d   1      12.143  10.356  -6.031  0.00  0.00     0.015 SA
ATOM     28  C   UNL d   1      12.612   8.826  -3.650  0.00  0.00     0.008 A 
ATOM     29  N   UNL d   1      11.298   9.649  -7.241  0.00  0.00    -0.192 NA
ATOM     30  C   UNL d   1      12.387   7.619  -2.962  0.00  0.00     0.001 A 
ATOM     31  C   UNL d   1      11.617   6.617  -3.575  0.00  0.00     0.000 A 
ENDBRANCH  20  23
ENDBRANCH   1  17
TORSDOF 8
