REMARK  8 active torsions:
REMARK  status: ('A' for Active; 'I' for Inactive)
REMARK    1  A    between atoms: C_5  and  C_6 
REMARK    2  A    between atoms: C_6  and  C_7 
REMARK    3  A    between atoms: C_7  and  C_9 
REMARK    4  A    between atoms: C_9  and  N_10 
REMARK       I    between atoms: N_10  and  C_11 
REMARK       I    between atoms: C_11  and  N_13 
REMARK       I    between atoms: C_14  and  N_16 
REMARK    5  A    between atoms: N_16  and  C_17 
REMARK    6  A    between atoms: C_17  and  C_18 
REMARK    7  A    between atoms: C_18  and  C_19 
REMARK    8  A    between atoms: C_19  and  C_20 
ROOT
ATOM      1  N   UNL d   1       9.692   6.888 -10.772  0.00  0.00    -0.217 NA
ATOM      2  C   UNL d   1       9.059   7.103 -11.935  0.00  0.00     0.367 C 
ATOM      3  O   UNL d   1       8.942   8.218 -12.416  0.00  0.00    -0.243 OA
ATOM      4  N   UNL d   1       8.570   5.944 -12.501  0.00  0.00    -0.159 NA
ATOM      5  C   UNL d   1       7.320   5.628 -12.326  0.00  0.00     0.237 C 
ATOM      6  N   UNL d   1       6.354   6.386 -11.670  0.00  0.00    -0.060 NA
ATOM      7  N   UNL d   1       6.789   4.475 -12.846  0.00  0.00    -0.241 NA
ENDROOT
BRANCH   1   8
ATOM      8  C   UNL d   1      10.383   7.939 -10.038  0.00  0.00     0.131 C 
BRANCH   8   9
ATOM      9  C   UNL d   1      10.444   7.603  -8.548  0.00  0.00     0.029 C 
ATOM     10  C   UNL d   1       9.022   7.435  -7.955  0.00  0.00     0.002 C 
BRANCH   9  11
ATOM     11  C   UNL d   1      11.277   8.651  -7.761  0.00  0.00     0.028 C 
BRANCH  11  12
ATOM     12  C   UNL d   1      11.456   8.370  -6.268  0.00  0.00    -0.022 A 
ATOM     13  C   UNL d   1      11.828   9.428  -5.400  0.00  0.00    -0.005 A 
ATOM     14  C   UNL d   1      12.022   9.180  -4.023  0.00  0.00    -0.005 A 
ATOM     15  C   UNL d   1      11.858   7.875  -3.517  0.00  0.00    -0.022 A 
ATOM     16  C   UNL d   1      12.019   7.578  -2.049  0.00  0.00     0.031 C 
ATOM     17  C   UNL d   1      11.520   6.823  -4.377  0.00  0.00    -0.005 A 
ATOM     18  C   UNL d   1      11.346   7.063  -5.739  0.00  0.00    -0.005 A 
ENDBRANCH  11  12
ENDBRANCH   9  11
ENDBRANCH   8   9
ENDBRANCH   1   8
BRANCH   7  19
ATOM     19  C   UNL d   1       7.546   3.515 -13.647  0.00  0.00     0.129 C 
BRANCH  19  20
ATOM     20  C   UNL d   1       6.643   2.393 -14.178  0.00  0.00     0.032 C 
BRANCH  20  21
ATOM     21  C   UNL d   1       7.403   1.351 -15.014  0.00  0.00     0.037 C 
BRANCH  21  22
ATOM     22  C   UNL d   1       6.514   0.538 -15.905  0.00  0.00     0.029 A 
ATOM     23  S   UNL d   1       5.448  -0.694 -15.264  0.00  0.00    -0.057 SA
ATOM     24  C   UNL d   1       4.902  -1.029 -16.903  0.00  0.00     0.181 A 
ATOM     25  N   UNL d   1       5.465  -0.252 -17.824  0.00  0.00    -0.224 NA
ATOM     26  N   UNL d   1       3.952  -1.998 -17.186  0.00  0.00    -0.072 NA
ATOM     27  C   UNL d   1       6.389   0.641 -17.271  0.00  0.00     0.103 A 
ENDBRANCH  21  22
ENDBRANCH  20  21
ENDBRANCH  19  20
ENDBRANCH   7  19
TORSDOF 8
