REMARK  6 active torsions:
REMARK  status: ('A' for Active; 'I' for Inactive)
REMARK    1  A    between atoms: C_4  and  O_5 
REMARK    2  A    between atoms: O_5  and  C_6 
REMARK    3  A    between atoms: C_6  and  C_7 
REMARK    4  A    between atoms: C_7  and  N_8 
REMARK    5  A    between atoms: N_8  and  C_9 
REMARK    6  A    between atoms: C_9  and  C_10 
ROOT
ATOM      1  C   UNL d   1      10.754   8.275  -9.407  0.00  0.00     0.187 C 
ENDROOT
BRANCH   1   2
ATOM      2  O   UNL d   1      10.790   9.147  -8.285  0.00  0.00    -0.329 OA
BRANCH   2   3
ATOM      3  C   UNL d   1      11.076   8.634  -7.041  0.00  0.00     0.095 A 
ATOM      4  C   UNL d   1      11.120   9.545  -5.964  0.00  0.00     0.039 A 
ATOM      5  C   UNL d   1      11.367   9.083  -4.654  0.00  0.00     0.083 A 
ATOM      6  N   UNL d   1      11.422   9.985  -3.603  0.00  0.00    -0.100 NA
ATOM      7  C   UNL d   1      11.536   7.701  -4.402  0.00  0.00     0.071 A 
ATOM      8  C   UNL d   1      11.468   6.802  -5.475  0.00  0.00     0.015 A 
ATOM      9 CL   UNL d   1      11.881   7.106  -2.812  0.00  0.00    -0.081 Cl
ATOM     10  C   UNL d   1      11.294   7.256  -6.792  0.00  0.00     0.025 A 
ENDBRANCH   2   3
ENDBRANCH   1   2
BRANCH   1  11
ATOM     11  C   UNL d   1       9.608   7.246  -9.281  0.00  0.00     0.323 C 
BRANCH  11  12
ATOM     12  N   UNL d   1       9.583   6.430 -10.478  0.00  0.00     0.347 N 
BRANCH  12  13
ATOM     13  C   UNL d   1       8.512   5.468 -10.316  0.00  0.00     0.317 C 
BRANCH  13  14
ATOM     14  C   UNL d   1       8.194   4.776 -11.616  0.00  0.00     0.014 A 
ATOM     15  C   UNL d   1       6.854   4.671 -12.040  0.00  0.00    -0.002 A 
ATOM     16  C   UNL d   1       6.557   4.016 -13.248  0.00  0.00    -0.000 A 
ATOM     17  C   UNL d   1       7.598   3.474 -14.023  0.00  0.00    -0.000 A 
ATOM     18  C   UNL d   1       8.936   3.584 -13.608  0.00  0.00    -0.000 A 
ATOM     19  C   UNL d   1       9.234   4.231 -12.400  0.00  0.00    -0.002 A 
ENDBRANCH  13  14
ENDBRANCH  12  13
ENDBRANCH  11  12
ENDBRANCH   1  11
TORSDOF 6
