REMARK  4 active torsions:
REMARK  status: ('A' for Active; 'I' for Inactive)
REMARK    1  A    between atoms: C_2  and  C_3 
REMARK       I    between atoms: C_2  and  N_17 
REMARK    2  A    between atoms: C_3  and  N_4 
REMARK    3  A    between atoms: N_7  and  C_8 
REMARK    4  A    between atoms: N_17  and  C_18 
ROOT
ATOM      1  N   UNL d   1       9.169   6.264 -10.931  0.00  0.00     0.151 N 
ATOM      2  C   UNL d   1       9.786   7.583 -10.747  0.00  0.00     0.275 C 
ATOM      3  C   UNL d   1      11.016   7.492  -9.833  0.00  0.00     0.138 C 
ATOM      4  N   UNL d   1      10.655   6.874  -8.566  0.00  0.00    -0.330 N 
ATOM      5  C   UNL d   1       9.967   5.587  -8.675  0.00  0.00     0.138 C 
ATOM      6  C   UNL d   1       8.766   5.716  -9.629  0.00  0.00     0.275 C 
ENDROOT
BRANCH   1   7
ATOM      7  C   UNL d   1       7.982   6.358 -11.817  0.00  0.00     0.339 C 
BRANCH   7   8
ATOM      8  C   UNL d   1       7.867   5.155 -12.744  0.00  0.00     0.290 C 
ATOM      9  O   UNL d   1       8.800   4.902 -13.497  0.00  0.00    -0.268 OA
ATOM     10  N   UNL d   1       6.726   4.442 -12.666  0.00  0.00    -0.208 NA
BRANCH  10  11
ATOM     11  C   UNL d   1       6.445   3.198 -13.299  0.00  0.00     0.103 A 
ATOM     12  C   UNL d   1       7.125   2.731 -14.456  0.00  0.00     0.118 A 
ATOM     13  N   UNL d   1       6.899   1.531 -15.024  0.00  0.00    -0.241 NA
ATOM     14  C   UNL d   1       5.993   0.714 -14.456  0.00  0.00     0.099 A 
ATOM     15  C   UNL d   1       5.262   1.071 -13.306  0.00  0.00     0.022 A 
ATOM     16  C   UNL d   1       5.470   2.347 -12.734  0.00  0.00     0.022 A 
ENDBRANCH  10  11
ENDBRANCH   7   8
ENDBRANCH   1   7
BRANCH   4  17
ATOM     17  C   UNL d   1      10.928   7.495  -7.335  0.00  0.00     0.140 A 
ATOM     18  N   UNL d   1      10.952   8.845  -7.294  0.00  0.00    -0.226 NA
ATOM     19  C   UNL d   1      11.211   9.453  -6.115  0.00  0.00     0.112 A 
ATOM     20  C   UNL d   1      11.469   8.753  -4.919  0.00  0.00     0.077 A 
ATOM     21  C   UNL d   1      11.454   7.350  -4.961  0.00  0.00     0.016 A 
ATOM     22 CL   UNL d   1      11.825   9.581  -3.451  0.00  0.00    -0.081 Cl
ATOM     23  C   UNL d   1      11.184   6.717  -6.187  0.00  0.00     0.038 A 
ENDBRANCH   4  17
TORSDOF 4
