REMARK  11 active torsions:
REMARK  status: ('A' for Active; 'I' for Inactive)
REMARK    1  A    between atoms: N_2  and  C_3 
REMARK    2  A    between atoms: N_14  and  C_15 
REMARK    3  A    between atoms: C_15  and  C_16 
REMARK    4  A    between atoms: C_16  and  C_17 
REMARK    5  A    between atoms: C_17  and  C_18 
REMARK    6  A    between atoms: C_18  and  O_19 
REMARK    7  A    between atoms: O_19  and  C_20 
REMARK    8  A    between atoms: C_20  and  C_21 
REMARK    9  A    between atoms: C_21  and  C_22 
REMARK   10  A    between atoms: C_22  and  C_23 
REMARK   11  A    between atoms: C_23  and  C_24 
ROOT
ATOM      1  C   UNL d   1       5.795  -0.515 -17.613  0.00  0.00     0.283 C 
ATOM      2  C   UNL d   1       7.170  -0.641 -18.311  0.00  0.00     0.066 C 
ATOM      3  C   UNL d   1       8.134   0.472 -17.931  0.00  0.00    -0.003 A 
ATOM      4  C   UNL d   1       9.218   1.007 -18.660  0.00  0.00    -0.003 A 
ATOM      5  C   UNL d   1      10.014   2.039 -18.086  0.00  0.00     0.001 A 
ATOM      6  C   UNL d   1       9.749   2.551 -16.783  0.00  0.00     0.019 A 
ATOM      7  C   UNL d   1       8.668   2.013 -16.056  0.00  0.00     0.080 A 
ATOM      8  C   UNL d   1       7.936   1.020 -16.663  0.00  0.00     0.076 A 
ATOM      9  N   UNL d   1       6.935   0.675 -15.759  0.00  0.00    -0.278 N 
ATOM     10  C   UNL d   1       7.042   1.424 -14.635  0.00  0.00     0.332 A 
ATOM     11  O   UNL d   1       6.293   1.359 -13.656  0.00  0.00    -0.246 OA
ATOM     12  N   UNL d   1       8.101   2.265 -14.790  0.00  0.00    -0.280 N 
ATOM     13  C   UNL d   1       5.940  -0.345 -16.074  0.00  0.00     0.147 C 
ENDROOT
BRANCH  12  14
ATOM     14  C   UNL d   1       8.613   3.263 -13.831  0.00  0.00     0.111 C 
BRANCH  14  15
ATOM     15  C   UNL d   1       7.583   4.369 -13.497  0.00  0.00     0.027 C 
BRANCH  15  16
ATOM     16  C   UNL d   1       8.158   5.558 -12.694  0.00  0.00     0.034 C 
BRANCH  16  17
ATOM     17  C   UNL d   1       8.594   5.191 -11.268  0.00  0.00     0.142 C 
BRANCH  17  18
ATOM     18  O   UNL d   1       9.184   6.313 -10.642  0.00  0.00    -0.354 OA
BRANCH  18  19
ATOM     19  C   UNL d   1       9.514   6.074  -9.282  0.00  0.00     0.142 C 
BRANCH  19  20
ATOM     20  C   UNL d   1      10.060   7.371  -8.666  0.00  0.00     0.033 C 
BRANCH  20  21
ATOM     21  C   UNL d   1      10.466   7.178  -7.205  0.00  0.00     0.007 C 
BRANCH  21  22
ATOM     22  C   UNL d   1      11.040   8.443  -6.542  0.00  0.00     0.026 C 
BRANCH  22  23
ATOM     23  C   UNL d   1      11.437   8.245  -5.082  0.00  0.00    -0.022 A 
ATOM     24  C   UNL d   1      11.569   6.953  -4.516  0.00  0.00    -0.004 A 
ATOM     25  C   UNL d   1      11.943   6.792  -3.172  0.00  0.00    -0.000 A 
ATOM     26  C   UNL d   1      12.193   7.918  -2.372  0.00  0.00    -0.000 A 
ATOM     27  C   UNL d   1      12.055   9.206  -2.921  0.00  0.00    -0.000 A 
ATOM     28  C   UNL d   1      11.678   9.375  -4.269  0.00  0.00    -0.004 A 
ENDBRANCH  22  23
ENDBRANCH  21  22
ENDBRANCH  20  21
ENDBRANCH  19  20
ENDBRANCH  18  19
ENDBRANCH  17  18
ENDBRANCH  16  17
ENDBRANCH  15  16
ENDBRANCH  14  15
ENDBRANCH  12  14
BRANCH   1  29
ATOM     29  N   UNL d   1       4.984  -1.680 -17.950  0.00  0.00     0.342 N 
ATOM     30  C   UNL d   1       3.563  -1.452 -17.724  0.00  0.00     0.328 C 
ENDBRANCH   1  29
TORSDOF 11
