REMARK  9 active torsions:
REMARK  status: ('A' for Active; 'I' for Inactive)
REMARK    1  A    between atoms: C_3  and  S_4 
REMARK    2  A    between atoms: S_4  and  C_5 
REMARK    3  A    between atoms: C_5  and  C_6 
REMARK    4  A    between atoms: C_6  and  C_7 
REMARK    5  A    between atoms: C_7  and  N_8 
REMARK    6  A    between atoms: C_13  and  C_14 
REMARK    7  A    between atoms: C_17  and  C_18 
REMARK    8  A    between atoms: C_27  and  C_28 
REMARK    9  A    between atoms: C_32  and  C_33 
ROOT
ATOM      1  C   UNL d   1       8.430   5.352 -12.954  0.00  0.00     0.047 C 
ENDROOT
BRANCH   1   2
ATOM      2  C   UNL d   1       7.852   6.745 -12.637  0.00  0.00     0.067 C 
BRANCH   2   3
ATOM      3  S   UNL d   1       9.094   7.901 -12.017  0.00  0.00    -0.075 SA
BRANCH   3   4
ATOM      4  C   UNL d   1       9.470   7.222 -10.427  0.00  0.00     0.193 A 
ATOM      5  N   UNL d   1      10.110   7.922  -9.484  0.00  0.00    -0.289 N 
ATOM      6  C   UNL d   1      10.600   9.285  -9.532  0.00  0.00     0.134 C 
ATOM      7  C   UNL d   1      10.156   7.042  -8.461  0.00  0.00     0.167 A 
ATOM      8  N   UNL d   1       9.619   5.860  -8.754  0.00  0.00    -0.128 NA
ATOM      9  N   UNL d   1       9.147   5.988 -10.025  0.00  0.00    -0.122 NA
BRANCH   7  10
ATOM     10  C   UNL d   1      10.718   7.286  -7.145  0.00  0.00     0.036 C 
ATOM     11  C   UNL d   1      10.562   8.507  -6.473  0.00  0.00     0.008 C 
ATOM     12  C   UNL d   1      11.127   8.659  -5.194  0.00  0.00     0.059 C 
ATOM     13  C   UNL d   1      11.789   7.611  -4.540  0.00  0.00     0.005 C 
ATOM     14  C   UNL d   1      11.854   6.386  -5.175  0.00  0.00     0.000 C 
ATOM     15  C   UNL d   1      11.416   6.262  -6.507  0.00  0.00     0.003 C 
BRANCH  12  16
ATOM     16  C   UNL d   1      11.075   9.985  -4.564  0.00  0.00     0.297 C 
ATOM     17  N   UNL d   1      11.464  10.065  -3.304  0.00  0.00    -0.102 N 
ATOM     18  O   UNL d   1      10.674  10.926  -5.215  0.00  0.00    -0.264 OA
ENDBRANCH  12  16
ENDBRANCH   7  10
ENDBRANCH   3   4
ENDBRANCH   2   3
ENDBRANCH   1   2
BRANCH   1  19
ATOM     19  C   UNL d   1       7.376   4.407 -13.517  0.00  0.00     0.251 C 
BRANCH  19  20
ATOM     20  N   UNL d   1       7.954   3.079 -13.671  0.00  0.00     0.137 N 
ATOM     21  C   UNL d   1       9.023   3.040 -14.652  0.00  0.00     0.251 C 
ATOM     22  C   UNL d   1       9.198   1.577 -14.962  0.00  0.00     0.037 A 
ATOM     23  C   UNL d   1       7.877   0.942 -14.604  0.00  0.00     0.038 C 
ATOM     24  C   UNL d   1      10.042   1.146 -16.155  0.00  0.00     0.024 A 
ATOM     25  C   UNL d   1      10.528   0.863 -14.755  0.00  0.00     0.007 A 
ATOM     26  C   UNL d   1       6.989   2.094 -14.144  0.00  0.00     0.250 C 
BRANCH  24  27
ATOM     27  C   UNL d   1      10.678   2.196 -17.010  0.00  0.00    -0.022 A 
ATOM     28  C   UNL d   1       9.896   3.018 -17.849  0.00  0.00    -0.004 A 
ATOM     29  C   UNL d   1      10.499   4.055 -18.588  0.00  0.00     0.004 A 
ATOM     30  C   UNL d   1      11.892   4.274 -18.502  0.00  0.00     0.071 A 
ATOM     31  C   UNL d   1      12.670   3.448 -17.663  0.00  0.00     0.004 A 
ATOM     32  C   UNL d   1      12.065   2.417 -16.927  0.00  0.00    -0.004 A 
BRANCH  30  33
ATOM     33  C   UNL d   1      12.544   5.388 -19.304  0.00  0.00     0.419 C 
ATOM     34  F   UNL d   1      11.985   5.468 -20.511  0.00  0.00    -0.166 F 
ATOM     35  F   UNL d   1      12.378   6.548 -18.672  0.00  0.00    -0.166 F 
ATOM     36  F   UNL d   1      13.850   5.169 -19.462  0.00  0.00    -0.166 F 
ENDBRANCH  30  33
ENDBRANCH  24  27
ENDBRANCH  19  20
ENDBRANCH   1  19
TORSDOF 9
