REMARK  8 active torsions:
REMARK  status: ('A' for Active; 'I' for Inactive)
REMARK    1  A    between atoms: C_5  and  C_6 
REMARK    2  A    between atoms: C_9  and  S_10 
REMARK    3  A    between atoms: S_10  and  C_11 
REMARK    4  A    between atoms: C_11  and  C_12 
REMARK    5  A    between atoms: C_12  and  C_13 
REMARK    6  A    between atoms: C_13  and  N_14 
REMARK    7  A    between atoms: C_18  and  C_19 
REMARK    8  A    between atoms: C_22  and  C_23 
ROOT
ATOM      1  C   UNL d   1      10.373   5.136 -14.720  0.00  0.00     0.251 C 
ENDROOT
BRANCH   1   2
ATOM      2  C   UNL d   1      10.918   3.801 -15.244  0.00  0.00     0.047 C 
BRANCH   2   3
ATOM      3  C   UNL d   1      11.252   3.848 -16.736  0.00  0.00     0.067 C 
BRANCH   3   4
ATOM      4  S   UNL d   1      11.367   2.177 -17.455  0.00  0.00    -0.075 SA
BRANCH   4   5
ATOM      5  C   UNL d   1       9.648   1.756 -17.593  0.00  0.00     0.193 A 
ATOM      6  N   UNL d   1       8.659   2.635 -17.448  0.00  0.00    -0.122 NA
ATOM      7  N   UNL d   1       7.501   1.928 -17.632  0.00  0.00    -0.127 NA
ATOM      8  C   UNL d   1       7.861   0.664 -17.885  0.00  0.00     0.186 A 
ATOM      9  N   UNL d   1       9.215   0.509 -17.879  0.00  0.00    -0.287 N 
ATOM     10  C   UNL d   1      10.019  -0.683 -18.115  0.00  0.00     0.134 C 
BRANCH   8  11
ATOM     11  C   UNL d   1       6.842  -0.372 -18.134  0.00  0.00     0.136 A 
ATOM     12  N   UNL d   1       7.243  -1.629 -18.439  0.00  0.00    -0.238 NA
ATOM     13  C   UNL d   1       6.282  -2.558 -18.643  0.00  0.00     0.114 A 
ATOM     14  C   UNL d   1       4.910  -2.237 -18.549  0.00  0.00     0.079 A 
ATOM     15  C   UNL d   1       3.839  -3.280 -18.782  0.00  0.00     0.054 C 
ATOM     16  N   UNL d   1       4.492  -0.987 -18.252  0.00  0.00    -0.245 NA
ATOM     17  C   UNL d   1       5.457  -0.063 -18.044  0.00  0.00     0.121 A 
ENDBRANCH   8  11
ENDBRANCH   4   5
ENDBRANCH   3   4
ENDBRANCH   2   3
ENDBRANCH   1   2
BRANCH   1  18
ATOM     18  N   UNL d   1      10.241   5.150 -13.261  0.00  0.00     0.137 N 
ATOM     19  C   UNL d   1       9.406   6.263 -12.793  0.00  0.00     0.254 C 
ATOM     20  C   UNL d   1       9.049   5.869 -11.363  0.00  0.00     0.052 A 
ATOM     21  C   UNL d   1       9.178   4.382 -11.364  0.00  0.00     0.039 A 
ATOM     22  C   UNL d   1       7.830   5.000 -11.090  0.00  0.00     0.008 A 
ATOM     23  C   UNL d   1       9.600   3.953 -12.729  0.00  0.00     0.251 C 
BRANCH  20  24
ATOM     24  C   UNL d   1       9.681   6.666 -10.225  0.00  0.00    -0.021 A 
ATOM     25  C   UNL d   1       9.792   6.080  -8.949  0.00  0.00    -0.004 A 
ATOM     26  C   UNL d   1      10.354   6.774  -7.860  0.00  0.00     0.004 A 
ATOM     27  C   UNL d   1      10.799   8.097  -8.038  0.00  0.00     0.071 A 
ATOM     28  C   UNL d   1      10.682   8.708  -9.297  0.00  0.00     0.004 A 
ATOM     29  C   UNL d   1      10.110   8.009 -10.381  0.00  0.00    -0.004 A 
BRANCH  27  30
ATOM     30  C   UNL d   1      11.389   8.871  -6.875  0.00  0.00     0.419 C 
ATOM     31  F   UNL d   1      12.646   9.188  -7.197  0.00  0.00    -0.166 F 
ATOM     32  F   UNL d   1      10.688   9.987  -6.663  0.00  0.00    -0.166 F 
ATOM     33  F   UNL d   1      11.403   8.164  -5.745  0.00  0.00    -0.166 F 
ENDBRANCH  27  30
ENDBRANCH  20  24
ENDBRANCH   1  18
TORSDOF 8
