REMARK  11 active torsions:
REMARK  status: ('A' for Active; 'I' for Inactive)
REMARK    1  A    between atoms: C_2  and  C_3 
REMARK    2  A    between atoms: C_3  and  N_4 
REMARK    3  A    between atoms: N_4  and  C_5 
REMARK    4  A    between atoms: N_4  and  C_24 
REMARK    5  A    between atoms: C_5  and  C_6 
REMARK    6  A    between atoms: C_6  and  C_7 
REMARK    7  A    between atoms: C_7  and  C_8 
REMARK    8  A    between atoms: C_8  and  N_9 
REMARK       I    between atoms: N_9  and  C_10 
REMARK    9  A    between atoms: C_10  and  C_12 
REMARK   10  A    between atoms: C_15  and  C_16 
REMARK   11  A    between atoms: C_32  and  O_33 
ROOT
ATOM      1  C   UNL d   1       9.446   4.175 -13.871  0.00  0.00     0.037 C 
ENDROOT
BRANCH   1   2
ATOM      2  C   UNL d   1       8.534   2.958 -13.653  0.00  0.00     0.250 C 
BRANCH   2   3
ATOM      3  N   UNL d   1       7.766   2.554 -14.852  0.00  0.00     0.135 N 
BRANCH   3   4
ATOM      4  C   UNL d   1       6.628   1.694 -14.490  0.00  0.00     0.250 C 
BRANCH   4   5
ATOM      5  C   UNL d   1       5.704   2.227 -13.376  0.00  0.00     0.035 C 
ATOM      6  C   UNL d   1       5.454   3.741 -13.436  0.00  0.00     0.002 C 
ENDBRANCH   4   5
ENDBRANCH   3   4
BRANCH   3   7
ATOM      7  C   UNL d   1       8.633   2.004 -15.893  0.00  0.00     0.224 C 
ATOM      8  C   UNL d   1       7.883   1.804 -17.232  0.00  0.00     0.059 C 
ATOM      9  C   UNL d   1       8.699   1.047 -18.262  0.00  0.00    -0.022 A 
ATOM     10  C   UNL d   1       9.851   0.305 -17.915  0.00  0.00    -0.004 A 
ATOM     11  C   UNL d   1       8.244   1.033 -19.600  0.00  0.00    -0.004 A 
ATOM     12  C   UNL d   1      10.383   0.284 -16.498  0.00  0.00     0.030 C 
ATOM     13  C   UNL d   1      10.538  -0.438 -18.871  0.00  0.00     0.090 A 
ATOM     14  C   UNL d   1       9.366   0.717 -15.462  0.00  0.00     0.038 C 
ATOM     15  C   UNL d   1      10.074  -0.463 -20.210  0.00  0.00     0.024 A 
ATOM     16  C   UNL d   1       8.928   0.276 -20.562  0.00  0.00     0.002 A 
BRANCH  13  17
ATOM     17  O   UNL d   1      11.644  -1.139 -18.491  0.00  0.00    -0.328 OA
ATOM     18  C   UNL d   1      12.816  -0.976 -19.265  0.00  0.00     0.181 C 
ENDBRANCH  13  17
ENDBRANCH   3   7
ENDBRANCH   2   3
ENDBRANCH   1   2
BRANCH   1  19
ATOM     19  C   UNL d   1       9.824   4.796 -12.528  0.00  0.00     0.029 C 
BRANCH  19  20
ATOM     20  C   UNL d   1       8.672   5.527 -11.795  0.00  0.00     0.129 C 
BRANCH  20  21
ATOM     21  N   UNL d   1       9.111   5.991 -10.488  0.00  0.00    -0.234 NA
ATOM     22  C   UNL d   1       9.637   7.199 -10.234  0.00  0.00     0.275 C 
ATOM     23  O   UNL d   1       9.770   8.072 -11.099  0.00  0.00    -0.266 OA
BRANCH  22  24
ATOM     24  C   UNL d   1      10.101   7.416  -8.829  0.00  0.00     0.058 A 
ATOM     25  C   UNL d   1      11.152   8.323  -8.568  0.00  0.00     0.005 A 
ATOM     26  C   UNL d   1      11.587   8.546  -7.246  0.00  0.00     0.000 A 
ATOM     27  C   UNL d   1      10.997   7.858  -6.169  0.00  0.00     0.000 A 
ATOM     28  C   UNL d   1       9.938   6.965  -6.431  0.00  0.00     0.000 A 
ATOM     29  C   UNL d   1       9.487   6.751  -7.744  0.00  0.00     0.005 A 
BRANCH  27  30
ATOM     30  C   UNL d   1      11.443   8.076  -4.782  0.00  0.00     0.000 A 
ATOM     31  C   UNL d   1      11.467   9.370  -4.244  0.00  0.00     0.000 A 
ATOM     32  C   UNL d   1      11.865   9.585  -2.906  0.00  0.00     0.000 A 
ATOM     33  C   UNL d   1      12.296   8.482  -2.123  0.00  0.00     0.000 A 
ATOM     34  C   UNL d   1      12.282   7.201  -2.648  0.00  0.00     0.000 A 
ATOM     35  C   UNL d   1      11.861   6.985  -3.987  0.00  0.00     0.000 A 
ENDBRANCH  27  30
ENDBRANCH  22  24
ENDBRANCH  20  21
ENDBRANCH  19  20
ENDBRANCH   1  19
TORSDOF 11
