REMARK  5 active torsions:
REMARK  status: ('A' for Active; 'I' for Inactive)
REMARK    1  A    between atoms: C_5  and  C_6 
REMARK    2  A    between atoms: C_6  and  N_7 
REMARK    3  A    between atoms: N_7  and  C_8 
REMARK    4  A    between atoms: C_8  and  C_9 
REMARK       I    between atoms: N_13  and  C_14 
REMARK    5  A    between atoms: C_14  and  C_16 
ROOT
ATOM      1  C   UNL d   1       9.206   5.752 -10.541  0.00  0.00     0.172 C 
ATOM      2  F   UNL d   1       7.968   6.053 -10.928  0.00  0.00    -0.238 F 
ATOM      3  C   UNL d   1      10.165   6.920 -10.870  0.00  0.00     0.059 C 
ATOM      4  C   UNL d   1      10.005   8.165  -9.998  0.00  0.00     0.107 C 
ATOM      5  N   UNL d   1      10.100   7.783  -8.590  0.00  0.00    -0.316 N 
ATOM      6  C   UNL d   1      10.911   8.435  -7.735  0.00  0.00     0.259 C 
ATOM      7  O   UNL d   1      11.390   9.541  -7.963  0.00  0.00    -0.267 OA
ATOM      8  C   UNL d   1       9.124   6.755  -8.191  0.00  0.00     0.107 C 
ATOM      9  C   UNL d   1       9.261   5.469  -9.027  0.00  0.00     0.059 C 
ENDROOT
BRANCH   1  10
ATOM     10  C   UNL d   1       9.461   4.478 -11.341  0.00  0.00     0.323 C 
BRANCH  10  11
ATOM     11  N   UNL d   1       9.796   4.802 -12.715  0.00  0.00     0.348 N 
BRANCH  11  12
ATOM     12  C   UNL d   1       9.910   3.585 -13.497  0.00  0.00     0.336 C 
BRANCH  12  13
ATOM     13  C   UNL d   1      10.884   3.717 -14.656  0.00  0.00     0.095 A 
ATOM     14  C   UNL d   1      10.817   2.809 -15.730  0.00  0.00     0.017 A 
ATOM     15  C   UNL d   1      11.727   2.957 -16.794  0.00  0.00    -0.002 A 
ATOM     16  C   UNL d   1      12.663   4.008 -16.742  0.00  0.00    -0.003 A 
ATOM     17  C   UNL d   1      13.667   4.223 -17.852  0.00  0.00     0.033 C 
ATOM     18  C   UNL d   1      12.653   4.862 -15.623  0.00  0.00     0.094 A 
ATOM     19  N   UNL d   1      11.794   4.719 -14.595  0.00  0.00    -0.247 NA
ENDBRANCH  12  13
ENDBRANCH  11  12
ENDBRANCH  10  11
ENDBRANCH   1  10
BRANCH   6  20
ATOM     20  C   UNL d   1      11.246   7.720  -6.488  0.00  0.00     0.082 A 
ATOM     21  C   UNL d   1      11.444   8.332  -5.212  0.00  0.00     0.029 A 
ATOM     22  C   UNL d   1      11.807   7.270  -4.344  0.00  0.00     0.100 A 
ATOM     23  C   UNL d   1      11.363   9.620  -4.642  0.00  0.00     0.002 A 
ATOM     24  O   UNL d   1      11.854   6.096  -5.051  0.00  0.00    -0.305 OA
ATOM     25  C   UNL d   1      12.068   7.425  -2.979  0.00  0.00     0.025 A 
ATOM     26  C   UNL d   1      11.528   6.392  -6.338  0.00  0.00     0.127 A 
ATOM     27  C   UNL d   1      11.977   8.715  -2.438  0.00  0.00     0.002 A 
ATOM     28  C   UNL d   1      11.624   9.800  -3.266  0.00  0.00     0.000 A 
ENDBRANCH   6  20
TORSDOF 5
