REMARK  4 active torsions:
REMARK  status: ('A' for Active; 'I' for Inactive)
REMARK    1  A    between atoms: C_2  and  C_3 
REMARK    2  A    between atoms: C_2  and  N_19 
REMARK    3  A    between atoms: C_3  and  N_4 
REMARK    4  A    between atoms: N_7  and  C_8 
ROOT
ATOM      1  N   UNL d   1       9.097   6.351 -10.003  0.00  0.00     0.143 N 
ATOM      2  C   UNL d   1       8.830   5.748  -8.700  0.00  0.00     0.274 C 
ATOM      3  C   UNL d   1       8.763   6.843  -7.609  0.00  0.00     0.137 C 
ATOM      4  N   UNL d   1       9.973   7.662  -7.630  0.00  0.00    -0.342 N 
ATOM      5  C   UNL d   1      10.309   8.202  -8.942  0.00  0.00     0.137 C 
ATOM      6  C   UNL d   1      10.364   7.083  -9.983  0.00  0.00     0.274 C 
ENDROOT
BRANCH   1   7
ATOM      7  C   UNL d   1       9.101   5.322 -11.036  0.00  0.00     0.273 C 
BRANCH   7   8
ATOM      8  C   UNL d   1       8.912   5.913 -12.463  0.00  0.00     0.124 C 
ATOM      9  C   UNL d   1       7.744   6.922 -12.575  0.00  0.00     0.027 C 
BRANCH   8  10
ATOM     10  N   UNL d   1       8.776   4.825 -13.473  0.00  0.00    -0.270 N 
ATOM     11  C   UNL d   1       9.717   4.673 -14.426  0.00  0.00     0.239 C 
ATOM     12  C   UNL d   1       9.571   3.633 -15.548  0.00  0.00     0.089 C 
ATOM     13  O   UNL d   1      10.755   5.336 -14.443  0.00  0.00    -0.272 OA
ATOM     14  C   UNL d   1       8.799   2.406 -15.066  0.00  0.00     0.018 C 
ATOM     15  C   UNL d   1       7.501   2.865 -14.393  0.00  0.00     0.089 C 
ATOM     16  C   UNL d   1       9.688   1.567 -14.135  0.00  0.00     0.001 C 
ATOM     17  C   UNL d   1       8.464   1.412 -16.179  0.00  0.00     0.001 C 
ATOM     18  C   UNL d   1       7.683   4.008 -13.392  0.00  0.00     0.239 C 
ATOM     19  O   UNL d   1       6.794   4.106 -12.545  0.00  0.00    -0.272 OA
ATOM     20  C   UNL d   1      10.470   0.595 -14.992  0.00  0.00     0.000 C 
ATOM     21  C   UNL d   1       9.597   0.373 -16.231  0.00  0.00     0.000 C 
ENDBRANCH   8  10
ENDBRANCH   7   8
ENDBRANCH   1   7
BRANCH   4  22
ATOM     22  C   UNL d   1      10.719   7.912  -6.468  0.00  0.00     0.086 A 
ATOM     23  C   UNL d   1      11.415   9.148  -6.295  0.00  0.00     0.158 A 
ATOM     24  C   UNL d   1      12.201   9.346  -5.150  0.00  0.00     0.063 A 
ATOM     25  F   UNL d   1      11.349  10.166  -7.198  0.00  0.00    -0.203 F 
ATOM     26  C   UNL d   1      12.272   8.371  -4.135  0.00  0.00     0.170 A 
ATOM     27  C   UNL d   1      11.565   7.155  -4.303  0.00  0.00     0.169 A 
ATOM     28  F   UNL d   1      13.050   8.573  -3.035  0.00  0.00    -0.202 F 
ATOM     29  C   UNL d   1      10.804   6.942  -5.456  0.00  0.00     0.051 A 
ATOM     30  F   UNL d   1      11.677   6.195  -3.364  0.00  0.00    -0.202 F 
ENDBRANCH   4  22
TORSDOF 4
