REMARK  5 active torsions:
REMARK  status: ('A' for Active; 'I' for Inactive)
REMARK    1  A    between atoms: C_3  and  C_4 
REMARK    2  A    between atoms: C_5  and  C_6 
REMARK    3  A    between atoms: C_8  and  C_9 
REMARK    4  A    between atoms: C_10  and  C_11 
REMARK    5  A    between atoms: C_13  and  C_14 
ROOT
ATOM      1  C   UNL d   1      10.448   6.828  -8.540  0.00  0.00    -0.005 C 
ATOM      2  C   UNL d   1       9.322   6.886  -9.251  0.00  0.00    -0.005 C 
ENDROOT
BRANCH   2   3
ATOM      3  C   UNL d   1       9.030   5.933 -10.288  0.00  0.00    -0.022 C 
ATOM      4  C   UNL d   1       9.082   4.468  -9.889  0.00  0.00     0.031 C 
ATOM      5  C   UNL d   1       8.702   6.365 -11.530  0.00  0.00    -0.004 C 
BRANCH   5   6
ATOM      6  C   UNL d   1       8.356   5.550 -12.690  0.00  0.00    -0.001 C 
ATOM      7  C   UNL d   1       8.922   4.364 -12.964  0.00  0.00    -0.004 C 
BRANCH   7   8
ATOM      8  C   UNL d   1       8.574   3.475 -14.042  0.00  0.00    -0.016 C 
ATOM      9  C   UNL d   1       7.133   3.000 -14.181  0.00  0.00     0.031 C 
ATOM     10  C   UNL d   1       9.502   2.988 -14.899  0.00  0.00     0.066 C 
BRANCH  10  11
ATOM     11  C   UNL d   1      10.923   3.335 -14.897  0.00  0.00     0.211 C 
ATOM     12  O   UNL d   1      11.502   4.143 -14.167  0.00  0.00    -0.644 OA
ATOM     13  O   UNL d   1      11.588   2.628 -15.849  0.00  0.00    -0.644 OA
ENDBRANCH  10  11
ENDBRANCH   7   8
ENDBRANCH   5   6
ENDBRANCH   2   3
BRANCH   1  14
ATOM     14  C   UNL d   1      10.806   7.763  -7.490  0.00  0.00    -0.031 C 
ATOM     15  C   UNL d   1      10.896   9.082  -7.784  0.00  0.00    -0.048 C 
ATOM     16  C   UNL d   1      10.712   9.567  -9.227  0.00  0.00     0.026 C 
ATOM     17  C   UNL d   1      11.163  10.123  -6.691  0.00  0.00     0.022 C 
ATOM     18  C   UNL d   1      10.960   9.646  -5.249  0.00  0.00     0.005 C 
ATOM     19  C   UNL d   1      11.575   8.268  -5.076  0.00  0.00     0.004 C 
ATOM     20  C   UNL d   1      10.986   7.227  -6.084  0.00  0.00     0.018 C 
ATOM     21  C   UNL d   1       9.606   6.798  -5.659  0.00  0.00     0.004 C 
ATOM     22  C   UNL d   1      11.877   5.994  -6.157  0.00  0.00     0.004 C 
ENDBRANCH   1  14
TORSDOF 5
