REMARK  9 active torsions:
REMARK  status: ('A' for Active; 'I' for Inactive)
REMARK    1  A    between atoms: C_6  and  N_7 
REMARK    2  A    between atoms: N_7  and  C_8 
REMARK    3  A    between atoms: N_7  and  C_11 
REMARK    4  A    between atoms: C_8  and  C_9 
REMARK    5  A    between atoms: C_11  and  C_12 
REMARK    6  A    between atoms: C_12  and  C_13 
REMARK    7  A    between atoms: C_13  and  C_14 
REMARK    8  A    between atoms: C_14  and  N_15 
REMARK       I    between atoms: N_15  and  C_16 
REMARK    9  A    between atoms: C_16  and  C_18 
ROOT
ATOM      1  C   UNL d   1       5.356  -0.980 -15.052  0.00  0.00     0.081 C 
ATOM      2  C   UNL d   1       5.645   0.117 -14.558  0.00  0.00    -0.131 C 
ATOM      3  C   UNL d   1       5.997   1.329 -13.918  0.00  0.00     0.004 C 
ATOM      4  C   UNL d   1       5.103   1.925 -13.119  0.00  0.00    -0.021 C 
ATOM      5  C   UNL d   1       5.288   3.279 -12.476  0.00  0.00     0.059 C 
ATOM      6  C   UNL d   1       6.750   3.768 -12.481  0.00  0.00     0.224 C 
ATOM      7  C   UNL d   1       7.421   3.423 -13.829  0.00  0.00     0.039 C 
ATOM      8  C   UNL d   1       7.339   1.941 -14.210  0.00  0.00     0.035 C 
ENDROOT
BRANCH   6   9
ATOM      9  N   UNL d   1       6.921   5.169 -12.085  0.00  0.00     0.135 N 
BRANCH   9  10
ATOM     10  C   UNL d   1       5.873   5.993 -12.685  0.00  0.00     0.250 C 
BRANCH  10  11
ATOM     11  C   UNL d   1       5.999   7.477 -12.444  0.00  0.00     0.035 C 
ATOM     12  C   UNL d   1       4.974   8.450 -12.885  0.00  0.00     0.002 C 
ENDBRANCH  10  11
ENDBRANCH   9  10
BRANCH   9  13
ATOM     13  C   UNL d   1       8.260   5.698 -12.323  0.00  0.00     0.250 C 
BRANCH  13  14
ATOM     14  C   UNL d   1       8.668   6.707 -11.246  0.00  0.00     0.037 C 
BRANCH  14  15
ATOM     15  C   UNL d   1      10.064   7.189 -11.383  0.00  0.00     0.029 C 
BRANCH  15  16
ATOM     16  C   UNL d   1      10.378   8.402 -10.518  0.00  0.00     0.129 C 
BRANCH  16  17
ATOM     17  N   UNL d   1      10.514   8.023  -9.119  0.00  0.00    -0.234 NA
ATOM     18  C   UNL d   1       9.891   8.621  -8.098  0.00  0.00     0.281 C 
ATOM     19  O   UNL d   1       8.936   9.366  -8.230  0.00  0.00    -0.265 OA
BRANCH  18  20
ATOM     20  C   UNL d   1      10.502   8.492  -6.775  0.00  0.00     0.087 A 
ATOM     21  S   UNL d   1      10.915   6.888  -6.263  0.00  0.00    -0.082 SA
ATOM     22  C   UNL d   1      11.464   7.505  -4.714  0.00  0.00     0.030 A 
ATOM     23  C   UNL d   1      11.335   8.927  -4.643  0.00  0.00     0.007 A 
ATOM     24  C   UNL d   1      11.988   6.765  -3.643  0.00  0.00     0.006 A 
ATOM     25  C   UNL d   1      10.755   9.473  -5.843  0.00  0.00     0.012 A 
ATOM     26  C   UNL d   1      11.749   9.544  -3.438  0.00  0.00     0.001 A 
ATOM     27  C   UNL d   1      12.278   8.802  -2.367  0.00  0.00     0.000 A 
ATOM     28  C   UNL d   1      12.396   7.409  -2.468  0.00  0.00     0.001 A 
ENDBRANCH  18  20
ENDBRANCH  16  17
ENDBRANCH  15  16
ENDBRANCH  14  15
ENDBRANCH  13  14
ENDBRANCH   9  13
ENDBRANCH   6   9
TORSDOF 9
