REMARK  7 active torsions:
REMARK  status: ('A' for Active; 'I' for Inactive)
REMARK    1  A    between atoms: C_6  and  C_7 
REMARK    2  A    between atoms: C_10  and  S_11 
REMARK    3  A    between atoms: S_11  and  C_12 
REMARK    4  A    between atoms: C_12  and  C_13 
REMARK    5  A    between atoms: C_13  and  C_14 
REMARK    6  A    between atoms: C_14  and  N_15 
REMARK    7  A    between atoms: C_19  and  C_20 
ROOT
ATOM      1  C   UNL d   1       8.131   1.242 -16.798  0.00  0.00     0.167 A 
ATOM      2  N   UNL d   1       8.126   1.893 -17.972  0.00  0.00    -0.128 NA
ATOM      3  N   UNL d   1       9.425   2.289 -18.185  0.00  0.00    -0.122 NA
ATOM      4  C   UNL d   1      10.100   1.894 -17.105  0.00  0.00     0.193 A 
ATOM      5  N   UNL d   1       9.346   1.220 -16.210  0.00  0.00    -0.289 N 
ATOM      6  C   UNL d   1       9.740   0.646 -14.915  0.00  0.00     0.134 C 
ENDROOT
BRANCH   4   7
ATOM      7  S   UNL d   1      11.813   2.259 -16.880  0.00  0.00    -0.075 SA
BRANCH   7   8
ATOM      8  C   UNL d   1      11.645   3.946 -16.202  0.00  0.00     0.067 C 
BRANCH   8   9
ATOM      9  C   UNL d   1      11.162   3.857 -14.734  0.00  0.00     0.047 C 
BRANCH   9  10
ATOM     10  C   UNL d   1      10.389   5.128 -14.317  0.00  0.00     0.251 C 
BRANCH  10  11
ATOM     11  N   UNL d   1      10.235   5.174 -12.871  0.00  0.00     0.137 N 
ATOM     12  C   UNL d   1       9.453   6.335 -12.445  0.00  0.00     0.254 C 
ATOM     13  C   UNL d   1       9.103   6.014 -11.006  0.00  0.00     0.052 A 
ATOM     14  C   UNL d   1       9.141   4.517 -10.922  0.00  0.00     0.039 A 
ATOM     15  C   UNL d   1       7.844   5.244 -10.678  0.00  0.00     0.008 A 
ATOM     16  C   UNL d   1       9.556   4.011 -12.280  0.00  0.00     0.251 C 
BRANCH  13  17
ATOM     17  C   UNL d   1       9.784   6.854  -9.930  0.00  0.00    -0.021 A 
ATOM     18  C   UNL d   1      10.162   8.199 -10.168  0.00  0.00    -0.003 A 
ATOM     19  C   UNL d   1      10.805   8.961  -9.178  0.00  0.00     0.011 A 
ATOM     20  C   UNL d   1      11.051   8.407  -7.907  0.00  0.00     0.058 A 
ATOM     21  C   UNL d   1      10.653   7.085  -7.636  0.00  0.00     0.011 A 
ATOM     22 CL   UNL d   1      11.815   9.345  -6.672  0.00  0.00    -0.082 Cl
ATOM     23  C   UNL d   1      10.017   6.322  -8.631  0.00  0.00    -0.003 A 
ENDBRANCH  13  17
ENDBRANCH  10  11
ENDBRANCH   9  10
ENDBRANCH   8   9
ENDBRANCH   7   8
ENDBRANCH   4   7
BRANCH   1  24
ATOM     24  C   UNL d   1       6.928   0.634 -16.241  0.00  0.00     0.037 A 
ATOM     25  C   UNL d   1       6.121  -0.288 -16.963  0.00  0.00     0.021 A 
ATOM     26  C   UNL d   1       6.424  -0.690 -18.291  0.00  0.00     0.003 A 
ATOM     27  C   UNL d   1       4.962  -0.854 -16.351  0.00  0.00     0.081 A 
ATOM     28  C   UNL d   1       5.571  -1.581 -18.960  0.00  0.00     0.015 A 
ATOM     29  C   UNL d   1       4.443  -2.061 -18.276  0.00  0.00     0.059 A 
ATOM     30  C   UNL d   1       3.504  -3.043 -18.941  0.00  0.00     0.052 C 
ATOM     31  N   UNL d   1       4.144  -1.702 -17.012  0.00  0.00    -0.250 NA
ATOM     32  C   UNL d   1       4.655  -0.512 -15.018  0.00  0.00     0.019 A 
ATOM     33  C   UNL d   1       5.460   0.384 -14.294  0.00  0.00     0.002 A 
ATOM     34  C   UNL d   1       6.582   0.962 -14.912  0.00  0.00     0.003 A 
ENDBRANCH   1  24
TORSDOF 7
