REMARK  0 active torsions:
REMARK  status: ('A' for Active; 'I' for Inactive)
ROOT
ATOM      1  C   UNL d   1      11.785   6.375 -16.176  0.00  0.00     0.286 C 
ATOM      2  N   UNL d   1      11.771   4.918 -16.031  0.00  0.00     0.142 N 
ATOM      3  C   UNL d   1      11.996   4.356 -17.351  0.00  0.00     0.255 C 
ATOM      4  C   UNL d   1      12.269   2.865 -17.173  0.00  0.00     0.061 C 
ATOM      5  C   UNL d   1      11.187   2.107 -16.422  0.00  0.00    -0.022 A 
ATOM      6  C   UNL d   1      11.045   0.713 -16.428  0.00  0.00    -0.004 A 
ATOM      7  C   UNL d   1      10.065   0.116 -15.622  0.00  0.00    -0.000 A 
ATOM      8  C   UNL d   1       9.207   0.913 -14.842  0.00  0.00    -0.000 A 
ATOM      9  C   UNL d   1       9.241   2.335 -14.852  0.00  0.00    -0.002 A 
ATOM     10  C   UNL d   1      10.306   2.880 -15.621  0.00  0.00     0.005 A 
ATOM     11  C   UNL d   1      10.479   4.411 -15.543  0.00  0.00     0.246 C 
ATOM     12  C   UNL d   1      10.216   4.889 -14.095  0.00  0.00     0.064 C 
ATOM     13  C   UNL d   1       8.847   4.446 -13.615  0.00  0.00    -0.019 A 
ATOM     14  C   UNL d   1       8.104   5.300 -12.775  0.00  0.00    -0.004 A 
ATOM     15  C   UNL d   1       6.804   4.951 -12.385  0.00  0.00     0.000 A 
ATOM     16  C   UNL d   1       6.231   3.764 -12.869  0.00  0.00     0.010 A 
ATOM     17  C   UNL d   1       6.973   2.897 -13.700  0.00  0.00     0.068 A 
ATOM     18  C   UNL d   1       6.288   1.694 -14.150  0.00  0.00     0.101 C 
ATOM     19  N   UNL d   1       5.748   0.737 -14.502  0.00  0.00    -0.191 NA
ATOM     20  C   UNL d   1       8.324   3.203 -14.051  0.00  0.00     0.005 A 
ENDROOT
TORSDOF 0
