REMARK  4 active torsions:
REMARK  status: ('A' for Active; 'I' for Inactive)
REMARK    1  A    between atoms: C_11  and  C_12 
REMARK    2  A    between atoms: N_15  and  C_16 
REMARK    3  A    between atoms: C_16  and  C_17 
REMARK    4  A    between atoms: C_20  and  C_21 
ROOT
ATOM      1  C   UNL d   1      10.451   2.446 -15.116  0.00  0.00     0.011 C 
ATOM      2  C   UNL d   1       9.019   2.903 -15.483  0.00  0.00     0.036 C 
ATOM      3  C   UNL d   1       8.177   3.229 -14.245  0.00  0.00     0.251 C 
ATOM      4  N   UNL d   1       8.842   4.262 -13.460  0.00  0.00     0.141 N 
ATOM      5  C   UNL d   1      10.114   3.733 -12.980  0.00  0.00     0.251 C 
ATOM      6  C   UNL d   1      11.062   3.463 -14.142  0.00  0.00     0.036 C 
ENDROOT
BRANCH   1   7
ATOM      7  C   UNL d   1      11.359   2.191 -16.346  0.00  0.00     0.062 C 
ATOM      8  C   UNL d   1      10.943   0.937 -17.160  0.00  0.00     0.172 C 
ATOM      9  O   UNL d   1      10.320   0.035 -16.620  0.00  0.00    -0.291 OA
ATOM     10  C   UNL d   1      11.385   0.891 -18.573  0.00  0.00     0.031 A 
ATOM     11  C   UNL d   1      12.087   1.956 -19.189  0.00  0.00    -0.019 A 
ATOM     12  C   UNL d   1      11.079  -0.260 -19.337  0.00  0.00     0.003 A 
ATOM     13  C   UNL d   1      12.467   1.875 -20.538  0.00  0.00    -0.004 A 
ATOM     14  C   UNL d   1      12.430   3.223 -18.416  0.00  0.00     0.027 C 
ATOM     15  C   UNL d   1      12.165   0.727 -21.284  0.00  0.00    -0.000 A 
ATOM     16  C   UNL d   1      11.469  -0.338 -20.686  0.00  0.00     0.000 A 
ATOM     17  C   UNL d   1      11.484   3.448 -17.249  0.00  0.00     0.012 C 
ENDBRANCH   1   7
BRANCH   4  18
ATOM     18  C   UNL d   1       7.971   4.620 -12.337  0.00  0.00     0.277 C 
BRANCH  18  19
ATOM     19  C   UNL d   1       8.604   5.569 -11.334  0.00  0.00     0.011 A 
ATOM     20  C   UNL d   1       9.192   6.774 -11.764  0.00  0.00    -0.002 A 
ATOM     21  C   UNL d   1       9.833   7.624 -10.836  0.00  0.00     0.004 A 
ATOM     22  C   UNL d   1       9.870   7.287  -9.470  0.00  0.00     0.071 A 
ATOM     23  C   UNL d   1       9.284   6.080  -9.036  0.00  0.00     0.004 A 
ATOM     24  C   UNL d   1       8.659   5.222  -9.966  0.00  0.00    -0.002 A 
BRANCH  22  25
ATOM     25  C   UNL d   1      10.531   8.223  -8.463  0.00  0.00     0.419 C 
ATOM     26  F   UNL d   1       9.602   8.755  -7.671  0.00  0.00    -0.166 F 
ATOM     27  F   UNL d   1      11.395   7.537  -7.718  0.00  0.00    -0.166 F 
ATOM     28  F   UNL d   1      11.191   9.210  -9.065  0.00  0.00    -0.166 F 
ENDBRANCH  22  25
ENDBRANCH  18  19
ENDBRANCH   4  18
TORSDOF 4
