REMARK  7 active torsions:
REMARK  status: ('A' for Active; 'I' for Inactive)
REMARK    1  A    between atoms: C_2  and  C_3 
REMARK    2  A    between atoms: C_3  and  N_4 
REMARK    3  A    between atoms: N_4  and  C_5 
REMARK    4  A    between atoms: N_4  and  C_8 
REMARK    5  A    between atoms: C_5  and  C_6 
REMARK    6  A    between atoms: C_16  and  C_17 
REMARK    7  A    between atoms: C_17  and  C_19 
ROOT
ATOM      1  C   UNL d   1       7.349   4.040 -12.210  0.00  0.00     0.253 C 
ATOM      2  C   UNL d   1       6.125   3.671 -13.067  0.00  0.00     0.182 C 
ATOM      3  O   UNL d   1       6.284   2.410 -13.701  0.00  0.00    -0.329 OA
ATOM      4  C   UNL d   1       7.484   2.173 -14.353  0.00  0.00     0.093 A 
ATOM      5  C   UNL d   1       8.645   2.934 -14.085  0.00  0.00     0.002 A 
ATOM      6  C   UNL d   1       9.858   2.675 -14.740  0.00  0.00    -0.002 A 
ATOM      7  C   UNL d   1       9.942   1.617 -15.667  0.00  0.00    -0.000 A 
ATOM      8  C   UNL d   1       8.824   0.821 -15.906  0.00  0.00     0.005 A 
ATOM      9  C   UNL d   1       7.571   1.118 -15.279  0.00  0.00     0.061 A 
ATOM     10  C   UNL d   1       8.662   3.990 -13.017  0.00  0.00     0.064 C 
ENDROOT
BRANCH   9  11
ATOM     11  C   UNL d   1       6.370   0.298 -15.582  0.00  0.00     0.197 C 
ATOM     12  O   UNL d   1       5.714  -0.232 -14.682  0.00  0.00    -0.286 OA
BRANCH  11  13
ATOM     13  C   UNL d   1       5.942   0.222 -17.021  0.00  0.00     0.039 A 
ATOM     14  C   UNL d   1       6.676   0.818 -18.087  0.00  0.00     0.003 A 
ATOM     15  C   UNL d   1       6.241   0.684 -19.413  0.00  0.00     0.000 A 
ATOM     16  C   UNL d   1       5.042   0.007 -19.709  0.00  0.00     0.000 A 
ATOM     17  C   UNL d   1       4.281  -0.548 -18.658  0.00  0.00     0.000 A 
ATOM     18  C   UNL d   1       4.737  -0.452 -17.329  0.00  0.00     0.003 A 
ENDBRANCH  11  13
ENDBRANCH   9  11
BRANCH   1  19
ATOM     19  N   UNL d   1       7.221   5.301 -11.474  0.00  0.00     0.138 N 
BRANCH  19  20
ATOM     20  C   UNL d   1       7.037   6.479 -12.292  0.00  0.00     0.250 C 
BRANCH  20  21
ATOM     21  C   UNL d   1       5.566   6.879 -12.384  0.00  0.00     0.035 C 
ATOM     22  C   UNL d   1       5.472   8.304 -12.902  0.00  0.00     0.002 C 
ENDBRANCH  20  21
ENDBRANCH  19  20
BRANCH  19  23
ATOM     23  C   UNL d   1       8.180   5.490 -10.382  0.00  0.00     0.250 C 
BRANCH  23  24
ATOM     24  C   UNL d   1       9.569   5.970 -10.873  0.00  0.00     0.035 C 
ATOM     25  C   UNL d   1      10.447   6.511  -9.741  0.00  0.00     0.002 C 
ENDBRANCH  23  24
ENDBRANCH  19  23
ENDBRANCH   1  19
TORSDOF 7
