REMARK  6 active torsions:
REMARK  status: ('A' for Active; 'I' for Inactive)
REMARK    1  A    between atoms: C_7  and  O_8 
REMARK    2  A    between atoms: O_8  and  C_9 
REMARK    3  A    between atoms: C_9  and  C_10 
REMARK    4  A    between atoms: C_10  and  C_11 
REMARK    5  A    between atoms: C_11  and  N_12 
REMARK    6  A    between atoms: N_16  and  C_17 
ROOT
ATOM      1  C   UNL d   1       9.093  -0.812 -18.189  0.00  0.00     0.068 C 
ENDROOT
BRANCH   1   2
ATOM      2  C   UNL d   1      10.563  -0.892 -17.661  0.00  0.00     0.151 C 
BRANCH   2   3
ATOM      3  O   UNL d   1      11.396  -1.192 -18.772  0.00  0.00    -0.331 OA
BRANCH   3   4
ATOM      4  C   UNL d   1      12.318  -0.282 -19.232  0.00  0.00     0.094 A 
ATOM      5  C   UNL d   1      13.298  -0.752 -20.141  0.00  0.00     0.021 A 
ATOM      6  C   UNL d   1      14.270   0.141 -20.638  0.00  0.00    -0.002 A 
ATOM      7  C   UNL d   1      15.273  -0.296 -21.689  0.00  0.00     0.038 C 
ATOM      8  C   UNL d   1      14.271   1.484 -20.190  0.00  0.00     0.081 A 
ATOM      9  C   UNL d   1      16.570   0.523 -21.572  0.00  0.00     0.095 C 
ATOM     10  C   UNL d   1      16.318   2.033 -21.400  0.00  0.00     0.256 C 
ATOM     11  O   UNL d   1      17.112   2.862 -21.841  0.00  0.00    -0.270 OA
ATOM     12  N   UNL d   1      15.225   2.394 -20.696  0.00  0.00    -0.212 NA
ATOM     13  C   UNL d   1      13.302   1.934 -19.278  0.00  0.00     0.021 A 
ATOM     14  C   UNL d   1      12.311   1.068 -18.821  0.00  0.00     0.026 A 
ENDBRANCH   3   4
ENDBRANCH   2   3
ENDBRANCH   1   2
BRANCH   1  15
ATOM     15  C   UNL d   1       8.129  -0.264 -17.098  0.00  0.00     0.253 C 
BRANCH  15  16
ATOM     16  N   UNL d   1       7.859   1.192 -17.188  0.00  0.00     0.139 N 
ATOM     17  C   UNL d   1       6.920   1.632 -16.155  0.00  0.00     0.274 C 
ATOM     18  C   UNL d   1       7.471   1.439 -14.720  0.00  0.00     0.138 C 
ATOM     19  N   UNL d   1       8.379   2.540 -14.370  0.00  0.00    -0.332 N 
ATOM     20  C   UNL d   1       9.769   2.595 -14.815  0.00  0.00     0.105 C 
ATOM     21  C   UNL d   1      10.031   1.786 -16.047  0.00  0.00     0.059 C 
ATOM     22  C   UNL d   1       9.044   2.054 -17.230  0.00  0.00     0.252 C 
BRANCH  19  23
ATOM     23  C   UNL d   1       7.918   3.632 -13.608  0.00  0.00     0.140 A 
ATOM     24  N   UNL d   1       6.585   3.746 -13.446  0.00  0.00    -0.227 NA
ATOM     25  C   UNL d   1       6.128   4.766 -12.701  0.00  0.00     0.101 A 
ATOM     26  C   UNL d   1       6.960   5.739 -12.115  0.00  0.00     0.021 A 
ATOM     27  C   UNL d   1       8.345   5.628 -12.292  0.00  0.00     0.005 A 
ATOM     28  C   UNL d   1       8.830   4.555 -13.038  0.00  0.00     0.037 A 
ENDBRANCH  19  23
ENDBRANCH  15  16
ENDBRANCH   1  15
TORSDOF 6
