REMARK  6 active torsions:
REMARK  status: ('A' for Active; 'I' for Inactive)
REMARK    1  A    between atoms: C_3  and  O_4 
REMARK    2  A    between atoms: O_4  and  C_5 
REMARK    3  A    between atoms: C_5  and  C_6 
REMARK    4  A    between atoms: C_13  and  C_14 
REMARK    5  A    between atoms: C_14  and  S_15 
REMARK    6  A    between atoms: S_15  and  C_17 
ROOT
ATOM      1  C   UNL d   1      11.572   8.605  -9.658  0.00  0.00     0.034 C 
ATOM      2  C   UNL d   1      10.616   7.918  -8.707  0.00  0.00     0.015 A 
ATOM      3  C   UNL d   1      10.428   8.416  -7.394  0.00  0.00     0.093 A 
ATOM      4  C   UNL d   1       9.557   7.698  -6.547  0.00  0.00     0.044 A 
ATOM      5  C   UNL d   1       8.894   6.560  -7.043  0.00  0.00     0.101 A 
ATOM      6  N   UNL d   1       9.072   6.083  -8.280  0.00  0.00    -0.248 NA
ATOM      7  C   UNL d   1       9.889   6.762  -9.099  0.00  0.00     0.071 A 
ENDROOT
BRANCH   7   8
ATOM      8  C   UNL d   1      10.057   6.141 -10.459  0.00  0.00     0.145 C 
BRANCH   8   9
ATOM      9  S   UNL d   1       8.786   6.784 -11.643  0.00  0.00     0.107 S 
ATOM     10  O   UNL d   1       9.441   7.922 -12.428  0.00  0.00    -0.248 OA
BRANCH   9  11
ATOM     11  C   UNL d   1       8.881   5.350 -12.758  0.00  0.00     0.221 A 
ATOM     12  N   UNL d   1       7.789   4.595 -12.948  0.00  0.00    -0.218 NA
ATOM     13  C   UNL d   1       8.152   3.600 -13.846  0.00  0.00     0.101 A 
ATOM     14  C   UNL d   1       9.527   3.874 -14.121  0.00  0.00     0.101 A 
ATOM     15  C   UNL d   1       7.472   2.524 -14.437  0.00  0.00     0.021 A 
ATOM     16  N   UNL d   1       9.979   4.980 -13.417  0.00  0.00    -0.218 NA
ATOM     17  C   UNL d   1      10.200   3.024 -15.028  0.00  0.00     0.021 A 
ATOM     18  C   UNL d   1       9.527   1.938 -15.622  0.00  0.00     0.002 A 
ATOM     19  C   UNL d   1       8.170   1.686 -15.330  0.00  0.00     0.002 A 
ENDBRANCH   9  11
ENDBRANCH   8   9
ENDBRANCH   7   8
BRANCH   3  20
ATOM     20  O   UNL d   1      11.121   9.534  -6.992  0.00  0.00    -0.322 OA
BRANCH  20  21
ATOM     21  C   UNL d   1      10.979  10.007  -5.651  0.00  0.00     0.252 C 
BRANCH  21  22
ATOM     22  C   UNL d   1      11.860   9.259  -4.627  0.00  0.00     0.425 C 
ATOM     23  F   UNL d   1      11.758   7.929  -4.660  0.00  0.00    -0.168 F 
ATOM     24  F   UNL d   1      13.128   9.589  -4.811  0.00  0.00    -0.168 F 
ATOM     25  F   UNL d   1      11.485   9.663  -3.417  0.00  0.00    -0.168 F 
ENDBRANCH  21  22
ENDBRANCH  20  21
ENDBRANCH   3  20
TORSDOF 6
