REMARK  4 active torsions:
REMARK  status: ('A' for Active; 'I' for Inactive)
REMARK       I    between atoms: N_2  and  C_3 
REMARK    1  A    between atoms: N_2  and  C_14 
REMARK    2  A    between atoms: C_3  and  C_5 
REMARK    3  A    between atoms: C_5  and  C_6 
REMARK    4  A    between atoms: C_23  and  N_24 
ROOT
ATOM      1  C   UNL d   1       9.243   2.956 -15.513  0.00  0.00     0.115 C 
ATOM      2  C   UNL d   1       9.111   1.676 -16.376  0.00  0.00     0.027 C 
ATOM      3  C   UNL d   1       7.651   1.226 -16.493  0.00  0.00     0.029 C 
ATOM      4  C   UNL d   1       7.020   1.056 -15.100  0.00  0.00     0.095 C 
ATOM      5  C   UNL d   1       7.642  -0.056 -14.240  0.00  0.00     0.030 C 
ATOM      6  C   UNL d   1       6.463  -0.676 -13.486  0.00  0.00     0.035 C 
ATOM      7  C   UNL d   1       5.236   0.106 -13.992  0.00  0.00     0.142 C 
ATOM      8  O   UNL d   1       5.657   0.654 -15.227  0.00  0.00    -0.359 OA
ATOM      9  C   UNL d   1       7.069   2.393 -14.358  0.00  0.00     0.062 C 
ATOM     10  C   UNL d   1       8.511   2.895 -14.135  0.00  0.00     0.242 C 
ENDROOT
BRANCH   1  11
ATOM     11  N   UNL d   1      10.662   3.299 -15.341  0.00  0.00    -0.318 N 
ATOM     12  C   UNL d   1      11.466   2.329 -14.598  0.00  0.00     0.128 C 
ATOM     13  C   UNL d   1      11.174   4.471 -15.795  0.00  0.00     0.238 C 
ATOM     14  O   UNL d   1      10.517   5.256 -16.478  0.00  0.00    -0.272 OA
BRANCH  13  15
ATOM     15  C   UNL d   1      12.609   4.854 -15.402  0.00  0.00     0.114 C 
BRANCH  15  16
ATOM     16  C   UNL d   1      13.179   5.947 -16.292  0.00  0.00    -0.012 A 
ATOM     17  C   UNL d   1      14.011   5.584 -17.366  0.00  0.00     0.009 A 
ATOM     18  C   UNL d   1      14.537   6.569 -18.225  0.00  0.00     0.068 A 
ATOM     19  C   UNL d   1      14.230   7.928 -18.004  0.00  0.00     0.068 A 
ATOM     20 CL   UNL d   1      15.550   6.076 -19.536  0.00  0.00    -0.082 Cl
ATOM     21  C   UNL d   1      13.400   8.293 -16.922  0.00  0.00     0.012 A 
ATOM     22 CL   UNL d   1      14.856   9.163 -19.036  0.00  0.00    -0.082 Cl
ATOM     23  C   UNL d   1      12.882   7.306 -16.062  0.00  0.00    -0.003 A 
ENDBRANCH  15  16
ENDBRANCH  13  15
ENDBRANCH   1  11
BRANCH  10  24
ATOM     24  N   UNL d   1       8.555   4.195 -13.451  0.00  0.00     0.137 N 
ATOM     25  C   UNL d   1       9.708   4.347 -12.557  0.00  0.00     0.250 C 
ATOM     26  C   UNL d   1       9.416   5.625 -11.793  0.00  0.00     0.037 C 
ATOM     27  C   UNL d   1       7.895   5.720 -11.777  0.00  0.00     0.037 C 
ATOM     28  C   UNL d   1       7.453   4.473 -12.525  0.00  0.00     0.250 C 
ENDBRANCH  10  24
TORSDOF 4
