REMARK  4 active torsions:
REMARK  status: ('A' for Active; 'I' for Inactive)
REMARK    1  A    between atoms: C_13  and  C_14 
REMARK    2  A    between atoms: C_17  and  C_18 
REMARK    3  A    between atoms: C_18  and  N_19 
REMARK    4  A    between atoms: N_19  and  S_21 
ROOT
ATOM      1  C   UNL d   1       6.689   0.867 -15.874  0.00  0.00     0.285 C 
ATOM      2  N   UNL d   1       8.086   1.091 -15.512  0.00  0.00     0.140 N 
ATOM      3  C   UNL d   1       8.916   0.755 -16.666  0.00  0.00     0.255 C 
ATOM      4  C   UNL d   1      10.407   0.664 -16.309  0.00  0.00     0.061 C 
ATOM      5  C   UNL d   1      11.098   2.019 -16.313  0.00  0.00    -0.023 A 
ATOM      6  C   UNL d   1      12.139   2.238 -17.247  0.00  0.00     0.009 A 
ATOM      7  C   UNL d   1      12.806   3.474 -17.304  0.00  0.00     0.083 A 
ATOM      8 CL   UNL d   1      14.082   3.719 -18.443  0.00  0.00    -0.080 Cl
ATOM      9  C   UNL d   1      12.436   4.502 -16.419  0.00  0.00     0.141 A 
ATOM     10  O   UNL d   1      13.064   5.713 -16.453  0.00  0.00    -0.189 OA
ATOM     11  C   UNL d   1      11.408   4.287 -15.486  0.00  0.00     0.024 A 
ATOM     12  C   UNL d   1      10.715   3.050 -15.415  0.00  0.00    -0.018 A 
ATOM     13  C   UNL d   1       9.588   2.812 -14.393  0.00  0.00     0.078 C 
ATOM     14  C   UNL d   1       8.235   2.469 -15.036  0.00  0.00     0.259 C 
ENDROOT
BRANCH  13  15
ATOM     15  C   UNL d   1       9.390   3.953 -13.400  0.00  0.00    -0.017 C 
ATOM     16  C   UNL d   1       9.761   3.765 -12.065  0.00  0.00    -0.004 C 
ATOM     17  C   UNL d   1       9.562   4.760 -11.118  0.00  0.00    -0.003 C 
ATOM     18  C   UNL d   1       9.136   6.040 -11.500  0.00  0.00     0.001 C 
ATOM     19  C   UNL d   1       8.716   6.250 -12.834  0.00  0.00    -0.003 C 
ATOM     20  C   UNL d   1       8.818   5.195 -13.778  0.00  0.00    -0.004 C 
BRANCH  18  21
ATOM     21  C   UNL d   1       9.067   7.128 -10.440  0.00  0.00     0.139 C 
BRANCH  21  22
ATOM     22  N   UNL d   1      10.326   7.468  -9.730  0.00  0.00    -0.271 N 
ATOM     23  C   UNL d   1      10.937   8.736 -10.149  0.00  0.00     0.138 C 
BRANCH  22  24
ATOM     24  S   UNL d   1      10.450   7.032  -8.064  0.00  0.00     0.245 S 
ATOM     25  C   UNL d   1       9.252   8.127  -7.237  0.00  0.00     0.163 C 
ATOM     26  O   UNL d   1       9.963   5.652  -7.947  0.00  0.00    -0.205 OA
ATOM     27  O   UNL d   1      11.798   7.388  -7.603  0.00  0.00    -0.205 OA
ENDBRANCH  22  24
ENDBRANCH  21  22
ENDBRANCH  18  21
ENDBRANCH  13  15
TORSDOF 4
