REMARK  3 active torsions:
REMARK  status: ('A' for Active; 'I' for Inactive)
REMARK    1  A    between atoms: N_2  and  C_4 
REMARK    2  A    between atoms: C_4  and  C_5 
REMARK    3  A    between atoms: C_5  and  C_6 
ROOT
ATOM      1  C   UNL d   1       6.556   1.052 -14.675  0.00  0.00    -0.024 C 
ATOM      2  C   UNL d   1       7.459   2.030 -14.860  0.00  0.00    -0.005 C 
ATOM      3  C   UNL d   1       8.284   2.042 -16.082  0.00  0.00    -0.004 A 
ATOM      4  C   UNL d   1       7.682   1.995 -17.354  0.00  0.00    -0.000 A 
ATOM      5  C   UNL d   1       8.467   1.984 -18.519  0.00  0.00    -0.000 A 
ATOM      6  C   UNL d   1       9.868   2.046 -18.420  0.00  0.00    -0.000 A 
ATOM      7  C   UNL d   1      10.478   2.094 -17.153  0.00  0.00    -0.004 A 
ATOM      8  C   UNL d   1       9.689   2.083 -15.980  0.00  0.00    -0.022 A 
ATOM      9  C   UNL d   1      10.337   2.094 -14.613  0.00  0.00     0.031 C 
ATOM     10  C   UNL d   1      10.109   3.407 -13.848  0.00  0.00     0.031 C 
ATOM     11  C   UNL d   1       8.679   3.848 -13.517  0.00  0.00    -0.022 A 
ATOM     12  C   UNL d   1       8.581   4.975 -12.665  0.00  0.00    -0.004 A 
ATOM     13  C   UNL d   1       7.336   5.472 -12.247  0.00  0.00    -0.000 A 
ATOM     14  C   UNL d   1       6.161   4.841 -12.674  0.00  0.00    -0.000 A 
ATOM     15  C   UNL d   1       6.237   3.727 -13.525  0.00  0.00    -0.000 A 
ATOM     16  C   UNL d   1       7.481   3.214 -13.973  0.00  0.00    -0.004 A 
ENDROOT
BRANCH   1  17
ATOM     17  C   UNL d   1       6.364  -0.193 -15.516  0.00  0.00     0.061 C 
BRANCH  17  18
ATOM     18  C   UNL d   1       5.049  -0.158 -16.311  0.00  0.00     0.255 C 
BRANCH  18  19
ATOM     19  N   UNL d   1       4.895  -1.332 -17.163  0.00  0.00     0.142 N 
ATOM     20  C   UNL d   1       3.679  -1.212 -17.960  0.00  0.00     0.285 C 
ATOM     21  C   UNL d   1       4.784  -2.535 -16.354  0.00  0.00     0.285 C 
ENDBRANCH  18  19
ENDBRANCH  17  18
ENDBRANCH   1  17
TORSDOF 3
