REMARK  7 active torsions:
REMARK  status: ('A' for Active; 'I' for Inactive)
REMARK    1  A    between atoms: C_2  and  C_3 
REMARK       I    between atoms: C_3  and  N_5 
REMARK    2  A    between atoms: N_5  and  C_6 
REMARK    3  A    between atoms: C_6  and  C_7 
REMARK    4  A    between atoms: C_7  and  C_8 
REMARK    5  A    between atoms: C_8  and  C_9 
REMARK    6  A    between atoms: C_9  and  N_10 
REMARK    7  A    between atoms: N_13  and  C_14 
ROOT
ATOM      1  C   UNL d   1       8.574   5.631 -11.199  0.00  0.00     0.251 C 
ENDROOT
BRANCH   1   2
ATOM      2  C   UNL d   1       9.148   7.051 -11.021  0.00  0.00     0.037 C 
BRANCH   2   3
ATOM      3  C   UNL d   1       9.658   7.252  -9.588  0.00  0.00     0.029 C 
BRANCH   3   4
ATOM      4  C   UNL d   1      10.070   8.702  -9.308  0.00  0.00     0.129 C 
BRANCH   4   5
ATOM      5  N   UNL d   1      10.342   8.880  -7.893  0.00  0.00    -0.238 NA
ATOM      6  C   UNL d   1      11.521   8.766  -7.263  0.00  0.00     0.250 C 
ATOM      7  O   UNL d   1      12.569   8.539  -7.873  0.00  0.00    -0.271 OA
BRANCH   6   8
ATOM      8  C   UNL d   1      11.485   8.933  -5.713  0.00  0.00     0.073 C 
ATOM      9  C   UNL d   1      10.307   9.842  -5.310  0.00  0.00     0.009 C 
ATOM     10  C   UNL d   1      11.403   7.547  -5.024  0.00  0.00     0.009 C 
ATOM     11  C   UNL d   1      11.540   7.623  -3.468  0.00  0.00     0.001 C 
ATOM     12  C   UNL d   1      12.822   8.255  -3.057  0.00  0.00     0.000 C 
ATOM     13  C   UNL d   1      12.901   9.630  -3.695  0.00  0.00     0.001 C 
ATOM     14  C   UNL d   1      12.750   9.633  -5.216  0.00  0.00     0.009 C 
ENDBRANCH   6   8
ENDBRANCH   4   5
ENDBRANCH   3   4
ENDBRANCH   2   3
ENDBRANCH   1   2
BRANCH   1  15
ATOM     15  N   UNL d   1       8.435   5.314 -12.613  0.00  0.00     0.141 N 
ATOM     16  C   UNL d   1       7.657   4.077 -12.712  0.00  0.00     0.274 C 
ATOM     17  C   UNL d   1       7.476   3.673 -14.165  0.00  0.00     0.137 C 
ATOM     18  N   UNL d   1       8.780   3.552 -14.832  0.00  0.00    -0.344 N 
ATOM     19  C   UNL d   1       9.653   4.712 -14.670  0.00  0.00     0.137 C 
ATOM     20  C   UNL d   1       9.763   5.051 -13.184  0.00  0.00     0.274 C 
BRANCH  18  21
ATOM     21  C   UNL d   1       9.146   2.439 -15.587  0.00  0.00     0.056 A 
ATOM     22  C   UNL d   1      10.509   2.062 -15.738  0.00  0.00     0.018 A 
ATOM     23  C   UNL d   1      10.852   0.914 -16.486  0.00  0.00     0.013 A 
ATOM     24  C   UNL d   1       9.848   0.148 -17.088  0.00  0.00     0.058 A 
ATOM     25  C   UNL d   1       8.500   0.501 -16.952  0.00  0.00     0.013 A 
ATOM     26 CL   UNL d   1      10.285  -1.224 -18.040  0.00  0.00    -0.082 Cl
ATOM     27  C   UNL d   1       8.147   1.655 -16.220  0.00  0.00     0.018 A 
ENDBRANCH  18  21
ENDBRANCH   1  15
TORSDOF 7
