REMARK  4 active torsions:
REMARK  status: ('A' for Active; 'I' for Inactive)
REMARK    1  A    between atoms: C_8  and  N_9 
REMARK    2  A    between atoms: N_9  and  S_10 
REMARK    3  A    between atoms: S_10  and  C_13 
REMARK    4  A    between atoms: C_16  and  C_17 
ROOT
ATOM      1  S   UNL d   1       8.770   6.762 -11.959  0.00  0.00     0.285 S 
ATOM      2  O   UNL d   1       9.858   6.192 -12.741  0.00  0.00    -0.198 OA
ATOM      3  O   UNL d   1       8.021   7.941 -12.440  0.00  0.00    -0.198 OA
ENDROOT
BRANCH   1   4
ATOM      4  N   UNL d   1       7.585   5.496 -11.694  0.00  0.00    -0.158 NA
BRANCH   4   5
ATOM      5  C   UNL d   1       7.273   4.419 -12.533  0.00  0.00     0.093 A 
ATOM      6  C   UNL d   1       6.126   3.634 -12.281  0.00  0.00     0.020 A 
ATOM      7  C   UNL d   1       5.839   2.539 -13.125  0.00  0.00    -0.003 A 
ATOM      8  C   UNL d   1       6.673   2.187 -14.212  0.00  0.00    -0.024 A 
ATOM      9  C   UNL d   1       6.326   1.002 -15.095  0.00  0.00     0.061 C 
ATOM     10  C   UNL d   1       7.815   2.980 -14.462  0.00  0.00    -0.022 A 
ATOM     11  C   UNL d   1       7.473   0.015 -15.338  0.00  0.00     0.255 C 
ATOM     12  N   UNL d   1       8.471   0.465 -16.311  0.00  0.00     0.140 N 
ATOM     13  C   UNL d   1       9.275  -0.665 -16.756  0.00  0.00     0.285 C 
ATOM     14  C   UNL d   1       9.397   1.418 -15.730  0.00  0.00     0.255 C 
ATOM     15  C   UNL d   1       8.770   2.792 -15.648  0.00  0.00     0.061 C 
ATOM     16  C   UNL d   1       8.089   4.061 -13.628  0.00  0.00     0.015 A 
ENDBRANCH   4   5
ENDBRANCH   1   4
BRANCH   1  17
ATOM     17  C   UNL d   1       9.449   7.032 -10.316  0.00  0.00     0.105 A 
ATOM     18  C   UNL d   1       9.963   8.292  -9.986  0.00  0.00     0.013 A 
ATOM     19  C   UNL d   1      10.433   8.516  -8.679  0.00  0.00     0.001 A 
ATOM     20  C   UNL d   1      10.399   7.498  -7.696  0.00  0.00     0.000 A 
ATOM     21  C   UNL d   1       9.880   6.232  -8.070  0.00  0.00     0.001 A 
ATOM     22  C   UNL d   1       9.431   5.989  -9.379  0.00  0.00     0.013 A 
BRANCH  20  23
ATOM     23  C   UNL d   1      10.908   7.743  -6.324  0.00  0.00     0.000 A 
ATOM     24  C   UNL d   1      11.330   6.678  -5.496  0.00  0.00     0.001 A 
ATOM     25  C   UNL d   1      11.808   6.883  -4.193  0.00  0.00     0.011 A 
ATOM     26  C   UNL d   1      11.902   8.188  -3.690  0.00  0.00     0.058 A 
ATOM     27  C   UNL d   1      11.505   9.271  -4.494  0.00  0.00     0.011 A 
ATOM     28 CL   UNL d   1      12.495   8.444  -2.095  0.00  0.00    -0.082 Cl
ATOM     29  C   UNL d   1      11.010   9.051  -5.793  0.00  0.00     0.001 A 
ENDBRANCH  20  23
ENDBRANCH   1  17
TORSDOF 4
