REMARK  7 active torsions:
REMARK  status: ('A' for Active; 'I' for Inactive)
REMARK    1  A    between atoms: C_3  and  S_4 
REMARK    2  A    between atoms: S_4  and  C_5 
REMARK    3  A    between atoms: C_5  and  C_6 
REMARK    4  A    between atoms: C_6  and  C_7 
REMARK    5  A    between atoms: C_7  and  N_8 
REMARK    6  A    between atoms: N_13  and  C_14 
REMARK    7  A    between atoms: C_26  and  C_27 
ROOT
ATOM      1  N   UNL d   1      10.947   2.068 -16.636  0.00  0.00     0.138 N 
ATOM      2  C   UNL d   1      10.833   0.681 -16.175  0.00  0.00     0.252 C 
ATOM      3  C   UNL d   1       9.762   0.743 -15.094  0.00  0.00     0.052 C 
ATOM      4  C   UNL d   1       8.338   0.612 -15.626  0.00  0.00     0.021 C 
ATOM      5  C   UNL d   1       7.577   1.643 -14.801  0.00  0.00     0.077 C 
ATOM      6  N   UNL d   1       8.510   2.747 -14.570  0.00  0.00    -0.248 NA
ATOM      7  C   UNL d   1       9.847   2.164 -14.535  0.00  0.00     0.097 C 
ATOM      8  C   UNL d   1      10.851   2.895 -15.434  0.00  0.00     0.266 C 
ENDROOT
BRANCH   1   9
ATOM      9  C   UNL d   1      12.178   2.362 -17.372  0.00  0.00     0.251 C 
BRANCH   9  10
ATOM     10  C   UNL d   1      12.174   1.775 -18.791  0.00  0.00     0.047 C 
BRANCH  10  11
ATOM     11  C   UNL d   1      12.269   0.237 -18.814  0.00  0.00     0.067 C 
BRANCH  11  12
ATOM     12  S   UNL d   1      12.636  -0.432 -20.456  0.00  0.00    -0.075 SA
BRANCH  12  13
ATOM     13  C   UNL d   1      14.328   0.025 -20.549  0.00  0.00     0.193 A 
ATOM     14  N   UNL d   1      14.773   0.961 -21.404  0.00  0.00    -0.287 N 
ATOM     15  C   UNL d   1      13.989   1.756 -22.342  0.00  0.00     0.134 C 
ATOM     16  C   UNL d   1      16.113   0.952 -21.162  0.00  0.00     0.186 A 
ATOM     17  N   UNL d   1      16.447   0.077 -20.203  0.00  0.00    -0.127 NA
ATOM     18  N   UNL d   1      15.281  -0.513 -19.794  0.00  0.00    -0.122 NA
BRANCH  16  19
ATOM     19  C   UNL d   1      17.126   1.773 -21.827  0.00  0.00     0.136 A 
ATOM     20  N   UNL d   1      16.734   2.720 -22.713  0.00  0.00    -0.238 NA
ATOM     21  C   UNL d   1      17.692   3.460 -23.296  0.00  0.00     0.120 A 
ATOM     22  C   UNL d   1      19.059   3.259 -23.005  0.00  0.00     0.120 A 
ATOM     23  N   UNL d   1      19.465   2.320 -22.127  0.00  0.00    -0.239 NA
ATOM     24  C   UNL d   1      18.502   1.580 -21.540  0.00  0.00     0.121 A 
ENDBRANCH  16  19
ENDBRANCH  12  13
ENDBRANCH  11  12
ENDBRANCH  10  11
ENDBRANCH   9  10
ENDBRANCH   1   9
BRANCH   6  25
ATOM     25  C   UNL d   1       8.190   3.743 -13.608  0.00  0.00     0.092 A 
ATOM     26  C   UNL d   1       9.205   4.598 -13.075  0.00  0.00     0.152 A 
ATOM     27  C   UNL d   1       8.895   5.554 -12.093  0.00  0.00     0.031 A 
ATOM     28  F   UNL d   1      10.502   4.529 -13.484  0.00  0.00    -0.203 F 
ATOM     29  C   UNL d   1       7.583   5.678 -11.619  0.00  0.00     0.005 A 
ATOM     30  C   UNL d   1       6.566   4.864 -12.132  0.00  0.00     0.031 A 
ATOM     31  C   UNL d   1       6.858   3.912 -13.121  0.00  0.00     0.152 A 
ATOM     32  F   UNL d   1       5.830   3.151 -13.569  0.00  0.00    -0.203 F 
ENDBRANCH   6  25
TORSDOF 7
