REMARK  4 active torsions:
REMARK  status: ('A' for Active; 'I' for Inactive)
REMARK    1  A    between atoms: C_2  and  C_3 
REMARK    2  A    between atoms: N_11  and  C_12 
REMARK    3  A    between atoms: C_12  and  C_13 
REMARK    4  A    between atoms: N_15  and  C_16 
ROOT
ATOM      1  C   UNL d   1      10.624   6.990  -7.020  0.00  0.00     0.005 C 
ATOM      2  C   UNL d   1      11.159   8.038  -6.369  0.00  0.00    -0.022 C 
ATOM      3  C   UNL d   1      11.567   9.262  -7.182  0.00  0.00     0.061 C 
ATOM      4  C   UNL d   1      11.666   8.961  -8.664  0.00  0.00     0.256 C 
ATOM      5  N   UNL d   1      10.434   8.316  -9.094  0.00  0.00     0.148 N 
ATOM      6  C   UNL d   1      10.365   6.985  -8.501  0.00  0.00     0.277 C 
ENDROOT
BRANCH   5   7
ATOM      7  C   UNL d   1      10.537   8.178 -10.523  0.00  0.00     0.299 C 
BRANCH   7   8
ATOM      8  C   UNL d   1       9.497   7.459 -11.287  0.00  0.00     0.135 A 
ATOM      9  N   UNL d   1       8.602   8.168 -12.057  0.00  0.00    -0.131 NA
ATOM     10  N   UNL d   1       7.748   7.344 -12.561  0.00  0.00    -0.060 NA
ATOM     11  N   UNL d   1       8.108   6.103 -12.184  0.00  0.00    -0.209 N 
ATOM     12  C   UNL d   1       9.252   6.121 -11.408  0.00  0.00     0.121 A 
BRANCH  11  13
ATOM     13  C   UNL d   1       7.372   4.984 -12.621  0.00  0.00     0.085 A 
ATOM     14  C   UNL d   1       6.004   4.864 -12.316  0.00  0.00     0.019 A 
ATOM     15  C   UNL d   1       5.296   3.724 -12.753  0.00  0.00     0.002 A 
ATOM     16  C   UNL d   1       5.966   2.734 -13.506  0.00  0.00     0.000 A 
ATOM     17  C   UNL d   1       7.322   2.879 -13.842  0.00  0.00     0.002 A 
ATOM     18  C   UNL d   1       8.037   3.991 -13.367  0.00  0.00     0.019 A 
ENDBRANCH  11  13
ENDBRANCH   7   8
ENDBRANCH   5   7
BRANCH   2  19
ATOM     19  C   UNL d   1      11.481   8.023  -4.913  0.00  0.00    -0.004 A 
ATOM     20  C   UNL d   1      11.629   9.239  -4.216  0.00  0.00    -0.000 A 
ATOM     21  C   UNL d   1      11.923   9.239  -2.838  0.00  0.00    -0.000 A 
ATOM     22  C   UNL d   1      11.985   8.025  -2.140  0.00  0.00    -0.000 A 
ATOM     23  C   UNL d   1      11.812   6.810  -2.807  0.00  0.00    -0.000 A 
ATOM     24  C   UNL d   1      11.589   6.795  -4.202  0.00  0.00    -0.000 A 
ENDBRANCH   2  19
TORSDOF 4
