REMARK  6 active torsions:
REMARK  status: ('A' for Active; 'I' for Inactive)
REMARK    1  A    between atoms: O_2  and  C_3 
REMARK    2  A    between atoms: C_7  and  C_8 
REMARK       I    between atoms: C_8  and  N_10 
REMARK    3  A    between atoms: N_10  and  C_11 
REMARK    4  A    between atoms: C_11  and  C_12 
REMARK    5  A    between atoms: C_12  and  N_13 
REMARK    6  A    between atoms: N_16  and  C_17 
ROOT
ATOM      1  N   UNL d   1       8.060   5.261 -11.853  0.00  0.00     0.143 N 
ATOM      2  C   UNL d   1       6.730   4.652 -11.771  0.00  0.00     0.274 C 
ATOM      3  C   UNL d   1       6.235   4.225 -13.162  0.00  0.00     0.137 C 
ATOM      4  N   UNL d   1       7.214   3.350 -13.806  0.00  0.00    -0.344 N 
ATOM      5  C   UNL d   1       8.589   3.849 -13.789  0.00  0.00     0.137 C 
ATOM      6  C   UNL d   1       9.015   4.290 -12.382  0.00  0.00     0.274 C 
ENDROOT
BRANCH   1   7
ATOM      7  C   UNL d   1       8.471   5.651 -10.510  0.00  0.00     0.277 C 
BRANCH   7   8
ATOM      8  C   UNL d   1       9.536   6.761 -10.554  0.00  0.00     0.164 C 
BRANCH   8   9
ATOM      9  N   UNL d   1       9.717   7.401  -9.263  0.00  0.00    -0.232 NA
ATOM     10  C   UNL d   1      10.183   6.809  -8.148  0.00  0.00     0.275 C 
ATOM     11  O   UNL d   1      10.291   5.595  -8.037  0.00  0.00    -0.266 OA
BRANCH  10  12
ATOM     12  C   UNL d   1      10.600   7.742  -7.029  0.00  0.00     0.059 A 
ATOM     13  C   UNL d   1      10.645   9.137  -7.251  0.00  0.00     0.005 A 
ATOM     14  C   UNL d   1      11.078  10.001  -6.236  0.00  0.00     0.002 A 
ATOM     15  C   UNL d   1      11.473   9.493  -4.989  0.00  0.00     0.024 A 
ATOM     16  C   UNL d   1      11.460   8.095  -4.742  0.00  0.00     0.094 A 
ATOM     17  C   UNL d   1      11.020   7.229  -5.776  0.00  0.00     0.029 A 
BRANCH  16  18
ATOM     18  O   UNL d   1      11.860   7.546  -3.545  0.00  0.00    -0.328 OA
ATOM     19  C   UNL d   1      12.266   8.445  -2.520  0.00  0.00     0.181 C 
ENDBRANCH  16  18
ENDBRANCH  10  12
ENDBRANCH   8   9
ENDBRANCH   7   8
ENDBRANCH   1   7
BRANCH   4  20
ATOM     20  C   UNL d   1       6.850   2.111 -14.364  0.00  0.00     0.056 A 
ATOM     21  C   UNL d   1       7.397   1.636 -15.596  0.00  0.00     0.015 A 
ATOM     22  C   UNL d   1       6.998   0.346 -16.079  0.00  0.00     0.001 A 
ATOM     23  C   UNL d   1       8.313   2.390 -16.393  0.00  0.00     0.001 A 
ATOM     24  C   UNL d   1       6.067  -0.426 -15.357  0.00  0.00     0.000 A 
ATOM     25  C   UNL d   1       7.530  -0.167 -17.283  0.00  0.00     0.000 A 
ATOM     26  C   UNL d   1       5.518   0.047 -14.159  0.00  0.00     0.002 A 
ATOM     27  C   UNL d   1       5.912   1.310 -13.664  0.00  0.00     0.017 A 
ATOM     28  C   UNL d   1       8.463   0.578 -18.033  0.00  0.00     0.000 A 
ATOM     29  C   UNL d   1       8.844   1.854 -17.577  0.00  0.00     0.000 A 
ENDBRANCH   4  20
TORSDOF 6
