REMARK  2 active torsions:
REMARK  status: ('A' for Active; 'I' for Inactive)
REMARK    1  A    between atoms: C_5  and  C_6 
REMARK    2  A    between atoms: C_14  and  N_15 
ROOT
ATOM      1  O   UNL d   1      11.937   1.607 -17.511  0.00  0.00    -0.268 OA
ATOM      2  C   UNL d   1      10.813   1.122 -17.407  0.00  0.00     0.281 C 
ATOM      3  C   UNL d   1      10.493   0.169 -16.248  0.00  0.00     0.215 C 
ATOM      4  N   UNL d   1       9.496   0.704 -15.353  0.00  0.00    -0.261 NA
ATOM      5  C   UNL d   1       8.284   0.846 -15.716  0.00  0.00     0.078 C 
ATOM      6  C   UNL d   1       7.771   0.624 -17.108  0.00  0.00     0.037 A 
ATOM      7  C   UNL d   1       6.426   0.193 -17.255  0.00  0.00     0.026 A 
ATOM      8  C   UNL d   1       5.822   0.008 -18.509  0.00  0.00     0.127 A 
ATOM      9  C   UNL d   1       6.574   0.269 -19.671  0.00  0.00     0.025 A 
ATOM     10  C   UNL d   1       7.912   0.699 -19.561  0.00  0.00     0.021 A 
ATOM     11  C   UNL d   1       8.519   0.876 -18.299  0.00  0.00     0.086 A 
ATOM     12  N   UNL d   1       9.854   1.367 -18.311  0.00  0.00    -0.210 NA
ENDROOT
BRANCH   5  13
ATOM     13  C   UNL d   1       7.328   1.287 -14.683  0.00  0.00     0.017 A 
ATOM     14  C   UNL d   1       7.194   2.657 -14.379  0.00  0.00     0.002 A 
ATOM     15  C   UNL d   1       6.221   3.086 -13.453  0.00  0.00     0.000 A 
ATOM     16  C   UNL d   1       5.390   2.135 -12.831  0.00  0.00     0.000 A 
ATOM     17  C   UNL d   1       5.520   0.765 -13.130  0.00  0.00     0.000 A 
ATOM     18  C   UNL d   1       6.502   0.339 -14.043  0.00  0.00     0.002 A 
ENDBRANCH   5  13
BRANCH   8  19
ATOM     19  N   UNL d   1       4.416  -0.430 -18.592  0.00  0.00    -0.114 N 
ATOM     20  O   UNL d   1       3.759  -0.051 -19.551  0.00  0.00    -0.532 OA
ATOM     21  O   UNL d   1       3.980  -1.130 -17.683  0.00  0.00    -0.532 OA
ENDBRANCH   8  19
TORSDOF 2
