REMARK  10 active torsions:
REMARK  status: ('A' for Active; 'I' for Inactive)
REMARK    1  A    between atoms: S_2  and  C_3 
REMARK    2  A    between atoms: C_8  and  C_9 
REMARK    3  A    between atoms: C_11  and  C_12 
REMARK    4  A    between atoms: C_12  and  N_13 
REMARK    5  A    between atoms: N_13  and  C_14 
REMARK    6  A    between atoms: C_14  and  C_15 
REMARK    7  A    between atoms: C_15  and  C_16 
REMARK    8  A    between atoms: C_16  and  C_17 
REMARK    9  A    between atoms: C_17  and  O_18 
REMARK   10  A    between atoms: O_18  and  C_19 
ROOT
ATOM      1  C   UNL d   1       9.209   6.944 -11.651  0.00  0.00     0.041 C 
ENDROOT
BRANCH   1   2
ATOM      2  C   UNL d   1       7.783   6.330 -11.672  0.00  0.00     0.290 C 
BRANCH   2   3
ATOM      3  N   UNL d   1       7.566   5.496 -12.842  0.00  0.00     0.339 N 
BRANCH   3   4
ATOM      4  C   UNL d   1       8.397   4.304 -12.844  0.00  0.00     0.290 C 
BRANCH   4   5
ATOM      5  C   UNL d   1       8.353   3.677 -14.210  0.00  0.00     0.041 A 
ATOM      6  C   UNL d   1       9.029   2.334 -14.349  0.00  0.00     0.025 A 
ATOM      7  C   UNL d   1       7.523   2.454 -14.498  0.00  0.00     0.007 A 
BRANCH   6   8
ATOM      8  C   UNL d   1       9.899   1.972 -15.514  0.00  0.00    -0.017 A 
ATOM      9  C   UNL d   1      11.056   2.709 -15.870  0.00  0.00     0.021 A 
ATOM     10  C   UNL d   1      11.782   2.343 -17.022  0.00  0.00     0.006 A 
ATOM     11  C   UNL d   1      11.386   1.237 -17.799  0.00  0.00     0.001 A 
ATOM     12  C   UNL d   1      10.266   0.479 -17.417  0.00  0.00    -0.000 A 
ATOM     13  C   UNL d   1       9.531   0.845 -16.279  0.00  0.00    -0.004 A 
BRANCH   9  14
ATOM     14  S   UNL d   1      11.598   4.078 -14.872  0.00  0.00    -0.113 SA
ATOM     15  C   UNL d   1      12.798   5.043 -15.828  0.00  0.00     0.074 C 
ENDBRANCH   9  14
ENDBRANCH   6   8
ENDBRANCH   4   5
ENDBRANCH   3   4
ENDBRANCH   2   3
ENDBRANCH   1   2
BRANCH   1  16
ATOM     16  C   UNL d   1       9.463   7.829 -10.444  0.00  0.00     0.035 C 
BRANCH  16  17
ATOM     17  C   UNL d   1      10.919   8.297 -10.365  0.00  0.00     0.149 C 
BRANCH  17  18
ATOM     18  O   UNL d   1      11.092   9.143  -9.254  0.00  0.00    -0.331 OA
BRANCH  18  19
ATOM     19  C   UNL d   1      11.178   8.538  -8.029  0.00  0.00     0.096 A 
ATOM     20  C   UNL d   1      11.291   9.367  -6.904  0.00  0.00     0.043 A 
ATOM     21  C   UNL d   1      11.422   8.787  -5.634  0.00  0.00     0.087 A 
ATOM     22  C   UNL d   1      11.453   7.394  -5.460  0.00  0.00     0.018 A 
ATOM     23  N   UNL d   1      11.600   9.591  -4.519  0.00  0.00    -0.208 NA
ATOM     24  C   UNL d   1      11.360   6.581  -6.583  0.00  0.00     0.004 A 
ATOM     25  C   UNL d   1      11.684   6.862  -4.122  0.00  0.00     0.006 A 
ATOM     26  C   UNL d   1      11.181   7.135  -7.847  0.00  0.00     0.024 A 
ATOM     27  C   UNL d   1      11.866   7.695  -3.086  0.00  0.00     0.063 A 
ATOM     28  C   UNL d   1      11.845   9.148  -3.281  0.00  0.00     0.279 A 
ATOM     29  O   UNL d   1      11.908   9.956  -2.391  0.00  0.00    -0.265 OA
ENDBRANCH  18  19
ENDBRANCH  17  18
ENDBRANCH  16  17
ENDBRANCH   1  16
TORSDOF 10
