REMARK  9 active torsions:
REMARK  status: ('A' for Active; 'I' for Inactive)
REMARK    1  A    between atoms: C_2  and  N_5 
REMARK       I    between atoms: N_5  and  C_6 
REMARK       I    between atoms: C_6  and  N_8 
REMARK    2  A    between atoms: N_8  and  C_9 
REMARK    3  A    between atoms: C_9  and  C_10 
REMARK    4  A    between atoms: C_10  and  C_11 
REMARK    5  A    between atoms: C_11  and  C_12 
REMARK    6  A    between atoms: C_12  and  N_13 
REMARK    7  A    between atoms: N_16  and  C_17 
REMARK    8  A    between atoms: C_19  and  C_20 
REMARK    9  A    between atoms: C_25  and  C_26 
ROOT
ATOM      1  N   UNL d   1      10.362   2.790 -14.833  0.00  0.00     0.141 N 
ATOM      2  C   UNL d   1      11.418   2.908 -15.846  0.00  0.00     0.274 C 
ATOM      3  C   UNL d   1      11.726   1.534 -16.473  0.00  0.00     0.138 C 
ATOM      4  N   UNL d   1      10.512   0.937 -17.017  0.00  0.00    -0.330 N 
ATOM      5  C   UNL d   1       9.404   0.872 -16.068  0.00  0.00     0.138 C 
ATOM      6  C   UNL d   1       9.149   2.265 -15.471  0.00  0.00     0.274 C 
ENDROOT
BRANCH   4   7
ATOM      7  C   UNL d   1      10.432   0.469 -18.348  0.00  0.00     0.143 A 
ATOM      8  N   UNL d   1      11.589   0.303 -19.026  0.00  0.00    -0.214 NA
ATOM      9  C   UNL d   1      11.535  -0.134 -20.288  0.00  0.00     0.140 A 
ATOM     10  N   UNL d   1      10.411  -0.377 -20.963  0.00  0.00    -0.227 NA
ATOM     11  C   UNL d   1       9.241  -0.233 -20.310  0.00  0.00     0.157 A 
ATOM     12  C   UNL d   1       9.199   0.198 -18.970  0.00  0.00     0.060 A 
BRANCH   9  13
ATOM     13  C   UNL d   1      12.851  -0.143 -21.088  0.00  0.00     0.052 C 
ATOM     14  C   UNL d   1      14.007  -0.702 -20.231  0.00  0.00     0.008 C 
ATOM     15  C   UNL d   1      13.181   1.289 -21.549  0.00  0.00     0.008 C 
ATOM     16  C   UNL d   1      12.743  -1.061 -22.328  0.00  0.00     0.008 C 
ENDBRANCH   9  13
BRANCH  11  17
ATOM     17  C   UNL d   1       7.965  -0.545 -21.085  0.00  0.00     0.435 C 
ATOM     18  F   UNL d   1       6.880  -0.359 -20.334  0.00  0.00    -0.165 F 
ATOM     19  F   UNL d   1       7.880   0.252 -22.149  0.00  0.00    -0.165 F 
ATOM     20  F   UNL d   1       7.986  -1.815 -21.488  0.00  0.00    -0.165 F 
ENDBRANCH  11  17
ENDBRANCH   4   7
BRANCH   1  21
ATOM     21  C   UNL d   1      10.082   4.095 -14.242  0.00  0.00     0.251 C 
BRANCH  21  22
ATOM     22  C   UNL d   1       9.298   3.938 -12.928  0.00  0.00     0.037 C 
BRANCH  22  23
ATOM     23  C   UNL d   1       9.246   5.222 -12.106  0.00  0.00     0.029 C 
BRANCH  23  24
ATOM     24  C   UNL d   1       8.439   5.060 -10.811  0.00  0.00     0.131 C 
BRANCH  24  25
ATOM     25  N   UNL d   1       8.659   6.206  -9.943  0.00  0.00    -0.217 NA
ATOM     26  C   UNL d   1       9.563   6.226  -8.950  0.00  0.00     0.360 C 
ATOM     27  N   UNL d   1       9.648   7.418  -8.346  0.00  0.00    -0.221 NA
ATOM     28  O   UNL d   1      10.244   5.250  -8.647  0.00  0.00    -0.243 OA
BRANCH  27  29
ATOM     29  C   UNL d   1      10.665   7.883  -7.384  0.00  0.00     0.089 C 
ATOM     30  C   UNL d   1      11.063   6.807  -6.357  0.00  0.00     0.025 C 
ATOM     31  C   UNL d   1      10.071   9.078  -6.620  0.00  0.00     0.025 C 
ATOM     32  C   UNL d   1      11.911   8.370  -8.153  0.00  0.00     0.025 C 
ENDBRANCH  27  29
ENDBRANCH  24  25
ENDBRANCH  23  24
ENDBRANCH  22  23
ENDBRANCH  21  22
ENDBRANCH   1  21
TORSDOF 9
