REMARK  6 active torsions:
REMARK  status: ('A' for Active; 'I' for Inactive)
REMARK    1  A    between atoms: C_6  and  O_7 
REMARK    2  A    between atoms: O_7  and  C_8 
REMARK    3  A    between atoms: C_8  and  C_9 
REMARK    4  A    between atoms: C_9  and  N_10 
REMARK    5  A    between atoms: C_13  and  C_14 
REMARK    6  A    between atoms: C_14  and  C_15 
ROOT
ATOM      1  N   UNL d   1       9.958   3.015 -14.989  0.00  0.00     0.140 N 
ATOM      2  C   UNL d   1       9.579   4.382 -15.350  0.00  0.00     0.250 C 
ATOM      3  C   UNL d   1       8.645   4.961 -14.270  0.00  0.00     0.036 C 
ATOM      4  C   UNL d   1       9.350   4.989 -12.916  0.00  0.00     0.008 C 
ATOM      5  C   UNL d   1       9.878   3.582 -12.621  0.00  0.00     0.036 C 
ATOM      6  C   UNL d   1      10.749   3.052 -13.770  0.00  0.00     0.250 C 
ENDROOT
BRANCH   1   7
ATOM      7  C   UNL d   1      10.802   2.419 -16.034  0.00  0.00     0.283 C 
BRANCH   7   8
ATOM      8  C   UNL d   1      10.013   2.121 -17.325  0.00  0.00     0.184 C 
BRANCH   8   9
ATOM      9  O   UNL d   1      10.853   1.493 -18.276  0.00  0.00    -0.329 OA
BRANCH   9  10
ATOM     10  C   UNL d   1      12.024   2.119 -18.636  0.00  0.00     0.096 A 
ATOM     11  C   UNL d   1      13.033   1.329 -19.244  0.00  0.00     0.040 A 
ATOM     12  C   UNL d   1      12.806  -0.038 -19.513  0.00  0.00     0.005 A 
ATOM     13  C   UNL d   1      14.299   1.887 -19.580  0.00  0.00     0.084 A 
ATOM     14  C   UNL d   1      13.827  -0.798 -20.109  0.00  0.00     0.015 A 
ATOM     15  C   UNL d   1      15.041  -0.154 -20.407  0.00  0.00     0.059 A 
ATOM     16  C   UNL d   1      16.170  -0.897 -21.075  0.00  0.00     0.052 C 
ATOM     17  N   UNL d   1      15.283   1.145 -20.131  0.00  0.00    -0.250 NA
ATOM     18  C   UNL d   1      14.532   3.243 -19.292  0.00  0.00     0.031 A 
ATOM     19  C   UNL d   1      13.540   4.039 -18.703  0.00  0.00     0.061 A 
ATOM     20  C   UNL d   1      12.263   3.486 -18.390  0.00  0.00     0.036 A 
ATOM     21 CL   UNL d   1      13.869   5.686 -18.318  0.00  0.00    -0.082 Cl
ENDBRANCH   9  10
ENDBRANCH   8   9
ENDBRANCH   7   8
ENDBRANCH   1   7
BRANCH   4  22
ATOM     22  C   UNL d   1       8.402   5.467 -11.797  0.00  0.00     0.029 C 
BRANCH  22  23
ATOM     23  C   UNL d   1       9.079   6.378 -10.792  0.00  0.00     0.007 A 
ATOM     24  C   UNL d   1       9.494   7.672 -11.170  0.00  0.00     0.138 A 
ATOM     25  C   UNL d   1      10.132   8.517 -10.250  0.00  0.00     0.055 A 
ATOM     26  F   UNL d   1       9.292   8.107 -12.435  0.00  0.00    -0.204 F 
ATOM     27  C   UNL d   1      10.314   8.102  -8.922  0.00  0.00     0.115 A 
ATOM     28  C   UNL d   1       9.895   6.812  -8.543  0.00  0.00     0.106 A 
ATOM     29  O   UNL d   1      10.937   8.939  -8.027  0.00  0.00    -0.319 OA
ATOM     30  C   UNL d   1       9.287   5.942  -9.467  0.00  0.00     0.019 A 
ATOM     31  N   UNL d   1      10.142   6.384  -7.225  0.00  0.00    -0.208 NA
ATOM     32  C   UNL d   1      10.590   7.220  -6.278  0.00  0.00     0.286 C 
ATOM     33  C   UNL d   1      10.668   8.713  -6.638  0.00  0.00     0.238 C 
ATOM     34  O   UNL d   1      10.903   6.828  -5.157  0.00  0.00    -0.267 OA
ENDBRANCH  22  23
ENDBRANCH   4  22
TORSDOF 6
