REMARK  3 active torsions:
REMARK  status: ('A' for Active; 'I' for Inactive)
REMARK    1  A    between atoms: C_8  and  C_9 
REMARK    2  A    between atoms: C_9  and  N_10 
REMARK    3  A    between atoms: N_13  and  C_14 
ROOT
ATOM      1  N   UNL d   1       4.192  -0.832 -14.406  0.00  0.00    -0.191 NA
ATOM      2  C   UNL d   1       4.986   0.003 -14.306  0.00  0.00     0.101 C 
ATOM      3  C   UNL d   1       5.968   1.066 -14.179  0.00  0.00     0.070 A 
ATOM      4  C   UNL d   1       7.146   1.039 -14.953  0.00  0.00     0.010 A 
ATOM      5  C   UNL d   1       8.080   2.092 -14.865  0.00  0.00     0.002 A 
ATOM      6  C   UNL d   1       7.857   3.201 -14.013  0.00  0.00     0.019 A 
ATOM      7  C   UNL d   1       8.596   4.386 -13.675  0.00  0.00     0.018 A 
ATOM      8  C   UNL d   1       7.849   5.079 -12.754  0.00  0.00     0.092 A 
ATOM      9  N   UNL d   1       6.684   4.377 -12.506  0.00  0.00    -0.248 NA
ATOM     10  C   UNL d   1       6.650   3.212 -13.252  0.00  0.00     0.082 A 
ATOM     11  C   UNL d   1       5.724   2.158 -13.319  0.00  0.00     0.029 A 
ENDROOT
BRANCH   8  12
ATOM     12  C   UNL d   1       8.155   6.378 -12.085  0.00  0.00     0.296 C 
BRANCH  12  13
ATOM     13  N   UNL d   1       9.267   6.293 -11.137  0.00  0.00     0.147 N 
ATOM     14  C   UNL d   1       9.812   7.639 -10.905  0.00  0.00     0.275 C 
ATOM     15  C   UNL d   1      11.001   7.587  -9.938  0.00  0.00     0.137 C 
ATOM     16  N   UNL d   1      10.591   6.956  -8.691  0.00  0.00    -0.344 N 
ATOM     17  C   UNL d   1       9.925   5.659  -8.830  0.00  0.00     0.137 C 
ATOM     18  C   UNL d   1       8.787   5.738  -9.862  0.00  0.00     0.275 C 
BRANCH  16  19
ATOM     19  C   UNL d   1      10.791   7.580  -7.447  0.00  0.00     0.056 A 
ATOM     20  C   UNL d   1      10.726   8.986  -7.314  0.00  0.00     0.017 A 
ATOM     21  C   UNL d   1      10.935   9.607  -6.067  0.00  0.00     0.002 A 
ATOM     22  C   UNL d   1      11.198   8.830  -4.930  0.00  0.00     0.000 A 
ATOM     23  C   UNL d   1      11.261   7.430  -5.044  0.00  0.00     0.002 A 
ATOM     24  C   UNL d   1      11.063   6.811  -6.296  0.00  0.00     0.017 A 
ENDBRANCH  16  19
ENDBRANCH  12  13
ENDBRANCH   8  12
TORSDOF 3
