REMARK  8 active torsions:
REMARK  status: ('A' for Active; 'I' for Inactive)
REMARK    1  A    between atoms: O_2  and  C_3 
REMARK    2  A    between atoms: C_8  and  N_9 
REMARK    3  A    between atoms: N_12  and  C_13 
REMARK    4  A    between atoms: C_13  and  C_14 
REMARK    5  A    between atoms: C_14  and  C_15 
REMARK    6  A    between atoms: C_15  and  C_16 
REMARK    7  A    between atoms: C_16  and  N_17 
REMARK    8  A    between atoms: C_22  and  C_23 
ROOT
ATOM      1  C   UNL d   1       9.655   4.925 -13.400  0.00  0.00     0.026 C 
ENDROOT
BRANCH   1   2
ATOM      2  C   UNL d   1       9.207   4.663 -14.851  0.00  0.00     0.037 C 
BRANCH   2   3
ATOM      3  C   UNL d   1      10.174   3.737 -15.626  0.00  0.00     0.251 C 
BRANCH   3   4
ATOM      4  N   UNL d   1       9.653   2.383 -15.813  0.00  0.00     0.141 N 
ATOM      5  C   UNL d   1       9.042   1.857 -14.577  0.00  0.00     0.274 C 
ATOM      6  C   UNL d   1       8.576   0.408 -14.780  0.00  0.00     0.137 C 
ATOM      7  N   UNL d   1       7.661   0.371 -15.914  0.00  0.00    -0.343 N 
ATOM      8  C   UNL d   1       8.188   0.901 -17.163  0.00  0.00     0.137 C 
ATOM      9  C   UNL d   1       8.706   2.333 -16.938  0.00  0.00     0.274 C 
BRANCH   7  10
ATOM     10  C   UNL d   1       6.350  -0.144 -15.824  0.00  0.00     0.079 A 
ATOM     11  C   UNL d   1       5.497   0.176 -14.735  0.00  0.00     0.110 A 
ATOM     12  C   UNL d   1       4.208  -0.408 -14.662  0.00  0.00     0.026 A 
ATOM     13  C   UNL d   1       3.763  -1.286 -15.670  0.00  0.00     0.002 A 
ATOM     14  C   UNL d   1       4.601  -1.594 -16.754  0.00  0.00     0.002 A 
ATOM     15  C   UNL d   1       5.879  -1.017 -16.835  0.00  0.00     0.019 A 
BRANCH  11  16
ATOM     16  O   UNL d   1       5.966   1.088 -13.808  0.00  0.00    -0.327 OA
ATOM     17  C   UNL d   1       5.216   1.314 -12.635  0.00  0.00     0.181 C 
ENDBRANCH  11  16
ENDBRANCH   7  10
ENDBRANCH   3   4
ENDBRANCH   2   3
ENDBRANCH   1   2
BRANCH   1  18
ATOM     18  C   UNL d   1       8.512   5.503 -12.550  0.00  0.00     0.104 C 
BRANCH  18  19
ATOM     19  N   UNL d   1       8.975   5.840 -11.201  0.00  0.00    -0.316 N 
ATOM     20  C   UNL d   1       9.454   7.071 -10.919  0.00  0.00     0.257 C 
ATOM     21  C   UNL d   1       9.933   7.316  -9.518  0.00  0.00     0.052 A 
ATOM     22  O   UNL d   1       9.485   7.987 -11.752  0.00  0.00    -0.267 OA
ATOM     23  C   UNL d   1       9.557   6.450  -8.465  0.00  0.00    -0.016 A 
ATOM     24  C   UNL d   1      10.716   8.451  -9.230  0.00  0.00     0.004 A 
ATOM     25  C   UNL d   1       8.699   5.245  -8.768  0.00  0.00     0.051 C 
ATOM     26  C   UNL d   1       9.959   6.731  -7.144  0.00  0.00    -0.004 A 
ATOM     27  C   UNL d   1       8.905   4.755 -10.210  0.00  0.00     0.109 C 
ATOM     28  C   UNL d   1      10.741   7.867  -6.857  0.00  0.00     0.006 A 
ATOM     29  C   UNL d   1      11.120   8.721  -7.914  0.00  0.00     0.001 A 
BRANCH  28  30
ATOM     30  C   UNL d   1      11.171   8.131  -5.489  0.00  0.00     0.029 A 
ATOM     31  S   UNL d   1      11.367   9.780  -4.953  0.00  0.00    -0.086 SA
ATOM     32  C   UNL d   1      11.869   9.248  -3.371  0.00  0.00     0.035 A 
ATOM     33  C   UNL d   1      11.865   7.882  -3.275  0.00  0.00     0.007 A 
ATOM     34  C   UNL d   1      11.463   7.242  -4.485  0.00  0.00     0.007 A 
ENDBRANCH  28  30
ENDBRANCH  18  19
ENDBRANCH   1  18
TORSDOF 8
