REMARK  8 active torsions:
REMARK  status: ('A' for Active; 'I' for Inactive)
REMARK    1  A    between atoms: C_1  and  C_9 
REMARK    2  A    between atoms: C_2  and  C_3 
REMARK    3  A    between atoms: C_9  and  O_10 
REMARK    4  A    between atoms: O_10  and  C_11 
REMARK    5  A    between atoms: C_11  and  C_12 
REMARK    6  A    between atoms: N_15  and  C_16 
REMARK    7  A    between atoms: C_16  and  C_17 
REMARK    8  A    between atoms: C_17  and  C_18 
ROOT
ATOM      1  C   UNL d   1       9.257   5.404 -11.811  0.00  0.00     0.034 C 
ATOM      2  C   UNL d   1       9.293   4.684 -10.463  0.00  0.00     0.038 C 
ATOM      3  C   UNL d   1      10.013   5.492  -9.389  0.00  0.00     0.250 C 
ATOM      4  N   UNL d   1       9.419   6.806  -9.229  0.00  0.00     0.137 N 
ATOM      5  C   UNL d   1       9.502   7.550 -10.493  0.00  0.00     0.250 C 
ATOM      6  C   UNL d   1       8.737   6.830 -11.617  0.00  0.00     0.038 C 
ENDROOT
BRANCH   1   7
ATOM      7  C   UNL d   1       8.431   4.642 -12.858  0.00  0.00     0.143 C 
BRANCH   7   8
ATOM      8  O   UNL d   1       9.203   3.545 -13.329  0.00  0.00    -0.349 OA
BRANCH   8   9
ATOM      9  C   UNL d   1       8.828   3.072 -14.621  0.00  0.00     0.169 C 
BRANCH   9  10
ATOM     10  C   UNL d   1       7.547   2.265 -14.597  0.00  0.00     0.006 C 
ATOM     11  C   UNL d   1       7.362   1.112 -15.272  0.00  0.00    -0.002 C 
BRANCH  11  12
ATOM     12  C   UNL d   1       6.138   0.298 -15.231  0.00  0.00    -0.000 A 
ATOM     13  C   UNL d   1       5.229   0.380 -14.149  0.00  0.00    -0.000 A 
ATOM     14  C   UNL d   1       4.038  -0.369 -14.162  0.00  0.00    -0.000 A 
ATOM     15  C   UNL d   1       3.749  -1.211 -15.246  0.00  0.00    -0.000 A 
ATOM     16  C   UNL d   1       4.640  -1.296 -16.332  0.00  0.00    -0.000 A 
ATOM     17  C   UNL d   1       5.830  -0.539 -16.326  0.00  0.00    -0.000 A 
ENDBRANCH  11  12
ENDBRANCH   9  10
ENDBRANCH   8   9
ENDBRANCH   7   8
ENDBRANCH   1   7
BRANCH   4  18
ATOM     18  C   UNL d   1      10.097   7.560  -8.189  0.00  0.00     0.255 C 
BRANCH  18  19
ATOM     19  C   UNL d   1       9.795   7.013  -6.780  0.00  0.00     0.062 C 
BRANCH  19  20
ATOM     20  C   UNL d   1      10.628   7.687  -5.708  0.00  0.00    -0.020 A 
ATOM     21  C   UNL d   1      11.364   6.912  -4.786  0.00  0.00    -0.004 A 
ATOM     22  C   UNL d   1      12.133   7.537  -3.781  0.00  0.00    -0.000 A 
ATOM     23  C   UNL d   1      12.172   8.942  -3.708  0.00  0.00    -0.000 A 
ATOM     24  C   UNL d   1      11.442   9.715  -4.634  0.00  0.00    -0.000 A 
ATOM     25  C   UNL d   1      10.675   9.092  -5.634  0.00  0.00    -0.004 A 
ENDBRANCH  19  20
ENDBRANCH  18  19
ENDBRANCH   4  18
TORSDOF 8
