REMARK  3 active torsions:
REMARK  status: ('A' for Active; 'I' for Inactive)
REMARK    1  A    between atoms: C_2  and  C_3 
REMARK    2  A    between atoms: C_3  and  N_4 
REMARK    3  A    between atoms: C_12  and  O_13 
ROOT
ATOM      1  N   UNL d   1       9.274   1.031 -16.944  0.00  0.00     0.140 N 
ATOM      2  C   UNL d   1       7.962   0.595 -17.438  0.00  0.00     0.251 C 
ATOM      3  C   UNL d   1       6.968   1.302 -16.521  0.00  0.00     0.042 C 
ATOM      4  C   UNL d   1       7.647   1.219 -15.159  0.00  0.00     0.055 C 
ATOM      5  C   UNL d   1       7.316   2.437 -14.288  0.00  0.00    -0.023 A 
ATOM      6  C   UNL d   1       6.072   2.506 -13.640  0.00  0.00    -0.004 A 
ATOM      7  C   UNL d   1       5.755   3.620 -12.837  0.00  0.00     0.002 A 
ATOM      8  C   UNL d   1       6.687   4.665 -12.671  0.00  0.00     0.024 A 
ATOM      9  C   UNL d   1       7.944   4.609 -13.303  0.00  0.00     0.090 A 
ATOM     10  C   UNL d   1       8.254   3.482 -14.113  0.00  0.00    -0.004 A 
ATOM     11  C   UNL d   1       9.608   3.370 -14.757  0.00  0.00     0.030 C 
ATOM     12  C   UNL d   1      10.101   1.934 -14.703  0.00  0.00     0.038 C 
ATOM     13  C   UNL d   1       9.153   0.980 -15.474  0.00  0.00     0.224 C 
ENDROOT
BRANCH   1  14
ATOM     14  C   UNL d   1      10.342   0.209 -17.531  0.00  0.00     0.276 C 
BRANCH  14  15
ATOM     15  C   UNL d   1      11.751   0.804 -17.437  0.00  0.00     0.009 C 
ATOM     16  C   UNL d   1      12.539   1.087 -18.483  0.00  0.00    -0.003 C 
ENDBRANCH  14  15
ENDBRANCH   1  14
BRANCH   9  17
ATOM     17  O   UNL d   1       8.909   5.588 -13.185  0.00  0.00    -0.328 OA
ATOM     18  C   UNL d   1       8.616   6.730 -12.393  0.00  0.00     0.181 C 
ENDBRANCH   9  17
TORSDOF 3
