REMARK  6 active torsions:
REMARK  status: ('A' for Active; 'I' for Inactive)
REMARK    1  A    between atoms: C_2  and  C_3 
REMARK    2  A    between atoms: C_3  and  N_4 
REMARK    3  A    between atoms: N_7  and  C_8 
REMARK    4  A    between atoms: C_10  and  N_11 
REMARK    5  A    between atoms: N_11  and  C_12 
REMARK    6  A    between atoms: C_12  and  C_13 
ROOT
ATOM      1  C   UNL d   1       9.376   4.601 -13.211  0.00  0.00     0.729 A 
ATOM      2  N   UNL d   1       8.600   3.622 -13.678  0.00  0.00    -0.042 NA
ATOM      3  C   UNL d   1       8.972   2.997 -14.814  0.00  0.00     0.178 A 
ATOM      4  C   UNL d   1      10.170   3.348 -15.478  0.00  0.00     0.054 A 
ATOM      5  C   UNL d   1      10.618   2.716 -16.662  0.00  0.00     0.005 A 
ATOM      6  C   UNL d   1      11.822   3.130 -17.265  0.00  0.00     0.000 A 
ATOM      7  C   UNL d   1      12.579   4.170 -16.692  0.00  0.00     0.002 A 
ATOM      8  C   UNL d   1      12.129   4.796 -15.516  0.00  0.00     0.020 A 
ATOM      9  C   UNL d   1      10.932   4.395 -14.892  0.00  0.00     0.103 A 
ATOM     10  N   UNL d   1      10.520   5.012 -13.763  0.00  0.00    -0.061 NA
ENDROOT
BRANCH   1  11
ATOM     11  N   UNL d   1       8.930   5.276 -12.080  0.00  0.00    -0.179 N 
ATOM     12  C   UNL d   1       9.268   6.665 -11.762  0.00  0.00     0.155 C 
ATOM     13  C   UNL d   1       9.871   6.768 -10.343  0.00  0.00     0.275 C 
ATOM     14  N   UNL d   1       8.998   6.164  -9.331  0.00  0.00     0.144 N 
ATOM     15  C   UNL d   1       8.689   4.783  -9.693  0.00  0.00     0.275 C 
ATOM     16  C   UNL d   1       8.040   4.680 -11.089  0.00  0.00     0.155 C 
BRANCH  14  17
ATOM     17  C   UNL d   1       9.515   6.296  -7.969  0.00  0.00     0.286 C 
BRANCH  17  18
ATOM     18  C   UNL d   1       9.328   7.696  -7.370  0.00  0.00     0.218 C 
ATOM     19  O   UNL d   1       9.857   7.694  -6.065  0.00  0.00    -0.218 OA
ENDBRANCH  17  18
ENDBRANCH  14  17
ENDBRANCH   1  11
BRANCH   3  20
ATOM     20  N   UNL d   1       8.117   2.013 -15.341  0.00  0.00    -0.247 NA
BRANCH  20  21
ATOM     21  C   UNL d   1       6.953   1.536 -14.607  0.00  0.00     0.154 C 
BRANCH  21  22
ATOM     22  C   UNL d   1       6.124   0.455 -15.293  0.00  0.00     0.002 A 
ATOM     23  C   UNL d   1       4.955  -0.010 -14.654  0.00  0.00    -0.002 A 
ATOM     24  C   UNL d   1       4.150  -0.995 -15.265  0.00  0.00    -0.000 A 
ATOM     25  C   UNL d   1       4.515  -1.525 -16.514  0.00  0.00    -0.000 A 
ATOM     26  C   UNL d   1       5.681  -1.072 -17.155  0.00  0.00    -0.000 A 
ATOM     27  C   UNL d   1       6.487  -0.087 -16.551  0.00  0.00    -0.002 A 
ENDBRANCH  21  22
ENDBRANCH  20  21
ENDBRANCH   3  20
TORSDOF 6
