REMARK  5 active torsions:
REMARK  status: ('A' for Active; 'I' for Inactive)
REMARK       I    between atoms: C_2  and  N_4 
REMARK    1  A    between atoms: N_4  and  C_5 
REMARK    2  A    between atoms: C_10  and  C_11 
REMARK    3  A    between atoms: C_11  and  C_12 
REMARK    4  A    between atoms: C_12  and  N_13 
REMARK    5  A    between atoms: N_16  and  C_17 
ROOT
ATOM      1  N   UNL d   1      10.238   6.087  -9.289  0.00  0.00     0.141 N 
ATOM      2  C   UNL d   1       9.570   7.364  -9.073  0.00  0.00     0.274 C 
ATOM      3  C   UNL d   1      10.547   8.446  -8.637  0.00  0.00     0.138 C 
ATOM      4  N   UNL d   1      11.180   8.039  -7.405  0.00  0.00    -0.329 N 
ATOM      5  C   UNL d   1      11.838   6.782  -7.509  0.00  0.00     0.138 C 
ATOM      6  C   UNL d   1      10.818   5.743  -7.985  0.00  0.00     0.274 C 
ENDROOT
BRANCH   1   7
ATOM      7  C   UNL d   1       9.407   4.967  -9.746  0.00  0.00     0.255 C 
BRANCH   7   8
ATOM      8  C   UNL d   1       8.418   5.411 -10.834  0.00  0.00     0.062 C 
BRANCH   8   9
ATOM      9  C   UNL d   1       8.522   4.638 -12.098  0.00  0.00    -0.021 A 
ATOM     10  C   UNL d   1       7.372   3.993 -12.556  0.00  0.00    -0.009 A 
ATOM     11  C   UNL d   1       7.459   3.295 -13.769  0.00  0.00    -0.025 A 
ATOM     12  C   UNL d   1       6.396   2.438 -14.377  0.00  0.00     0.028 C 
ATOM     13  C   UNL d   1       8.626   3.300 -14.512  0.00  0.00    -0.004 A 
ATOM     14  C   UNL d   1       6.982   2.058 -15.748  0.00  0.00     0.034 C 
ATOM     15  C   UNL d   1       8.466   2.458 -15.732  0.00  0.00     0.129 C 
ATOM     16  C   UNL d   1       9.767   4.020 -14.116  0.00  0.00    -0.003 A 
ATOM     17  C   UNL d   1       9.704   4.705 -12.885  0.00  0.00    -0.004 A 
BRANCH  15  18
ATOM     18  N   UNL d   1       9.318   1.281 -15.681  0.00  0.00    -0.235 NA
ATOM     19  C   UNL d   1      10.400   1.080 -16.441  0.00  0.00     0.252 C 
ATOM     20  C   UNL d   1      10.855   2.175 -17.407  0.00  0.00     0.100 C 
ATOM     21  O   UNL d   1      11.027   0.033 -16.381  0.00  0.00    -0.271 OA
ENDBRANCH  15  18
ENDBRANCH   8   9
ENDBRANCH   7   8
ENDBRANCH   1   7
BRANCH   4  22
ATOM     22  C   UNL d   1      11.166   8.779  -6.233  0.00  0.00     0.148 C 
ATOM     23  C   UNL d   1      11.554   8.286  -4.908  0.00  0.00     0.042 A 
ATOM     24  C   UNL d   1      11.447   9.362  -3.993  0.00  0.00     0.050 A 
ATOM     25  C   UNL d   1      11.994   7.061  -4.322  0.00  0.00     0.004 A 
ATOM     26  S   UNL d   1      10.666  10.685  -4.826  0.00  0.00     0.015 SA
ATOM     27  C   UNL d   1      11.796   9.235  -2.643  0.00  0.00     0.008 A 
ATOM     28  N   UNL d   1      10.761  10.019  -6.330  0.00  0.00    -0.192 NA
ATOM     29  C   UNL d   1      12.245   8.003  -2.140  0.00  0.00     0.001 A 
ATOM     30  C   UNL d   1      12.361   6.921  -2.995  0.00  0.00     0.000 A 
ENDBRANCH   4  22
TORSDOF 5
