REMARK  7 active torsions:
REMARK  status: ('A' for Active; 'I' for Inactive)
REMARK    1  A    between atoms: C_3  and  S_4 
REMARK    2  A    between atoms: S_4  and  C_5 
REMARK    3  A    between atoms: C_5  and  C_6 
REMARK    4  A    between atoms: C_6  and  C_7 
REMARK    5  A    between atoms: C_7  and  N_8 
REMARK    6  A    between atoms: N_13  and  C_14 
REMARK    7  A    between atoms: C_26  and  C_27 
ROOT
ATOM      1  C   UNL d   1       8.487   2.321 -14.894  0.00  0.00     0.046 A 
ATOM      2  C   UNL d   1       7.548   3.034 -14.107  0.00  0.00     0.012 A 
ATOM      3  C   UNL d   1       6.344   2.435 -13.700  0.00  0.00     0.001 A 
ATOM      4  C   UNL d   1       6.086   1.089 -14.031  0.00  0.00     0.001 A 
ATOM      5  C   UNL d   1       7.020   0.359 -14.784  0.00  0.00     0.011 A 
ATOM      6  C   UNL d   1       8.221   0.969 -15.224  0.00  0.00     0.079 A 
ATOM      7  C   UNL d   1       9.151   0.186 -16.029  0.00  0.00     0.102 C 
ATOM      8  N   UNL d   1       9.896  -0.433 -16.673  0.00  0.00    -0.191 NA
ENDROOT
BRANCH   1   9
ATOM      9  N   UNL d   1       9.659   2.957 -15.348  0.00  0.00    -0.251 NA
ATOM     10  C   UNL d   1      10.743   3.036 -14.382  0.00  0.00     0.077 C 
ATOM     11  C   UNL d   1      11.746   4.016 -15.007  0.00  0.00     0.021 C 
ATOM     12  C   UNL d   1      10.842   5.020 -15.728  0.00  0.00     0.052 C 
ATOM     13  C   UNL d   1      11.266   5.501 -17.128  0.00  0.00     0.252 C 
ATOM     14  C   UNL d   1       9.541   4.269 -15.973  0.00  0.00     0.097 C 
ATOM     15  N   UNL d   1      10.025   5.444 -17.901  0.00  0.00     0.138 N 
ATOM     16  C   UNL d   1       9.416   4.185 -17.494  0.00  0.00     0.266 C 
BRANCH  15  17
ATOM     17  C   UNL d   1      10.238   5.489 -19.343  0.00  0.00     0.251 C 
BRANCH  17  18
ATOM     18  C   UNL d   1      10.274   6.934 -19.860  0.00  0.00     0.047 C 
BRANCH  18  19
ATOM     19  C   UNL d   1       9.777   7.006 -21.318  0.00  0.00     0.067 C 
BRANCH  19  20
ATOM     20  S   UNL d   1       9.550   8.728 -21.875  0.00  0.00    -0.075 SA
BRANCH  20  21
ATOM     21  C   UNL d   1       7.830   8.985 -21.566  0.00  0.00     0.193 A 
ATOM     22  N   UNL d   1       7.101   9.921 -22.209  0.00  0.00    -0.287 N 
ATOM     23  C   UNL d   1       7.539  10.892 -23.215  0.00  0.00     0.134 C 
ATOM     24  C   UNL d   1       5.857   9.711 -21.693  0.00  0.00     0.186 A 
ATOM     25  N   UNL d   1       5.843   8.725 -20.789  0.00  0.00    -0.127 NA
ATOM     26  N   UNL d   1       7.116   8.267 -20.697  0.00  0.00    -0.122 NA
BRANCH  24  27
ATOM     27  C   UNL d   1       4.621  10.441 -22.017  0.00  0.00     0.136 A 
ATOM     28  N   UNL d   1       4.673  11.511 -22.846  0.00  0.00    -0.238 NA
ATOM     29  C   UNL d   1       3.514  12.167 -23.083  0.00  0.00     0.120 A 
ATOM     30  C   UNL d   1       2.298  11.752 -22.493  0.00  0.00     0.120 A 
ATOM     31  N   UNL d   1       2.233  10.695 -21.663  0.00  0.00    -0.239 NA
ATOM     32  C   UNL d   1       3.390  10.034 -21.443  0.00  0.00     0.121 A 
ENDBRANCH  24  27
ENDBRANCH  20  21
ENDBRANCH  19  20
ENDBRANCH  18  19
ENDBRANCH  17  18
ENDBRANCH  15  17
ENDBRANCH   1   9
TORSDOF 7
