REMARK  8 active torsions:
REMARK  status: ('A' for Active; 'I' for Inactive)
REMARK    1  A    between atoms: C_3  and  S_4 
REMARK    2  A    between atoms: S_4  and  C_5 
REMARK    3  A    between atoms: C_5  and  C_6 
REMARK    4  A    between atoms: C_6  and  C_7 
REMARK    5  A    between atoms: C_7  and  N_8 
REMARK    6  A    between atoms: C_13  and  C_14 
REMARK    7  A    between atoms: C_17  and  C_18 
REMARK    8  A    between atoms: C_27  and  C_28 
ROOT
ATOM      1  N   UNL d   1      10.724   4.593 -15.986  0.00  0.00     0.137 N 
ATOM      2  C   UNL d   1      11.219   3.259 -16.221  0.00  0.00     0.250 C 
ATOM      3  C   UNL d   1      12.428   3.496 -17.122  0.00  0.00     0.038 C 
ATOM      4  C   UNL d   1      12.168   4.809 -17.814  0.00  0.00     0.037 A 
ATOM      5  C   UNL d   1      13.321   5.772 -18.069  0.00  0.00     0.007 A 
ATOM      6  C   UNL d   1      12.597   5.135 -19.239  0.00  0.00     0.024 A 
ATOM      7  C   UNL d   1      10.819   5.226 -17.285  0.00  0.00     0.251 C 
ENDROOT
BRANCH   1   8
ATOM      8  C   UNL d   1       9.346   4.613 -15.513  0.00  0.00     0.251 C 
BRANCH   8   9
ATOM      9  C   UNL d   1       9.308   4.520 -13.987  0.00  0.00     0.047 C 
BRANCH   9  10
ATOM     10  C   UNL d   1       7.880   4.746 -13.438  0.00  0.00     0.067 C 
BRANCH  10  11
ATOM     11  S   UNL d   1       7.739   4.487 -11.652  0.00  0.00    -0.075 SA
BRANCH  11  12
ATOM     12  C   UNL d   1       8.699   5.829 -11.026  0.00  0.00     0.193 A 
ATOM     13  N   UNL d   1       9.100   5.887  -9.742  0.00  0.00    -0.289 N 
ATOM     14  C   UNL d   1       8.845   4.951  -8.659  0.00  0.00     0.134 C 
ATOM     15  C   UNL d   1       9.781   7.056  -9.713  0.00  0.00     0.167 A 
ATOM     16  N   UNL d   1       9.835   7.657 -10.904  0.00  0.00    -0.128 NA
ATOM     17  N   UNL d   1       9.104   6.869 -11.761  0.00  0.00    -0.122 NA
BRANCH  15  18
ATOM     18  C   UNL d   1      10.388   7.654  -8.545  0.00  0.00     0.039 A 
ATOM     19  C   UNL d   1       9.710   7.710  -7.311  0.00  0.00     0.024 A 
ATOM     20  C   UNL d   1      10.347   8.317  -6.221  0.00  0.00     0.099 A 
ATOM     21  N   UNL d   1      11.581   8.857  -6.290  0.00  0.00    -0.242 NA
ATOM     22  C   UNL d   1      12.224   8.793  -7.476  0.00  0.00     0.099 A 
ATOM     23  C   UNL d   1      11.678   8.221  -8.630  0.00  0.00     0.024 A 
ENDBRANCH  15  18
ENDBRANCH  11  12
ENDBRANCH  10  11
ENDBRANCH   9  10
ENDBRANCH   8   9
ENDBRANCH   1   8
BRANCH   6  24
ATOM     24  C   UNL d   1      11.669   5.898 -20.159  0.00  0.00    -0.022 A 
ATOM     25  C   UNL d   1      11.156   7.168 -19.770  0.00  0.00    -0.004 A 
ATOM     26  C   UNL d   1      10.265   7.860 -20.585  0.00  0.00     0.004 A 
ATOM     27  C   UNL d   1       9.857   7.329 -21.816  0.00  0.00     0.071 A 
ATOM     28  C   UNL d   1      10.368   6.070 -22.228  0.00  0.00     0.004 A 
ATOM     29  C   UNL d   1      11.260   5.363 -21.396  0.00  0.00    -0.004 A 
BRANCH  27  30
ATOM     30  C   UNL d   1       8.892   8.099 -22.690  0.00  0.00     0.419 C 
ATOM     31  F   UNL d   1       9.526   8.453 -23.806  0.00  0.00    -0.166 F 
ATOM     32  F   UNL d   1       7.850   7.325 -22.993  0.00  0.00    -0.166 F 
ATOM     33  F   UNL d   1       8.435   9.200 -22.087  0.00  0.00    -0.166 F 
ENDBRANCH  27  30
ENDBRANCH   6  24
TORSDOF 8
