REMARK  8 active torsions:
REMARK  status: ('A' for Active; 'I' for Inactive)
REMARK    1  A    between atoms: C_6  and  C_7 
REMARK    2  A    between atoms: C_10  and  S_11 
REMARK    3  A    between atoms: S_11  and  C_12 
REMARK    4  A    between atoms: C_12  and  C_13 
REMARK    5  A    between atoms: C_13  and  C_15 
REMARK    6  A    between atoms: C_15  and  N_16 
REMARK    7  A    between atoms: C_21  and  C_22 
REMARK    8  A    between atoms: C_25  and  C_26 
ROOT
ATOM      1  N   UNL d   1       9.683   3.821 -13.989  0.00  0.00     0.140 N 
ATOM      2  C   UNL d   1       8.534   3.223 -14.659  0.00  0.00     0.250 C 
ATOM      3  C   UNL d   1       7.332   3.824 -13.967  0.00  0.00     0.038 C 
ATOM      4  C   UNL d   1       7.818   4.162 -12.569  0.00  0.00     0.037 A 
ATOM      5  C   UNL d   1       6.902   3.979 -11.382  0.00  0.00     0.007 A 
ATOM      6  C   UNL d   1       7.359   5.362 -11.767  0.00  0.00     0.024 A 
ATOM      7  C   UNL d   1       9.294   3.784 -12.596  0.00  0.00     0.251 C 
ENDROOT
BRANCH   1   8
ATOM      8  C   UNL d   1      10.927   3.120 -14.193  0.00  0.00     0.284 C 
BRANCH   8   9
ATOM      9  C   UNL d   1      11.451   3.164 -15.635  0.00  0.00     0.197 C 
ATOM     10  O   UNL d   1      11.703   1.845 -16.067  0.00  0.00    -0.220 OA
BRANCH   9  11
ATOM     11  C   UNL d   1      12.760   3.943 -15.749  0.00  0.00     0.100 C 
BRANCH  11  12
ATOM     12  S   UNL d   1      12.481   5.687 -16.056  0.00  0.00    -0.073 SA
BRANCH  12  13
ATOM     13  C   UNL d   1      13.960   6.053 -16.957  0.00  0.00     0.193 A 
ATOM     14  N   UNL d   1      15.037   5.277 -17.013  0.00  0.00    -0.122 NA
ATOM     15  N   UNL d   1      15.917   5.941 -17.827  0.00  0.00    -0.126 NA
ATOM     16  C   UNL d   1      15.331   7.085 -18.185  0.00  0.00     0.191 A 
ATOM     17  N   UNL d   1      14.088   7.204 -17.653  0.00  0.00    -0.287 N 
ATOM     18  C   UNL d   1      13.118   8.260 -17.753  0.00  0.00     0.134 C 
BRANCH  16  19
ATOM     19  C   UNL d   1      16.027   8.050 -19.049  0.00  0.00     0.151 A 
ATOM     20  C   UNL d   1      15.923   9.393 -19.351  0.00  0.00     0.087 A 
ATOM     21  C   UNL d   1      14.979  10.457 -18.881  0.00  0.00     0.054 C 
ATOM     22  N   UNL d   1      16.922   9.723 -20.256  0.00  0.00    -0.221 NA
ATOM     23  C   UNL d   1      17.581   8.590 -20.471  0.00  0.00     0.225 A 
ATOM     24  O   UNL d   1      17.085   7.538 -19.770  0.00  0.00    -0.282 OA
ENDBRANCH  16  19
ENDBRANCH  12  13
ENDBRANCH  11  12
ENDBRANCH   9  11
ENDBRANCH   8   9
ENDBRANCH   1   8
BRANCH   6  25
ATOM     25  C   UNL d   1       8.395   6.110 -10.989  0.00  0.00    -0.022 A 
ATOM     26  C   UNL d   1       9.066   7.216 -11.564  0.00  0.00    -0.004 A 
ATOM     27  C   UNL d   1      10.012   7.933 -10.799  0.00  0.00     0.004 A 
ATOM     28  C   UNL d   1      10.323   7.543  -9.480  0.00  0.00     0.071 A 
ATOM     29  C   UNL d   1       9.650   6.447  -8.909  0.00  0.00     0.004 A 
ATOM     30  C   UNL d   1       8.687   5.751  -9.650  0.00  0.00    -0.004 A 
BRANCH  28  31
ATOM     31  C   UNL d   1      11.372   8.298  -8.683  0.00  0.00     0.419 C 
ATOM     32  F   UNL d   1      12.560   8.143  -9.262  0.00  0.00    -0.166 F 
ATOM     33  F   UNL d   1      11.057   9.578  -8.663  0.00  0.00    -0.166 F 
ATOM     34  F   UNL d   1      11.459   7.865  -7.423  0.00  0.00    -0.166 F 
ENDBRANCH  28  31
ENDBRANCH   6  25
TORSDOF 8
