REMARK  8 active torsions:
REMARK  status: ('A' for Active; 'I' for Inactive)
REMARK    1  A    between atoms: C_6  and  C_7 
REMARK    2  A    between atoms: C_10  and  S_11 
REMARK    3  A    between atoms: S_11  and  C_12 
REMARK    4  A    between atoms: C_12  and  C_13 
REMARK    5  A    between atoms: C_13  and  C_14 
REMARK    6  A    between atoms: C_14  and  N_15 
REMARK    7  A    between atoms: N_20  and  C_21 
REMARK    8  A    between atoms: C_24  and  C_25 
ROOT
ATOM      1  N   UNL d   1       9.954   1.962 -15.362  0.00  0.00     0.139 N 
ATOM      2  C   UNL d   1       9.846   0.799 -16.235  0.00  0.00     0.252 C 
ATOM      3  C   UNL d   1      11.210   0.737 -16.936  0.00  0.00     0.058 C 
ATOM      4  C   UNL d   1      11.179   0.515 -18.451  0.00  0.00     0.028 C 
ATOM      5  C   UNL d   1      12.290   1.429 -18.963  0.00  0.00     0.102 C 
ATOM      6  N   UNL d   1      12.301   2.562 -18.048  0.00  0.00    -0.348 N 
ATOM      7  C   UNL d   1      11.819   2.119 -16.745  0.00  0.00     0.117 C 
ATOM      8  C   UNL d   1      10.660   2.943 -16.182  0.00  0.00     0.272 C 
ENDROOT
BRANCH   1   9
ATOM      9  C   UNL d   1       8.636   2.421 -14.940  0.00  0.00     0.251 C 
BRANCH   9  10
ATOM     10  C   UNL d   1       8.733   3.482 -13.832  0.00  0.00     0.047 C 
BRANCH  10  11
ATOM     11  C   UNL d   1       7.393   4.189 -13.591  0.00  0.00     0.067 C 
BRANCH  11  12
ATOM     12  S   UNL d   1       7.057   4.434 -11.839  0.00  0.00    -0.075 SA
BRANCH  12  13
ATOM     13  C   UNL d   1       8.235   5.681 -11.448  0.00  0.00     0.193 A 
ATOM     14  N   UNL d   1       8.610   6.644 -12.289  0.00  0.00    -0.122 NA
ATOM     15  N   UNL d   1       9.480   7.420 -11.566  0.00  0.00    -0.126 NA
ATOM     16  C   UNL d   1       9.565   6.883 -10.350  0.00  0.00     0.191 A 
ATOM     17  N   UNL d   1       8.813   5.751 -10.231  0.00  0.00    -0.287 N 
ATOM     18  C   UNL d   1       8.630   4.888  -9.066  0.00  0.00     0.134 C 
BRANCH  16  19
ATOM     19  C   UNL d   1      10.420   7.472  -9.304  0.00  0.00     0.151 A 
ATOM     20  C   UNL d   1      10.295   7.722  -7.965  0.00  0.00     0.087 A 
ATOM     21  C   UNL d   1       9.153   7.468  -7.014  0.00  0.00     0.054 C 
ATOM     22  N   UNL d   1      11.474   8.303  -7.504  0.00  0.00    -0.221 NA
ATOM     23  C   UNL d   1      12.245   8.389  -8.582  0.00  0.00     0.225 A 
ATOM     24  O   UNL d   1      11.671   7.889  -9.703  0.00  0.00    -0.282 OA
ENDBRANCH  16  19
ENDBRANCH  12  13
ENDBRANCH  11  12
ENDBRANCH  10  11
ENDBRANCH   9  10
ENDBRANCH   1   9
BRANCH   6  25
ATOM     25  C   UNL d   1      13.300   3.554 -18.155  0.00  0.00     0.056 A 
ATOM     26  C   UNL d   1      14.066   3.678 -19.345  0.00  0.00     0.017 A 
ATOM     27  C   UNL d   1      15.057   4.660 -19.470  0.00  0.00     0.005 A 
ATOM     28  C   UNL d   1      15.321   5.560 -18.415  0.00  0.00     0.072 A 
ATOM     29  C   UNL d   1      14.566   5.451 -17.228  0.00  0.00     0.005 A 
ATOM     30  C   UNL d   1      13.569   4.460 -17.104  0.00  0.00     0.017 A 
BRANCH  28  31
ATOM     31  C   UNL d   1      16.393   6.630 -18.551  0.00  0.00     0.419 C 
ATOM     32  F   UNL d   1      15.829   7.837 -18.498  0.00  0.00    -0.166 F 
ATOM     33  F   UNL d   1      17.264   6.508 -17.549  0.00  0.00    -0.166 F 
ATOM     34  F   UNL d   1      17.066   6.530 -19.699  0.00  0.00    -0.166 F 
ENDBRANCH  28  31
ENDBRANCH   6  25
TORSDOF 8
