REMARK  4 active torsions:
REMARK  status: ('A' for Active; 'I' for Inactive)
REMARK    1  A    between atoms: O_2  and  C_3 
REMARK    2  A    between atoms: C_9  and  C_10 
REMARK    3  A    between atoms: C_10  and  N_11 
REMARK    4  A    between atoms: C_14  and  C_16 
ROOT
ATOM      1  N   UNL d   1       9.580   5.935 -11.762  0.00  0.00     0.142 N 
ATOM      2  C   UNL d   1       9.592   4.960 -10.666  0.00  0.00     0.254 C 
ATOM      3  C   UNL d   1      10.263   5.607  -9.432  0.00  0.00     0.070 C 
ATOM      4  C   UNL d   1       9.521   6.821  -8.914  0.00  0.00     0.149 C 
ATOM      5  O   UNL d   1       8.296   6.263  -8.479  0.00  0.00    -0.221 OA
ATOM      6  C   UNL d   1       9.484   7.762 -10.144  0.00  0.00     0.070 C 
ATOM      7  C   UNL d   1       8.784   7.092 -11.340  0.00  0.00     0.254 C 
ENDROOT
BRANCH   1   8
ATOM      8  C   UNL d   1       8.970   5.366 -12.946  0.00  0.00     0.278 C 
BRANCH   8   9
ATOM      9  C   UNL d   1       9.652   4.233 -13.667  0.00  0.00     0.032 A 
ATOM     10  C   UNL d   1      10.995   4.131 -13.927  0.00  0.00     0.097 A 
ATOM     11  N   UNL d   1      11.240   2.932 -14.570  0.00  0.00    -0.244 NA
ATOM     12  C   UNL d   1      10.074   2.246 -14.751  0.00  0.00     0.081 A 
ATOM     13  C   UNL d   1       9.817   1.000 -15.338  0.00  0.00     0.021 A 
ATOM     14  C   UNL d   1       9.028   3.053 -14.201  0.00  0.00     0.019 A 
ATOM     15  C   UNL d   1       8.509   0.520 -15.389  0.00  0.00     0.026 A 
ATOM     16  C   UNL d   1       7.430   1.267 -14.855  0.00  0.00     0.094 A 
ATOM     17  C   UNL d   1       7.713   2.539 -14.277  0.00  0.00     0.025 A 
BRANCH  16  18
ATOM     18  O   UNL d   1       6.128   0.858 -14.845  0.00  0.00    -0.328 OA
ATOM     19  C   UNL d   1       5.830  -0.436 -15.353  0.00  0.00     0.181 C 
ENDBRANCH  16  18
ENDBRANCH   8   9
ENDBRANCH   1   8
BRANCH   4  20
ATOM     20  C   UNL d   1      10.271   7.456  -7.725  0.00  0.00     0.005 A 
ATOM     21  C   UNL d   1      10.126   6.882  -6.435  0.00  0.00    -0.002 A 
ATOM     22  C   UNL d   1      10.802   7.421  -5.319  0.00  0.00     0.006 A 
ATOM     23  C   UNL d   1      11.607   8.569  -5.459  0.00  0.00     0.030 A 
ATOM     24  C   UNL d   1      11.774   9.152  -6.732  0.00  0.00     0.006 A 
ATOM     25  I   UNL d   1      12.591   9.352  -3.774  0.00  0.00    -0.043 I 
ATOM     26  C   UNL d   1      11.124   8.598  -7.861  0.00  0.00    -0.002 A 
ENDBRANCH   4  20
TORSDOF 4
