REMARK  4 active torsions:
REMARK  status: ('A' for Active; 'I' for Inactive)
REMARK    1  A    between atoms: C_2  and  C_3 
REMARK    2  A    between atoms: C_3  and  C_4 
REMARK    3  A    between atoms: N_13  and  C_14 
REMARK    4  A    between atoms: C_14  and  C_15 
ROOT
ATOM      1  O   UNL d   1       8.066   5.955  -9.944  0.00  0.00    -0.226 OA
ATOM      2  C   UNL d   1       9.158   6.655 -10.410  0.00  0.00     0.135 C 
ATOM      3  C   UNL d   1       9.463   7.979  -9.648  0.00  0.00     0.066 C 
ATOM      4  C   UNL d   1       9.675   7.747  -8.168  0.00  0.00     0.253 C 
ATOM      5  N   UNL d   1      10.832   6.892  -7.991  0.00  0.00     0.142 N 
ATOM      6  C   UNL d   1      10.444   5.579  -8.544  0.00  0.00     0.253 C 
ATOM      7  C   UNL d   1      10.296   5.708 -10.091  0.00  0.00     0.066 C 
ENDROOT
BRANCH   5   8
ATOM      8  C   UNL d   1      11.197   6.691  -6.601  0.00  0.00     0.278 C 
BRANCH   8   9
ATOM      9  C   UNL d   1      11.426   7.872  -5.714  0.00  0.00     0.032 A 
ATOM     10  C   UNL d   1      11.821   7.824  -4.337  0.00  0.00     0.017 A 
ATOM     11  C   UNL d   1      11.831   9.171  -3.869  0.00  0.00     0.081 A 
ATOM     12  C   UNL d   1      12.169   6.795  -3.429  0.00  0.00     0.001 A 
ATOM     13  N   UNL d   1      11.459   9.970  -4.911  0.00  0.00    -0.244 NA
ATOM     14  C   UNL d   1      12.222   9.481  -2.572  0.00  0.00     0.019 A 
ATOM     15  C   UNL d   1      11.297   9.206  -6.030  0.00  0.00     0.097 A 
ATOM     16  C   UNL d   1      12.647   8.457  -1.727  0.00  0.00     0.002 A 
ATOM     17  C   UNL d   1      12.570   7.110  -2.116  0.00  0.00     0.000 A 
ENDBRANCH   8   9
ENDBRANCH   5   8
BRANCH   2  18
ATOM     18  C   UNL d   1       8.974   6.972 -11.909  0.00  0.00     0.057 C 
BRANCH  18  19
ATOM     19  C   UNL d   1       8.824   5.734 -12.775  0.00  0.00    -0.020 A 
ATOM     20  C   UNL d   1       7.658   4.952 -12.675  0.00  0.00    -0.003 A 
ATOM     21  C   UNL d   1       7.529   3.787 -13.447  0.00  0.00     0.011 A 
ATOM     22  C   UNL d   1       8.557   3.398 -14.326  0.00  0.00     0.058 A 
ATOM     23  C   UNL d   1       9.723   4.174 -14.429  0.00  0.00     0.011 A 
ATOM     24 CL   UNL d   1       8.378   1.983 -15.295  0.00  0.00    -0.082 Cl
ATOM     25  C   UNL d   1       9.854   5.332 -13.648  0.00  0.00    -0.003 A 
ENDBRANCH  18  19
ENDBRANCH   2  18
TORSDOF 4
