REMARK  4 active torsions:
REMARK  status: ('A' for Active; 'I' for Inactive)
REMARK    1  A    between atoms: C_2  and  C_3 
REMARK    2  A    between atoms: C_3  and  N_4 
REMARK    3  A    between atoms: N_4  and  C_5 
REMARK    4  A    between atoms: C_9  and  C_10 
ROOT
ATOM      1  C   UNL d   1      11.193   8.942  -8.015  0.00  0.00     0.261 C 
ATOM      2  C   UNL d   1      10.496   9.545  -9.234  0.00  0.00     0.041 C 
ATOM      3  C   UNL d   1      10.298   8.530 -10.360  0.00  0.00     0.028 C 
ATOM      4  C   UNL d   1       9.758   7.177  -9.880  0.00  0.00    -0.021 A 
ATOM      5  C   UNL d   1       9.213   6.208 -10.777  0.00  0.00     0.055 A 
ATOM      6  C   UNL d   1       8.776   4.953 -10.288  0.00  0.00     0.004 A 
ATOM      7  C   UNL d   1       8.869   4.638  -8.933  0.00  0.00    -0.000 A 
ATOM      8  C   UNL d   1       9.390   5.601  -8.054  0.00  0.00    -0.004 A 
ATOM      9  C   UNL d   1       9.824   6.842  -8.530  0.00  0.00    -0.024 A 
ATOM     10  C   UNL d   1      10.334   7.781  -7.462  0.00  0.00     0.056 C 
ATOM     11  C   UNL d   1       9.113   8.297  -6.631  0.00  0.00     0.007 C 
ENDROOT
BRANCH   1  12
ATOM     12  N   UNL d   1      11.463   9.980  -6.987  0.00  0.00     0.337 N 
BRANCH  12  13
ATOM     13  C   UNL d   1      12.610   9.653  -6.148  0.00  0.00     0.290 C 
BRANCH  13  14
ATOM     14  C   UNL d   1      12.245   8.816  -4.883  0.00  0.00     0.038 C 
ATOM     15  C   UNL d   1      11.371   9.607  -3.883  0.00  0.00     0.002 C 
ENDBRANCH  13  14
ENDBRANCH  12  13
ENDBRANCH   1  12
BRANCH   5  16
ATOM     16  C   UNL d   1       9.050   6.487 -12.191  0.00  0.00     0.296 C 
ATOM     17  N   UNL d   1       8.143   7.430 -12.459  0.00  0.00    -0.102 N 
ATOM     18  O   UNL d   1       9.679   5.876 -13.062  0.00  0.00    -0.264 OA
ENDBRANCH   5  16
TORSDOF 4
