REMARK  13 active torsions:
REMARK  status: ('A' for Active; 'I' for Inactive)
REMARK    1  A    between atoms: C_2  and  C_3 
REMARK    2  A    between atoms: C_3  and  N_4 
REMARK    3  A    between atoms: N_4  and  C_5 
REMARK    4  A    between atoms: N_4  and  C_24 
REMARK    5  A    between atoms: C_5  and  C_6 
REMARK    6  A    between atoms: C_6  and  C_7 
REMARK    7  A    between atoms: C_7  and  C_8 
REMARK    8  A    between atoms: C_8  and  N_9 
REMARK       I    between atoms: N_9  and  C_10 
REMARK    9  A    between atoms: C_10  and  C_12 
REMARK   10  A    between atoms: C_15  and  C_16 
REMARK   11  A    between atoms: C_32  and  O_33 
REMARK   12  A    between atoms: O_33  and  C_34 
REMARK   13  A    between atoms: C_34  and  C_35 
ROOT
ATOM      1  N   UNL d   1      10.848   4.349 -15.639  0.00  0.00     0.135 N 
ENDROOT
BRANCH   1   2
ATOM      2  C   UNL d   1      12.153   4.729 -16.194  0.00  0.00     0.250 C 
BRANCH   2   3
ATOM      3  C   UNL d   1      12.968   5.690 -15.321  0.00  0.00     0.035 C 
ATOM      4  C   UNL d   1      14.279   6.087 -16.012  0.00  0.00     0.002 C 
ENDBRANCH   2   3
ENDBRANCH   1   2
BRANCH   1   5
ATOM      5  C   UNL d   1      10.010   5.506 -15.417  0.00  0.00     0.250 C 
BRANCH   5   6
ATOM      6  C   UNL d   1       8.841   5.224 -14.466  0.00  0.00     0.037 C 
BRANCH   6   7
ATOM      7  C   UNL d   1       8.369   6.354 -13.602  0.00  0.00     0.029 C 
BRANCH   7   8
ATOM      8  C   UNL d   1       7.345   5.964 -12.491  0.00  0.00     0.129 C 
BRANCH   8   9
ATOM      9  N   UNL d   1       7.942   6.332 -11.230  0.00  0.00    -0.234 NA
ATOM     10  C   UNL d   1       9.071   5.790 -10.751  0.00  0.00     0.275 C 
ATOM     11  O   UNL d   1       9.644   4.851 -11.285  0.00  0.00    -0.266 OA
BRANCH  10  12
ATOM     12  C   UNL d   1       9.568   6.421  -9.491  0.00  0.00     0.058 A 
ATOM     13  C   UNL d   1       9.641   7.818  -9.348  0.00  0.00     0.005 A 
ATOM     14  C   UNL d   1      10.091   8.407  -8.152  0.00  0.00     0.000 A 
ATOM     15  C   UNL d   1      10.510   7.612  -7.067  0.00  0.00     0.000 A 
ATOM     16  C   UNL d   1      10.450   6.216  -7.233  0.00  0.00     0.000 A 
ATOM     17  C   UNL d   1       9.986   5.612  -8.426  0.00  0.00     0.005 A 
BRANCH  15  18
ATOM     18  C   UNL d   1      10.984   8.175  -5.782  0.00  0.00     0.000 A 
ATOM     19  C   UNL d   1      11.704   7.413  -4.827  0.00  0.00     0.000 A 
ATOM     20  C   UNL d   1      12.165   7.983  -3.622  0.00  0.00     0.000 A 
ATOM     21  C   UNL d   1      11.883   9.323  -3.334  0.00  0.00     0.000 A 
ATOM     22  C   UNL d   1      11.151  10.077  -4.259  0.00  0.00     0.000 A 
ATOM     23  C   UNL d   1      10.730   9.519  -5.470  0.00  0.00     0.000 A 
ENDBRANCH  15  18
ENDBRANCH  10  12
ENDBRANCH   8   9
ENDBRANCH   7   8
ENDBRANCH   6   7
ENDBRANCH   5   6
ENDBRANCH   1   5
BRANCH   1  24
ATOM     24  C   UNL d   1      10.137   3.361 -16.455  0.00  0.00     0.224 C 
ATOM     25  C   UNL d   1      10.740   1.992 -16.160  0.00  0.00     0.059 C 
ATOM     26  C   UNL d   1      10.273   0.949 -17.133  0.00  0.00    -0.022 A 
ATOM     27  C   UNL d   1       9.660   1.220 -18.380  0.00  0.00    -0.004 A 
ATOM     28  C   UNL d   1      10.518  -0.404 -16.770  0.00  0.00    -0.004 A 
ATOM     29  C   UNL d   1       9.366   2.657 -18.776  0.00  0.00     0.030 C 
ATOM     30  C   UNL d   1       9.279   0.190 -19.260  0.00  0.00     0.090 A 
ATOM     31  C   UNL d   1      10.149   3.676 -17.962  0.00  0.00     0.038 C 
ATOM     32  C   UNL d   1       9.560  -1.152 -18.856  0.00  0.00     0.024 A 
ATOM     33  C   UNL d   1      10.186  -1.439 -17.639  0.00  0.00     0.002 A 
BRANCH  30  34
ATOM     34  O   UNL d   1       8.660   0.473 -20.453  0.00  0.00    -0.331 OA
BRANCH  34  35
ATOM     35  C   UNL d   1       8.290  -0.617 -21.298  0.00  0.00     0.149 C 
BRANCH  35  36
ATOM     36  C   UNL d   1       7.063  -1.346 -20.755  0.00  0.00     0.030 A 
ATOM     37  C   UNL d   1       5.683  -1.105 -21.315  0.00  0.00     0.003 A 
ATOM     38  C   UNL d   1       6.395  -2.403 -21.597  0.00  0.00     0.003 A 
ENDBRANCH  35  36
ENDBRANCH  34  35
ENDBRANCH  30  34
ENDBRANCH   1  24
TORSDOF 13
