REMARK  6 active torsions:
REMARK  status: ('A' for Active; 'I' for Inactive)
REMARK    1  A    between atoms: O_2  and  N_3 
REMARK    2  A    between atoms: C_4  and  C_5 
REMARK    3  A    between atoms: C_4  and  C_19 
REMARK    4  A    between atoms: C_5  and  C_6 
REMARK    5  A    between atoms: C_6  and  N_7 
REMARK    6  A    between atoms: N_10  and  C_11 
ROOT
ATOM      1  C   UNL d   1       8.065   2.577 -14.599  0.00  0.00     0.257 C 
ENDROOT
BRANCH   1   2
ATOM      2  C   UNL d   1       7.648   1.090 -14.336  0.00  0.00     0.083 C 
BRANCH   2   3
ATOM      3  C   UNL d   1       6.125   0.811 -14.422  0.00  0.00     0.087 C 
ATOM      4  N   UNL d   1       5.270   1.268 -13.572  0.00  0.00    -0.136 NA
BRANCH   4   5
ATOM      5  O   UNL d   1       5.940   2.234 -12.822  0.00  0.00    -0.234 OA
ATOM      6  C   UNL d   1       5.063   3.044 -12.051  0.00  0.00     0.211 C 
ENDBRANCH   4   5
BRANCH   3   7
ATOM      7  C   UNL d   1       5.700  -0.007 -15.550  0.00  0.00     0.016 A 
ATOM      8  C   UNL d   1       4.588  -0.839 -15.370  0.00  0.00     0.004 A 
ATOM      9  C   UNL d   1       4.124  -1.613 -16.438  0.00  0.00     0.030 A 
ATOM     10  C   UNL d   1       4.758  -1.567 -17.688  0.00  0.00     0.140 A 
ATOM     11  C   UNL d   1       5.847  -0.703 -17.878  0.00  0.00     0.030 A 
ATOM     12  F   UNL d   1       4.326  -2.347 -18.694  0.00  0.00    -0.204 F 
ATOM     13  C   UNL d   1       6.305   0.099 -16.811  0.00  0.00     0.004 A 
ENDBRANCH   3   7
ENDBRANCH   2   3
ENDBRANCH   1   2
BRANCH   1  14
ATOM     14  N   UNL d   1       9.491   2.787 -14.476  0.00  0.00     0.141 N 
ATOM     15  C   UNL d   1       9.778   4.218 -14.431  0.00  0.00     0.274 C 
ATOM     16  C   UNL d   1      11.298   4.463 -14.256  0.00  0.00     0.138 C 
ATOM     17  N   UNL d   1      12.033   3.814 -15.349  0.00  0.00    -0.330 N 
ATOM     18  C   UNL d   1      11.693   2.403 -15.475  0.00  0.00     0.138 C 
ATOM     19  C   UNL d   1      10.179   2.237 -15.638  0.00  0.00     0.274 C 
BRANCH  17  20
ATOM     20  C   UNL d   1      12.940   4.498 -16.209  0.00  0.00     0.140 A 
ATOM     21  N   UNL d   1      13.158   5.805 -15.942  0.00  0.00    -0.227 NA
ATOM     22  C   UNL d   1      14.078   6.494 -16.636  0.00  0.00     0.101 A 
ATOM     23  C   UNL d   1      14.832   5.939 -17.688  0.00  0.00     0.021 A 
ATOM     24  C   UNL d   1      14.592   4.591 -18.009  0.00  0.00     0.005 A 
ATOM     25  C   UNL d   1      13.640   3.868 -17.276  0.00  0.00     0.037 A 
ENDBRANCH  17  20
ENDBRANCH   1  14
TORSDOF 6
