REMARK  8 active torsions:
REMARK  status: ('A' for Active; 'I' for Inactive)
REMARK    1  A    between atoms: O_2  and  C_3 
REMARK    2  A    between atoms: C_8  and  C_9 
REMARK    3  A    between atoms: C_11  and  C_12 
REMARK    4  A    between atoms: C_12  and  N_13 
REMARK    5  A    between atoms: N_13  and  C_14 
REMARK    6  A    between atoms: C_14  and  C_15 
REMARK    7  A    between atoms: C_15  and  C_16 
REMARK    8  A    between atoms: C_19  and  N_20 
REMARK       I    between atoms: N_20  and  C_21 
REMARK       I    between atoms: C_21  and  N_23 
ROOT
ATOM      1  C   UNL d   1       9.278   5.316 -10.379  0.00  0.00     0.290 C 
ENDROOT
BRANCH   1   2
ATOM      2  N   UNL d   1       9.477   6.694  -9.952  0.00  0.00     0.339 N 
BRANCH   2   3
ATOM      3  C   UNL d   1      10.151   6.819  -8.681  0.00  0.00     0.290 C 
BRANCH   3   4
ATOM      4  C   UNL d   1       9.271   6.321  -7.535  0.00  0.00     0.041 A 
ATOM      5  C   UNL d   1       9.528   6.797  -6.123  0.00  0.00     0.026 A 
ATOM      6  C   UNL d   1       8.274   7.218  -6.839  0.00  0.00     0.007 A 
BRANCH   5   7
ATOM      7  C   UNL d   1      10.591   7.797  -5.772  0.00  0.00    -0.000 C 
ATOM      8  C   UNL d   1      11.456   7.617  -4.645  0.00  0.00     0.090 C 
ATOM      9  C   UNL d   1      12.459   8.585  -4.382  0.00  0.00     0.024 C 
ATOM     10  C   UNL d   1      12.658   9.637  -5.286  0.00  0.00     0.002 C 
ATOM     11  C   UNL d   1      11.765   9.829  -6.362  0.00  0.00    -0.000 C 
ATOM     12  C   UNL d   1      10.724   8.938  -6.579  0.00  0.00    -0.002 C 
BRANCH   8  13
ATOM     13  O   UNL d   1      11.273   6.510  -3.838  0.00  0.00    -0.328 OA
ATOM     14  C   UNL d   1      11.939   6.496  -2.582  0.00  0.00     0.181 C 
ENDBRANCH   8  13
ENDBRANCH   5   7
ENDBRANCH   3   4
ENDBRANCH   2   3
ENDBRANCH   1   2
BRANCH   1  15
ATOM     15  C   UNL d   1       8.442   5.329 -11.661  0.00  0.00     0.038 C 
BRANCH  15  16
ATOM     16  C   UNL d   1       8.768   4.123 -12.556  0.00  0.00     0.002 C 
ATOM     17  C   UNL d   1       9.968   4.421 -13.466  0.00  0.00     0.002 C 
ATOM     18  C   UNL d   1      10.258   3.240 -14.399  0.00  0.00     0.025 C 
ATOM     19  C   UNL d   1       9.006   2.868 -15.216  0.00  0.00     0.108 C 
ATOM     20  C   UNL d   1       7.823   2.547 -14.291  0.00  0.00     0.025 C 
ATOM     21  C   UNL d   1       7.526   3.719 -13.357  0.00  0.00     0.002 C 
BRANCH  19  22
ATOM     22  N   UNL d   1       9.289   1.720 -16.058  0.00  0.00    -0.221 NA
ATOM     23  C   UNL d   1       8.642   1.351 -17.176  0.00  0.00     0.342 C 
ATOM     24  O   UNL d   1       7.704   1.994 -17.655  0.00  0.00    -0.245 OA
ATOM     25  N   UNL d   1       9.111   0.203 -17.721  0.00  0.00    -0.297 N 
ATOM     26  C   UNL d   1       8.478  -0.366 -18.913  0.00  0.00     0.130 C 
ATOM     27  C   UNL d   1      10.225  -0.576 -17.158  0.00  0.00     0.130 C 
ENDBRANCH  19  22
ENDBRANCH  15  16
ENDBRANCH   1  15
TORSDOF 8
