REMARK  6 active torsions:
REMARK  status: ('A' for Active; 'I' for Inactive)
REMARK    1  A    between atoms: N_11  and  C_12 
REMARK    2  A    between atoms: C_12  and  C_13 
REMARK    3  A    between atoms: C_13  and  C_14 
REMARK    4  A    between atoms: C_14  and  C_15 
REMARK    5  A    between atoms: C_15  and  N_16 
REMARK    6  A    between atoms: N_19  and  C_20 
ROOT
ATOM      1  N   UNL d   1       8.569   4.584 -13.011  0.00  0.00     0.141 N 
ATOM      2  C   UNL d   1       9.492   4.215 -11.935  0.00  0.00     0.274 C 
ATOM      3  C   UNL d   1       9.128   4.933 -10.626  0.00  0.00     0.137 C 
ATOM      4  N   UNL d   1       9.133   6.363 -10.856  0.00  0.00    -0.344 N 
ATOM      5  C   UNL d   1       8.292   6.809 -11.955  0.00  0.00     0.137 C 
ATOM      6  C   UNL d   1       8.673   6.030 -13.224  0.00  0.00     0.274 C 
ENDROOT
BRANCH   1   7
ATOM      7  C   UNL d   1       8.945   3.899 -14.246  0.00  0.00     0.251 C 
BRANCH   7   8
ATOM      8  C   UNL d   1       8.593   2.405 -14.194  0.00  0.00     0.037 C 
BRANCH   8   9
ATOM      9  C   UNL d   1       8.616   1.708 -15.561  0.00  0.00     0.027 C 
BRANCH   9  10
ATOM     10  C   UNL d   1       7.301   1.883 -16.349  0.00  0.00     0.112 C 
BRANCH  10  11
ATOM     11  N   UNL d   1       6.855   0.625 -16.963  0.00  0.00    -0.271 N 
ATOM     12  C   UNL d   1       7.003   0.318 -18.256  0.00  0.00     0.239 C 
ATOM     13  O   UNL d   1       7.457   1.062 -19.130  0.00  0.00    -0.272 OA
ATOM     14  C   UNL d   1       6.565  -1.119 -18.517  0.00  0.00     0.088 C 
ATOM     15  C   UNL d   1       5.810  -1.495 -17.217  0.00  0.00     0.088 C 
ATOM     16  C   UNL d   1       5.833  -1.378 -19.856  0.00  0.00     0.010 C 
ATOM     17  C   UNL d   1       4.265  -1.504 -17.305  0.00  0.00     0.010 C 
ATOM     18  C   UNL d   1       6.239  -0.356 -16.288  0.00  0.00     0.239 C 
ATOM     19  C   UNL d   1       3.731  -1.998 -18.648  0.00  0.00     0.001 C 
ATOM     20  C   UNL d   1       4.321  -1.164 -19.785  0.00  0.00     0.001 C 
ATOM     21  O   UNL d   1       5.991  -0.355 -15.081  0.00  0.00    -0.272 OA
ENDBRANCH  10  11
ENDBRANCH   9  10
ENDBRANCH   8   9
ENDBRANCH   7   8
ENDBRANCH   1   7
BRANCH   4  22
ATOM     22  C   UNL d   1       9.799   7.263 -10.007  0.00  0.00     0.057 A 
ATOM     23  C   UNL d   1       9.722   7.173  -8.595  0.00  0.00     0.022 A 
ATOM     24  C   UNL d   1      10.477   8.116  -7.822  0.00  0.00     0.031 A 
ATOM     25  C   UNL d   1       8.987   6.279  -7.749  0.00  0.00     0.009 A 
ATOM     26  C   UNL d   1      11.249   9.109  -8.414  0.00  0.00     0.007 A 
ATOM     27  S   UNL d   1      10.286   7.869  -6.112  0.00  0.00    -0.086 SA
ATOM     28  C   UNL d   1      11.280   9.199  -9.807  0.00  0.00     0.002 A 
ATOM     29  C   UNL d   1      10.535   8.306 -10.585  0.00  0.00     0.017 A 
ATOM     30  C   UNL d   1       9.188   6.576  -6.439  0.00  0.00     0.035 A 
ENDBRANCH   4  22
TORSDOF 6
