REMARK  3 active torsions:
REMARK  status: ('A' for Active; 'I' for Inactive)
REMARK    1  A    between atoms: C_2  and  N_3 
REMARK    2  A    between atoms: N_3  and  C_4 
REMARK       I    between atoms: N_3  and  C_6 
REMARK       I    between atoms: C_6  and  N_8 
REMARK    3  A    between atoms: N_8  and  C_9 
ROOT
ATOM      1  C   UNL d   1       9.472   6.349 -11.917  0.00  0.00     0.152 C 
ATOM      2  C   UNL d   1       9.697   5.046 -12.656  0.00  0.00    -0.003 C 
ATOM      3  C   UNL d   1       8.669   4.445 -13.275  0.00  0.00    -0.004 C 
ATOM      4  C   UNL d   1       8.754   3.171 -13.983  0.00  0.00    -0.001 A 
ATOM      5  C   UNL d   1       9.954   2.538 -14.389  0.00  0.00    -0.000 A 
ATOM      6  C   UNL d   1       9.911   1.211 -14.846  0.00  0.00     0.002 A 
ATOM      7  C   UNL d   1       8.686   0.517 -14.849  0.00  0.00     0.019 A 
ATOM      8  C   UNL d   1       7.518   1.128 -14.426  0.00  0.00     0.081 A 
ATOM      9  N   UNL d   1       6.261   0.649 -14.181  0.00  0.00    -0.244 NA
ATOM     10  C   UNL d   1       5.468   1.612 -13.574  0.00  0.00     0.095 A 
ATOM     11  C   UNL d   1       6.264   2.719 -13.500  0.00  0.00     0.001 A 
ATOM     12  C   UNL d   1       7.562   2.444 -14.030  0.00  0.00     0.015 A 
ATOM     13  C   UNL d   1       6.187   4.080 -12.812  0.00  0.00     0.054 C 
ATOM     14  C   UNL d   1       7.274   5.064 -13.290  0.00  0.00     0.104 C 
ATOM     15  N   UNL d   1       7.188   6.415 -12.757  0.00  0.00    -0.363 N 
ATOM     16  C   UNL d   1       5.865   7.022 -12.633  0.00  0.00     0.121 C 
ATOM     17  C   UNL d   1       8.027   6.629 -11.596  0.00  0.00     0.127 C 
ENDROOT
BRANCH   1  18
ATOM     18  N   UNL d   1      10.230   6.524 -10.717  0.00  0.00    -0.214 NA
ATOM     19  C   UNL d   1       9.973   6.116  -9.468  0.00  0.00     0.342 C 
ATOM     20  N   UNL d   1      10.632   6.894  -8.555  0.00  0.00    -0.301 N 
ATOM     21  O   UNL d   1       9.241   5.163  -9.184  0.00  0.00    -0.245 OA
BRANCH  20  22
ATOM     22  C   UNL d   1      10.520   6.595  -7.123  0.00  0.00     0.106 C 
ATOM     23  C   UNL d   1       9.083   6.687  -6.602  0.00  0.00     0.026 C 
ENDBRANCH  20  22
BRANCH  20  24
ATOM     24  C   UNL d   1      11.566   8.009  -8.894  0.00  0.00     0.106 C 
ATOM     25  C   UNL d   1      10.958   9.142  -9.761  0.00  0.00     0.026 C 
ENDBRANCH  20  24
ENDBRANCH   1  18
TORSDOF 3
