REMARK  10 active torsions:
REMARK  status: ('A' for Active; 'I' for Inactive)
REMARK    1  A    between atoms: C_2  and  C_3 
REMARK       I    between atoms: C_2  and  N_14 
REMARK    2  A    between atoms: C_4  and  C_5 
REMARK    3  A    between atoms: N_14  and  C_15 
REMARK    4  A    between atoms: C_15  and  C_16 
REMARK    5  A    between atoms: C_16  and  C_17 
REMARK    6  A    between atoms: C_17  and  C_18 
REMARK    7  A    between atoms: C_18  and  N_19 
REMARK    8  A    between atoms: C_25  and  O_26 
REMARK    9  A    between atoms: O_26  and  S_27 
REMARK   10  A    between atoms: S_27  and  C_30 
ROOT
ATOM      1  N   UNL d   1       6.751   3.607 -12.523  0.00  0.00     0.142 N 
ATOM      2  C   UNL d   1       5.402   3.048 -12.474  0.00  0.00     0.255 C 
ATOM      3  C   UNL d   1       5.419   1.549 -12.862  0.00  0.00     0.061 C 
ATOM      4  C   UNL d   1       6.199   1.276 -14.124  0.00  0.00    -0.022 A 
ATOM      5  C   UNL d   1       6.096   0.069 -14.847  0.00  0.00    -0.002 A 
ATOM      6  C   UNL d   1       6.855  -0.124 -16.027  0.00  0.00     0.025 A 
ATOM      7  C   UNL d   1       7.704   0.899 -16.506  0.00  0.00     0.113 A 
ATOM      8  C   UNL d   1       7.712   2.109 -15.794  0.00  0.00     0.023 A 
ATOM      9  C   UNL d   1       7.023   2.291 -14.610  0.00  0.00     0.009 A 
ATOM     10  C   UNL d   1       7.157   3.626 -13.921  0.00  0.00     0.277 C 
ENDROOT
BRANCH   1  11
ATOM     11  C   UNL d   1       6.775   4.955 -11.954  0.00  0.00     0.251 C 
BRANCH  11  12
ATOM     12  C   UNL d   1       8.162   5.632 -12.031  0.00  0.00     0.037 C 
BRANCH  12  13
ATOM     13  C   UNL d   1       8.053   7.130 -12.330  0.00  0.00     0.029 C 
BRANCH  13  14
ATOM     14  C   UNL d   1       9.266   7.952 -11.862  0.00  0.00     0.129 C 
BRANCH  14  15
ATOM     15  N   UNL d   1       9.735   7.533 -10.544  0.00  0.00    -0.234 NA
ATOM     16  C   UNL d   1      10.062   8.368  -9.540  0.00  0.00     0.275 C 
ATOM     17  O   UNL d   1      10.019   9.586  -9.620  0.00  0.00    -0.266 OA
BRANCH  16  18
ATOM     18  C   UNL d   1      10.492   7.631  -8.353  0.00  0.00     0.062 C 
ATOM     19  C   UNL d   1      10.767   8.316  -7.224  0.00  0.00     0.006 C 
BRANCH  19  20
ATOM     20  C   UNL d   1      11.218   7.721  -5.980  0.00  0.00     0.021 A 
ATOM     21  C   UNL d   1      11.502   8.358  -4.744  0.00  0.00     0.019 A 
ATOM     22  C   UNL d   1      11.914   7.362  -3.807  0.00  0.00     0.081 A 
ATOM     23  C   UNL d   1      11.469   9.677  -4.303  0.00  0.00     0.002 A 
ATOM     24  N   UNL d   1      11.859   6.189  -4.501  0.00  0.00    -0.244 NA
ATOM     25  C   UNL d   1      12.283   7.657  -2.487  0.00  0.00     0.019 A 
ATOM     26  C   UNL d   1      11.457   6.396  -5.801  0.00  0.00     0.099 A 
ATOM     27  C   UNL d   1      12.258   8.993  -2.088  0.00  0.00     0.002 A 
ATOM     28  C   UNL d   1      11.843   9.984  -2.985  0.00  0.00     0.000 A 
ENDBRANCH  19  20
ENDBRANCH  16  18
ENDBRANCH  14  15
ENDBRANCH  13  14
ENDBRANCH  12  13
ENDBRANCH  11  12
ENDBRANCH   1  11
BRANCH   7  29
ATOM     29  O   UNL d   1       8.477   0.715 -17.631  0.00  0.00    -0.224 OA
BRANCH  29  30
ATOM     30  S   UNL d   1       9.562   1.932 -18.122  0.00  0.00     0.374 S 
ATOM     31  O   UNL d   1      10.318   1.403 -19.259  0.00  0.00    -0.189 OA
ATOM     32  O   UNL d   1       8.768   3.167 -18.312  0.00  0.00    -0.189 OA
BRANCH  30  33
ATOM     33  C   UNL d   1      10.714   2.008 -16.616  0.00  0.00     0.524 C 
ATOM     34  F   UNL d   1      10.808   0.779 -16.102  0.00  0.00    -0.155 F 
ATOM     35  F   UNL d   1      11.916   2.392 -17.036  0.00  0.00    -0.155 F 
ATOM     36  F   UNL d   1      10.339   2.862 -15.656  0.00  0.00    -0.155 F 
ENDBRANCH  30  33
ENDBRANCH  29  30
ENDBRANCH   7  29
TORSDOF 10
