REMARK  11 active torsions:
REMARK  status: ('A' for Active; 'I' for Inactive)
REMARK    1  A    between atoms: C_2  and  C_3 
REMARK    2  A    between atoms: C_3  and  N_4 
REMARK    3  A    between atoms: N_4  and  C_5 
REMARK    4  A    between atoms: N_4  and  C_22 
REMARK    5  A    between atoms: C_5  and  C_6 
REMARK    6  A    between atoms: C_6  and  C_7 
REMARK    7  A    between atoms: C_7  and  C_8 
REMARK    8  A    between atoms: C_8  and  N_9 
REMARK       I    between atoms: N_9  and  C_10 
REMARK    9  A    between atoms: C_10  and  C_12 
REMARK   10  A    between atoms: C_22  and  C_23 
REMARK   11  A    between atoms: C_25  and  C_26 
ROOT
ATOM      1  C   UNL d   1       8.400   6.176 -11.579  0.00  0.00     0.250 C 
ENDROOT
BRANCH   1   2
ATOM      2  N   UNL d   1       8.413   4.772 -12.008  0.00  0.00     0.137 N 
BRANCH   2   3
ATOM      3  C   UNL d   1       7.041   4.263 -11.961  0.00  0.00     0.250 C 
BRANCH   3   4
ATOM      4  C   UNL d   1       6.120   4.976 -12.953  0.00  0.00     0.035 C 
ATOM      5  C   UNL d   1       4.920   4.124 -13.334  0.00  0.00     0.002 C 
ENDBRANCH   3   4
ENDBRANCH   2   3
BRANCH   2   6
ATOM      6  C   UNL d   1       9.081   4.639 -13.317  0.00  0.00     0.251 C 
BRANCH   6   7
ATOM      7  C   UNL d   1       8.795   3.325 -14.058  0.00  0.00     0.038 A 
ATOM      8  C   UNL d   1       9.561   2.979 -15.316  0.00  0.00     0.024 A 
ATOM      9  C   UNL d   1       9.794   2.192 -14.042  0.00  0.00     0.007 A 
BRANCH   8  10
ATOM     10  C   UNL d   1      10.578   3.939 -15.838  0.00  0.00    -0.022 A 
ATOM     11  C   UNL d   1      11.935   3.737 -15.546  0.00  0.00    -0.002 A 
ATOM     12  C   UNL d   1      12.894   4.662 -15.981  0.00  0.00     0.029 A 
ATOM     13  C   UNL d   1      12.499   5.783 -16.729  0.00  0.00     0.140 A 
ATOM     14  C   UNL d   1      11.141   5.982 -17.042  0.00  0.00     0.029 A 
ATOM     15  F   UNL d   1      13.436   6.658 -17.159  0.00  0.00    -0.204 F 
ATOM     16  C   UNL d   1      10.173   5.063 -16.592  0.00  0.00    -0.002 A 
ENDBRANCH   8  10
ENDBRANCH   6   7
ENDBRANCH   2   6
ENDBRANCH   1   2
BRANCH   1  17
ATOM     17  C   UNL d   1       9.754   6.638 -11.028  0.00  0.00     0.037 C 
BRANCH  17  18
ATOM     18  C   UNL d   1       9.859   8.179 -10.971  0.00  0.00     0.029 C 
BRANCH  18  19
ATOM     19  C   UNL d   1      11.095   8.693 -10.223  0.00  0.00     0.129 C 
BRANCH  19  20
ATOM     20  N   UNL d   1      11.199   8.144  -8.877  0.00  0.00    -0.234 NA
ATOM     21  C   UNL d   1      10.453   8.512  -7.832  0.00  0.00     0.275 C 
ATOM     22  O   UNL d   1       9.418   9.180  -7.907  0.00  0.00    -0.266 OA
BRANCH  21  23
ATOM     23  C   UNL d   1      10.973   8.117  -6.502  0.00  0.00     0.058 A 
ATOM     24  C   UNL d   1      11.094   9.068  -5.472  0.00  0.00     0.005 A 
ATOM     25  C   UNL d   1      11.604   8.670  -4.223  0.00  0.00     0.000 A 
ATOM     26  C   UNL d   1      11.969   7.325  -3.994  0.00  0.00     0.000 A 
ATOM     27  C   UNL d   1      11.757   9.602  -3.186  0.00  0.00     0.000 A 
ATOM     28  C   UNL d   1      11.849   6.393  -5.030  0.00  0.00     0.000 A 
ATOM     29  C   UNL d   1      12.492   6.917  -2.755  0.00  0.00     0.000 A 
ATOM     30  C   UNL d   1      11.341   6.773  -6.277  0.00  0.00     0.005 A 
ATOM     31  C   UNL d   1      12.657   7.864  -1.731  0.00  0.00     0.000 A 
ATOM     32  C   UNL d   1      12.266   9.188  -1.946  0.00  0.00     0.000 A 
ENDBRANCH  21  23
ENDBRANCH  19  20
ENDBRANCH  18  19
ENDBRANCH  17  18
ENDBRANCH   1  17
TORSDOF 11
