REMARK  9 active torsions:
REMARK  status: ('A' for Active; 'I' for Inactive)
REMARK    1  A    between atoms: O_2  and  C_3 
REMARK    2  A    between atoms: C_8  and  C_9 
REMARK    3  A    between atoms: C_9  and  C_11 
REMARK    4  A    between atoms: C_11  and  C_12 
REMARK    5  A    between atoms: C_12  and  C_13 
REMARK    6  A    between atoms: C_13  and  C_14 
REMARK    7  A    between atoms: C_14  and  C_15 
REMARK    8  A    between atoms: C_15  and  N_16 
REMARK    9  A    between atoms: N_19  and  C_20 
ROOT
ATOM      1  N   UNL d   1       9.856   6.470 -10.143  0.00  0.00     0.141 N 
ATOM      2  C   UNL d   1      10.305   7.861 -10.206  0.00  0.00     0.274 C 
ATOM      3  C   UNL d   1      11.463   8.099  -9.210  0.00  0.00     0.138 C 
ATOM      4  N   UNL d   1      11.069   7.690  -7.864  0.00  0.00    -0.328 N 
ATOM      5  C   UNL d   1      10.438   6.381  -7.752  0.00  0.00     0.138 C 
ATOM      6  C   UNL d   1       9.329   6.208  -8.802  0.00  0.00     0.274 C 
ENDROOT
BRANCH   1   7
ATOM      7  C   UNL d   1       8.804   6.268 -11.140  0.00  0.00     0.250 C 
BRANCH   7   8
ATOM      8  C   UNL d   1       8.550   4.769 -11.398  0.00  0.00     0.035 C 
BRANCH   8   9
ATOM      9  C   UNL d   1       8.566   4.411 -12.890  0.00  0.00     0.003 C 
BRANCH   9  10
ATOM     10  C   UNL d   1       9.970   4.597 -13.493  0.00  0.00     0.008 C 
BRANCH  10  11
ATOM     11  C   UNL d   1      10.022   4.315 -14.996  0.00  0.00     0.069 C 
BRANCH  11  12
ATOM     12  C   UNL d   1      11.425   4.470 -15.606  0.00  0.00     0.175 C 
ATOM     13  O   UNL d   1      12.385   4.749 -14.886  0.00  0.00    -0.291 OA
BRANCH  12  14
ATOM     14  C   UNL d   1      11.569   4.168 -17.052  0.00  0.00     0.057 A 
ATOM     15  C   UNL d   1      10.709   4.739 -18.027  0.00  0.00     0.097 A 
ATOM     16  C   UNL d   1      10.907   4.402 -19.389  0.00  0.00     0.024 A 
ATOM     17  C   UNL d   1      11.959   3.554 -19.777  0.00  0.00     0.002 A 
ATOM     18  C   UNL d   1      12.830   3.022 -18.810  0.00  0.00     0.000 A 
ATOM     19  C   UNL d   1      12.643   3.342 -17.453  0.00  0.00     0.005 A 
BRANCH  15  20
ATOM     20  O   UNL d   1       9.726   5.613 -17.609  0.00  0.00    -0.328 OA
ATOM     21  C   UNL d   1       8.850   6.172 -18.573  0.00  0.00     0.181 C 
ENDBRANCH  15  20
ENDBRANCH  12  14
ENDBRANCH  11  12
ENDBRANCH  10  11
ENDBRANCH   9  10
ENDBRANCH   8   9
ENDBRANCH   7   8
ENDBRANCH   1   7
BRANCH   4  22
ATOM     22  C   UNL d   1      11.163   8.549  -6.760  0.00  0.00     0.169 A 
ATOM     23  C   UNL d   1      11.405   8.169  -5.420  0.00  0.00     0.061 A 
ATOM     24  C   UNL d   1      11.460   9.328  -4.635  0.00  0.00     0.128 A 
ATOM     25  C   UNL d   1      11.623   6.913  -4.810  0.00  0.00     0.005 A 
ATOM     26  O   UNL d   1      11.242  10.378  -5.515  0.00  0.00    -0.210 OA
ATOM     27  C   UNL d   1      11.712   9.299  -3.252  0.00  0.00     0.027 A 
ATOM     28  N   UNL d   1      11.080   9.877  -6.837  0.00  0.00    -0.109 NA
ATOM     29  C   UNL d   1      11.906   8.041  -2.646  0.00  0.00     0.002 A 
ATOM     30  C   UNL d   1      11.861   6.862  -3.419  0.00  0.00     0.000 A 
ENDBRANCH   4  22
TORSDOF 9
