REMARK  6 active torsions:
REMARK  status: ('A' for Active; 'I' for Inactive)
REMARK    1  A    between atoms: C_8  and  O_9 
REMARK    2  A    between atoms: O_9  and  C_10 
REMARK    3  A    between atoms: C_10  and  C_11 
REMARK    4  A    between atoms: C_11  and  C_12 
REMARK    5  A    between atoms: C_12  and  N_13 
REMARK    6  A    between atoms: N_16  and  C_17 
ROOT
ATOM      1  C   UNL d   1       7.534   4.449 -11.736  0.00  0.00     0.068 C 
ENDROOT
BRANCH   1   2
ATOM      2  C   UNL d   1       6.468   4.346 -12.857  0.00  0.00     0.151 C 
BRANCH   2   3
ATOM      3  O   UNL d   1       6.523   3.107 -13.572  0.00  0.00    -0.331 OA
BRANCH   3   4
ATOM      4  C   UNL d   1       7.665   2.841 -14.302  0.00  0.00     0.096 A 
ATOM      5  C   UNL d   1       8.751   3.754 -14.328  0.00  0.00     0.024 A 
ATOM      6  C   UNL d   1       9.939   3.436 -14.971  0.00  0.00     0.004 A 
ATOM      7  C   UNL d   1      10.046   2.228 -15.665  0.00  0.00     0.023 A 
ATOM      8  C   UNL d   1      11.255   1.899 -16.403  0.00  0.00     0.007 A 
ATOM      9  C   UNL d   1       8.972   1.310 -15.700  0.00  0.00     0.105 A 
ATOM     10  C   UNL d   1      11.325   0.768 -17.115  0.00  0.00     0.069 A 
ATOM     11  C   UNL d   1      10.189  -0.197 -17.159  0.00  0.00     0.300 A 
ATOM     12  O   UNL d   1      10.249  -1.237 -17.797  0.00  0.00    -0.259 OA
ATOM     13  O   UNL d   1       9.073   0.138 -16.428  0.00  0.00    -0.273 OA
ATOM     14  C   UNL d   1       7.781   1.616 -15.008  0.00  0.00     0.049 A 
ENDBRANCH   3   4
ENDBRANCH   2   3
ENDBRANCH   1   2
BRANCH   1  15
ATOM     15  C   UNL d   1       8.035   5.907 -11.564  0.00  0.00     0.253 C 
BRANCH  15  16
ATOM     16  N   UNL d   1       9.192   5.963 -10.676  0.00  0.00     0.141 N 
ATOM     17  C   UNL d   1       8.769   5.684  -9.298  0.00  0.00     0.274 C 
ATOM     18  C   UNL d   1       9.971   5.706  -8.345  0.00  0.00     0.137 C 
ATOM     19  N   UNL d   1      10.647   6.992  -8.428  0.00  0.00    -0.344 N 
ATOM     20  C   UNL d   1      11.021   7.406  -9.775  0.00  0.00     0.137 C 
ATOM     21  C   UNL d   1       9.805   7.308 -10.712  0.00  0.00     0.274 C 
BRANCH  19  22
ATOM     22  C   UNL d   1      10.914   7.766  -7.279  0.00  0.00     0.056 A 
ATOM     23  C   UNL d   1      11.085   7.144  -6.021  0.00  0.00     0.017 A 
ATOM     24  C   UNL d   1      11.341   7.904  -4.867  0.00  0.00     0.002 A 
ATOM     25  C   UNL d   1      11.434   9.304  -4.951  0.00  0.00     0.000 A 
ATOM     26  C   UNL d   1      11.282   9.938  -6.197  0.00  0.00     0.002 A 
ATOM     27  C   UNL d   1      11.023   9.175  -7.353  0.00  0.00     0.017 A 
ENDBRANCH  19  22
ENDBRANCH  15  16
ENDBRANCH   1  15
TORSDOF 6
