REMARK  2 active torsions:
REMARK  status: ('A' for Active; 'I' for Inactive)
REMARK    1  A    between atoms: N_2  and  C_4 
REMARK    2  A    between atoms: C_4  and  C_5 
ROOT
ATOM      1  C   UNL d   1      11.769   0.904 -18.532  0.00  0.00     0.180 C 
ATOM      2  C   UNL d   1      11.175  -0.477 -18.251  0.00  0.00     0.064 C 
ATOM      3  C   UNL d   1      10.117  -0.128 -17.206  0.00  0.00     0.134 C 
ATOM      4  C   UNL d   1       8.726   0.222 -17.759  0.00  0.00    -0.001 A 
ATOM      5  C   UNL d   1       8.428   0.287 -19.146  0.00  0.00     0.027 A 
ATOM      6  C   UNL d   1       7.119   0.565 -19.591  0.00  0.00     0.140 A 
ATOM      7  F   UNL d   1       6.848   0.618 -20.918  0.00  0.00    -0.204 F 
ATOM      8  C   UNL d   1       6.090   0.783 -18.657  0.00  0.00     0.029 A 
ATOM      9  C   UNL d   1       6.374   0.743 -17.281  0.00  0.00    -0.002 A 
ATOM     10  C   UNL d   1       7.686   0.472 -16.835  0.00  0.00    -0.020 A 
ATOM     11  C   UNL d   1       8.004   0.503 -15.355  0.00  0.00     0.054 C 
ATOM     12  C   UNL d   1       8.862   1.714 -15.027  0.00  0.00     0.000 A 
ATOM     13  C   UNL d   1       8.332   2.683 -14.150  0.00  0.00    -0.000 A 
ATOM     14  C   UNL d   1       9.069   3.831 -13.812  0.00  0.00     0.029 A 
ATOM     15  C   UNL d   1      10.346   4.024 -14.366  0.00  0.00     0.142 A 
ATOM     16  F   UNL d   1      11.062   5.124 -14.041  0.00  0.00    -0.204 F 
ATOM     17  C   UNL d   1      10.879   3.065 -15.248  0.00  0.00     0.049 A 
ATOM     18  C   UNL d   1      10.157   1.890 -15.595  0.00  0.00     0.081 A 
ATOM     19  N   UNL d   1      10.775   0.936 -16.441  0.00  0.00    -0.237 N 
ATOM     20  O   UNL d   1      11.873   1.453 -17.227  0.00  0.00    -0.258 OA
ENDROOT
BRANCH   1  21
ATOM     21  C   UNL d   1      13.153   0.903 -19.207  0.00  0.00     0.282 C 
BRANCH  21  22
ATOM     22  N   UNL d   1      13.576   2.238 -19.643  0.00  0.00     0.144 N 
ATOM     23  C   UNL d   1      13.644   3.193 -18.545  0.00  0.00     0.286 C 
ATOM     24  C   UNL d   1      12.732   2.754 -20.710  0.00  0.00     0.286 C 
ENDBRANCH  21  22
ENDBRANCH   1  21
TORSDOF 2
