REMARK  7 active torsions:
REMARK  status: ('A' for Active; 'I' for Inactive)
REMARK    1  A    between atoms: C_2  and  C_4 
REMARK       I    between atoms: C_4  and  N_6 
REMARK    2  A    between atoms: N_6  and  C_7 
REMARK    3  A    between atoms: C_11  and  C_12 
REMARK    4  A    between atoms: N_15  and  C_16 
REMARK    5  A    between atoms: C_16  and  C_17 
REMARK    6  A    between atoms: C_21  and  O_22 
REMARK    7  A    between atoms: O_22  and  C_23 
ROOT
ATOM      1  C   UNL d   1       7.799   0.619 -16.575  0.00  0.00     0.026 C 
ATOM      2  C   UNL d   1       9.304   0.878 -16.358  0.00  0.00     0.040 C 
ATOM      3  C   UNL d   1      10.107   0.594 -17.633  0.00  0.00     0.251 C 
ATOM      4  N   UNL d   1       9.613   1.424 -18.739  0.00  0.00     0.141 N 
ATOM      5  C   UNL d   1       8.223   1.068 -19.035  0.00  0.00     0.251 C 
ATOM      6  C   UNL d   1       7.324   1.375 -17.826  0.00  0.00     0.040 C 
ENDROOT
BRANCH   4   7
ATOM      7  C   UNL d   1      10.426   1.200 -19.929  0.00  0.00     0.277 C 
BRANCH   7   8
ATOM      8  C   UNL d   1      11.851   1.713 -19.808  0.00  0.00     0.013 A 
ATOM      9  C   UNL d   1      12.095   3.104 -19.741  0.00  0.00     0.022 A 
ATOM     10  C   UNL d   1      13.413   3.599 -19.638  0.00  0.00     0.100 A 
ATOM     11  C   UNL d   1      14.489   2.676 -19.625  0.00  0.00     0.025 A 
ATOM     12  C   UNL d   1      14.249   1.293 -19.669  0.00  0.00     0.002 A 
ATOM     13  C   UNL d   1      12.931   0.809 -19.763  0.00  0.00    -0.002 A 
BRANCH  10  14
ATOM     14  O   UNL d   1      13.603   4.964 -19.576  0.00  0.00    -0.307 OA
BRANCH  14  15
ATOM     15  C   UNL d   1      14.759   5.456 -19.019  0.00  0.00     0.100 A 
ATOM     16  C   UNL d   1      15.623   6.254 -19.796  0.00  0.00     0.026 A 
ATOM     17  C   UNL d   1      16.834   6.732 -19.253  0.00  0.00     0.013 A 
ATOM     18  C   UNL d   1      17.182   6.411 -17.927  0.00  0.00     0.058 A 
ATOM     19  C   UNL d   1      16.321   5.616 -17.146  0.00  0.00     0.013 A 
ATOM     20 CL   UNL d   1      18.657   6.992 -17.250  0.00  0.00    -0.082 Cl
ATOM     21  C   UNL d   1      15.109   5.149 -17.686  0.00  0.00     0.026 A 
ENDBRANCH  14  15
ENDBRANCH  10  14
ENDBRANCH   7   8
ENDBRANCH   4   7
BRANCH   1  22
ATOM     22  C   UNL d   1       6.968   0.990 -15.356  0.00  0.00    -0.021 A 
ATOM     23  C   UNL d   1       6.066   0.064 -14.789  0.00  0.00    -0.004 A 
ATOM     24  C   UNL d   1       5.304   0.431 -13.660  0.00  0.00     0.001 A 
ATOM     25  C   UNL d   1       5.456   1.710 -13.087  0.00  0.00     0.019 A 
ATOM     26  C   UNL d   1       6.345   2.648 -13.645  0.00  0.00     0.084 A 
ATOM     27  C   UNL d   1       7.088   2.275 -14.788  0.00  0.00     0.015 A 
BRANCH  26  28
ATOM     28  N   UNL d   1       6.453   3.917 -12.999  0.00  0.00    -0.212 NA
ATOM     29  C   UNL d   1       7.434   4.837 -13.097  0.00  0.00     0.255 C 
ATOM     30  O   UNL d   1       8.375   4.774 -13.890  0.00  0.00    -0.270 OA
BRANCH  29  31
ATOM     31  C   UNL d   1       7.330   6.025 -12.131  0.00  0.00     0.081 C 
ATOM     32  C   UNL d   1       6.538   7.181 -12.762  0.00  0.00     0.010 C 
ATOM     33  C   UNL d   1       8.735   6.466 -11.676  0.00  0.00     0.010 C 
ENDBRANCH  29  31
ENDBRANCH  26  28
ENDBRANCH   1  22
TORSDOF 7
