REMARK  5 active torsions:
REMARK  status: ('A' for Active; 'I' for Inactive)
REMARK    1  A    between atoms: C_7  and  C_8 
REMARK    2  A    between atoms: C_8  and  C_9 
REMARK    3  A    between atoms: C_9  and  C_10 
REMARK    4  A    between atoms: C_10  and  N_11 
REMARK    5  A    between atoms: N_14  and  C_15 
ROOT
ATOM      1  N   UNL d   1      10.410   6.526  -8.591  0.00  0.00     0.141 N 
ATOM      2  C   UNL d   1       9.749   7.615  -7.847  0.00  0.00     0.274 C 
ATOM      3  C   UNL d   1      10.801   8.424  -7.105  0.00  0.00     0.138 C 
ATOM      4  N   UNL d   1      11.459   7.545  -6.158  0.00  0.00    -0.330 N 
ATOM      5  C   UNL d   1      12.035   6.360  -6.752  0.00  0.00     0.138 C 
ATOM      6  C   UNL d   1      10.980   5.635  -7.579  0.00  0.00     0.274 C 
ENDROOT
BRANCH   1   7
ATOM      7  C   UNL d   1       9.483   5.657  -9.316  0.00  0.00     0.257 C 
BRANCH   7   8
ATOM      8  C   UNL d   1       8.693   6.479 -10.299  0.00  0.00     0.084 C 
BRANCH   8   9
ATOM      9  C   UNL d   1       9.034   6.408 -11.764  0.00  0.00     0.090 C 
ATOM     10  N   UNL d   1       9.532   7.383 -12.404  0.00  0.00    -0.101 NA
ATOM     11  O   UNL d   1      10.033   8.369 -11.498  0.00  0.00    -0.061 OA
BRANCH   9  12
ATOM     12  C   UNL d   1       8.583   5.198 -12.458  0.00  0.00     0.012 A 
ATOM     13  C   UNL d   1       7.196   4.910 -12.617  0.00  0.00    -0.021 A 
ATOM     14  C   UNL d   1       6.062   5.828 -12.129  0.00  0.00     0.031 C 
ATOM     15  C   UNL d   1       6.833   3.747 -13.321  0.00  0.00    -0.004 A 
ATOM     16  C   UNL d   1       7.809   2.902 -13.881  0.00  0.00    -0.000 A 
ATOM     17  C   UNL d   1       9.174   3.180 -13.694  0.00  0.00     0.000 A 
ATOM     18  C   UNL d   1       9.565   4.329 -12.992  0.00  0.00     0.001 A 
ENDBRANCH   9  12
ENDBRANCH   8   9
ENDBRANCH   7   8
ENDBRANCH   1   7
BRANCH   4  19
ATOM     19  C   UNL d   1      11.599   7.872  -4.816  0.00  0.00     0.140 A 
ATOM     20  N   UNL d   1      11.749   6.839  -3.959  0.00  0.00    -0.227 NA
ATOM     21  C   UNL d   1      11.878   7.104  -2.651  0.00  0.00     0.101 A 
ATOM     22  C   UNL d   1      11.908   8.411  -2.143  0.00  0.00     0.021 A 
ATOM     23  C   UNL d   1      11.793   9.489  -3.038  0.00  0.00     0.005 A 
ATOM     24  C   UNL d   1      11.625   9.220  -4.400  0.00  0.00     0.037 A 
ENDBRANCH   4  19
TORSDOF 5
