REMARK  4 active torsions:
REMARK  status: ('A' for Active; 'I' for Inactive)
REMARK    1  A    between atoms: C_8  and  C_9 
REMARK    2  A    between atoms: C_9  and  C_10 
REMARK    3  A    between atoms: C_10  and  N_11 
REMARK    4  A    between atoms: N_14  and  C_15 
ROOT
ATOM      1  N   UNL d   1       9.192   6.310  -9.729  0.00  0.00     0.141 N 
ATOM      2  C   UNL d   1       9.922   5.699  -8.630  0.00  0.00     0.274 C 
ATOM      3  C   UNL d   1       9.649   6.432  -7.323  0.00  0.00     0.138 C 
ATOM      4  N   UNL d   1       9.960   7.844  -7.462  0.00  0.00    -0.328 N 
ATOM      5  C   UNL d   1       9.348   8.522  -8.596  0.00  0.00     0.138 C 
ATOM      6  C   UNL d   1       9.616   7.709  -9.886  0.00  0.00     0.274 C 
ENDROOT
BRANCH   1   7
ATOM      7  C   UNL d   1       9.430   5.554 -10.945  0.00  0.00     0.255 C 
BRANCH   7   8
ATOM      8  C   UNL d   1       8.329   5.834 -11.981  0.00  0.00     0.063 C 
BRANCH   8   9
ATOM      9  C   UNL d   1       7.983   4.629 -12.844  0.00  0.00    -0.003 A 
ATOM     10  C   UNL d   1       8.947   3.958 -13.644  0.00  0.00     0.076 A 
ATOM     11  N   UNL d   1      10.296   4.390 -13.640  0.00  0.00    -0.212 NA
ATOM     12  C   UNL d   1       8.569   2.838 -14.430  0.00  0.00    -0.005 A 
ATOM     13  C   UNL d   1      11.234   3.996 -14.511  0.00  0.00     0.256 C 
ATOM     14  C   UNL d   1      10.788   3.075 -15.654  0.00  0.00     0.094 C 
ATOM     15  O   UNL d   1      12.399   4.383 -14.430  0.00  0.00    -0.270 OA
ATOM     16  C   UNL d   1       9.644   2.112 -15.248  0.00  0.00     0.033 C 
ATOM     17  C   UNL d   1       9.076   1.409 -16.499  0.00  0.00     0.005 C 
ATOM     18  C   UNL d   1       7.223   2.402 -14.406  0.00  0.00    -0.003 A 
ATOM     19  C   UNL d   1       6.272   3.076 -13.624  0.00  0.00    -0.001 A 
ATOM     20  C   UNL d   1       6.647   4.179 -12.842  0.00  0.00    -0.003 A 
ENDBRANCH   8   9
ENDBRANCH   7   8
ENDBRANCH   1   7
BRANCH   4  21
ATOM     21  C   UNL d   1      10.799   8.533  -6.572  0.00  0.00     0.169 A 
ATOM     22  C   UNL d   1      11.259   8.101  -5.299  0.00  0.00     0.061 A 
ATOM     23  C   UNL d   1      12.060   9.118  -4.774  0.00  0.00     0.128 A 
ATOM     24  C   UNL d   1      11.062   6.929  -4.520  0.00  0.00     0.005 A 
ATOM     25  O   UNL d   1      12.081  10.110  -5.732  0.00  0.00    -0.210 OA
ATOM     26  C   UNL d   1      12.681   9.033  -3.519  0.00  0.00     0.027 A 
ATOM     27  N   UNL d   1      11.277   9.737  -6.837  0.00  0.00    -0.109 NA
ATOM     28  C   UNL d   1      12.537   7.841  -2.775  0.00  0.00     0.002 A 
ATOM     29  C   UNL d   1      11.727   6.802  -3.280  0.00  0.00     0.000 A 
ENDBRANCH   4  21
TORSDOF 4
