REMARK  7 active torsions:
REMARK  status: ('A' for Active; 'I' for Inactive)
REMARK    1  A    between atoms: C_7  and  C_8 
REMARK    2  A    between atoms: C_11  and  S_12 
REMARK    3  A    between atoms: S_12  and  C_13 
REMARK    4  A    between atoms: C_13  and  C_14 
REMARK    5  A    between atoms: C_14  and  C_15 
REMARK    6  A    between atoms: C_15  and  N_16 
REMARK    7  A    between atoms: C_22  and  C_23 
ROOT
ATOM      1  C   UNL d   1       6.614  -2.717 -18.444  0.00  0.00     0.067 C 
ENDROOT
BRANCH   1   2
ATOM      2  S   UNL d   1       5.244  -1.517 -18.507  0.00  0.00    -0.075 SA
BRANCH   2   3
ATOM      3  C   UNL d   1       5.401  -0.845 -16.885  0.00  0.00     0.193 A 
ATOM      4  N   UNL d   1       5.019  -1.500 -15.790  0.00  0.00    -0.122 NA
ATOM      5  N   UNL d   1       5.325  -0.671 -14.737  0.00  0.00    -0.128 NA
ATOM      6  C   UNL d   1       5.868   0.427 -15.278  0.00  0.00     0.167 A 
ATOM      7  N   UNL d   1       5.922   0.376 -16.633  0.00  0.00    -0.289 N 
ATOM      8  C   UNL d   1       6.405   1.371 -17.592  0.00  0.00     0.134 C 
BRANCH   6   9
ATOM      9  C   UNL d   1       6.287   1.556 -14.441  0.00  0.00     0.036 A 
ATOM     10  C   UNL d   1       7.461   2.281 -14.737  0.00  0.00     0.005 A 
ATOM     11  C   UNL d   1       7.821   3.403 -13.958  0.00  0.00     0.018 A 
ATOM     12  C   UNL d   1       8.998   4.111 -14.257  0.00  0.00     0.003 A 
ATOM     13  C   UNL d   1       7.014   3.825 -12.871  0.00  0.00     0.081 A 
ATOM     14  C   UNL d   1       9.354   5.189 -13.436  0.00  0.00     0.015 A 
ATOM     15  C   UNL d   1       8.510   5.532 -12.364  0.00  0.00     0.059 A 
ATOM     16  C   UNL d   1       8.851   6.674 -11.437  0.00  0.00     0.052 C 
ATOM     17  N   UNL d   1       7.363   4.879 -12.101  0.00  0.00    -0.250 NA
ATOM     18  C   UNL d   1       5.853   3.094 -12.579  0.00  0.00     0.019 A 
ATOM     19  C   UNL d   1       5.505   1.949 -13.331  0.00  0.00     0.005 A 
ENDBRANCH   6   9
ENDBRANCH   2   3
ENDBRANCH   1   2
BRANCH   1  20
ATOM     20  C   UNL d   1       7.994  -2.042 -18.449  0.00  0.00     0.047 C 
BRANCH  20  21
ATOM     21  C   UNL d   1       8.249  -1.091 -19.637  0.00  0.00     0.251 C 
BRANCH  21  22
ATOM     22  N   UNL d   1       9.656  -0.726 -19.841  0.00  0.00     0.138 N 
ATOM     23  C   UNL d   1       9.675   0.275 -20.912  0.00  0.00     0.255 C 
ATOM     24  C   UNL d   1      11.069   0.497 -21.533  0.00  0.00     0.061 C 
ATOM     25  C   UNL d   1      11.980   1.400 -20.714  0.00  0.00    -0.024 A 
ATOM     26  C   UNL d   1      12.341   1.060 -19.393  0.00  0.00    -0.024 A 
ATOM     27  C   UNL d   1      12.471   2.597 -21.281  0.00  0.00    -0.003 A 
ATOM     28  C   UNL d   1      11.832  -0.204 -18.741  0.00  0.00     0.061 C 
ATOM     29  C   UNL d   1      13.182   1.915 -18.655  0.00  0.00    -0.004 A 
ATOM     30  C   UNL d   1      10.309  -0.253 -18.616  0.00  0.00     0.255 C 
ATOM     31  C   UNL d   1      13.680   3.098 -19.227  0.00  0.00     0.001 A 
ATOM     32  C   UNL d   1      13.333   3.446 -20.549  0.00  0.00     0.020 A 
BRANCH  32  33
ATOM     33  C   UNL d   1      13.834   4.681 -21.154  0.00  0.00     0.110 A 
ATOM     34  N   UNL d   1      14.954   5.238 -20.716  0.00  0.00    -0.127 NA
ATOM     35  O   UNL d   1      15.158   6.375 -21.502  0.00  0.00    -0.215 OA
ATOM     36  C   UNL d   1      14.140   6.470 -22.393  0.00  0.00     0.105 A 
ATOM     37  C   UNL d   1      13.274   5.428 -22.229  0.00  0.00     0.044 A 
ATOM     38  C   UNL d   1      14.168   7.629 -23.328  0.00  0.00     0.061 C 
ENDBRANCH  32  33
ENDBRANCH  21  22
ENDBRANCH  20  21
ENDBRANCH   1  20
TORSDOF 7
