REMARK  2 active torsions:
REMARK  status: ('A' for Active; 'I' for Inactive)
REMARK    1  A    between atoms: N_2  and  C_4 
REMARK    2  A    between atoms: C_4  and  C_5 
ROOT
ATOM      1  C   UNL d   1      10.199   0.847 -16.239  0.00  0.00     0.149 C 
ATOM      2  C   UNL d   1       9.592   1.893 -15.280  0.00  0.00     0.039 C 
ATOM      3  C   UNL d   1       8.107   1.674 -15.441  0.00  0.00     0.058 C 
ATOM      4  C   UNL d   1       7.233   2.298 -14.362  0.00  0.00     0.003 A 
ATOM      5  C   UNL d   1       7.465   3.656 -14.034  0.00  0.00    -0.002 A 
ATOM      6  C   UNL d   1       6.684   4.323 -13.076  0.00  0.00    -0.000 A 
ATOM      7  C   UNL d   1       5.673   3.620 -12.401  0.00  0.00     0.002 A 
ATOM      8  C   UNL d   1       5.443   2.269 -12.707  0.00  0.00     0.024 A 
ATOM      9  C   UNL d   1       6.202   1.594 -13.682  0.00  0.00     0.096 A 
ATOM     10  O   UNL d   1       5.921   0.258 -13.843  0.00  0.00    -0.308 OA
ATOM     11  C   UNL d   1       5.655  -0.223 -15.100  0.00  0.00     0.098 A 
ATOM     12  C   UNL d   1       4.359  -0.664 -15.433  0.00  0.00     0.027 A 
ATOM     13  C   UNL d   1       4.108  -1.183 -16.718  0.00  0.00     0.032 A 
ATOM     14  C   UNL d   1       5.140  -1.231 -17.674  0.00  0.00     0.140 A 
ATOM     15  F   UNL d   1       4.891  -1.688 -18.919  0.00  0.00    -0.204 F 
ATOM     16  C   UNL d   1       6.445  -0.809 -17.337  0.00  0.00     0.030 A 
ATOM     17  C   UNL d   1       6.692  -0.309 -16.046  0.00  0.00     0.030 A 
ATOM     18  C   UNL d   1       8.066   0.166 -15.621  0.00  0.00     0.143 C 
ATOM     19  O   UNL d   1       9.115  -0.036 -16.563  0.00  0.00    -0.352 OA
ENDROOT
BRANCH   1  20
ATOM     20  C   UNL d   1      10.732   1.441 -17.558  0.00  0.00     0.280 C 
BRANCH  20  21
ATOM     21  N   UNL d   1      12.098   1.978 -17.528  0.00  0.00     0.144 N 
ATOM     22  C   UNL d   1      12.526   2.380 -18.863  0.00  0.00     0.286 C 
ATOM     23  C   UNL d   1      12.268   3.090 -16.600  0.00  0.00     0.286 C 
ENDBRANCH  20  21
ENDBRANCH   1  20
TORSDOF 2
