REMARK  9 active torsions:
REMARK  status: ('A' for Active; 'I' for Inactive)
REMARK    1  A    between atoms: O_2  and  C_3 
REMARK    2  A    between atoms: C_8  and  N_9 
REMARK    3  A    between atoms: N_12  and  C_13 
REMARK    4  A    between atoms: C_13  and  C_14 
REMARK    5  A    between atoms: C_14  and  C_15 
REMARK    6  A    between atoms: C_15  and  C_16 
REMARK    7  A    between atoms: C_16  and  N_17 
REMARK       I    between atoms: N_17  and  C_18 
REMARK    8  A    between atoms: C_18  and  C_20 
REMARK    9  A    between atoms: C_21  and  C_22 
ROOT
ATOM      1  N   UNL d   1      10.066   2.288 -16.390  0.00  0.00    -0.343 N 
ATOM      2  C   UNL d   1       9.570   1.786 -15.123  0.00  0.00     0.137 C 
ATOM      3  C   UNL d   1      10.015   2.738 -14.007  0.00  0.00     0.274 C 
ATOM      4  N   UNL d   1       9.530   4.101 -14.264  0.00  0.00     0.141 N 
ATOM      5  C   UNL d   1      10.115   4.600 -15.519  0.00  0.00     0.274 C 
ATOM      6  C   UNL d   1       9.730   3.664 -16.698  0.00  0.00     0.137 C 
ENDROOT
BRANCH   4   7
ATOM      7  C   UNL d   1       9.958   4.962 -13.175  0.00  0.00     0.251 C 
BRANCH   7   8
ATOM      8  C   UNL d   1       9.109   4.725 -11.924  0.00  0.00     0.037 C 
BRANCH   8   9
ATOM      9  C   UNL d   1       9.466   5.729 -10.839  0.00  0.00     0.029 C 
BRANCH   9  10
ATOM     10  C   UNL d   1       9.224   5.229  -9.410  0.00  0.00     0.129 C 
BRANCH  10  11
ATOM     11  N   UNL d   1       9.698   6.145  -8.383  0.00  0.00    -0.234 NA
ATOM     12  C   UNL d   1      10.290   7.358  -8.509  0.00  0.00     0.275 C 
ATOM     13  O   UNL d   1      10.495   7.929  -9.569  0.00  0.00    -0.266 OA
BRANCH  12  14
ATOM     14  C   UNL d   1      10.664   7.926  -7.232  0.00  0.00     0.062 C 
ATOM     15  C   UNL d   1      11.068   7.178  -6.183  0.00  0.00     0.005 C 
BRANCH  15  16
ATOM     16  C   UNL d   1      11.456   7.756  -4.902  0.00  0.00     0.007 A 
ATOM     17  C   UNL d   1      11.863   6.976  -3.849  0.00  0.00     0.035 A 
ATOM     18  S   UNL d   1      12.257   7.964  -2.472  0.00  0.00    -0.086 SA
ATOM     19  C   UNL d   1      11.869   9.423  -3.353  0.00  0.00     0.035 A 
ATOM     20  C   UNL d   1      11.466   9.156  -4.631  0.00  0.00     0.007 A 
ENDBRANCH  15  16
ENDBRANCH  12  14
ENDBRANCH  10  11
ENDBRANCH   9  10
ENDBRANCH   8   9
ENDBRANCH   7   8
ENDBRANCH   4   7
BRANCH   1  21
ATOM     21  C   UNL d   1      10.807   1.452 -17.266  0.00  0.00     0.079 A 
ATOM     22  C   UNL d   1      11.905   1.919 -18.025  0.00  0.00     0.110 A 
ATOM     23  C   UNL d   1      12.585   1.029 -18.884  0.00  0.00     0.026 A 
ATOM     24  C   UNL d   1      12.205  -0.325 -18.968  0.00  0.00     0.002 A 
ATOM     25  C   UNL d   1      11.114  -0.786 -18.214  0.00  0.00     0.002 A 
ATOM     26  C   UNL d   1      10.424   0.093 -17.365  0.00  0.00     0.019 A 
BRANCH  22  27
ATOM     27  O   UNL d   1      12.368   3.218 -17.999  0.00  0.00    -0.327 OA
ATOM     28  C   UNL d   1      12.962   3.622 -16.776  0.00  0.00     0.181 C 
ENDBRANCH  22  27
ENDBRANCH   1  21
TORSDOF 9
