REMARK  7 active torsions:
REMARK  status: ('A' for Active; 'I' for Inactive)
REMARK    1  A    between atoms: O_2  and  N_3 
REMARK    2  A    between atoms: C_4  and  C_5 
REMARK    3  A    between atoms: C_4  and  C_12 
REMARK    4  A    between atoms: C_12  and  C_13 
REMARK    5  A    between atoms: C_12  and  O_26 
REMARK    6  A    between atoms: C_13  and  N_14 
REMARK    7  A    between atoms: N_17  and  C_18 
ROOT
ATOM      1  C   UNL d   1      11.347   3.433 -14.824  0.00  0.00     0.191 C 
ENDROOT
BRANCH   1   2
ATOM      2  C   UNL d   1      10.439   4.678 -15.094  0.00  0.00     0.114 C 
ATOM      3  N   UNL d   1       9.448   5.023 -14.395  0.00  0.00    -0.133 NA
BRANCH   3   4
ATOM      4  O   UNL d   1       9.186   4.168 -13.311  0.00  0.00    -0.234 OA
ATOM      5  C   UNL d   1       8.050   4.670 -12.635  0.00  0.00     0.211 C 
ENDBRANCH   3   4
BRANCH   2   6
ATOM      6  C   UNL d   1      10.861   5.514 -16.266  0.00  0.00     0.018 A 
ATOM      7  C   UNL d   1       9.957   5.594 -17.384  0.00  0.00     0.002 A 
ATOM      8  C   UNL d   1      10.355   6.282 -18.549  0.00  0.00     0.011 A 
ATOM      9  C   UNL d   1      11.629   6.872 -18.624  0.00  0.00     0.058 A 
ATOM     10  C   UNL d   1      12.517   6.765 -17.539  0.00  0.00     0.011 A 
ATOM     11 CL   UNL d   1      12.140   7.633 -20.084  0.00  0.00    -0.082 Cl
ATOM     12  C   UNL d   1      12.079   6.130 -16.334  0.00  0.00     0.002 A 
ENDBRANCH   2   6
ENDBRANCH   1   2
BRANCH   1  13
ATOM     13  C   UNL d   1      10.769   2.007 -15.092  0.00  0.00     0.286 C 
BRANCH  13  14
ATOM     14  N   UNL d   1       9.359   1.782 -14.935  0.00  0.00     0.144 N 
ATOM     15  C   UNL d   1       8.608   2.249 -16.106  0.00  0.00     0.274 C 
ATOM     16  C   UNL d   1       7.106   2.093 -15.926  0.00  0.00     0.138 C 
ATOM     17  N   UNL d   1       6.812   0.711 -15.614  0.00  0.00    -0.330 N 
ATOM     18  C   UNL d   1       7.574   0.116 -14.522  0.00  0.00     0.138 C 
ATOM     19  C   UNL d   1       9.071   0.366 -14.752  0.00  0.00     0.274 C 
BRANCH  17  20
ATOM     20  C   UNL d   1       5.859  -0.030 -16.332  0.00  0.00     0.140 A 
ATOM     21  N   UNL d   1       5.161  -0.942 -15.627  0.00  0.00    -0.227 NA
ATOM     22  C   UNL d   1       4.256  -1.682 -16.272  0.00  0.00     0.101 A 
ATOM     23  C   UNL d   1       3.970  -1.556 -17.646  0.00  0.00     0.021 A 
ATOM     24  C   UNL d   1       4.690  -0.595 -18.379  0.00  0.00     0.005 A 
ATOM     25  C   UNL d   1       5.649   0.183 -17.720  0.00  0.00     0.037 A 
ENDBRANCH  17  20
ENDBRANCH  13  14
ENDBRANCH   1  13
BRANCH   1  26
ATOM     26  O   UNL d   1      12.611   3.538 -15.441  0.00  0.00    -0.346 OA
ATOM     27  C   UNL d   1      12.790   3.271 -16.843  0.00  0.00     0.175 C 
ENDBRANCH   1  26
TORSDOF 7
