REMARK  10 active torsions:
REMARK  status: ('A' for Active; 'I' for Inactive)
REMARK    1  A    between atoms: O_2  and  C_3 
REMARK    2  A    between atoms: C_6  and  S_7 
REMARK    3  A    between atoms: S_7  and  N_10 
REMARK    4  A    between atoms: N_10  and  C_11 
REMARK    5  A    between atoms: C_14  and  N_15 
REMARK    6  A    between atoms: C_18  and  C_19 
REMARK    7  A    between atoms: C_24  and  O_25 
REMARK    8  A    between atoms: O_25  and  C_26 
REMARK    9  A    between atoms: C_26  and  C_27 
REMARK   10  A    between atoms: C_34  and  O_35 
ROOT
ATOM      1  C   UNL d   1       9.444   6.138 -10.505  0.00  0.00     0.116 C 
ATOM      2  C   UNL d   1       9.523   4.634 -10.243  0.00  0.00     0.027 C 
ATOM      3  C   UNL d   1       9.754   3.888 -11.576  0.00  0.00     0.035 C 
ATOM      4  C   UNL d   1       8.597   4.172 -12.541  0.00  0.00     0.219 C 
ATOM      5  C   UNL d   1       8.517   5.707 -12.787  0.00  0.00     0.035 C 
ATOM      6  C   UNL d   1       8.323   6.464 -11.491  0.00  0.00     0.027 C 
ENDROOT
BRANCH   4   7
ATOM      7  N   UNL d   1       8.815   3.380 -13.763  0.00  0.00     0.135 N 
ATOM      8  C   UNL d   1       7.565   3.340 -14.504  0.00  0.00     0.251 C 
ATOM      9  C   UNL d   1       7.688   2.467 -15.764  0.00  0.00     0.040 C 
ATOM     10  C   UNL d   1       8.864   2.902 -16.675  0.00  0.00     0.028 C 
ATOM     11  C   UNL d   1      10.140   2.983 -15.832  0.00  0.00     0.040 C 
ATOM     12  C   UNL d   1       9.916   3.873 -14.617  0.00  0.00     0.251 C 
BRANCH  10  13
ATOM     13  C   UNL d   1       9.049   1.945 -17.850  0.00  0.00    -0.000 A 
ATOM     14  C   UNL d   1       9.025   2.381 -19.206  0.00  0.00     0.090 A 
ATOM     15  C   UNL d   1       9.221   1.409 -20.224  0.00  0.00     0.024 A 
ATOM     16  C   UNL d   1       9.405   0.052 -19.903  0.00  0.00     0.002 A 
ATOM     17  C   UNL d   1       9.422  -0.373 -18.569  0.00  0.00    -0.000 A 
ATOM     18  C   UNL d   1       9.252   0.576 -17.550  0.00  0.00    -0.002 A 
BRANCH  14  19
ATOM     19  O   UNL d   1       8.794   3.725 -19.452  0.00  0.00    -0.328 OA
BRANCH  19  20
ATOM     20  C   UNL d   1       8.704   4.250 -20.787  0.00  0.00     0.187 C 
BRANCH  20  21
ATOM     21  C   UNL d   1       9.905   5.163 -21.061  0.00  0.00     0.226 C 
ATOM     22  F   UNL d   1       9.862   5.558 -22.337  0.00  0.00    -0.232 F 
ENDBRANCH  20  21
ENDBRANCH  19  20
ENDBRANCH  14  19
ENDBRANCH  10  13
ENDBRANCH   4   7
BRANCH   1  23
ATOM     23  N   UNL d   1       9.205   6.855  -9.258  0.00  0.00    -0.187 NA
BRANCH  23  24
ATOM     24  S   UNL d   1      10.095   8.309  -8.898  0.00  0.00     0.281 S 
ATOM     25  O   UNL d   1       9.136   9.411  -8.796  0.00  0.00    -0.199 OA
ATOM     26  O   UNL d   1      11.278   8.415  -9.768  0.00  0.00    -0.199 OA
BRANCH  24  27
ATOM     27  C   UNL d   1      10.650   8.055  -7.252  0.00  0.00     0.107 A 
ATOM     28  C   UNL d   1      10.578   6.785  -6.658  0.00  0.00     0.015 A 
ATOM     29  C   UNL d   1      11.036   6.598  -5.361  0.00  0.00     0.027 A 
ATOM     30  C   UNL d   1      11.541   7.675  -4.598  0.00  0.00     0.116 A 
ATOM     31  C   UNL d   1      11.533   8.945  -5.200  0.00  0.00     0.117 A 
ATOM     32  C   UNL d   1      11.109   9.158  -6.506  0.00  0.00     0.039 A 
BRANCH  30  33
ATOM     33  O   UNL d   1      12.100   7.545  -3.353  0.00  0.00    -0.326 OA
ATOM     34  C   UNL d   1      12.061   6.276  -2.742  0.00  0.00     0.181 C 
ENDBRANCH  30  33
BRANCH  31  35
ATOM     35  O   UNL d   1      12.069   9.985  -4.521  0.00  0.00    -0.326 OA
ATOM     36  C   UNL d   1      11.401  10.340  -3.322  0.00  0.00     0.181 C 
ENDBRANCH  31  35
ENDBRANCH  24  27
ENDBRANCH  23  24
ENDBRANCH   1  23
TORSDOF 10
