REMARK  6 active torsions:
REMARK  status: ('A' for Active; 'I' for Inactive)
REMARK       I    between atoms: C_2  and  N_3 
REMARK    1  A    between atoms: C_2  and  C_27 
REMARK    2  A    between atoms: N_3  and  C_4 
REMARK    3  A    between atoms: C_7  and  C_8 
REMARK    4  A    between atoms: C_8  and  C_9 
REMARK    5  A    between atoms: C_9  and  N_10 
REMARK    6  A    between atoms: C_13  and  C_14 
ROOT
ATOM      1  C   UNL d   1       8.585   5.158 -10.419  0.00  0.00     0.250 C 
ENDROOT
BRANCH   1   2
ATOM      2  C   UNL d   1       8.298   5.904 -11.736  0.00  0.00     0.035 C 
BRANCH   2   3
ATOM      3  C   UNL d   1       7.794   4.982 -12.882  0.00  0.00     0.002 C 
ATOM      4  C   UNL d   1       8.705   3.754 -13.096  0.00  0.00     0.002 C 
ATOM      5  C   UNL d   1       8.200   2.779 -14.163  0.00  0.00     0.024 C 
ATOM      6  C   UNL d   1       6.727   2.376 -13.936  0.00  0.00     0.106 C 
ATOM      7  C   UNL d   1       5.829   3.607 -13.813  0.00  0.00     0.024 C 
ATOM      8  C   UNL d   1       6.311   4.558 -12.704  0.00  0.00     0.002 C 
BRANCH   6   9
ATOM      9  N   UNL d   1       6.318   1.479 -14.994  0.00  0.00    -0.238 NA
ATOM     10  C   UNL d   1       5.650   0.318 -14.823  0.00  0.00     0.279 C 
ATOM     11  O   UNL d   1       5.335  -0.122 -13.722  0.00  0.00    -0.268 OA
BRANCH  10  12
ATOM     12  C   UNL d   1       5.231  -0.411 -16.104  0.00  0.00     0.195 C 
ATOM     13  O   UNL d   1       6.157  -0.171 -17.157  0.00  0.00    -0.347 OA
ATOM     14  C   UNL d   1       5.888  -1.144 -18.157  0.00  0.00     0.143 C 
ATOM     15  C   UNL d   1       5.600  -2.422 -17.372  0.00  0.00     0.035 C 
ATOM     16  C   UNL d   1       5.176  -1.937 -15.992  0.00  0.00     0.042 C 
ENDBRANCH  10  12
ENDBRANCH   6   9
ENDBRANCH   2   3
ENDBRANCH   1   2
BRANCH   1  17
ATOM     17  N   UNL d   1       9.008   6.070  -9.381  0.00  0.00     0.137 N 
ATOM     18  C   UNL d   1       8.611   5.522  -8.093  0.00  0.00     0.251 C 
ATOM     19  C   UNL d   1       8.987   6.507  -6.970  0.00  0.00     0.040 C 
ATOM     20  C   UNL d   1      10.501   6.795  -6.948  0.00  0.00     0.028 C 
ATOM     21  C   UNL d   1      10.954   7.193  -8.368  0.00  0.00     0.040 C 
ATOM     22  C   UNL d   1      10.458   6.194  -9.406  0.00  0.00     0.251 C 
BRANCH  20  23
ATOM     23  C   UNL d   1      10.875   7.845  -5.909  0.00  0.00     0.002 A 
ATOM     24  C   UNL d   1      11.478   7.513  -4.678  0.00  0.00     0.115 A 
ATOM     25  C   UNL d   1      11.776   8.473  -3.738  0.00  0.00     0.119 A 
ATOM     26  O   UNL d   1      11.825   6.304  -4.177  0.00  0.00    -0.300 OA
ATOM     27  C   UNL d   1      11.469   9.820  -3.943  0.00  0.00     0.026 A 
ATOM     28  O   UNL d   1      12.270   7.894  -2.611  0.00  0.00    -0.300 OA
ATOM     29  C   UNL d   1      10.918  10.175  -5.184  0.00  0.00     0.002 A 
ATOM     30  C   UNL d   1      10.597   9.202  -6.147  0.00  0.00    -0.002 A 
ATOM     31  C   UNL d   1      12.264   6.517  -2.862  0.00  0.00     0.304 A 
ENDBRANCH  20  23
ENDBRANCH   1  17
TORSDOF 6
