REMARK  1 active torsions:
REMARK  status: ('A' for Active; 'I' for Inactive)
REMARK    1  A    between atoms: C_2  and  C_4 
ROOT
ATOM      1  C   UNL d   1      11.063   7.907  -5.240  0.00  0.00     0.090 A 
ATOM      2  C   UNL d   1      11.467   6.801  -4.458  0.00  0.00     0.008 A 
ATOM      3  C   UNL d   1      12.053   6.985  -3.188  0.00  0.00     0.000 A 
ATOM      4  C   UNL d   1      12.255   8.286  -2.695  0.00  0.00     0.002 A 
ATOM      5  C   UNL d   1      11.867   9.395  -3.466  0.00  0.00     0.028 A 
ATOM      6  C   UNL d   1      11.293   9.218  -4.738  0.00  0.00     0.137 A 
ATOM      7  O   UNL d   1      10.983  10.337  -5.455  0.00  0.00    -0.190 OA
ENDROOT
BRANCH   1   8
ATOM      8  C   UNL d   1      10.443   7.651  -6.590  0.00  0.00     0.213 C 
ATOM      9  O   UNL d   1      10.729   6.654  -7.247  0.00  0.00    -0.644 OA
ATOM     10  O   UNL d   1       9.478   8.547  -6.955  0.00  0.00    -0.644 OA
ENDBRANCH   1   8
TORSDOF 1
