REMARK  8 active torsions:
REMARK  status: ('A' for Active; 'I' for Inactive)
REMARK    1  A    between atoms: C_3  and  S_4 
REMARK    2  A    between atoms: S_4  and  C_5 
REMARK    3  A    between atoms: C_5  and  C_6 
REMARK    4  A    between atoms: C_6  and  C_7 
REMARK    5  A    between atoms: C_7  and  N_8 
REMARK    6  A    between atoms: N_13  and  C_14 
REMARK    7  A    between atoms: C_18  and  C_19 
REMARK    8  A    between atoms: C_28  and  C_29 
ROOT
ATOM      1  N   UNL d   1       8.978   3.013 -17.668  0.00  0.00     0.138 N 
ATOM      2  C   UNL d   1      10.167   2.568 -16.920  0.00  0.00     0.252 C 
ATOM      3  C   UNL d   1       9.611   1.547 -15.923  0.00  0.00     0.052 C 
ATOM      4  C   UNL d   1       9.145   2.123 -14.581  0.00  0.00     0.021 C 
ATOM      5  C   UNL d   1       7.831   1.393 -14.335  0.00  0.00     0.077 C 
ATOM      6  N   UNL d   1       7.244   1.209 -15.652  0.00  0.00    -0.252 NA
ATOM      7  C   UNL d   1       8.344   1.019 -16.587  0.00  0.00     0.097 C 
ATOM      8  C   UNL d   1       8.185   1.823 -17.876  0.00  0.00     0.266 C 
ENDROOT
BRANCH   1   9
ATOM      9  C   UNL d   1       9.223   3.673 -18.951  0.00  0.00     0.251 C 
BRANCH   9  10
ATOM     10  C   UNL d   1       9.830   5.037 -18.671  0.00  0.00     0.047 C 
BRANCH  10  11
ATOM     11  C   UNL d   1      10.128   5.863 -19.936  0.00  0.00     0.067 C 
BRANCH  11  12
ATOM     12  S   UNL d   1      10.880   7.502 -19.590  0.00  0.00    -0.075 SA
BRANCH  12  13
ATOM     13  C   UNL d   1      12.302   7.093 -18.640  0.00  0.00     0.193 A 
ATOM     14  N   UNL d   1      13.555   7.422 -18.989  0.00  0.00    -0.287 N 
ATOM     15  C   UNL d   1      13.988   8.326 -20.049  0.00  0.00     0.134 C 
ATOM     16  C   UNL d   1      14.284   6.746 -18.060  0.00  0.00     0.186 A 
ATOM     17  N   UNL d   1      13.529   6.089 -17.184  0.00  0.00    -0.127 NA
ATOM     18  N   UNL d   1      12.230   6.376 -17.513  0.00  0.00    -0.122 NA
BRANCH  16  19
ATOM     19  C   UNL d   1      15.750   6.757 -17.891  0.00  0.00     0.136 A 
ATOM     20  N   UNL d   1      16.512   7.561 -18.671  0.00  0.00    -0.238 NA
ATOM     21  C   UNL d   1      17.835   7.580 -18.429  0.00  0.00     0.120 A 
ATOM     22  C   UNL d   1      18.414   6.792 -17.403  0.00  0.00     0.120 A 
ATOM     23  N   UNL d   1      17.678   5.990 -16.601  0.00  0.00    -0.239 NA
ATOM     24  C   UNL d   1      16.348   5.981 -16.860  0.00  0.00     0.121 A 
ENDBRANCH  16  19
ENDBRANCH  12  13
ENDBRANCH  11  12
ENDBRANCH  10  11
ENDBRANCH   9  10
ENDBRANCH   1   9
BRANCH   6  25
ATOM     25  C   UNL d   1       6.118   0.366 -15.770  0.00  0.00     0.036 A 
ATOM     26  C   UNL d   1       5.745  -0.184 -17.023  0.00  0.00     0.015 A 
ATOM     27  C   UNL d   1       4.642  -1.049 -17.142  0.00  0.00     0.072 A 
ATOM     28  C   UNL d   1       3.885  -1.359 -15.994  0.00  0.00     0.004 A 
ATOM     29  C   UNL d   1       4.221  -0.802 -14.748  0.00  0.00     0.001 A 
ATOM     30  C   UNL d   1       5.325   0.056 -14.637  0.00  0.00     0.011 A 
BRANCH  27  31
ATOM     31  C   UNL d   1       4.298  -1.631 -18.502  0.00  0.00     0.419 C 
ATOM     32  F   UNL d   1       4.070  -0.637 -19.361  0.00  0.00    -0.166 F 
ATOM     33  F   UNL d   1       5.322  -2.357 -18.952  0.00  0.00    -0.166 F 
ATOM     34  F   UNL d   1       3.216  -2.406 -18.453  0.00  0.00    -0.166 F 
ENDBRANCH  27  31
ENDBRANCH   6  25
TORSDOF 8
