REMARK  6 active torsions:
REMARK  status: ('A' for Active; 'I' for Inactive)
REMARK       I    between atoms: C_2  and  N_3 
REMARK    1  A    between atoms: C_2  and  C_27 
REMARK    2  A    between atoms: N_3  and  C_4 
REMARK    3  A    between atoms: C_4  and  C_5 
REMARK    4  A    between atoms: C_5  and  C_6 
REMARK    5  A    between atoms: C_6  and  C_7 
REMARK    6  A    between atoms: C_7  and  N_8 
ROOT
ATOM      1  N   UNL d   1       9.493   4.287 -13.771  0.00  0.00     0.141 N 
ATOM      2  C   UNL d   1      10.521   4.123 -14.799  0.00  0.00     0.274 C 
ATOM      3  C   UNL d   1       9.845   3.901 -16.159  0.00  0.00     0.137 C 
ATOM      4  N   UNL d   1       9.004   2.714 -16.101  0.00  0.00    -0.343 N 
ATOM      5  C   UNL d   1       8.700   2.103 -17.337  0.00  0.00     0.053 A 
ATOM      6  C   UNL d   1       8.648   2.817 -18.555  0.00  0.00     0.017 A 
ATOM      7  C   UNL d   1       8.330   2.164 -19.764  0.00  0.00     0.002 A 
ATOM      8  C   UNL d   1       8.105   0.775 -19.794  0.00  0.00    -0.000 A 
ATOM      9  C   UNL d   1       8.180   0.053 -18.592  0.00  0.00    -0.003 A 
ATOM     10  C   UNL d   1       8.474   0.722 -17.382  0.00  0.00    -0.002 A 
ATOM     11  C   UNL d   1       8.527  -0.044 -16.100  0.00  0.00     0.054 C 
ATOM     12  C   UNL d   1       7.293   0.250 -15.248  0.00  0.00    -0.020 A 
ATOM     13  C   UNL d   1       6.284  -0.728 -14.988  0.00  0.00    -0.004 A 
ATOM     14  C   UNL d   1       5.181  -0.477 -14.180  0.00  0.00    -0.000 A 
ATOM     15  C   UNL d   1       4.988   0.797 -13.669  0.00  0.00    -0.000 A 
ATOM     16  C   UNL d   1       5.920   1.817 -13.962  0.00  0.00    -0.003 A 
ATOM     17  C   UNL d   1       7.075   1.560 -14.745  0.00  0.00    -0.004 A 
ATOM     18  C   UNL d   1       8.043   2.724 -14.982  0.00  0.00     0.137 C 
ATOM     19  C   UNL d   1       8.751   3.043 -13.669  0.00  0.00     0.277 C 
ENDROOT
BRANCH   1  20
ATOM     20  C   UNL d   1      10.091   4.525 -12.474  0.00  0.00     0.251 C 
BRANCH  20  21
ATOM     21  C   UNL d   1       9.164   5.269 -11.505  0.00  0.00     0.037 C 
BRANCH  21  22
ATOM     22  C   UNL d   1       9.847   5.555 -10.151  0.00  0.00     0.029 C 
BRANCH  22  23
ATOM     23  C   UNL d   1       9.002   6.418  -9.228  0.00  0.00     0.129 C 
BRANCH  23  24
ATOM     24  N   UNL d   1       9.749   6.839  -8.052  0.00  0.00    -0.234 NA
ATOM     25  C   UNL d   1      10.387   8.015  -7.922  0.00  0.00     0.275 C 
ATOM     26  O   UNL d   1      10.509   8.846  -8.821  0.00  0.00    -0.266 OA
BRANCH  25  27
ATOM     27  C   UNL d   1      10.863   8.318  -6.543  0.00  0.00     0.058 A 
ATOM     28  C   UNL d   1      11.278   7.295  -5.666  0.00  0.00     0.005 A 
ATOM     29  C   UNL d   1      11.725   7.614  -4.377  0.00  0.00     0.000 A 
ATOM     30  C   UNL d   1      11.754   8.966  -3.949  0.00  0.00     0.000 A 
ATOM     31  C   UNL d   1      12.143   6.607  -3.499  0.00  0.00     0.000 A 
ATOM     32  C   UNL d   1      11.312   9.985  -4.809  0.00  0.00     0.000 A 
ATOM     33  C   UNL d   1      12.223   9.278  -2.660  0.00  0.00     0.000 A 
ATOM     34  C   UNL d   1      10.903   9.661  -6.113  0.00  0.00     0.005 A 
ATOM     35  C   UNL d   1      12.668   8.267  -1.804  0.00  0.00     0.000 A 
ATOM     36  C   UNL d   1      12.602   6.925  -2.210  0.00  0.00     0.000 A 
ENDBRANCH  25  27
ENDBRANCH  23  24
ENDBRANCH  22  23
ENDBRANCH  21  22
ENDBRANCH  20  21
ENDBRANCH   1  20
TORSDOF 6
