REMARK  9 active torsions:
REMARK  status: ('A' for Active; 'I' for Inactive)
REMARK    1  A    between atoms: O_2  and  C_3 
REMARK    2  A    between atoms: C_8  and  N_9 
REMARK    3  A    between atoms: N_12  and  C_13 
REMARK    4  A    between atoms: C_13  and  C_14 
REMARK    5  A    between atoms: C_14  and  C_16 
REMARK    6  A    between atoms: C_16  and  C_17 
REMARK    7  A    between atoms: C_17  and  N_18 
REMARK       I    between atoms: N_18  and  C_19 
REMARK    8  A    between atoms: C_19  and  C_21 
REMARK    9  A    between atoms: C_24  and  C_25 
ROOT
ATOM      1  C   UNL d   1       9.680   4.713 -13.396  0.00  0.00     0.188 C 
ATOM      2  O   UNL d   1      10.954   4.181 -13.678  0.00  0.00    -0.221 OA
ENDROOT
BRANCH   1   3
ATOM      3  C   UNL d   1       8.727   4.329 -14.542  0.00  0.00     0.283 C 
BRANCH   3   4
ATOM      4  N   UNL d   1       8.273   2.937 -14.496  0.00  0.00     0.144 N 
ATOM      5  C   UNL d   1       8.711   2.167 -15.664  0.00  0.00     0.274 C 
ATOM      6  C   UNL d   1       8.282   0.692 -15.589  0.00  0.00     0.137 C 
ATOM      7  N   UNL d   1       6.836   0.606 -15.386  0.00  0.00    -0.343 N 
ATOM      8  C   UNL d   1       6.330   1.388 -14.255  0.00  0.00     0.137 C 
ATOM      9  C   UNL d   1       6.813   2.831 -14.359  0.00  0.00     0.274 C 
BRANCH   7  10
ATOM     10  C   UNL d   1       6.004  -0.173 -16.221  0.00  0.00     0.079 A 
ATOM     11  C   UNL d   1       4.840  -0.806 -15.712  0.00  0.00     0.110 A 
ATOM     12  C   UNL d   1       4.003  -1.533 -16.607  0.00  0.00     0.026 A 
ATOM     13  C   UNL d   1       4.344  -1.685 -17.961  0.00  0.00     0.002 A 
ATOM     14  C   UNL d   1       5.513  -1.093 -18.451  0.00  0.00     0.002 A 
ATOM     15  C   UNL d   1       6.327  -0.329 -17.593  0.00  0.00     0.019 A 
BRANCH  11  16
ATOM     16  O   UNL d   1       4.575  -0.716 -14.362  0.00  0.00    -0.327 OA
ATOM     17  C   UNL d   1       3.246  -0.957 -13.929  0.00  0.00     0.181 C 
ENDBRANCH  11  16
ENDBRANCH   7  10
ENDBRANCH   3   4
ENDBRANCH   1   3
BRANCH   1  18
ATOM     18  C   UNL d   1       9.227   4.228 -12.000  0.00  0.00     0.061 C 
BRANCH  18  19
ATOM     19  C   UNL d   1       8.175   5.143 -11.339  0.00  0.00     0.132 C 
BRANCH  19  20
ATOM     20  N   UNL d   1       8.682   5.672 -10.080  0.00  0.00    -0.234 NA
ATOM     21  C   UNL d   1       9.472   6.753  -9.986  0.00  0.00     0.275 C 
ATOM     22  O   UNL d   1       9.810   7.445 -10.945  0.00  0.00    -0.266 OA
BRANCH  21  23
ATOM     23  C   UNL d   1       9.939   7.089  -8.606  0.00  0.00     0.058 A 
ATOM     24  C   UNL d   1       9.856   8.406  -8.119  0.00  0.00     0.005 A 
ATOM     25  C   UNL d   1      10.360   8.717  -6.838  0.00  0.00     0.002 A 
ATOM     26  C   UNL d   1      10.966   7.729  -6.022  0.00  0.00     0.018 A 
ATOM     27  C   UNL d   1      11.062   6.422  -6.548  0.00  0.00     0.002 A 
ATOM     28  C   UNL d   1      10.535   6.102  -7.811  0.00  0.00     0.005 A 
BRANCH  26  29
ATOM     29  C   UNL d   1      11.462   8.032  -4.653  0.00  0.00     0.081 A 
ATOM     30  N   UNL d   1      11.465   9.345  -4.313  0.00  0.00    -0.244 NA
ATOM     31  C   UNL d   1      11.866   9.692  -3.075  0.00  0.00     0.099 A 
ATOM     32  C   UNL d   1      12.323   8.775  -2.118  0.00  0.00     0.021 A 
ATOM     33  C   UNL d   1      12.318   7.414  -2.451  0.00  0.00     0.003 A 
ATOM     34  C   UNL d   1      11.879   7.037  -3.733  0.00  0.00     0.019 A 
ENDBRANCH  26  29
ENDBRANCH  21  23
ENDBRANCH  19  20
ENDBRANCH  18  19
ENDBRANCH   1  18
TORSDOF 9
