REMARK  8 active torsions:
REMARK  status: ('A' for Active; 'I' for Inactive)
REMARK    1  A    between atoms: O_2  and  C_3 
REMARK    2  A    between atoms: C_9  and  N_10 
REMARK    3  A    between atoms: N_16  and  C_17 
REMARK    4  A    between atoms: C_17  and  C_18 
REMARK    5  A    between atoms: C_18  and  C_19 
REMARK    6  A    between atoms: C_19  and  S_20 
REMARK    7  A    between atoms: S_20  and  C_21 
REMARK    8  A    between atoms: C_24  and  C_25 
ROOT
ATOM      1  N   UNL d   1       9.089   3.337 -15.306  0.00  0.00    -0.347 N 
ATOM      2  C   UNL d   1       9.935   3.992 -14.319  0.00  0.00     0.102 C 
ATOM      3  C   UNL d   1      11.414   3.757 -14.669  0.00  0.00     0.024 C 
ATOM      4  C   UNL d   1      11.728   4.169 -16.136  0.00  0.00     0.008 C 
ATOM      5  C   UNL d   1      11.616   5.704 -16.274  0.00  0.00     0.035 C 
ATOM      6  C   UNL d   1      12.072   6.200 -17.648  0.00  0.00     0.250 C 
ATOM      7  N   UNL d   1      13.469   5.821 -17.875  0.00  0.00     0.137 N 
ATOM      8  C   UNL d   1      13.624   4.364 -17.848  0.00  0.00     0.250 C 
ATOM      9  C   UNL d   1      13.181   3.809 -16.482  0.00  0.00     0.035 C 
ATOM     10  C   UNL d   1      10.755   3.411 -17.090  0.00  0.00     0.024 C 
ATOM     11  C   UNL d   1       9.293   3.643 -16.711  0.00  0.00     0.102 C 
ENDROOT
BRANCH   7  12
ATOM     12  C   UNL d   1      13.880   6.334 -19.176  0.00  0.00     0.251 C 
BRANCH  12  13
ATOM     13  C   UNL d   1      14.262   7.816 -19.063  0.00  0.00     0.047 C 
BRANCH  13  14
ATOM     14  C   UNL d   1      14.572   8.431 -20.432  0.00  0.00     0.067 C 
BRANCH  14  15
ATOM     15  S   UNL d   1      15.310  10.086 -20.292  0.00  0.00    -0.075 SA
BRANCH  15  16
ATOM     16  C   UNL d   1      16.906   9.596 -19.726  0.00  0.00     0.193 A 
ATOM     17  N   UNL d   1      17.894   9.213 -20.560  0.00  0.00    -0.289 N 
ATOM     18  C   UNL d   1      18.901   8.941 -19.699  0.00  0.00     0.167 A 
ATOM     19  C   UNL d   1      17.878   9.130 -22.012  0.00  0.00     0.134 C 
ATOM     20  N   UNL d   1      18.565   9.161 -18.422  0.00  0.00    -0.128 NA
ATOM     21  N   UNL d   1      17.258   9.591 -18.441  0.00  0.00    -0.122 NA
BRANCH  18  22
ATOM     22  C   UNL d   1      20.229   8.469 -20.079  0.00  0.00     0.036 A 
ATOM     23  C   UNL d   1      20.380   7.317 -20.883  0.00  0.00     0.003 A 
ATOM     24  C   UNL d   1      21.665   6.875 -21.248  0.00  0.00     0.000 A 
ATOM     25  C   UNL d   1      22.805   7.579 -20.819  0.00  0.00     0.000 A 
ATOM     26  C   UNL d   1      22.660   8.724 -20.011  0.00  0.00     0.000 A 
ATOM     27  C   UNL d   1      21.375   9.167 -19.640  0.00  0.00     0.003 A 
ENDBRANCH  18  22
ENDBRANCH  15  16
ENDBRANCH  14  15
ENDBRANCH  13  14
ENDBRANCH  12  13
ENDBRANCH   7  12
BRANCH   1  28
ATOM     28  C   UNL d   1       8.059   2.478 -14.905  0.00  0.00     0.079 A 
ATOM     29  C   UNL d   1       7.043   2.936 -14.032  0.00  0.00     0.112 A 
ATOM     30  C   UNL d   1       6.026   2.035 -13.639  0.00  0.00     0.055 A 
ATOM     31  C   UNL d   1       6.024   0.710 -14.105  0.00  0.00     0.142 A 
ATOM     32  F   UNL d   1       5.051  -0.142 -13.708  0.00  0.00    -0.204 F 
ATOM     33  C   UNL d   1       7.030   0.265 -14.982  0.00  0.00     0.031 A 
ATOM     34  C   UNL d   1       8.046   1.153 -15.387  0.00  0.00     0.021 A 
BRANCH  29  35
ATOM     35  O   UNL d   1       7.101   4.251 -13.605  0.00  0.00    -0.327 OA
ATOM     36  C   UNL d   1       6.126   4.702 -12.678  0.00  0.00     0.181 C 
ENDBRANCH  29  35
ENDBRANCH   1  28
TORSDOF 8
