REMARK  8 active torsions:
REMARK  status: ('A' for Active; 'I' for Inactive)
REMARK    1  A    between atoms: O_2  and  C_3 
REMARK    2  A    between atoms: C_8  and  N_9 
REMARK    3  A    between atoms: N_12  and  C_13 
REMARK    4  A    between atoms: C_13  and  C_14 
REMARK    5  A    between atoms: C_14  and  C_15 
REMARK    6  A    between atoms: C_15  and  C_16 
REMARK    7  A    between atoms: C_16  and  N_17 
REMARK       I    between atoms: N_17  and  C_18 
REMARK    8  A    between atoms: C_18  and  C_20 
ROOT
ATOM      1  N   UNL d   1       7.551   1.760 -16.236  0.00  0.00    -0.234 NA
ATOM      2  C   UNL d   1       7.321   1.555 -17.542  0.00  0.00     0.275 C 
ATOM      3  O   UNL d   1       6.246   1.173 -17.994  0.00  0.00    -0.266 OA
ENDROOT
BRANCH   1   4
ATOM      4  C   UNL d   1       6.608   1.548 -15.144  0.00  0.00     0.129 C 
BRANCH   4   5
ATOM      5  C   UNL d   1       6.286   2.867 -14.432  0.00  0.00     0.029 C 
BRANCH   5   6
ATOM      6  C   UNL d   1       7.481   3.561 -13.783  0.00  0.00     0.037 C 
BRANCH   6   7
ATOM      7  C   UNL d   1       7.011   4.769 -12.956  0.00  0.00     0.251 C 
BRANCH   7   8
ATOM      8  N   UNL d   1       8.166   5.408 -12.309  0.00  0.00     0.141 N 
ATOM      9  C   UNL d   1       8.424   4.681 -11.074  0.00  0.00     0.274 C 
ATOM     10  C   UNL d   1       9.588   5.307 -10.347  0.00  0.00     0.137 C 
ATOM     11  N   UNL d   1       9.465   6.714 -10.130  0.00  0.00    -0.343 N 
ATOM     12  C   UNL d   1       9.057   7.487 -11.290  0.00  0.00     0.137 C 
ATOM     13  C   UNL d   1       7.842   6.782 -11.960  0.00  0.00     0.274 C 
BRANCH  11  14
ATOM     14  C   UNL d   1       9.657   7.241  -8.854  0.00  0.00     0.079 A 
ATOM     15  C   UNL d   1      10.404   8.410  -8.613  0.00  0.00     0.110 A 
ATOM     16  C   UNL d   1      10.546   8.891  -7.304  0.00  0.00     0.026 A 
ATOM     17  C   UNL d   1       9.960   8.200  -6.233  0.00  0.00     0.002 A 
ATOM     18  C   UNL d   1       9.221   7.024  -6.471  0.00  0.00     0.002 A 
ATOM     19  C   UNL d   1       9.065   6.543  -7.783  0.00  0.00     0.019 A 
BRANCH  15  20
ATOM     20  O   UNL d   1      11.010   9.159  -9.597  0.00  0.00    -0.327 OA
ATOM     21  C   UNL d   1      12.230   8.598 -10.029  0.00  0.00     0.181 C 
ENDBRANCH  15  20
ENDBRANCH  11  14
ENDBRANCH   7   8
ENDBRANCH   6   7
ENDBRANCH   5   6
ENDBRANCH   4   5
ENDBRANCH   1   4
BRANCH   2  22
ATOM     22  C   UNL d   1       8.482   1.855 -18.455  0.00  0.00     0.053 C 
ATOM     23  C   UNL d   1       8.850   1.054 -19.564  0.00  0.00    -0.017 C 
ATOM     24  C   UNL d   1       9.798   1.414 -20.555  0.00  0.00    -0.004 C 
ATOM     25  C   UNL d   1       8.459  -0.433 -19.409  0.00  0.00     0.031 C 
ATOM     26  C   UNL d   1      10.621   2.545 -20.283  0.00  0.00    -0.005 C 
ATOM     27  C   UNL d   1      10.398   3.192 -19.048  0.00  0.00    -0.022 C 
ATOM     28  C   UNL d   1       9.296   2.974 -18.205  0.00  0.00     0.000 C 
ATOM     29  C   UNL d   1      11.506   3.942 -18.291  0.00  0.00     0.031 C 
ATOM     30  C   UNL d   1      12.630   2.995 -17.738  0.00  0.00     0.031 C 
ATOM     31  C   UNL d   1      12.154   1.556 -17.535  0.00  0.00    -0.022 C 
ATOM     32  C   UNL d   1      12.445   0.638 -18.567  0.00  0.00    -0.005 C 
ATOM     33  C   UNL d   1      11.300   1.318 -16.440  0.00  0.00    -0.005 C 
ATOM     34  C   UNL d   1      11.558  -0.450 -18.701  0.00  0.00    -0.005 C 
ATOM     35  C   UNL d   1      10.491  -0.497 -17.782  0.00  0.00    -0.022 C 
ATOM     36  C   UNL d   1       9.206  -1.185 -18.247  0.00  0.00     0.031 C 
ATOM     37  C   UNL d   1      10.425   0.217 -16.566  0.00  0.00    -0.005 C 
ENDBRANCH   2  22
TORSDOF 8
