REMARK  7 active torsions:
REMARK  status: ('A' for Active; 'I' for Inactive)
REMARK    1  A    between atoms: C_4  and  N_5 
REMARK    2  A    between atoms: N_5  and  S_6 
REMARK    3  A    between atoms: S_6  and  C_9 
REMARK    4  A    between atoms: N_19  and  C_20 
REMARK    5  A    between atoms: C_20  and  C_21 
REMARK    6  A    between atoms: C_21  and  C_22 
REMARK    7  A    between atoms: C_22  and  C_23 
ROOT
ATOM      1  C   UNL d   1       5.596   1.547 -13.008  0.00  0.00     0.035 C 
ATOM      2  C   UNL d   1       6.206   2.954 -13.115  0.00  0.00     0.221 C 
ATOM      3  C   UNL d   1       6.434   3.669 -11.771  0.00  0.00     0.060 C 
ATOM      4  C   UNL d   1       7.717   4.469 -11.976  0.00  0.00     0.151 C 
ATOM      5  C   UNL d   1       8.083   4.205 -13.424  0.00  0.00     0.275 C 
ATOM      6  N   UNL d   1       7.528   2.909 -13.733  0.00  0.00     0.137 N 
ENDROOT
BRANCH   4   7
ATOM      7  N   UNL d   1       7.518   5.894 -11.755  0.00  0.00    -0.184 NA
BRANCH   7   8
ATOM      8  S   UNL d   1       8.792   7.016 -12.017  0.00  0.00     0.287 S 
ATOM      9  O   UNL d   1       9.812   6.351 -12.836  0.00  0.00    -0.198 OA
ATOM     10  O   UNL d   1       8.195   8.289 -12.438  0.00  0.00    -0.198 OA
BRANCH   8  11
ATOM     11  C   UNL d   1       9.511   7.274 -10.403  0.00  0.00     0.134 A 
ATOM     12  S   UNL d   1      10.383   8.746 -10.078  0.00  0.00    -0.074 SA
ATOM     13  C   UNL d   1      10.611   8.299  -8.401  0.00  0.00     0.030 A 
ATOM     14  C   UNL d   1      10.000   7.040  -8.148  0.00  0.00     0.007 A 
ATOM     15  C   UNL d   1      11.263   9.033  -7.387  0.00  0.00     0.006 A 
ATOM     16  C   UNL d   1       9.391   6.445  -9.316  0.00  0.00     0.020 A 
ATOM     17  C   UNL d   1      10.078   6.565  -6.824  0.00  0.00     0.001 A 
ATOM     18  C   UNL d   1      10.728   7.281  -5.794  0.00  0.00     0.000 A 
ATOM     19  C   UNL d   1      11.327   8.524  -6.076  0.00  0.00     0.001 A 
ENDBRANCH   8  11
ENDBRANCH   7   8
ENDBRANCH   4   7
BRANCH   6  20
ATOM     20  C   UNL d   1       7.496   2.590 -15.150  0.00  0.00     0.251 C 
BRANCH  20  21
ATOM     21  C   UNL d   1       8.800   3.007 -15.883  0.00  0.00     0.042 C 
BRANCH  21  22
ATOM     22  C   UNL d   1       8.802   2.604 -17.360  0.00  0.00     0.050 C 
BRANCH  22  23
ATOM     23  C   UNL d   1       9.650   1.390 -17.605  0.00  0.00     0.088 A 
ATOM     24  C   UNL d   1      10.873   1.254 -18.296  0.00  0.00     0.041 A 
ATOM     25  C   UNL d   1      11.273  -0.082 -18.241  0.00  0.00     0.129 A 
ATOM     26  C   UNL d   1      11.669   2.197 -18.981  0.00  0.00     0.006 A 
ATOM     27  O   UNL d   1      10.296  -0.731 -17.506  0.00  0.00    -0.211 OA
ATOM     28  C   UNL d   1      12.447  -0.545 -18.853  0.00  0.00     0.057 A 
ATOM     29  N   UNL d   1       9.287   0.199 -17.128  0.00  0.00    -0.131 NA
ATOM     30  C   UNL d   1      13.242   0.390 -19.543  0.00  0.00     0.142 A 
ATOM     31  F   UNL d   1      14.380  -0.018 -20.152  0.00  0.00    -0.204 F 
ATOM     32  C   UNL d   1      12.858   1.752 -19.607  0.00  0.00     0.030 A 
ENDBRANCH  22  23
ENDBRANCH  21  22
ENDBRANCH  20  21
ENDBRANCH   6  20
TORSDOF 7
