REMARK  6 active torsions:
REMARK  status: ('A' for Active; 'I' for Inactive)
REMARK    1  A    between atoms: N_5  and  C_6 
REMARK    2  A    between atoms: C_6  and  C_7 
REMARK    3  A    between atoms: C_7  and  C_8 
REMARK    4  A    between atoms: C_8  and  O_9 
REMARK    5  A    between atoms: O_9  and  C_10 
REMARK    6  A    between atoms: C_13  and  C_14 
ROOT
ATOM      1  C   UNL d   1       9.028   5.833 -10.855  0.00  0.00     0.094 A 
ATOM      2  C   UNL d   1       8.685   5.194  -9.648  0.00  0.00     0.024 A 
ATOM      3  C   UNL d   1       9.159   5.692  -8.422  0.00  0.00     0.005 A 
ATOM      4  C   UNL d   1       9.967   6.847  -8.375  0.00  0.00     0.036 A 
ATOM      5  C   UNL d   1      10.311   7.489  -9.576  0.00  0.00     0.005 A 
ATOM      6  C   UNL d   1       9.845   6.989 -10.805  0.00  0.00     0.024 A 
ENDROOT
BRANCH   1   7
ATOM      7  O   UNL d   1       8.493   5.297 -12.005  0.00  0.00    -0.331 OA
BRANCH   7   8
ATOM      8  C   UNL d   1       8.998   5.688 -13.278  0.00  0.00     0.151 C 
BRANCH   8   9
ATOM      9  C   UNL d   1       9.868   4.571 -13.869  0.00  0.00     0.068 C 
BRANCH   9  10
ATOM     10  C   UNL d   1       9.128   3.227 -13.949  0.00  0.00     0.253 C 
BRANCH  10  11
ATOM     11  N   UNL d   1       9.444   2.433 -15.140  0.00  0.00     0.141 N 
ATOM     12  C   UNL d   1       8.554   1.277 -15.250  0.00  0.00     0.285 C 
ATOM     13  C   UNL d   1       8.873   0.432 -16.502  0.00  0.00     0.285 C 
ATOM     14  N   UNL d   1      10.256  -0.034 -16.491  0.00  0.00     0.143 N 
ATOM     15  C   UNL d   1      10.562  -0.831 -17.678  0.00  0.00     0.285 C 
ATOM     16  C   UNL d   1      11.146   1.122 -16.385  0.00  0.00     0.285 C 
ATOM     17  C   UNL d   1      10.828   1.962 -15.130  0.00  0.00     0.285 C 
ENDBRANCH  10  11
ENDBRANCH   9  10
ENDBRANCH   8   9
ENDBRANCH   7   8
ENDBRANCH   1   7
BRANCH   4  18
ATOM     18  C   UNL d   1      10.468   7.375  -7.114  0.00  0.00     0.162 A 
ATOM     19  N   UNL d   1      10.934   6.588  -6.127  0.00  0.00    -0.225 NA
ATOM     20  C   UNL d   1      11.333   7.403  -5.084  0.00  0.00     0.101 A 
ATOM     21  C   UNL d   1      11.061   8.712  -5.568  0.00  0.00     0.101 A 
ATOM     22  C   UNL d   1      11.871   7.170  -3.808  0.00  0.00     0.021 A 
ATOM     23  N   UNL d   1      10.537   8.683  -6.845  0.00  0.00    -0.225 NA
ATOM     24  C   UNL d   1      11.334   9.801  -4.714  0.00  0.00     0.021 A 
ATOM     25  C   UNL d   1      11.871   9.580  -3.429  0.00  0.00     0.002 A 
ATOM     26  C   UNL d   1      12.147   8.273  -2.977  0.00  0.00     0.002 A 
ENDBRANCH   4  18
TORSDOF 6
