REMARK  4 active torsions:
REMARK  status: ('A' for Active; 'I' for Inactive)
REMARK    1  A    between atoms: C_8  and  C_9 
REMARK    2  A    between atoms: C_9  and  C_10 
REMARK    3  A    between atoms: C_10  and  N_11 
REMARK    4  A    between atoms: C_14  and  C_15 
ROOT
ATOM      1  N   UNL d   1      10.492   0.737 -18.290  0.00  0.00     0.137 N 
ATOM      2  C   UNL d   1      10.458   1.283 -19.669  0.00  0.00     0.251 C 
ATOM      3  C   UNL d   1      11.118   0.336 -20.667  0.00  0.00     0.041 C 
ATOM      4  C   UNL d   1      12.534  -0.090 -20.204  0.00  0.00     0.047 C 
ATOM      5  C   UNL d   1      12.449  -0.718 -18.791  0.00  0.00     0.041 C 
ATOM      6  C   UNL d   1      11.793   0.226 -17.795  0.00  0.00     0.251 C 
ENDROOT
BRANCH   1   7
ATOM      7  C   UNL d   1       9.857   1.667 -17.344  0.00  0.00     0.255 C 
BRANCH   7   8
ATOM      8  C   UNL d   1       9.454   1.004 -16.025  0.00  0.00     0.068 C 
BRANCH   8   9
ATOM      9  C   UNL d   1       8.736   1.987 -15.108  0.00  0.00     0.050 A 
ATOM     10  C   UNL d   1       7.398   1.928 -14.887  0.00  0.00     0.062 A 
ATOM     11  C   UNL d   1       6.496   0.892 -15.534  0.00  0.00     0.052 C 
ATOM     12  N   UNL d   1       6.762   2.838 -14.041  0.00  0.00    -0.230 NA
ATOM     13  C   UNL d   1       7.464   3.753 -13.440  0.00  0.00     0.181 A 
ATOM     14  C   UNL d   1       6.695   4.668 -12.511  0.00  0.00     0.207 C 
ATOM     15  N   UNL d   1       8.850   3.864 -13.608  0.00  0.00    -0.279 N 
ATOM     16  C   UNL d   1       7.453   5.769 -11.770  0.00  0.00     0.074 C 
ATOM     17  O   UNL d   1       5.449   4.563 -12.346  0.00  0.00    -0.288 OA
ATOM     18  C   UNL d   1       8.912   5.377 -11.575  0.00  0.00     0.033 C 
ATOM     19  C   UNL d   1       9.566   4.955 -12.905  0.00  0.00     0.111 C 
ATOM     20  C   UNL d   1       9.537   3.030 -14.440  0.00  0.00     0.259 A 
ATOM     21  O   UNL d   1      10.751   3.160 -14.622  0.00  0.00    -0.267 OA
ENDBRANCH   8   9
ENDBRANCH   7   8
ENDBRANCH   1   7
BRANCH   4  22
ATOM     22  C   UNL d   1      13.535   1.060 -20.274  0.00  0.00     0.087 A 
ATOM     23  C   UNL d   1      13.614   2.324 -19.606  0.00  0.00     0.041 A 
ATOM     24  C   UNL d   1      14.734   3.018 -20.038  0.00  0.00     0.129 A 
ATOM     25  C   UNL d   1      12.805   2.972 -18.646  0.00  0.00     0.006 A 
ATOM     26  O   UNL d   1      15.338   2.178 -20.966  0.00  0.00    -0.211 OA
ATOM     27  C   UNL d   1      15.039   4.302 -19.528  0.00  0.00     0.057 A 
ATOM     28  N   UNL d   1      14.580   0.969 -21.100  0.00  0.00    -0.131 NA
ATOM     29  C   UNL d   1      14.190   4.898 -18.546  0.00  0.00     0.142 A 
ATOM     30  F   UNL d   1      14.438   6.122 -18.028  0.00  0.00    -0.204 F 
ATOM     31  C   UNL d   1      13.059   4.215 -18.099  0.00  0.00     0.030 A 
ENDBRANCH   4  22
TORSDOF 4
