REMARK  7 active torsions:
REMARK  status: ('A' for Active; 'I' for Inactive)
REMARK    1  A    between atoms: C_3  and  S_4 
REMARK    2  A    between atoms: S_4  and  N_7 
REMARK    3  A    between atoms: N_7  and  C_8 
REMARK    4  A    between atoms: C_8  and  C_9 
REMARK    5  A    between atoms: C_9  and  C_10 
REMARK    6  A    between atoms: C_10  and  N_11 
REMARK    7  A    between atoms: N_14  and  C_15 
ROOT
ATOM      1  C   UNL d   1       9.183   6.107 -10.978  0.00  0.00     0.062 C 
ENDROOT
BRANCH   1   2
ATOM      2  C   UNL d   1       8.760   4.636 -10.773  0.00  0.00     0.141 C 
BRANCH   2   3
ATOM      3  N   UNL d   1       7.389   4.462 -11.249  0.00  0.00    -0.184 NA
BRANCH   3   4
ATOM      4  S   UNL d   1       6.898   4.823 -12.854  0.00  0.00     0.287 S 
ATOM      5  O   UNL d   1       7.465   6.137 -13.174  0.00  0.00    -0.198 OA
ATOM      6  O   UNL d   1       5.454   4.535 -12.951  0.00  0.00    -0.198 OA
BRANCH   4   7
ATOM      7  C   UNL d   1       7.744   3.617 -13.886  0.00  0.00     0.130 A 
ATOM      8  C   UNL d   1       9.052   3.634 -14.349  0.00  0.00    -0.003 A 
ATOM      9  C   UNL d   1      10.083   4.718 -14.140  0.00  0.00     0.032 C 
ATOM     10  C   UNL d   1       9.345   2.443 -15.111  0.00  0.00     0.005 A 
ATOM     11  C   UNL d   1       8.213   1.581 -15.255  0.00  0.00     0.030 A 
ATOM     12  C   UNL d   1      10.554   2.035 -15.724  0.00  0.00     0.030 A 
ATOM     13  S   UNL d   1       6.816   2.243 -14.437  0.00  0.00    -0.074 SA
ATOM     14  C   UNL d   1       8.300   0.378 -15.969  0.00  0.00     0.009 A 
ATOM     15  C   UNL d   1       9.519  -0.002 -16.554  0.00  0.00     0.030 A 
ATOM     16  C   UNL d   1      10.643   0.829 -16.437  0.00  0.00     0.140 A 
ATOM     17  F   UNL d   1      11.809   0.478 -17.022  0.00  0.00    -0.204 F 
ENDBRANCH   4   7
ENDBRANCH   3   4
ENDBRANCH   2   3
ENDBRANCH   1   2
BRANCH   1  18
ATOM     18  C   UNL d   1      10.354   6.517 -10.117  0.00  0.00     0.253 C 
BRANCH  18  19
ATOM     19  N   UNL d   1       9.829   6.935  -8.844  0.00  0.00     0.141 N 
ATOM     20  C   UNL d   1       9.930   8.386  -8.723  0.00  0.00     0.274 C 
ATOM     21  C   UNL d   1       9.385   8.802  -7.348  0.00  0.00     0.138 C 
ATOM     22  N   UNL d   1      10.104   8.068  -6.309  0.00  0.00    -0.328 N 
ATOM     23  C   UNL d   1      10.091   6.627  -6.446  0.00  0.00     0.138 C 
ATOM     24  C   UNL d   1      10.638   6.292  -7.819  0.00  0.00     0.274 C 
BRANCH  22  25
ATOM     25  C   UNL d   1      10.842   8.738  -5.276  0.00  0.00     0.169 A 
ATOM     26  C   UNL d   1      11.506   8.146  -4.184  0.00  0.00     0.061 A 
ATOM     27  C   UNL d   1      11.879   9.194  -3.317  0.00  0.00     0.128 A 
ATOM     28  C   UNL d   1      11.635   6.808  -3.695  0.00  0.00     0.005 A 
ATOM     29  O   UNL d   1      11.402  10.361  -3.890  0.00  0.00    -0.210 OA
ATOM     30  C   UNL d   1      12.433   8.979  -2.038  0.00  0.00     0.027 A 
ATOM     31  N   UNL d   1      10.776  10.054  -5.126  0.00  0.00    -0.109 NA
ATOM     32  C   UNL d   1      12.647   7.672  -1.652  0.00  0.00     0.002 A 
ATOM     33  C   UNL d   1      12.242   6.605  -2.449  0.00  0.00     0.000 A 
ENDBRANCH  22  25
ENDBRANCH  18  19
ENDBRANCH   1  18
TORSDOF 7
