REMARK  5 active torsions:
REMARK  status: ('A' for Active; 'I' for Inactive)
REMARK    1  A    between atoms: C_4  and  C_5 
REMARK    2  A    between atoms: C_5  and  N_6 
REMARK    3  A    between atoms: C_9  and  C_10 
REMARK    4  A    between atoms: C_10  and  C_12 
REMARK    5  A    between atoms: C_24  and  C_25 
ROOT
ATOM      1  O   UNL d   1      10.664   0.302 -20.773  0.00  0.00    -0.291 OA
ATOM      2  C   UNL d   1      10.206   1.138 -19.994  0.00  0.00     0.173 C 
ATOM      3  C   UNL d   1      10.790   2.540 -19.983  0.00  0.00     0.071 C 
ATOM      4  C   UNL d   1       9.782   3.631 -19.578  0.00  0.00     0.045 C 
ATOM      5  C   UNL d   1       9.122   3.299 -18.228  0.00  0.00     0.029 C 
ATOM      6  C   UNL d   1       8.602   1.870 -18.175  0.00  0.00    -0.019 A 
ATOM      7  C   UNL d   1       7.567   1.552 -17.271  0.00  0.00    -0.004 A 
ATOM      8  C   UNL d   1       7.047   0.240 -17.197  0.00  0.00    -0.000 A 
ATOM      9  C   UNL d   1       7.579  -0.756 -18.043  0.00  0.00     0.000 A 
ATOM     10  C   UNL d   1       8.609  -0.454 -18.944  0.00  0.00     0.003 A 
ATOM     11  C   UNL d   1       9.127   0.857 -19.018  0.00  0.00     0.031 A 
ENDROOT
BRANCH   4  12
ATOM     12  C   UNL d   1      10.364   5.065 -19.622  0.00  0.00     0.251 C 
BRANCH  12  13
ATOM     13  N   UNL d   1      11.660   5.171 -18.947  0.00  0.00     0.137 N 
ATOM     14  C   UNL d   1      12.754   5.009 -19.912  0.00  0.00     0.251 C 
ATOM     15  C   UNL d   1      14.096   4.985 -19.181  0.00  0.00     0.043 C 
ATOM     16  C   UNL d   1      14.314   6.301 -18.417  0.00  0.00     0.066 C 
ATOM     17  C   UNL d   1      13.094   6.555 -17.506  0.00  0.00     0.043 C 
ATOM     18  C   UNL d   1      11.779   6.480 -18.298  0.00  0.00     0.251 C 
BRANCH  16  19
ATOM     19  C   UNL d   1      15.640   6.274 -17.637  0.00  0.00     0.173 C 
ATOM     20  O   UNL d   1      15.634   5.995 -16.436  0.00  0.00    -0.291 OA
BRANCH  19  21
ATOM     21  C   UNL d   1      16.905   6.592 -18.363  0.00  0.00     0.035 A 
ATOM     22  C   UNL d   1      16.977   6.681 -19.775  0.00  0.00     0.005 A 
ATOM     23  C   UNL d   1      18.205   6.960 -20.406  0.00  0.00     0.030 A 
ATOM     24  C   UNL d   1      19.365   7.169 -19.638  0.00  0.00     0.140 A 
ATOM     25  C   UNL d   1      19.302   7.091 -18.234  0.00  0.00     0.030 A 
ATOM     26  F   UNL d   1      20.540   7.449 -20.246  0.00  0.00    -0.204 F 
ATOM     27  C   UNL d   1      18.081   6.791 -17.603  0.00  0.00     0.005 A 
ENDBRANCH  19  21
ENDBRANCH  16  19
ENDBRANCH  12  13
ENDBRANCH   4  12
BRANCH   8  28
ATOM     28  C   UNL d   1       5.969  -0.087 -16.249  0.00  0.00    -0.000 A 
ATOM     29  C   UNL d   1       5.997   0.395 -14.923  0.00  0.00    -0.000 A 
ATOM     30  C   UNL d   1       4.965   0.085 -14.017  0.00  0.00    -0.000 A 
ATOM     31  C   UNL d   1       3.884  -0.719 -14.428  0.00  0.00     0.000 A 
ATOM     32  C   UNL d   1       3.854  -1.219 -15.741  0.00  0.00    -0.000 A 
ATOM     33  C   UNL d   1       4.887  -0.903 -16.645  0.00  0.00    -0.000 A 
ENDBRANCH   8  28
TORSDOF 5
