REMARK  5 active torsions:
REMARK  status: ('A' for Active; 'I' for Inactive)
REMARK    1  A    between atoms: N_3  and  C_4 
REMARK    2  A    between atoms: C_4  and  C_5 
REMARK    3  A    between atoms: C_5  and  N_6 
REMARK    4  A    between atoms: N_17  and  C_18 
REMARK    5  A    between atoms: C_22  and  C_23 
ROOT
ATOM      1  O   UNL d   1      10.251   4.514 -12.447  0.00  0.00    -0.247 OA
ATOM      2  C   UNL d   1       9.027   4.445 -12.427  0.00  0.00     0.328 A 
ATOM      3  N   UNL d   1       8.237   4.749 -11.385  0.00  0.00    -0.298 N 
ATOM      4  C   UNL d   1       6.835   4.496 -11.654  0.00  0.00     0.131 A 
ATOM      5  C   UNL d   1       6.848   4.016 -13.100  0.00  0.00     0.135 A 
ATOM      6  N   UNL d   1       8.261   4.050 -13.454  0.00  0.00    -0.280 N 
ENDROOT
BRANCH   3   7
ATOM      7  C   UNL d   1       8.696   5.176 -10.069  0.00  0.00     0.141 C 
BRANCH   7   8
ATOM      8  C   UNL d   1       9.445   6.513 -10.162  0.00  0.00     0.275 C 
BRANCH   8   9
ATOM      9  N   UNL d   1       9.627   7.112  -8.852  0.00  0.00     0.148 N 
ATOM     10  C   UNL d   1      10.427   8.341  -8.879  0.00  0.00     0.277 C 
ATOM     11  C   UNL d   1      10.855   8.471  -7.443  0.00  0.00     0.009 A 
ATOM     12  C   UNL d   1      10.725   7.236  -6.830  0.00  0.00     0.009 A 
ATOM     13  C   UNL d   1      11.339   9.590  -6.748  0.00  0.00    -0.003 A 
ATOM     14  C   UNL d   1      10.216   6.247  -7.830  0.00  0.00     0.277 C 
ATOM     15  C   UNL d   1      11.057   7.038  -5.481  0.00  0.00    -0.003 A 
ATOM     16  C   UNL d   1      11.544   8.150  -4.760  0.00  0.00    -0.000 A 
ATOM     17  C   UNL d   1      11.686   9.411  -5.390  0.00  0.00    -0.000 A 
ENDBRANCH   8   9
ENDBRANCH   7   8
ENDBRANCH   3   7
BRANCH   6  18
ATOM     18  C   UNL d   1       8.784   3.621 -14.710  0.00  0.00     0.064 A 
ATOM     19  C   UNL d   1       8.276   2.463 -15.322  0.00  0.00     0.021 A 
ATOM     20  C   UNL d   1       8.775   2.064 -16.583  0.00  0.00     0.073 A 
ATOM     21  C   UNL d   1       9.786   2.821 -17.218  0.00  0.00     0.004 A 
ATOM     22  C   UNL d   1      10.306   3.971 -16.600  0.00  0.00     0.001 A 
ATOM     23  C   UNL d   1       9.799   4.367 -15.350  0.00  0.00     0.017 A 
BRANCH  20  24
ATOM     24  C   UNL d   1       8.227   0.816 -17.252  0.00  0.00     0.419 C 
ATOM     25  F   UNL d   1       7.947   1.107 -18.523  0.00  0.00    -0.166 F 
ATOM     26  F   UNL d   1       9.160  -0.137 -17.209  0.00  0.00    -0.166 F 
ATOM     27  F   UNL d   1       7.116   0.352 -16.674  0.00  0.00    -0.166 F 
ENDBRANCH  20  24
ENDBRANCH   6  18
TORSDOF 5
