REMARK  6 active torsions:
REMARK  status: ('A' for Active; 'I' for Inactive)
REMARK    1  A    between atoms: N_13  and  C_14 
REMARK    2  A    between atoms: C_14  and  C_15 
REMARK    3  A    between atoms: C_15  and  C_16 
REMARK    4  A    between atoms: C_16  and  S_17 
REMARK    5  A    between atoms: S_17  and  C_18 
REMARK    6  A    between atoms: C_21  and  C_22 
ROOT
ATOM      1  C   UNL d   1       6.766   4.821 -12.839  0.00  0.00     0.251 C 
ENDROOT
BRANCH   1   2
ATOM      2  N   UNL d   1       8.004   5.081 -12.109  0.00  0.00     0.138 N 
ATOM      3  C   UNL d   1       7.841   4.647 -10.732  0.00  0.00     0.255 C 
ATOM      4  C   UNL d   1       9.136   4.510  -9.922  0.00  0.00     0.061 C 
ATOM      5  C   UNL d   1       9.627   5.833  -9.369  0.00  0.00    -0.024 A 
ATOM      6  C   UNL d   1       9.936   6.913 -10.220  0.00  0.00    -0.022 A 
ATOM      7  C   UNL d   1       9.768   5.987  -7.980  0.00  0.00     0.004 A 
ATOM      8  C   UNL d   1      10.460   8.115  -9.687  0.00  0.00     0.015 A 
ATOM      9  C   UNL d   1       9.749   6.778 -11.712  0.00  0.00     0.061 C 
ATOM     10  C   UNL d   1      10.616   8.278  -8.290  0.00  0.00     0.087 A 
ATOM     11  N   UNL d   1      11.085   9.397  -7.613  0.00  0.00    -0.243 NA
ATOM     12  C   UNL d   1      10.278   7.178  -7.456  0.00  0.00     0.048 A 
ATOM     13  C   UNL d   1      11.089   9.173  -6.300  0.00  0.00     0.089 A 
ATOM     14  C   UNL d   1      11.485  10.225  -5.339  0.00  0.00     0.059 C 
ATOM     15  S   UNL d   1      10.610   7.567  -5.782  0.00  0.00    -0.071 SA
ATOM     16  C   UNL d   1       8.329   6.503 -12.174  0.00  0.00     0.255 C 
ENDBRANCH   1   2
BRANCH   1  17
ATOM     17  C   UNL d   1       6.751   3.442 -13.530  0.00  0.00     0.047 C 
BRANCH  17  18
ATOM     18  C   UNL d   1       8.070   3.068 -14.274  0.00  0.00     0.067 C 
BRANCH  18  19
ATOM     19  S   UNL d   1       8.263   1.279 -14.519  0.00  0.00    -0.075 SA
BRANCH  19  20
ATOM     20  C   UNL d   1       7.358   1.061 -16.009  0.00  0.00     0.193 A 
ATOM     21  N   UNL d   1       6.381   0.138 -16.136  0.00  0.00    -0.287 N 
ATOM     22  C   UNL d   1       6.053   0.279 -17.434  0.00  0.00     0.191 A 
ATOM     23  C   UNL d   1       5.843  -0.786 -15.146  0.00  0.00     0.134 C 
ATOM     24  N   UNL d   1       6.771   1.218 -18.054  0.00  0.00    -0.126 NA
ATOM     25  N   UNL d   1       7.610   1.747 -17.117  0.00  0.00    -0.122 NA
BRANCH  22  26
ATOM     26  C   UNL d   1       5.055  -0.499 -18.156  0.00  0.00     0.151 A 
ATOM     27  C   UNL d   1       4.700  -0.518 -19.482  0.00  0.00     0.087 A 
ATOM     28  N   UNL d   1       3.736  -1.500 -19.644  0.00  0.00    -0.221 NA
ATOM     29  C   UNL d   1       5.204   0.293 -20.637  0.00  0.00     0.054 C 
ATOM     30  C   UNL d   1       3.508  -1.967 -18.421  0.00  0.00     0.225 A 
ATOM     31  O   UNL d   1       4.288  -1.402 -17.469  0.00  0.00    -0.282 OA
ENDBRANCH  22  26
ENDBRANCH  19  20
ENDBRANCH  18  19
ENDBRANCH  17  18
ENDBRANCH   1  17
TORSDOF 6
