REMARK  6 active torsions:
REMARK  status: ('A' for Active; 'I' for Inactive)
REMARK    1  A    between atoms: S_2  and  N_4 
REMARK    2  A    between atoms: S_2  and  C_23 
REMARK    3  A    between atoms: N_4  and  C_5 
REMARK    4  A    between atoms: C_5  and  C_6 
REMARK    5  A    between atoms: C_6  and  N_7 
REMARK    6  A    between atoms: C_10  and  C_11 
ROOT
ATOM      1  N   UNL d   1       7.871   2.323 -14.797  0.00  0.00     0.139 N 
ATOM      2  C   UNL d   1       9.133   2.229 -14.061  0.00  0.00     0.251 C 
ATOM      3  C   UNL d   1       9.546   3.597 -13.468  0.00  0.00     0.041 C 
ATOM      4  C   UNL d   1       8.449   4.176 -12.557  0.00  0.00     0.047 C 
ATOM      5  C   UNL d   1       7.107   4.131 -13.284  0.00  0.00     0.041 C 
ATOM      6  C   UNL d   1       6.791   2.762 -13.905  0.00  0.00     0.251 C 
ENDROOT
BRANCH   1   7
ATOM      7  C   UNL d   1       7.580   1.011 -15.401  0.00  0.00     0.277 C 
BRANCH   7   8
ATOM      8  C   UNL d   1       6.310   1.056 -16.258  0.00  0.00     0.174 C 
BRANCH   8   9
ATOM      9  N   UNL d   1       6.169  -0.135 -17.090  0.00  0.00    -0.183 NA
BRANCH   9  10
ATOM     10  S   UNL d   1       6.522  -0.060 -18.773  0.00  0.00     0.281 S 
ATOM     11  O   UNL d   1       6.166  -1.373 -19.339  0.00  0.00    -0.199 OA
ATOM     12  O   UNL d   1       5.938   1.185 -19.312  0.00  0.00    -0.199 OA
BRANCH  10  13
ATOM     13  C   UNL d   1       8.298   0.079 -18.796  0.00  0.00     0.105 A 
ATOM     14  C   UNL d   1       8.908   1.295 -19.162  0.00  0.00     0.013 A 
ATOM     15  C   UNL d   1      10.314   1.397 -19.163  0.00  0.00     0.001 A 
ATOM     16  C   UNL d   1      11.101   0.275 -18.800  0.00  0.00     0.000 A 
ATOM     17  C   UNL d   1      10.939   2.609 -19.522  0.00  0.00     0.000 A 
ATOM     18  C   UNL d   1      10.473  -0.934 -18.433  0.00  0.00     0.001 A 
ATOM     19  C   UNL d   1      12.508   0.377 -18.812  0.00  0.00     0.000 A 
ATOM     20  C   UNL d   1       9.071  -1.037 -18.434  0.00  0.00     0.013 A 
ATOM     21  C   UNL d   1      13.128   1.593 -19.158  0.00  0.00     0.000 A 
ATOM     22  C   UNL d   1      12.344   2.709 -19.512  0.00  0.00     0.000 A 
ENDBRANCH  10  13
ENDBRANCH   9  10
ENDBRANCH   8   9
ENDBRANCH   7   8
ENDBRANCH   1   7
BRANCH   4  23
ATOM     23  C   UNL d   1       8.784   5.556 -12.030  0.00  0.00     0.087 A 
ATOM     24  C   UNL d   1       9.247   6.014 -10.797  0.00  0.00     0.041 A 
ATOM     25  C   UNL d   1       9.495   7.389 -10.886  0.00  0.00     0.129 A 
ATOM     26  C   UNL d   1       9.457   5.348  -9.575  0.00  0.00     0.006 A 
ATOM     27  O   UNL d   1       9.148   7.753 -12.157  0.00  0.00    -0.211 OA
ATOM     28  C   UNL d   1       9.927   8.170  -9.812  0.00  0.00     0.057 A 
ATOM     29  N   UNL d   1       8.691   6.594 -12.835  0.00  0.00    -0.131 NA
ATOM     30  C   UNL d   1      10.138   7.509  -8.587  0.00  0.00     0.142 A 
ATOM     31  F   UNL d   1      10.559   8.229  -7.515  0.00  0.00    -0.204 F 
ATOM     32  C   UNL d   1       9.912   6.113  -8.475  0.00  0.00     0.030 A 
ENDBRANCH   4  23
TORSDOF 6
