REMARK  7 active torsions:
REMARK  status: ('A' for Active; 'I' for Inactive)
REMARK    1  A    between atoms: C_2  and  C_3 
REMARK       I    between atoms: C_2  and  N_10 
REMARK    2  A    between atoms: C_3  and  C_4 
REMARK    3  A    between atoms: N_10  and  C_11 
REMARK    4  A    between atoms: C_14  and  C_15 
REMARK    5  A    between atoms: C_15  and  C_16 
REMARK    6  A    between atoms: C_16  and  N_17 
REMARK    7  A    between atoms: C_20  and  C_21 
ROOT
ATOM      1  C   UNL d   1       8.117   1.670 -15.771  0.00  0.00     0.035 C 
ENDROOT
BRANCH   1   2
ATOM      2  C   UNL d   1       8.420   2.946 -14.968  0.00  0.00     0.002 C 
ATOM      3  C   UNL d   1       7.188   3.395 -14.143  0.00  0.00     0.002 C 
ATOM      4  C   UNL d   1       7.480   4.665 -13.339  0.00  0.00     0.024 C 
ATOM      5  C   UNL d   1       8.682   4.486 -12.415  0.00  0.00     0.106 C 
ATOM      6  C   UNL d   1       9.911   4.034 -13.217  0.00  0.00     0.024 C 
ATOM      7  C   UNL d   1       9.626   2.765 -14.032  0.00  0.00     0.002 C 
BRANCH   5   8
ATOM      8  N   UNL d   1       8.970   5.743 -11.736  0.00  0.00    -0.240 NA
ATOM      9  C   UNL d   1       9.390   5.856 -10.474  0.00  0.00     0.254 C 
ATOM     10  O   UNL d   1       9.461   4.897  -9.707  0.00  0.00    -0.271 OA
BRANCH   9  11
ATOM     11  C   UNL d   1       9.862   7.250 -10.060  0.00  0.00     0.122 C 
BRANCH  11  12
ATOM     12  C   UNL d   1      10.333   7.345  -8.599  0.00  0.00     0.154 C 
ATOM     13  O   UNL d   1      11.141   8.512  -8.435  0.00  0.00    -0.351 OA
ATOM     14  C   UNL d   1      11.647   8.600  -7.106  0.00  0.00     0.174 C 
ATOM     15  C   UNL d   1      10.456   8.696  -6.140  0.00  0.00     0.174 C 
ATOM     16  O   UNL d   1       9.644   7.541  -6.293  0.00  0.00    -0.349 OA
ATOM     17  C   UNL d   1       9.145   7.451  -7.617  0.00  0.00     0.172 C 
ENDBRANCH  11  12
ENDBRANCH   9  11
ENDBRANCH   5   8
ENDBRANCH   1   2
BRANCH   1  18
ATOM     18  C   UNL d   1       7.261   1.953 -17.015  0.00  0.00     0.250 C 
BRANCH  18  19
ATOM     19  N   UNL d   1       7.083   0.753 -17.827  0.00  0.00     0.137 N 
ATOM     20  C   UNL d   1       6.123  -0.158 -17.202  0.00  0.00     0.251 C 
ATOM     21  C   UNL d   1       6.020  -1.458 -18.012  0.00  0.00     0.040 C 
ATOM     22  C   UNL d   1       5.593  -1.194 -19.469  0.00  0.00     0.026 C 
ATOM     23  C   UNL d   1       6.514  -0.100 -20.040  0.00  0.00     0.040 C 
ATOM     24  C   UNL d   1       6.586   1.138 -19.144  0.00  0.00     0.251 C 
BRANCH  22  25
ATOM     25  C   UNL d   1       5.600  -2.487 -20.312  0.00  0.00    -0.020 A 
ATOM     26  C   UNL d   1       4.784  -3.584 -19.918  0.00  0.00     0.021 A 
ATOM     27  C   UNL d   1       4.862  -4.769 -20.709  0.00  0.00     0.100 A 
ATOM     28  C   UNL d   1       3.836  -3.887 -18.871  0.00  0.00     0.028 A 
ATOM     29  C   UNL d   1       5.679  -4.891 -21.843  0.00  0.00     0.025 A 
ATOM     30  O   UNL d   1       4.030  -5.731 -20.177  0.00  0.00    -0.305 OA
ATOM     31  C   UNL d   1       6.461  -3.791 -22.224  0.00  0.00     0.002 A 
ATOM     32  C   UNL d   1       6.418  -2.599 -21.471  0.00  0.00    -0.004 A 
ATOM     33  C   UNL d   1       3.433  -5.181 -19.076  0.00  0.00     0.123 A 
ENDBRANCH  22  25
ENDBRANCH  18  19
ENDBRANCH   1  18
TORSDOF 7
