REMARK  5 active torsions:
REMARK  status: ('A' for Active; 'I' for Inactive)
REMARK    1  A    between atoms: C_2  and  C_3 
REMARK    2  A    between atoms: C_2  and  C_11 
REMARK    3  A    between atoms: C_3  and  C_4 
REMARK    4  A    between atoms: C_4  and  C_5 
REMARK    5  A    between atoms: C_11  and  N_12 
ROOT
ATOM      1  N   UNL d   1       8.838   6.252 -10.654  0.00  0.00     0.140 N 
ATOM      2  C   UNL d   1       9.272   4.915 -11.068  0.00  0.00     0.253 C 
ATOM      3  C   UNL d   1       8.228   4.210 -11.851  0.00  0.00     0.063 C 
ATOM      4  C   UNL d   1       7.884   4.960 -13.113  0.00  0.00     0.103 C 
ATOM      5  C   UNL d   1       6.683   4.253 -13.744  0.00  0.00     0.033 C 
ATOM      6  C   UNL d   1       6.993   2.825 -14.149  0.00  0.00     0.031 C 
ATOM      7  C   UNL d   1       8.408   2.685 -14.680  0.00  0.00     0.002 A 
ATOM      8  C   UNL d   1       8.803   1.466 -15.297  0.00  0.00     0.027 A 
ATOM      9  C   UNL d   1      10.094   1.313 -15.814  0.00  0.00     0.140 A 
ATOM     10  F   UNL d   1      10.449   0.145 -16.423  0.00  0.00    -0.204 F 
ATOM     11  C   UNL d   1      11.028   2.366 -15.731  0.00  0.00     0.032 A 
ATOM     12  C   UNL d   1      10.653   3.587 -15.104  0.00  0.00     0.026 A 
ATOM     13  C   UNL d   1       9.359   3.737 -14.583  0.00  0.00     0.090 A 
ATOM     14  O   UNL d   1       9.027   4.946 -13.982  0.00  0.00    -0.336 OA
ATOM     15  C   UNL d   1       7.558   6.426 -12.754  0.00  0.00     0.063 C 
ATOM     16  C   UNL d   1       8.619   7.048 -11.854  0.00  0.00     0.253 C 
ENDROOT
BRANCH   1  17
ATOM     17  C   UNL d   1       9.791   6.947  -9.791  0.00  0.00     0.283 C 
BRANCH  17  18
ATOM     18  C   UNL d   1       9.953   6.353  -8.386  0.00  0.00     0.186 C 
ATOM     19  O   UNL d   1      10.193   4.993  -8.501  0.00  0.00    -0.221 OA
BRANCH  18  20
ATOM     20  C   UNL d   1      11.174   6.959  -7.656  0.00  0.00     0.040 C 
BRANCH  20  21
ATOM     21  C   UNL d   1      10.778   8.175  -6.790  0.00  0.00     0.029 C 
BRANCH  21  22
ATOM     22  C   UNL d   1      11.311   8.125  -5.367  0.00  0.00    -0.022 A 
ATOM     23  C   UNL d   1      11.360   6.910  -4.639  0.00  0.00    -0.004 A 
ATOM     24  C   UNL d   1      11.868   6.874  -3.334  0.00  0.00    -0.000 A 
ATOM     25  C   UNL d   1      12.300   8.060  -2.721  0.00  0.00    -0.000 A 
ATOM     26  C   UNL d   1      12.227   9.275  -3.429  0.00  0.00    -0.000 A 
ATOM     27  C   UNL d   1      11.743   9.313  -4.749  0.00  0.00    -0.004 A 
ENDBRANCH  21  22
ENDBRANCH  20  21
ENDBRANCH  18  20
ENDBRANCH  17  18
ENDBRANCH   1  17
TORSDOF 5
