REMARK  9 active torsions:
REMARK  status: ('A' for Active; 'I' for Inactive)
REMARK    1  A    between atoms: O_2  and  C_3 
REMARK    2  A    between atoms: C_10  and  C_11 
REMARK       I    between atoms: C_11  and  N_13 
REMARK    3  A    between atoms: N_13  and  C_14 
REMARK    4  A    between atoms: N_17  and  C_18 
REMARK    5  A    between atoms: C_18  and  C_19 
REMARK    6  A    between atoms: C_19  and  C_20 
REMARK    7  A    between atoms: C_20  and  O_21 
REMARK    8  A    between atoms: O_21  and  C_22 
REMARK    9  A    between atoms: C_30  and  O_31 
ROOT
ATOM      1  C   UNL d   1       8.560   3.381 -14.515  0.00  0.00     0.138 C 
ATOM      2  C   UNL d   1       7.345   3.984 -13.784  0.00  0.00     0.062 C 
ATOM      3  C   UNL d   1       7.772   5.123 -12.870  0.00  0.00     0.252 C 
ATOM      4  N   UNL d   1       8.726   4.670 -11.870  0.00  0.00     0.140 N 
ATOM      5  C   UNL d   1       9.915   4.119 -12.521  0.00  0.00     0.281 C 
ATOM      6  C   UNL d   1       9.613   2.959 -13.478  0.00  0.00     0.171 C 
ENDROOT
BRANCH   1   7
ATOM      7  N   UNL d   1       9.201   4.331 -15.424  0.00  0.00    -0.234 NA
ATOM      8  C   UNL d   1       9.495   4.105 -16.713  0.00  0.00     0.277 C 
ATOM      9  O   UNL d   1       9.092   3.140 -17.360  0.00  0.00    -0.266 OA
BRANCH   8  10
ATOM     10  C   UNL d   1      10.380   5.141 -17.325  0.00  0.00     0.081 A 
ATOM     11  C   UNL d   1       9.992   5.835 -18.498  0.00  0.00     0.100 A 
ATOM     12  C   UNL d   1      10.893   6.788 -19.043  0.00  0.00     0.039 A 
ATOM     13  C   UNL d   1      12.148   7.024 -18.450  0.00  0.00     0.083 A 
ATOM     14  N   UNL d   1      13.017   7.948 -19.034  0.00  0.00    -0.100 NA
ATOM     15  C   UNL d   1      12.515   6.326 -17.281  0.00  0.00     0.071 A 
ATOM     16 CL   UNL d   1      14.046   6.584 -16.525  0.00  0.00    -0.081 Cl
ATOM     17  C   UNL d   1      11.630   5.385 -16.726  0.00  0.00     0.019 A 
BRANCH  11  18
ATOM     18  O   UNL d   1       8.756   5.566 -19.045  0.00  0.00    -0.328 OA
ATOM     19  C   UNL d   1       8.380   6.241 -20.237  0.00  0.00     0.181 C 
ENDBRANCH  11  18
ENDBRANCH   8  10
ENDBRANCH   1   7
BRANCH   6  20
ATOM     20  O   UNL d   1      10.823   2.492 -14.072  0.00  0.00    -0.350 OA
ATOM     21  C   UNL d   1      10.687   1.243 -14.738  0.00  0.00     0.174 C 
ENDBRANCH   6  20
BRANCH   4  22
ATOM     22  C   UNL d   1       9.064   5.761 -10.963  0.00  0.00     0.253 C 
BRANCH  22  23
ATOM     23  C   UNL d   1       9.518   5.289  -9.594  0.00  0.00     0.068 C 
BRANCH  23  24
ATOM     24  C   UNL d   1       8.978   6.183  -8.488  0.00  0.00     0.151 C 
BRANCH  24  25
ATOM     25  O   UNL d   1       9.657   7.458  -8.537  0.00  0.00    -0.331 OA
BRANCH  25  26
ATOM     26  C   UNL d   1      10.349   7.905  -7.430  0.00  0.00     0.094 A 
ATOM     27  C   UNL d   1      11.055   9.139  -7.513  0.00  0.00     0.026 A 
ATOM     28  C   UNL d   1      11.790   9.626  -6.407  0.00  0.00     0.032 A 
ATOM     29  C   UNL d   1      11.836   8.882  -5.204  0.00  0.00     0.140 A 
ATOM     30  C   UNL d   1      11.138   7.664  -5.131  0.00  0.00     0.032 A 
ATOM     31  F   UNL d   1      12.546   9.334  -4.142  0.00  0.00    -0.204 F 
ATOM     32  C   UNL d   1      10.390   7.184  -6.211  0.00  0.00     0.026 A 
ENDBRANCH  25  26
ENDBRANCH  24  25
ENDBRANCH  23  24
ENDBRANCH  22  23
ENDBRANCH   4  22
TORSDOF 9
