REMARK  4 active torsions:
REMARK  status: ('A' for Active; 'I' for Inactive)
REMARK    1  A    between atoms: C_4  and  C_5 
REMARK    2  A    between atoms: C_7  and  C_8 
REMARK    3  A    between atoms: C_8  and  N_9 
REMARK    4  A    between atoms: N_12  and  C_13 
ROOT
ATOM      1  N   UNL d   1      10.222   7.942  -9.052  0.00  0.00     0.147 N 
ATOM      2  C   UNL d   1      11.285   8.791  -8.512  0.00  0.00     0.275 C 
ATOM      3  C   UNL d   1      10.848   9.350  -7.149  0.00  0.00     0.137 C 
ATOM      4  N   UNL d   1      10.527   8.254  -6.256  0.00  0.00    -0.343 N 
ATOM      5  C   UNL d   1       9.571   7.282  -6.783  0.00  0.00     0.137 C 
ATOM      6  C   UNL d   1      10.031   6.792  -8.166  0.00  0.00     0.275 C 
ENDROOT
BRANCH   1   7
ATOM      7  C   UNL d   1      10.608   7.480 -10.370  0.00  0.00     0.297 C 
BRANCH   7   8
ATOM      8  C   UNL d   1       9.487   7.013 -11.239  0.00  0.00     0.113 A 
ATOM      9  N   UNL d   1       9.119   5.695 -11.457  0.00  0.00    -0.228 NA
ATOM     10  C   UNL d   1       8.098   5.687 -12.331  0.00  0.00     0.162 A 
ATOM     11  N   UNL d   1       7.788   6.909 -12.735  0.00  0.00    -0.224 NA
ATOM     12  C   UNL d   1       8.664   7.752 -12.053  0.00  0.00     0.117 A 
BRANCH  10  13
ATOM     13  C   UNL d   1       7.416   4.501 -12.801  0.00  0.00     0.036 A 
ATOM     14  C   UNL d   1       6.111   4.219 -12.351  0.00  0.00     0.003 A 
ATOM     15  C   UNL d   1       5.456   3.050 -12.794  0.00  0.00     0.000 A 
ATOM     16  C   UNL d   1       6.104   2.184 -13.697  0.00  0.00     0.000 A 
ATOM     17  C   UNL d   1       7.397   2.482 -14.167  0.00  0.00     0.000 A 
ATOM     18  C   UNL d   1       8.058   3.640 -13.706  0.00  0.00     0.003 A 
ENDBRANCH  10  13
ENDBRANCH   7   8
ENDBRANCH   1   7
BRANCH   4  19
ATOM     19  C   UNL d   1      11.165   8.132  -5.007  0.00  0.00     0.076 A 
ATOM     20  C   UNL d   1      11.459   6.872  -4.440  0.00  0.00     0.116 A 
ATOM     21  N   UNL d   1      11.987   6.711  -3.209  0.00  0.00    -0.241 NA
ATOM     22  C   UNL d   1      12.272   7.807  -2.491  0.00  0.00     0.099 A 
ATOM     23  C   UNL d   1      12.055   9.111  -2.966  0.00  0.00     0.022 A 
ATOM     24  C   UNL d   1      11.492   9.276  -4.245  0.00  0.00     0.020 A 
ENDBRANCH   4  19
TORSDOF 4
