REMARK  5 active torsions:
REMARK  status: ('A' for Active; 'I' for Inactive)
REMARK    1  A    between atoms: C_2  and  C_4 
REMARK    2  A    between atoms: C_4  and  O_5 
REMARK    3  A    between atoms: O_5  and  C_6 
REMARK    4  A    between atoms: C_9  and  C_10 
REMARK    5  A    between atoms: C_10  and  C_12 
ROOT
ATOM      1  C   UNL d   1       9.704   6.941  -8.742  0.00  0.00     0.106 A 
ATOM      2  C   UNL d   1       8.856   6.985  -7.585  0.00  0.00     0.025 A 
ATOM      3  C   UNL d   1       9.165   7.767  -6.463  0.00  0.00     0.006 A 
ATOM      4  C   UNL d   1      10.370   8.444  -6.377  0.00  0.00     0.051 A 
ATOM      5  C   UNL d   1      11.194   8.375  -7.489  0.00  0.00     0.073 A 
ATOM      6 CL   UNL d   1      12.662   9.183  -7.368  0.00  0.00    -0.081 Cl
ATOM      7  C   UNL d   1      10.891   7.688  -8.663  0.00  0.00     0.091 A 
ATOM      8 CL   UNL d   1      11.979   7.859  -9.985  0.00  0.00    -0.079 Cl
ENDROOT
BRANCH   4   9
ATOM      9  C   UNL d   1      10.819   9.222  -5.182  0.00  0.00     0.202 C 
ATOM     10  O   UNL d   1      10.636  10.427  -5.042  0.00  0.00    -0.286 OA
BRANCH   9  11
ATOM     11  C   UNL d   1      11.530   8.512  -4.129  0.00  0.00     0.068 A 
ATOM     12  S   UNL d   1      11.863   6.810  -4.306  0.00  0.00    -0.083 SA
ATOM     13  C   UNL d   1      12.589   6.756  -2.733  0.00  0.00     0.035 A 
ATOM     14  C   UNL d   1      12.560   7.977  -2.112  0.00  0.00     0.008 A 
ATOM     15  C   UNL d   1      11.947   8.983  -2.906  0.00  0.00     0.010 A 
ENDBRANCH   9  11
ENDBRANCH   4   9
BRANCH   1  16
ATOM     16  O   UNL d   1       9.431   6.305  -9.939  0.00  0.00    -0.319 OA
BRANCH  16  17
ATOM     17  C   UNL d   1       8.321   5.417  -9.972  0.00  0.00     0.246 C 
BRANCH  17  18
ATOM     18  C   UNL d   1       7.821   5.323 -11.393  0.00  0.00     0.217 C 
ATOM     19  O   UNL d   1       8.060   4.384 -12.148  0.00  0.00    -0.645 OA
ATOM     20  O   UNL d   1       7.015   6.387 -11.674  0.00  0.00    -0.645 OA
ENDBRANCH  17  18
ENDBRANCH  16  17
ENDBRANCH   1  16
TORSDOF 5
