REMARK  4 active torsions:
REMARK  status: ('A' for Active; 'I' for Inactive)
REMARK    1  A    between atoms: C_2  and  C_3 
REMARK    2  A    between atoms: C_3  and  N_4 
REMARK    3  A    between atoms: N_7  and  C_8 
REMARK    4  A    between atoms: C_12  and  O_13 
ROOT
ATOM      1  N   UNL d   1       9.197   5.950 -10.585  0.00  0.00     0.141 N 
ATOM      2  C   UNL d   1       9.782   7.300 -10.613  0.00  0.00     0.274 C 
ATOM      3  C   UNL d   1      11.016   7.371  -9.698  0.00  0.00     0.137 C 
ATOM      4  N   UNL d   1      10.659   6.946  -8.347  0.00  0.00    -0.344 N 
ATOM      5  C   UNL d   1       9.971   5.668  -8.257  0.00  0.00     0.137 C 
ATOM      6  C   UNL d   1       8.770   5.659  -9.209  0.00  0.00     0.274 C 
ENDROOT
BRANCH   4   7
ATOM      7  C   UNL d   1      10.912   7.733  -7.203  0.00  0.00     0.058 A 
ATOM      8  C   UNL d   1      11.168   7.139  -5.945  0.00  0.00     0.041 A 
ATOM      9  C   UNL d   1      11.462   7.919  -4.809  0.00  0.00     0.096 A 
ATOM     10  C   UNL d   1      11.470   9.332  -4.928  0.00  0.00     0.024 A 
ATOM     11  C   UNL d   1      11.210   9.932  -6.170  0.00  0.00     0.004 A 
ATOM     12  C   UNL d   1      10.930   9.144  -7.296  0.00  0.00     0.017 A 
BRANCH   9  13
ATOM     13  O   UNL d   1      11.742   7.242  -3.643  0.00  0.00    -0.328 OA
ATOM     14  C   UNL d   1      12.177   7.996  -2.522  0.00  0.00     0.181 C 
ENDBRANCH   9  13
ENDBRANCH   4   7
BRANCH   1  15
ATOM     15  C   UNL d   1       8.046   5.894 -11.481  0.00  0.00     0.250 C 
BRANCH  15  16
ATOM     16  C   UNL d   1       7.708   4.437 -11.828  0.00  0.00     0.035 C 
ATOM     17  C   UNL d   1       6.581   4.309 -12.852  0.00  0.00     0.002 C 
ENDBRANCH  15  16
ENDBRANCH   1  15
TORSDOF 4
