REMARK  8 active torsions:
REMARK  status: ('A' for Active; 'I' for Inactive)
REMARK    1  A    between atoms: C_3  and  S_4 
REMARK    2  A    between atoms: S_4  and  C_5 
REMARK    3  A    between atoms: C_5  and  C_6 
REMARK    4  A    between atoms: C_6  and  C_7 
REMARK    5  A    between atoms: C_7  and  N_8 
REMARK    6  A    between atoms: N_13  and  C_14 
REMARK    7  A    between atoms: C_20  and  C_21 
REMARK    8  A    between atoms: C_29  and  C_30 
ROOT
ATOM      1  N   UNL d   1      11.608   3.467 -15.731  0.00  0.00     0.138 N 
ATOM      2  C   UNL d   1      10.906   4.339 -16.671  0.00  0.00     0.252 C 
ATOM      3  C   UNL d   1      11.653   4.123 -17.993  0.00  0.00     0.052 C 
ATOM      4  C   UNL d   1      10.759   3.931 -19.264  0.00  0.00     0.021 C 
ATOM      5  C   UNL d   1      11.422   2.805 -20.035  0.00  0.00     0.077 C 
ATOM      6  N   UNL d   1      12.039   1.985 -19.010  0.00  0.00    -0.250 NA
ATOM      7  C   UNL d   1      12.372   2.789 -17.826  0.00  0.00     0.097 C 
ATOM      8  C   UNL d   1      11.825   2.244 -16.504  0.00  0.00     0.266 C 
ENDROOT
BRANCH   1   9
ATOM      9  C   UNL d   1      10.843   3.168 -14.530  0.00  0.00     0.251 C 
BRANCH   9  10
ATOM     10  C   UNL d   1      10.552   4.443 -13.710  0.00  0.00     0.047 C 
BRANCH  10  11
ATOM     11  C   UNL d   1       9.455   4.232 -12.649  0.00  0.00     0.067 C 
BRANCH  11  12
ATOM     12  S   UNL d   1       8.662   5.805 -12.182  0.00  0.00    -0.075 SA
BRANCH  12  13
ATOM     13  C   UNL d   1       9.114   5.882 -10.481  0.00  0.00     0.193 A 
ATOM     14  N   UNL d   1       9.607   6.999  -9.904  0.00  0.00    -0.287 N 
ATOM     15  C   UNL d   1       9.851   8.296 -10.534  0.00  0.00     0.134 C 
ATOM     16  C   UNL d   1       9.813   6.596  -8.614  0.00  0.00     0.186 A 
ATOM     17  N   UNL d   1       9.469   5.315  -8.407  0.00  0.00    -0.127 NA
ATOM     18  N   UNL d   1       9.012   4.849  -9.640  0.00  0.00    -0.122 NA
BRANCH  16  19
ATOM     19  C   UNL d   1      10.337   7.419  -7.503  0.00  0.00     0.136 A 
ATOM     20  N   UNL d   1      10.972   6.771  -6.480  0.00  0.00    -0.238 NA
ATOM     21  C   UNL d   1      11.431   7.534  -5.460  0.00  0.00     0.120 A 
ATOM     22  C   UNL d   1      11.290   8.936  -5.452  0.00  0.00     0.120 A 
ATOM     23  N   UNL d   1      10.672   9.587  -6.455  0.00  0.00    -0.239 NA
ATOM     24  C   UNL d   1      10.187   8.828  -7.468  0.00  0.00     0.121 A 
ENDBRANCH  16  19
ENDBRANCH  12  13
ENDBRANCH  11  12
ENDBRANCH  10  11
ENDBRANCH   9  10
ENDBRANCH   1   9
BRANCH   6  25
ATOM     25  C   UNL d   1      13.084   1.145 -19.443  0.00  0.00     0.068 A 
ATOM     26  C   UNL d   1      14.326   1.674 -19.926  0.00  0.00     0.084 A 
ATOM     27  C   UNL d   1      15.300   0.718 -20.361  0.00  0.00     0.005 A 
ATOM     28  C   UNL d   1      15.076  -0.680 -20.330  0.00  0.00     0.002 A 
ATOM     29  C   UNL d   1      13.856  -1.180 -19.854  0.00  0.00     0.031 A 
ATOM     30  C   UNL d   1      12.863  -0.274 -19.410  0.00  0.00     0.150 A 
ATOM     31  F   UNL d   1      11.697  -0.793 -18.948  0.00  0.00    -0.203 F 
BRANCH  26  32
ATOM     32  C   UNL d   1      14.740   3.169 -19.987  0.00  0.00     0.420 C 
ATOM     33  F   UNL d   1      13.892   3.950 -20.663  0.00  0.00    -0.166 F 
ATOM     34  F   UNL d   1      14.908   3.657 -18.778  0.00  0.00    -0.166 F 
ATOM     35  F   UNL d   1      15.911   3.268 -20.627  0.00  0.00    -0.166 F 
ENDBRANCH  26  32
ENDBRANCH   6  25
TORSDOF 8
