REMARK  4 active torsions:
REMARK  status: ('A' for Active; 'I' for Inactive)
REMARK    1  A    between atoms: C_12  and  C_13 
REMARK    2  A    between atoms: C_13  and  C_14 
REMARK    3  A    between atoms: C_14  and  N_15 
REMARK    4  A    between atoms: N_18  and  C_19 
ROOT
ATOM      1  N   UNL d   1       8.553   4.599 -12.389  0.00  0.00     0.141 N 
ATOM      2  C   UNL d   1       7.708   5.696 -11.907  0.00  0.00     0.274 C 
ATOM      3  C   UNL d   1       7.580   5.535 -10.381  0.00  0.00     0.137 C 
ATOM      4  N   UNL d   1       8.847   5.557  -9.710  0.00  0.00    -0.344 N 
ATOM      5  C   UNL d   1       9.764   4.577 -10.184  0.00  0.00     0.137 C 
ATOM      6  C   UNL d   1       9.849   4.731 -11.726  0.00  0.00     0.274 C 
ENDROOT
BRANCH   1   7
ATOM      7  C   UNL d   1       8.688   4.739 -13.830  0.00  0.00     0.255 C 
BRANCH   7   8
ATOM      8  C   UNL d   1       9.373   3.502 -14.466  0.00  0.00     0.068 C 
BRANCH   8   9
ATOM      9  C   UNL d   1       9.666   3.669 -15.950  0.00  0.00     0.050 A 
ATOM     10  C   UNL d   1       9.057   2.934 -16.905  0.00  0.00     0.062 A 
ATOM     11  C   UNL d   1       7.979   1.901 -16.598  0.00  0.00     0.052 C 
ATOM     12  N   UNL d   1       9.360   3.107 -18.249  0.00  0.00    -0.233 NA
ATOM     13  C   UNL d   1      10.247   3.967 -18.630  0.00  0.00     0.150 A 
ATOM     14  N   UNL d   1      10.947   4.767 -17.670  0.00  0.00    -0.258 N 
ATOM     15  C   UNL d   1      10.595   4.178 -20.024  0.00  0.00     0.037 A 
ATOM     16  C   UNL d   1      11.919   5.702 -18.109  0.00  0.00     0.084 A 
ATOM     17  C   UNL d   1      10.707   4.639 -16.328  0.00  0.00     0.263 A 
ATOM     18  C   UNL d   1      12.215   5.873 -19.408  0.00  0.00     0.019 A 
ATOM     19  C   UNL d   1      11.524   5.078 -20.393  0.00  0.00     0.005 A 
ATOM     20  O   UNL d   1      11.333   5.287 -15.478  0.00  0.00    -0.267 OA
ENDBRANCH   8   9
ENDBRANCH   7   8
ENDBRANCH   1   7
BRANCH   4  21
ATOM     21  C   UNL d   1       9.250   6.426  -8.671  0.00  0.00     0.057 C 
ATOM     22  C   UNL d   1      10.446   7.199  -8.745  0.00  0.00     0.022 C 
ATOM     23  C   UNL d   1      10.798   8.038  -7.638  0.00  0.00     0.031 C 
ATOM     24  C   UNL d   1      11.438   7.307  -9.754  0.00  0.00     0.009 C 
ATOM     25  C   UNL d   1       9.924   8.266  -6.603  0.00  0.00     0.007 C 
ATOM     26  S   UNL d   1      12.391   8.742  -7.782  0.00  0.00    -0.086 SA
ATOM     27  C   UNL d   1       8.765   7.522  -6.580  0.00  0.00     0.002 C 
ATOM     28  C   UNL d   1       8.475   6.500  -7.509  0.00  0.00     0.017 C 
ATOM     29  C   UNL d   1      12.486   8.115  -9.382  0.00  0.00     0.035 C 
ENDBRANCH   4  21
TORSDOF 4
