REMARK  5 active torsions:
REMARK  status: ('A' for Active; 'I' for Inactive)
REMARK    1  A    between atoms: C_2  and  C_3 
REMARK       I    between atoms: C_2  and  N_11 
REMARK    2  A    between atoms: C_4  and  C_5 
REMARK    3  A    between atoms: N_11  and  C_12 
REMARK    4  A    between atoms: N_15  and  C_16 
REMARK    5  A    between atoms: C_16  and  C_17 
ROOT
ATOM      1  C   UNL d   1       9.600   6.742  -9.761  0.00  0.00     0.111 C 
ATOM      2  C   UNL d   1      10.764   7.722 -10.011  0.00  0.00     0.060 C 
ATOM      3  C   UNL d   1      10.844   8.787  -8.905  0.00  0.00     0.253 C 
ATOM      4  N   UNL d   1      10.952   8.149  -7.592  0.00  0.00     0.141 N 
ATOM      5  C   UNL d   1       9.730   7.360  -7.331  0.00  0.00     0.253 C 
ATOM      6  C   UNL d   1       9.686   6.202  -8.338  0.00  0.00     0.060 C 
ENDROOT
BRANCH   1   7
ATOM      7  N   UNL d   1       9.561   5.652 -10.728  0.00  0.00    -0.229 NA
ATOM      8  C   UNL d   1       9.057   5.745 -11.967  0.00  0.00     0.318 C 
ATOM      9  O   UNL d   1       8.529   6.743 -12.448  0.00  0.00    -0.256 OA
BRANCH   8  10
ATOM     10  C   UNL d   1       9.231   4.544 -12.736  0.00  0.00     0.002 C 
ATOM     11  C   UNL d   1       9.361   3.555 -13.441  0.00  0.00    -0.055 C 
BRANCH  11  12
ATOM     12  C   UNL d   1       9.470   2.384 -14.281  0.00  0.00     0.042 A 
ATOM     13  C   UNL d   1       8.342   1.566 -14.496  0.00  0.00     0.008 A 
ATOM     14  C   UNL d   1       8.450   0.417 -15.301  0.00  0.00     0.001 A 
ATOM     15  C   UNL d   1       9.682   0.089 -15.899  0.00  0.00     0.000 A 
ATOM     16  C   UNL d   1      10.805   0.909 -15.686  0.00  0.00     0.001 A 
ATOM     17  C   UNL d   1      10.704   2.053 -14.874  0.00  0.00     0.008 A 
ENDBRANCH  11  12
ENDBRANCH   8  10
ENDBRANCH   1   7
BRANCH   4  18
ATOM     18  C   UNL d   1      11.161   9.170  -6.565  0.00  0.00     0.277 C 
BRANCH  18  19
ATOM     19  C   UNL d   1      11.471   8.643  -5.171  0.00  0.00     0.011 A 
ATOM     20  C   UNL d   1      11.570   9.541  -4.080  0.00  0.00    -0.002 A 
ATOM     21  C   UNL d   1      11.861   9.068  -2.789  0.00  0.00    -0.000 A 
ATOM     22  C   UNL d   1      12.022   7.684  -2.550  0.00  0.00    -0.000 A 
ATOM     23  C   UNL d   1      11.918   6.787  -3.637  0.00  0.00    -0.000 A 
ATOM     24  C   UNL d   1      11.684   7.260  -4.920  0.00  0.00    -0.002 A 
ENDBRANCH  18  19
ENDBRANCH   4  18
TORSDOF 5
