REMARK  4 active torsions:
REMARK  status: ('A' for Active; 'I' for Inactive)
REMARK    1  A    between atoms: C_2  and  C_3 
REMARK    2  A    between atoms: C_3  and  N_4 
REMARK    3  A    between atoms: N_4  and  C_5 
REMARK    4  A    between atoms: C_13  and  C_14 
ROOT
ATOM      1  C   UNL d   1       9.680   5.557  -9.614  0.00  0.00     0.103 C 
ATOM      2  C   UNL d   1       9.327   6.780 -10.415  0.00  0.00     0.029 C 
ATOM      3  C   UNL d   1      10.255   7.915 -10.140  0.00  0.00     0.028 C 
ATOM      4  C   UNL d   1      10.692   8.082  -8.705  0.00  0.00    -0.026 A 
ATOM      5  C   UNL d   1      11.308   9.285  -8.409  0.00  0.00    -0.003 A 
ATOM      6  C   UNL d   1      11.738   9.595  -7.116  0.00  0.00     0.019 A 
ATOM      7  C   UNL d   1      11.570   8.662  -6.130  0.00  0.00     0.081 A 
ATOM      8  N   UNL d   1      11.956   8.781  -4.819  0.00  0.00    -0.241 NA
ATOM      9  C   UNL d   1      11.684   7.617  -4.148  0.00  0.00     0.141 A 
ATOM     10  C   UNL d   1      11.050   6.753  -5.003  0.00  0.00     0.025 A 
ATOM     11  C   UNL d   1      10.975   7.389  -6.354  0.00  0.00     0.015 A 
ATOM     12  C   UNL d   1      10.502   7.114  -7.694  0.00  0.00    -0.023 A 
ATOM     13  C   UNL d   1       9.764   5.829  -8.080  0.00  0.00     0.050 C 
ENDROOT
BRANCH   1  14
ATOM     14  N   UNL d   1       8.745   4.478  -9.882  0.00  0.00    -0.297 NA
BRANCH  14  15
ATOM     15  C   UNL d   1       8.234   4.384 -11.257  0.00  0.00     0.120 C 
BRANCH  15  16
ATOM     16  C   UNL d   1       9.375   4.109 -12.274  0.00  0.00     0.026 C 
ATOM     17  C   UNL d   1       8.888   4.115 -13.725  0.00  0.00     0.002 C 
ENDBRANCH  15  16
ENDBRANCH  14  15
ENDBRANCH   1  14
BRANCH   9  18
ATOM     18  C   UNL d   1      12.057   7.627  -2.718  0.00  0.00     0.314 C 
ATOM     19  N   UNL d   1      12.209   6.462  -2.105  0.00  0.00    -0.101 N 
ATOM     20  O   UNL d   1      12.264   8.702  -2.134  0.00  0.00    -0.262 OA
ENDBRANCH   9  18
TORSDOF 4
