REMARK  7 active torsions:
REMARK  status: ('A' for Active; 'I' for Inactive)
REMARK    1  A    between atoms: N_11  and  C_12 
REMARK    2  A    between atoms: C_12  and  C_13 
REMARK    3  A    between atoms: C_13  and  C_14 
REMARK    4  A    between atoms: C_14  and  C_15 
REMARK    5  A    between atoms: C_15  and  C_16 
REMARK    6  A    between atoms: C_16  and  N_17 
REMARK    7  A    between atoms: C_20  and  C_21 
ROOT
ATOM      1  C   UNL d   1       8.616   5.147 -10.633  0.00  0.00     0.251 C 
ENDROOT
BRANCH   1   2
ATOM      2  C   UNL d   1       9.453   4.724 -11.855  0.00  0.00     0.035 C 
BRANCH   2   3
ATOM      3  C   UNL d   1       8.582   4.424 -13.080  0.00  0.00     0.004 C 
BRANCH   3   4
ATOM      4  C   UNL d   1       9.406   4.059 -14.325  0.00  0.00     0.025 C 
BRANCH   4   5
ATOM      5  C   UNL d   1      10.357   2.877 -14.063  0.00  0.00     0.112 C 
BRANCH   5   6
ATOM      6  N   UNL d   1      10.629   2.110 -15.275  0.00  0.00    -0.264 N 
ATOM      7  C   UNL d   1      11.546   2.480 -16.208  0.00  0.00     0.263 A 
ATOM      8  O   UNL d   1      12.274   3.471 -16.215  0.00  0.00    -0.267 OA
ATOM      9  C   UNL d   1      11.494   1.435 -17.259  0.00  0.00     0.061 A 
ATOM     10  C   UNL d   1      10.542   0.519 -16.886  0.00  0.00     0.061 A 
ATOM     11  C   UNL d   1      12.233   1.309 -18.446  0.00  0.00     0.005 A 
ATOM     12  C   UNL d   1      10.232  -0.602 -17.667  0.00  0.00     0.005 A 
ATOM     13  C   UNL d   1       9.979   0.964 -15.592  0.00  0.00     0.263 A 
ATOM     14  C   UNL d   1      10.957  -0.759 -18.871  0.00  0.00     0.000 A 
ATOM     15  C   UNL d   1      11.951   0.181 -19.255  0.00  0.00     0.000 A 
ATOM     16  O   UNL d   1       9.092   0.385 -14.962  0.00  0.00    -0.267 OA
ENDBRANCH   5   6
ENDBRANCH   4   5
ENDBRANCH   3   4
ENDBRANCH   2   3
ENDBRANCH   1   2
BRANCH   1  17
ATOM     17  N   UNL d   1       9.463   5.742  -9.606  0.00  0.00     0.142 N 
ATOM     18  C   UNL d   1       8.718   5.830  -8.355  0.00  0.00     0.255 C 
ATOM     19  C   UNL d   1       9.644   6.343  -7.242  0.00  0.00     0.061 C 
ATOM     20  C   UNL d   1      10.421   7.578  -7.636  0.00  0.00    -0.021 C 
ATOM     21  C   UNL d   1      10.495   7.911  -8.938  0.00  0.00     0.005 C 
ATOM     22  C   UNL d   1       9.885   7.085 -10.038  0.00  0.00     0.276 C 
BRANCH  20  23
ATOM     23  C   UNL d   1      11.058   8.410  -6.612  0.00  0.00     0.016 A 
ATOM     24  C   UNL d   1      11.438   8.008  -5.282  0.00  0.00     0.019 A 
ATOM     25  C   UNL d   1      12.053   9.146  -4.677  0.00  0.00     0.081 A 
ATOM     26  C   UNL d   1      11.351   6.835  -4.493  0.00  0.00     0.002 A 
ATOM     27  N   UNL d   1      12.038  10.143  -5.636  0.00  0.00    -0.244 NA
ATOM     28  C   UNL d   1      12.546   9.112  -3.364  0.00  0.00     0.019 A 
ATOM     29  C   UNL d   1      11.451   9.708  -6.797  0.00  0.00     0.099 A 
ATOM     30  C   UNL d   1      12.443   7.928  -2.607  0.00  0.00     0.002 A 
ATOM     31  C   UNL d   1      11.847   6.790  -3.175  0.00  0.00     0.000 A 
ENDBRANCH  20  23
ENDBRANCH   1  17
TORSDOF 7
