REMARK  11 active torsions:
REMARK  status: ('A' for Active; 'I' for Inactive)
REMARK    1  A    between atoms: C_2  and  C_3 
REMARK    2  A    between atoms: C_3  and  N_4 
REMARK    3  A    between atoms: N_4  and  C_5 
REMARK    4  A    between atoms: N_4  and  C_21 
REMARK    5  A    between atoms: C_5  and  C_6 
REMARK    6  A    between atoms: C_6  and  C_7 
REMARK    7  A    between atoms: C_7  and  C_8 
REMARK    8  A    between atoms: C_8  and  N_9 
REMARK       I    between atoms: N_9  and  C_10 
REMARK    9  A    between atoms: C_10  and  C_12 
REMARK   10  A    between atoms: C_21  and  C_22 
REMARK   11  A    between atoms: C_24  and  C_25 
ROOT
ATOM      1  C   UNL d   1      10.224   4.855 -13.155  0.00  0.00     0.250 C 
ENDROOT
BRANCH   1   2
ATOM      2  N   UNL d   1       9.416   5.969 -12.667  0.00  0.00     0.137 N 
BRANCH   2   3
ATOM      3  C   UNL d   1       7.976   5.891 -13.000  0.00  0.00     0.250 C 
BRANCH   3   4
ATOM      4  C   UNL d   1       7.307   4.655 -12.355  0.00  0.00     0.035 C 
ATOM      5  C   UNL d   1       5.816   4.602 -12.536  0.00  0.00     0.002 C 
ENDBRANCH   3   4
ENDBRANCH   2   3
BRANCH   2   6
ATOM      6  C   UNL d   1       9.618   6.242 -11.251  0.00  0.00     0.251 C 
BRANCH   6   7
ATOM      7  C   UNL d   1       9.477   5.028 -10.345  0.00  0.00     0.038 A 
ATOM      8  C   UNL d   1       9.715   5.111  -8.850  0.00  0.00     0.024 A 
ATOM      9  C   UNL d   1       8.308   4.964  -9.345  0.00  0.00     0.007 A 
BRANCH   8  10
ATOM     10  C   UNL d   1      10.135   6.387  -8.216  0.00  0.00    -0.022 A 
ATOM     11  C   UNL d   1      11.148   7.215  -8.808  0.00  0.00    -0.003 A 
ATOM     12  C   UNL d   1      11.449   8.454  -8.280  0.00  0.00     0.011 A 
ATOM     13  C   UNL d   1      10.809   8.885  -7.109  0.00  0.00     0.058 A 
ATOM     14  C   UNL d   1       9.817   8.093  -6.519  0.00  0.00     0.011 A 
ATOM     15 CL   UNL d   1      11.310  10.360  -6.362  0.00  0.00    -0.082 Cl
ATOM     16  C   UNL d   1       9.462   6.839  -7.074  0.00  0.00    -0.003 A 
ENDBRANCH   8  10
ENDBRANCH   6   7
ENDBRANCH   2   6
ENDBRANCH   1   2
BRANCH   1  17
ATOM     17  C   UNL d   1      10.073   4.647 -14.663  0.00  0.00     0.037 C 
BRANCH  17  18
ATOM     18  C   UNL d   1      10.991   3.544 -15.173  0.00  0.00     0.029 C 
BRANCH  18  19
ATOM     19  C   UNL d   1      10.510   3.002 -16.521  0.00  0.00     0.129 C 
BRANCH  19  20
ATOM     20  N   UNL d   1       9.289   2.228 -16.345  0.00  0.00    -0.233 NA
ATOM     21  C   UNL d   1       8.713   1.472 -17.286  0.00  0.00     0.293 C 
ATOM     22  O   UNL d   1       9.171   1.346 -18.422  0.00  0.00    -0.264 OA
BRANCH  21  23
ATOM     23  C   UNL d   1       7.464   0.783 -16.893  0.00  0.00     0.139 A 
ATOM     24  N   UNL d   1       6.993   0.897 -15.590  0.00  0.00    -0.241 NA
ATOM     25  C   UNL d   1       5.834   0.176 -15.420  0.00  0.00     0.082 A 
ATOM     26  C   UNL d   1       5.556  -0.413 -16.687  0.00  0.00     0.019 A 
ATOM     27  C   UNL d   1       4.999  -0.009 -14.302  0.00  0.00     0.019 A 
ATOM     28  C   UNL d   1       6.599  -0.018 -17.597  0.00  0.00     0.025 A 
ATOM     29  C   UNL d   1       4.394  -1.209 -16.787  0.00  0.00     0.002 A 
ATOM     30  C   UNL d   1       3.546  -1.388 -15.677  0.00  0.00     0.000 A 
ATOM     31  C   UNL d   1       3.841  -0.791 -14.438  0.00  0.00     0.002 A 
ENDBRANCH  21  23
ENDBRANCH  19  20
ENDBRANCH  18  19
ENDBRANCH  17  18
ENDBRANCH   1  17
TORSDOF 11
