REMARK  13 active torsions:
REMARK  status: ('A' for Active; 'I' for Inactive)
REMARK    1  A    between atoms: C_9  and  C_10 
REMARK    2  A    between atoms: C_10  and  C_12 
REMARK    3  A    between atoms: C_12  and  N_13 
REMARK    4  A    between atoms: N_13  and  C_14 
REMARK    5  A    between atoms: C_14  and  C_15 
REMARK    6  A    between atoms: C_15  and  C_16 
REMARK    7  A    between atoms: C_16  and  S_17 
REMARK    8  A    between atoms: S_17  and  C_18 
REMARK    9  A    between atoms: C_18  and  C_19 
REMARK   10  A    between atoms: C_19  and  N_20 
REMARK   11  A    between atoms: N_20  and  C_21 
REMARK   12  A    between atoms: C_21  and  C_22 
REMARK   13  A    between atoms: C_22  and  C_23 
ROOT
ATOM      1  C   UNL d   1       6.229   1.000 -14.256  0.00  0.00     0.121 C 
ENDROOT
BRANCH   1   2
ATOM      2  N   UNL d   1       7.238   0.453 -15.161  0.00  0.00    -0.292 NA
BRANCH   2   3
ATOM      3  C   UNL d   1       7.178   0.924 -16.550  0.00  0.00     0.157 C 
BRANCH   3   4
ATOM      4  C   UNL d   1       8.578   0.978 -17.204  0.00  0.00     0.199 C 
ATOM      5  O   UNL d   1       9.072  -0.339 -17.354  0.00  0.00    -0.216 OA
BRANCH   4   6
ATOM      6  C   UNL d   1       9.556   1.905 -16.477  0.00  0.00     0.018 A 
ATOM      7  C   UNL d   1      10.157   1.494 -15.262  0.00  0.00     0.001 A 
ATOM      8  C   UNL d   1      11.047   2.329 -14.561  0.00  0.00     0.029 A 
ATOM      9  C   UNL d   1      11.383   3.605 -15.051  0.00  0.00     0.149 A 
ATOM     10  C   UNL d   1      10.794   4.018 -16.257  0.00  0.00     0.116 A 
ATOM     11  O   UNL d   1      12.257   4.407 -14.374  0.00  0.00    -0.189 OA
ATOM     12  N   UNL d   1      11.017   5.251 -16.900  0.00  0.00    -0.200 NA
ATOM     13  C   UNL d   1       9.907   3.193 -16.954  0.00  0.00     0.052 A 
ATOM     14  C   UNL d   1      10.336   5.444 -18.093  0.00  0.00     0.311 A 
ATOM     15  O   UNL d   1      10.361   6.424 -18.831  0.00  0.00    -0.258 OA
ATOM     16  S   UNL d   1       9.357   3.960 -18.428  0.00  0.00    -0.024 SA
ENDBRANCH   4   6
ENDBRANCH   3   4
ENDBRANCH   2   3
ENDBRANCH   1   2
BRANCH   1  17
ATOM     17  C   UNL d   1       6.458   2.505 -13.994  0.00  0.00     0.037 C 
BRANCH  17  18
ATOM     18  C   UNL d   1       5.581   3.066 -12.871  0.00  0.00     0.060 C 
BRANCH  18  19
ATOM     19  S   UNL d   1       6.083   4.758 -12.441  0.00  0.00    -0.138 SA
BRANCH  19  20
ATOM     20  C   UNL d   1       7.442   4.378 -11.306  0.00  0.00     0.096 C 
BRANCH  20  21
ATOM     21  C   UNL d   1       7.901   5.605 -10.522  0.00  0.00     0.302 C 
BRANCH  21  22
ATOM     22  N   UNL d   1       8.987   5.266  -9.612  0.00  0.00     0.340 N 
BRANCH  22  23
ATOM     23  C   UNL d   1       9.201   6.382  -8.701  0.00  0.00     0.295 C 
BRANCH  23  24
ATOM     24  C   UNL d   1      10.632   6.327  -8.163  0.00  0.00     0.065 C 
BRANCH  24  25
ATOM     25  C   UNL d   1      10.948   7.416  -7.151  0.00  0.00    -0.009 A 
ATOM     26  C   UNL d   1      11.153   8.755  -7.562  0.00  0.00     0.054 A 
ATOM     27  C   UNL d   1      11.439   9.745  -6.597  0.00  0.00     0.011 A 
ATOM     28 CL   UNL d   1      11.057   9.194  -9.232  0.00  0.00    -0.083 Cl
ATOM     29  C   UNL d   1      11.537   9.406  -5.235  0.00  0.00     0.001 A 
ATOM     30  C   UNL d   1      11.366   8.071  -4.832  0.00  0.00    -0.000 A 
ATOM     31  C   UNL d   1      11.059   7.081  -5.782  0.00  0.00    -0.003 A 
ENDBRANCH  24  25
ENDBRANCH  23  24
ENDBRANCH  22  23
ENDBRANCH  21  22
ENDBRANCH  20  21
ENDBRANCH  19  20
ENDBRANCH  18  19
ENDBRANCH  17  18
ENDBRANCH   1  17
TORSDOF 13
