REMARK  6 active torsions:
REMARK  status: ('A' for Active; 'I' for Inactive)
REMARK    1  A    between atoms: N_5  and  C_6 
REMARK    2  A    between atoms: C_11  and  C_12 
REMARK    3  A    between atoms: C_12  and  C_13 
REMARK    4  A    between atoms: C_13  and  C_14 
REMARK    5  A    between atoms: C_14  and  O_15 
REMARK    6  A    between atoms: O_15  and  C_16 
ROOT
ATOM      1  C   UNL d   1       8.593   3.260 -14.129  0.00  0.00     0.744 A 
ATOM      2  N   UNL d   1       8.326   4.211 -13.226  0.00  0.00     0.134 NA
ATOM      3  C   UNL d   1       9.398   4.918 -12.882  0.00  0.00     0.785 A 
ATOM      4  N   UNL d   1       9.198   5.922 -11.973  0.00  0.00     0.063 N 
ATOM      5  N   UNL d   1      10.647   4.788 -13.333  0.00  0.00    -0.042 NA
ATOM      6  C   UNL d   1      10.754   3.804 -14.229  0.00  0.00     0.176 A 
ATOM      7  N   UNL d   1       9.782   3.016 -14.690  0.00  0.00    -0.045 NA
ENDROOT
BRANCH   6   8
ATOM      8  C   UNL d   1      12.116   3.607 -14.858  0.00  0.00     0.070 C 
BRANCH   8   9
ATOM      9  C   UNL d   1      12.319   4.417 -16.146  0.00  0.00     0.041 C 
BRANCH   9  10
ATOM     10  C   UNL d   1      12.155   5.947 -15.966  0.00  0.00     0.149 C 
BRANCH  10  11
ATOM     11  O   UNL d   1      12.331   6.625 -17.204  0.00  0.00    -0.330 OA
BRANCH  11  12
ATOM     12  C   UNL d   1      13.599   6.730 -17.736  0.00  0.00     0.105 A 
ATOM     13  C   UNL d   1      13.715   7.258 -19.043  0.00  0.00     0.080 A 
ATOM     14  C   UNL d   1      14.981   7.389 -19.647  0.00  0.00     0.014 A 
ATOM     15 CL   UNL d   1      12.302   7.720 -19.927  0.00  0.00    -0.080 Cl
ATOM     16  C   UNL d   1      16.143   6.998 -18.954  0.00  0.00     0.012 A 
ATOM     17  C   UNL d   1      16.038   6.471 -17.654  0.00  0.00     0.060 A 
ATOM     18  C   UNL d   1      14.778   6.342 -17.046  0.00  0.00     0.036 A 
ATOM     19 CL   UNL d   1      17.448   5.991 -16.786  0.00  0.00    -0.082 Cl
ENDBRANCH  11  12
ENDBRANCH  10  11
ENDBRANCH   9  10
ENDBRANCH   8   9
ENDBRANCH   6   8
BRANCH   1  20
ATOM     20  N   UNL d   1       7.535   2.451 -14.537  0.00  0.00    -0.178 N 
ATOM     21  C   UNL d   1       6.264   2.351 -13.813  0.00  0.00     0.155 C 
ATOM     22  C   UNL d   1       5.922   0.870 -13.532  0.00  0.00     0.275 C 
ATOM     23  N   UNL d   1       5.881   0.113 -14.782  0.00  0.00     0.143 N 
ATOM     24  C   UNL d   1       5.545  -1.275 -14.503  0.00  0.00     0.286 C 
ATOM     25  C   UNL d   1       7.202   0.168 -15.409  0.00  0.00     0.275 C 
ATOM     26  C   UNL d   1       7.564   1.623 -15.747  0.00  0.00     0.155 C 
ENDBRANCH   1  20
TORSDOF 6
