REMARK  4 active torsions:
REMARK  status: ('A' for Active; 'I' for Inactive)
REMARK    1  A    between atoms: C_5  and  C_6 
REMARK    2  A    between atoms: C_11  and  C_12 
REMARK    3  A    between atoms: C_12  and  N_13 
REMARK    4  A    between atoms: N_16  and  C_17 
ROOT
ATOM      1  C   UNL d   1       7.006   2.179 -14.375  0.00  0.00     0.083 A 
ATOM      2  C   UNL d   1       5.872   1.867 -13.646  0.00  0.00     0.019 A 
ATOM      3  C   UNL d   1       5.442   2.672 -12.568  0.00  0.00     0.003 A 
ATOM      4  C   UNL d   1       6.147   3.791 -12.191  0.00  0.00     0.019 A 
ATOM      5  C   UNL d   1       7.316   4.120 -12.908  0.00  0.00     0.082 A 
ATOM      6  C   UNL d   1       8.248   5.114 -12.797  0.00  0.00     0.050 A 
ATOM      7  C   UNL d   1       9.157   4.840 -13.843  0.00  0.00     0.120 A 
ATOM      8  N   UNL d   1       8.845   3.802 -14.584  0.00  0.00    -0.164 NA
ATOM      9  N   UNL d   1       7.704   3.303 -13.995  0.00  0.00    -0.230 N 
ENDROOT
BRANCH   6  10
ATOM     10  C   UNL d   1       8.323   6.260 -11.843  0.00  0.00     0.280 C 
BRANCH  10  11
ATOM     11  N   UNL d   1       9.450   6.307 -10.909  0.00  0.00     0.146 N 
ATOM     12  C   UNL d   1       9.014   5.775  -9.610  0.00  0.00     0.275 C 
ATOM     13  C   UNL d   1      10.142   5.815  -8.573  0.00  0.00     0.137 C 
ATOM     14  N   UNL d   1      10.714   7.158  -8.493  0.00  0.00    -0.344 N 
ATOM     15  C   UNL d   1      11.088   7.743  -9.779  0.00  0.00     0.137 C 
ATOM     16  C   UNL d   1       9.875   7.695 -10.723  0.00  0.00     0.275 C 
BRANCH  14  17
ATOM     17  C   UNL d   1      10.920   7.811  -7.272  0.00  0.00     0.056 A 
ATOM     18  C   UNL d   1      10.958   9.224  -7.203  0.00  0.00     0.018 A 
ATOM     19  C   UNL d   1      11.163   9.881  -5.969  0.00  0.00     0.013 A 
ATOM     20  C   UNL d   1      11.315   9.133  -4.792  0.00  0.00     0.058 A 
ATOM     21  C   UNL d   1      11.277   7.731  -4.847  0.00  0.00     0.013 A 
ATOM     22 CL   UNL d   1      11.505   9.914  -3.270  0.00  0.00    -0.082 Cl
ATOM     23  C   UNL d   1      11.077   7.070  -6.076  0.00  0.00     0.018 A 
ENDBRANCH  14  17
ENDBRANCH  10  11
ENDBRANCH   6  10
BRANCH   1  24
ATOM     24  C   UNL d   1       7.469   1.317 -15.492  0.00  0.00     0.018 A 
ATOM     25  C   UNL d   1       6.545   0.782 -16.422  0.00  0.00     0.004 A 
ATOM     26  C   UNL d   1       6.973  -0.014 -17.503  0.00  0.00     0.030 A 
ATOM     27  C   UNL d   1       8.338  -0.303 -17.669  0.00  0.00     0.140 A 
ATOM     28  F   UNL d   1       8.756  -1.069 -18.706  0.00  0.00    -0.204 F 
ATOM     29  C   UNL d   1       9.271   0.201 -16.743  0.00  0.00     0.030 A 
ATOM     30  C   UNL d   1       8.837   0.983 -15.657  0.00  0.00     0.004 A 
ENDBRANCH   1  24
TORSDOF 4
