REMARK  7 active torsions:
REMARK  status: ('A' for Active; 'I' for Inactive)
REMARK    1  A    between atoms: C_6  and  C_7 
REMARK    2  A    between atoms: C_10  and  S_11 
REMARK    3  A    between atoms: S_11  and  C_12 
REMARK    4  A    between atoms: C_12  and  C_13 
REMARK    5  A    between atoms: C_13  and  C_14 
REMARK    6  A    between atoms: C_14  and  N_15 
REMARK    7  A    between atoms: C_23  and  C_24 
ROOT
ATOM      1  N   UNL d   1      10.853   3.701 -15.697  0.00  0.00     0.138 N 
ATOM      2  C   UNL d   1      10.848   2.913 -16.931  0.00  0.00     0.255 C 
ATOM      3  C   UNL d   1      12.204   2.260 -17.244  0.00  0.00     0.061 C 
ATOM      4  C   UNL d   1      13.178   3.192 -17.941  0.00  0.00    -0.022 A 
ATOM      5  C   UNL d   1      13.646   2.853 -19.232  0.00  0.00    -0.002 A 
ATOM      6  C   UNL d   1      14.553   3.694 -19.904  0.00  0.00     0.026 A 
ATOM      7  C   UNL d   1      14.978   4.864 -19.259  0.00  0.00     0.119 A 
ATOM      8  O   UNL d   1      15.848   5.833 -19.720  0.00  0.00    -0.285 OA
ATOM      9  C   UNL d   1      15.888   6.735 -18.691  0.00  0.00     0.256 A 
ATOM     10  N   UNL d   1      15.152   6.425 -17.614  0.00  0.00    -0.217 NA
ATOM     11  C   UNL d   1      14.541   5.231 -17.969  0.00  0.00     0.102 A 
ATOM     12  C   UNL d   1      13.620   4.380 -17.309  0.00  0.00    -0.004 A 
ATOM     13  C   UNL d   1      13.122   4.751 -15.924  0.00  0.00     0.063 C 
ATOM     14  C   UNL d   1      11.602   4.954 -15.835  0.00  0.00     0.255 C 
ENDROOT
BRANCH   1  15
ATOM     15  C   UNL d   1       9.465   3.998 -15.332  0.00  0.00     0.251 C 
BRANCH  15  16
ATOM     16  C   UNL d   1       9.315   4.232 -13.819  0.00  0.00     0.047 C 
BRANCH  16  17
ATOM     17  C   UNL d   1       7.874   4.613 -13.451  0.00  0.00     0.067 C 
BRANCH  17  18
ATOM     18  S   UNL d   1       7.566   4.683 -11.665  0.00  0.00    -0.075 SA
BRANCH  18  19
ATOM     19  C   UNL d   1       8.641   6.001 -11.185  0.00  0.00     0.193 A 
ATOM     20  N   UNL d   1       9.052   6.987 -11.988  0.00  0.00    -0.122 NA
ATOM     21  N   UNL d   1       9.819   7.805 -11.197  0.00  0.00    -0.128 NA
ATOM     22  C   UNL d   1       9.802   7.257  -9.978  0.00  0.00     0.174 A 
ATOM     23  N   UNL d   1       9.097   6.107  -9.923  0.00  0.00    -0.288 N 
ATOM     24  C   UNL d   1       8.848   5.242  -8.783  0.00  0.00     0.134 C 
BRANCH  22  25
ATOM     25  C   UNL d   1      10.506   7.860  -8.863  0.00  0.00     0.080 A 
ATOM     26  C   UNL d   1      11.838   8.166  -8.752  0.00  0.00     0.069 A 
ATOM     27  N   UNL d   1      12.151   8.786  -7.537  0.00  0.00    -0.247 NA
ATOM     28  C   UNL d   1      12.923   7.915  -9.753  0.00  0.00     0.053 C 
ATOM     29  C   UNL d   1      11.084   8.956  -6.754  0.00  0.00     0.088 A 
ATOM     30  C   UNL d   1      11.161   9.573  -5.404  0.00  0.00     0.059 C 
ATOM     31  S   UNL d   1       9.589   8.382  -7.472  0.00  0.00    -0.068 SA
ENDBRANCH  22  25
ENDBRANCH  18  19
ENDBRANCH  17  18
ENDBRANCH  16  17
ENDBRANCH  15  16
ENDBRANCH   1  15
BRANCH   9  32
ATOM     32  C   UNL d   1      16.753   7.951 -18.846  0.00  0.00     0.458 C 
ATOM     33  F   UNL d   1      17.823   7.849 -18.056  0.00  0.00    -0.163 F 
ATOM     34  F   UNL d   1      17.177   8.087 -20.104  0.00  0.00    -0.163 F 
ATOM     35  F   UNL d   1      16.084   9.058 -18.514  0.00  0.00    -0.163 F 
ENDBRANCH   9  32
TORSDOF 7
