REMARK  7 active torsions:
REMARK  status: ('A' for Active; 'I' for Inactive)
REMARK    1  A    between atoms: C_2  and  C_3 
REMARK       I    between atoms: C_2  and  N_20 
REMARK    2  A    between atoms: C_3  and  C_4 
REMARK    3  A    between atoms: C_4  and  C_5 
REMARK    4  A    between atoms: C_5  and  C_6 
REMARK    5  A    between atoms: C_6  and  N_7 
REMARK    6  A    between atoms: N_10  and  C_11 
REMARK    7  A    between atoms: N_20  and  C_21 
ROOT
ATOM      1  C   UNL d   1       8.069   5.409 -11.843  0.00  0.00     0.036 C 
ENDROOT
BRANCH   1   2
ATOM      2  C   UNL d   1       9.491   5.571 -11.275  0.00  0.00     0.012 C 
BRANCH   2   3
ATOM      3  C   UNL d   1       9.714   6.921 -10.538  0.00  0.00     0.090 C 
BRANCH   3   4
ATOM      4  C   UNL d   1       9.836   6.807  -9.017  0.00  0.00     0.257 C 
ATOM      5  O   UNL d   1       9.822   5.691  -8.496  0.00  0.00    -0.270 OA
ATOM      6  N   UNL d   1       9.980   7.971  -8.347  0.00  0.00    -0.186 NA
BRANCH   6   7
ATOM      7  C   UNL d   1      10.503   8.130  -7.037  0.00  0.00     0.197 A 
ATOM      8  S   UNL d   1      10.853   9.708  -6.327  0.00  0.00    -0.047 SA
ATOM      9  C   UNL d   1      11.404   8.903  -4.864  0.00  0.00     0.050 A 
ATOM     10  C   UNL d   1      11.353   7.495  -5.071  0.00  0.00     0.090 A 
ATOM     11  C   UNL d   1      11.834   9.448  -3.638  0.00  0.00     0.008 A 
ATOM     12  N   UNL d   1      10.849   7.074  -6.289  0.00  0.00    -0.221 NA
ATOM     13  C   UNL d   1      11.790   6.663  -4.028  0.00  0.00     0.020 A 
ATOM     14  C   UNL d   1      12.245   7.189  -2.804  0.00  0.00     0.002 A 
ATOM     15  C   UNL d   1      12.266   8.588  -2.609  0.00  0.00     0.001 A 
ENDBRANCH   6   7
ENDBRANCH   3   4
ENDBRANCH   2   3
ENDBRANCH   1   2
BRANCH   1  16
ATOM     16  C   UNL d   1       8.086   4.826 -13.266  0.00  0.00     0.250 C 
BRANCH  16  17
ATOM     17  N   UNL d   1       7.659   3.442 -13.290  0.00  0.00     0.141 N 
ATOM     18  C   UNL d   1       6.195   3.312 -13.330  0.00  0.00     0.274 C 
ATOM     19  C   UNL d   1       5.759   1.826 -13.309  0.00  0.00     0.137 C 
ATOM     20  N   UNL d   1       6.431   1.088 -14.373  0.00  0.00    -0.343 N 
ATOM     21  C   UNL d   1       7.882   1.237 -14.423  0.00  0.00     0.137 C 
ATOM     22  C   UNL d   1       8.262   2.729 -14.418  0.00  0.00     0.274 C 
BRANCH  20  23
ATOM     23  C   UNL d   1       5.728   0.283 -15.296  0.00  0.00     0.084 A 
ATOM     24  C   UNL d   1       4.576  -0.454 -14.915  0.00  0.00     0.155 A 
ATOM     25  C   UNL d   1       3.885  -1.225 -15.866  0.00  0.00     0.031 A 
ATOM     26  F   UNL d   1       4.126  -0.445 -13.637  0.00  0.00    -0.203 F 
ATOM     27  C   UNL d   1       4.318  -1.280 -17.203  0.00  0.00     0.002 A 
ATOM     28  C   UNL d   1       5.460  -0.559 -17.591  0.00  0.00     0.002 A 
ATOM     29  C   UNL d   1       6.159   0.215 -16.643  0.00  0.00     0.019 A 
ENDBRANCH  20  23
ENDBRANCH  16  17
ENDBRANCH   1  16
TORSDOF 7
