REMARK  5 active torsions:
REMARK  status: ('A' for Active; 'I' for Inactive)
REMARK    1  A    between atoms: C_2  and  C_5 
REMARK    2  A    between atoms: C_8  and  S_9 
REMARK    3  A    between atoms: S_9  and  C_10 
REMARK    4  A    between atoms: C_10  and  C_11 
REMARK    5  A    between atoms: C_11  and  C_12 
ROOT
ATOM      1  C   UNL d   1      11.524   7.707  -4.205  0.00  0.00    -0.023 A 
ATOM      2  C   UNL d   1      11.571   9.052  -4.652  0.00  0.00    -0.004 A 
ATOM      3  C   UNL d   1      11.169   9.405  -5.973  0.00  0.00     0.006 A 
ATOM      4  C   UNL d   1      10.751   8.405  -6.874  0.00  0.00     0.025 A 
ATOM      5  C   UNL d   1      10.720   7.061  -6.460  0.00  0.00     0.006 A 
ATOM      6  C   UNL d   1      11.142   6.729  -5.149  0.00  0.00    -0.004 A 
ENDROOT
BRANCH   4   7
ATOM      7  S   UNL d   1      10.309   8.857  -8.519  0.00  0.00    -0.113 SA
BRANCH   7   8
ATOM      8  C   UNL d   1       9.772   7.357  -9.358  0.00  0.00     0.069 C 
BRANCH   8   9
ATOM      9  C   UNL d   1       9.490   7.617 -10.845  0.00  0.00     0.059 C 
BRANCH   9  10
ATOM     10  C   UNL d   1       9.012   6.377 -11.537  0.00  0.00     0.081 A 
ATOM     11  N   UNL d   1       9.855   5.539 -12.251  0.00  0.00    -0.227 NA
ATOM     12  C   UNL d   1       9.080   4.560 -12.665  0.00  0.00     0.199 A 
ATOM     13  N   UNL d   1       7.804   4.690 -12.265  0.00  0.00    -0.221 NA
ATOM     14  C   UNL d   1       7.732   5.851 -11.521  0.00  0.00     0.116 A 
ENDBRANCH   9  10
ENDBRANCH   8   9
ENDBRANCH   7   8
ENDBRANCH   4   7
BRANCH   1  15
ATOM     15  C   UNL d   1      11.894   7.296  -2.767  0.00  0.00     0.019 C 
ATOM     16  C   UNL d   1      13.061   6.333  -2.746  0.00  0.00     0.004 C 
ATOM     17  C   UNL d   1      10.803   6.494  -2.087  0.00  0.00     0.004 C 
ATOM     18  C   UNL d   1      12.312   8.500  -1.937  0.00  0.00     0.004 C 
ENDBRANCH   1  15
TORSDOF 5
