REMARK  3 active torsions:
REMARK  status: ('A' for Active; 'I' for Inactive)
REMARK    1  A    between atoms: C_2  and  N_3 
REMARK    2  A    between atoms: C_7  and  C_8 
REMARK    3  A    between atoms: C_14  and  O_15 
ROOT
ATOM      1  C   UNL d   1      10.745   8.218  -7.056  0.00  0.00     0.038 A 
ATOM      2  C   UNL d   1      11.092   9.500  -7.395  0.00  0.00     0.100 A 
ATOM      3  N   UNL d   1      11.761  10.126  -6.355  0.00  0.00    -0.244 NA
ATOM      4  C   UNL d   1      11.850   9.278  -5.292  0.00  0.00     0.082 A 
ATOM      5  C   UNL d   1      12.438   9.438  -4.032  0.00  0.00     0.021 A 
ATOM      6  C   UNL d   1      12.392   8.399  -3.110  0.00  0.00     0.026 A 
ATOM      7  C   UNL d   1      11.812   7.174  -3.481  0.00  0.00     0.094 A 
ATOM      8  C   UNL d   1      11.227   7.010  -4.753  0.00  0.00     0.026 A 
ATOM      9  C   UNL d   1      11.213   8.063  -5.698  0.00  0.00     0.023 A 
ENDROOT
BRANCH   1  10
ATOM     10  C   UNL d   1      10.089   7.237  -7.908  0.00  0.00     0.082 A 
ATOM     11  N   UNL d   1      10.131   7.212  -9.307  0.00  0.00    -0.309 N 
ATOM     12  C   UNL d   1       9.429   6.121  -9.655  0.00  0.00     0.179 A 
ATOM     13  N   UNL d   1       8.962   5.408  -8.645  0.00  0.00    -0.223 NA
ATOM     14  C   UNL d   1       9.354   6.144  -7.535  0.00  0.00     0.118 A 
BRANCH  11  15
ATOM     15  C   UNL d   1      10.736   8.151 -10.230  0.00  0.00     0.108 C 
ATOM     16  C   UNL d   1      12.281   8.246 -10.086  0.00  0.00     0.027 C 
ENDBRANCH  11  15
ENDBRANCH   1  10
BRANCH   7  17
ATOM     17  O   UNL d   1      11.719   6.144  -2.588  0.00  0.00    -0.328 OA
ATOM     18  C   UNL d   1      12.831   5.989  -1.730  0.00  0.00     0.181 C 
ENDBRANCH   7  17
TORSDOF 3
