REMARK  1 active torsions:
REMARK  status: ('A' for Active; 'I' for Inactive)
REMARK    1  A    between atoms: C_2  and  C_3 
ROOT
ATOM      1  C   UNL d   1       9.238   4.552  -8.838  0.00  0.00    -0.002 C 
ATOM      2  C   UNL d   1       8.892   5.847  -8.831  0.00  0.00     0.009 C 
ENDROOT
BRANCH   2   3
ATOM      3  C   UNL d   1       9.854   6.999  -9.030  0.00  0.00     0.209 C 
ATOM      4  O   UNL d   1       9.460   7.784 -10.135  0.00  0.00    -0.215 OA
ENDBRANCH   2   3
TORSDOF 1
