REMARK  14 active torsions:
REMARK  status: ('A' for Active; 'I' for Inactive)
REMARK    1  A    between atoms: C_2  and  C_3 
REMARK    2  A    between atoms: C_3  and  N_4 
REMARK    3  A    between atoms: C_19  and  O_20 
REMARK    4  A    between atoms: O_20  and  C_21 
REMARK    5  A    between atoms: C_21  and  C_22 
REMARK    6  A    between atoms: C_22  and  C_23 
REMARK    7  A    between atoms: C_23  and  N_24 
REMARK    8  A    between atoms: N_24  and  C_25 
REMARK    9  A    between atoms: N_24  and  S_42 
REMARK   10  A    between atoms: C_25  and  C_26 
REMARK   11  A    between atoms: C_26  and  C_27 
REMARK   12  A    between atoms: C_27  and  N_28 
REMARK   13  A    between atoms: N_31  and  C_32 
REMARK   14  A    between atoms: C_37  and  O_38 
ROOT
ATOM      1  C   UNL d   1       9.646   0.698 -16.855  0.00  0.00     0.058 C 
ENDROOT
BRANCH   1   2
ATOM      2  C   UNL d   1      10.949   1.414 -16.444  0.00  0.00     0.151 C 
BRANCH   2   3
ATOM      3  O   UNL d   1      12.089   1.002 -17.213  0.00  0.00    -0.331 OA
BRANCH   3   4
ATOM      4  C   UNL d   1      11.954   1.069 -18.576  0.00  0.00     0.094 A 
ATOM      5  C   UNL d   1      11.796  -0.159 -19.245  0.00  0.00     0.024 A 
ATOM      6  C   UNL d   1      11.563  -0.203 -20.632  0.00  0.00     0.002 A 
ATOM      7  C   UNL d   1      11.504   0.998 -21.353  0.00  0.00    -0.004 A 
ATOM      8  C   UNL d   1      11.703   2.224 -20.691  0.00  0.00    -0.018 A 
ATOM      9  C   UNL d   1      11.573   3.508 -21.475  0.00  0.00     0.064 C 
ATOM     10  C   UNL d   1      11.979   2.289 -19.308  0.00  0.00     0.018 A 
ATOM     11  C   UNL d   1      10.983   4.641 -20.595  0.00  0.00     0.245 C 
ATOM     12  N   UNL d   1      10.773   5.861 -21.392  0.00  0.00     0.140 N 
ATOM     13  C   UNL d   1      11.802   4.819 -19.310  0.00  0.00     0.005 A 
ATOM     14  C   UNL d   1      10.328   6.933 -20.506  0.00  0.00     0.255 C 
ATOM     15  C   UNL d   1      11.453   7.294 -19.552  0.00  0.00     0.061 C 
ATOM     16  C   UNL d   1      12.006   6.116 -18.763  0.00  0.00    -0.022 A 
ATOM     17  C   UNL d   1      12.748   6.223 -17.576  0.00  0.00    -0.004 A 
ATOM     18  C   UNL d   1      13.287   5.068 -16.988  0.00  0.00    -0.000 A 
ATOM     19  C   UNL d   1      13.045   3.800 -17.554  0.00  0.00    -0.000 A 
ATOM     20  C   UNL d   1      12.254   3.616 -18.712  0.00  0.00    -0.001 A 
BRANCH  12  21
ATOM     21  C   UNL d   1       9.816   5.702 -22.502  0.00  0.00     0.251 C 
BRANCH  21  22
ATOM     22  C   UNL d   1       8.380   5.312 -22.049  0.00  0.00     0.035 C 
ATOM     23  C   UNL d   1       7.392   5.224 -23.190  0.00  0.00     0.002 C 
ENDBRANCH  21  22
ENDBRANCH  12  21
ENDBRANCH   3   4
ENDBRANCH   2   3
ENDBRANCH   1   2
BRANCH   1  24
ATOM     24  C   UNL d   1       8.803   0.183 -15.693  0.00  0.00     0.115 C 
BRANCH  24  25
ATOM     25  N   UNL d   1       7.374   0.122 -16.063  0.00  0.00    -0.278 N 
BRANCH  25  26
ATOM     26  C   UNL d   1       6.462   0.880 -15.193  0.00  0.00     0.115 C 
BRANCH  26  27
ATOM     27  C   UNL d   1       6.816   2.373 -15.157  0.00  0.00     0.060 C 
BRANCH  27  28
ATOM     28  C   UNL d   1       6.418   3.067 -13.839  0.00  0.00     0.252 C 
BRANCH  28  29
ATOM     29  N   UNL d   1       7.178   4.298 -13.630  0.00  0.00     0.141 N 
ATOM     30  C   UNL d   1       6.504   5.143 -12.634  0.00  0.00     0.274 C 
ATOM     31  C   UNL d   1       7.260   6.475 -12.424  0.00  0.00     0.137 C 
ATOM     32  N   UNL d   1       8.658   6.224 -12.111  0.00  0.00    -0.343 N 
ATOM     33  C   UNL d   1       9.366   5.283 -12.956  0.00  0.00     0.137 C 
ATOM     34  C   UNL d   1       8.539   4.003 -13.142  0.00  0.00     0.274 C 
BRANCH  32  35
ATOM     35  C   UNL d   1       9.249   6.736 -10.945  0.00  0.00     0.079 A 
ATOM     36  C   UNL d   1       9.236   6.002  -9.732  0.00  0.00     0.110 A 
ATOM     37  C   UNL d   1       9.863   6.560  -8.589  0.00  0.00     0.026 A 
ATOM     38  C   UNL d   1      10.483   7.818  -8.642  0.00  0.00     0.002 A 
ATOM     39  C   UNL d   1      10.478   8.545  -9.843  0.00  0.00     0.002 A 
ATOM     40  C   UNL d   1       9.859   8.010 -10.984  0.00  0.00     0.019 A 
BRANCH  36  41
ATOM     41  O   UNL d   1       8.596   4.788  -9.749  0.00  0.00    -0.327 OA
ATOM     42  C   UNL d   1       8.452   4.121  -8.510  0.00  0.00     0.181 C 
ENDBRANCH  36  41
ENDBRANCH  32  35
ENDBRANCH  28  29
ENDBRANCH  27  28
ENDBRANCH  26  27
ENDBRANCH  25  26
BRANCH  25  43
ATOM     43  S   UNL d   1       6.803  -0.569 -17.560  0.00  0.00     0.244 S 
ATOM     44  C   UNL d   1       5.467  -1.702 -17.004  0.00  0.00     0.163 C 
ATOM     45  O   UNL d   1       6.210   0.521 -18.356  0.00  0.00    -0.205 OA
ATOM     46  O   UNL d   1       7.877  -1.385 -18.134  0.00  0.00    -0.205 OA
ENDBRANCH  25  43
ENDBRANCH  24  25
ENDBRANCH   1  24
TORSDOF 14
