REMARK  5 active torsions:
REMARK  status: ('A' for Active; 'I' for Inactive)
REMARK    1  A    between atoms: C_2  and  C_3 
REMARK    2  A    between atoms: C_2  and  N_12 
REMARK    3  A    between atoms: C_3  and  N_4 
REMARK    4  A    between atoms: N_4  and  C_5 
REMARK    5  A    between atoms: N_15  and  C_16 
ROOT
ATOM      1  N   UNL d   1       9.885   6.878  -8.568  0.00  0.00     0.141 N 
ATOM      2  C   UNL d   1       9.321   7.976  -7.774  0.00  0.00     0.274 C 
ATOM      3  C   UNL d   1      10.437   8.787  -7.064  0.00  0.00     0.137 C 
ATOM      4  N   UNL d   1      11.281   7.898  -6.271  0.00  0.00    -0.344 N 
ATOM      5  C   UNL d   1      11.832   6.786  -7.030  0.00  0.00     0.137 C 
ATOM      6  C   UNL d   1      10.675   6.029  -7.686  0.00  0.00     0.274 C 
ENDROOT
BRANCH   1   7
ATOM      7  C   UNL d   1       8.821   6.114  -9.259  0.00  0.00     0.244 C 
ATOM      8  C   UNL d   1       8.447   4.743  -8.644  0.00  0.00     0.037 C 
BRANCH   7   9
ATOM      9  C   UNL d   1       9.146   5.993 -10.758  0.00  0.00     0.161 C 
BRANCH   9  10
ATOM     10  N   UNL d   1       7.971   5.584 -11.520  0.00  0.00    -0.249 NA
BRANCH  10  11
ATOM     11  C   UNL d   1       8.036   4.600 -12.517  0.00  0.00     0.178 A 
ATOM     12  N   UNL d   1       9.250   4.178 -12.943  0.00  0.00    -0.212 NA
ATOM     13  C   UNL d   1       9.275   3.219 -13.898  0.00  0.00     0.159 A 
ATOM     14  C   UNL d   1       8.083   2.693 -14.440  0.00  0.00     0.130 A 
ATOM     15 CL   UNL d   1      10.801   2.650 -14.461  0.00  0.00    -0.060 Cl
ATOM     16  N   UNL d   1       6.865   3.111 -14.032  0.00  0.00    -0.237 NA
ATOM     17  C   UNL d   1       6.846   4.064 -13.068  0.00  0.00     0.137 A 
ENDBRANCH  10  11
ENDBRANCH   9  10
ENDBRANCH   7   9
ENDBRANCH   1   7
BRANCH   4  18
ATOM     18  C   UNL d   1      11.549   8.097  -4.912  0.00  0.00     0.056 A 
ATOM     19  C   UNL d   1      11.564   9.406  -4.385  0.00  0.00     0.017 A 
ATOM     20  C   UNL d   1      11.869   9.622  -3.024  0.00  0.00     0.002 A 
ATOM     21  C   UNL d   1      12.182   8.541  -2.184  0.00  0.00     0.000 A 
ATOM     22  C   UNL d   1      12.160   7.230  -2.689  0.00  0.00     0.002 A 
ATOM     23  C   UNL d   1      11.842   7.013  -4.046  0.00  0.00     0.017 A 
ENDBRANCH   4  18
TORSDOF 5
