REMARK  7 active torsions:
REMARK  status: ('A' for Active; 'I' for Inactive)
REMARK    1  A    between atoms: C_6  and  C_7 
REMARK    2  A    between atoms: C_10  and  S_11 
REMARK    3  A    between atoms: S_11  and  C_12 
REMARK    4  A    between atoms: C_12  and  C_13 
REMARK    5  A    between atoms: C_13  and  C_14 
REMARK    6  A    between atoms: C_14  and  N_15 
REMARK    7  A    between atoms: C_20  and  C_21 
ROOT
ATOM      1  C   UNL d   1       7.844   5.617 -12.450  0.00  0.00     0.251 C 
ENDROOT
BRANCH   1   2
ATOM      2  C   UNL d   1       7.348   4.184 -12.253  0.00  0.00     0.047 C 
BRANCH   2   3
ATOM      3  C   UNL d   1       6.171   3.859 -13.189  0.00  0.00     0.067 C 
BRANCH   3   4
ATOM      4  S   UNL d   1       5.465   2.225 -12.828  0.00  0.00    -0.075 SA
BRANCH   4   5
ATOM      5  C   UNL d   1       5.981   1.302 -14.237  0.00  0.00     0.193 A 
ATOM      6  N   UNL d   1       7.129   1.535 -14.877  0.00  0.00    -0.122 NA
ATOM      7  N   UNL d   1       7.100   0.704 -15.967  0.00  0.00    -0.126 NA
ATOM      8  C   UNL d   1       5.965   0.001 -15.877  0.00  0.00     0.191 A 
ATOM      9  N   UNL d   1       5.225   0.346 -14.797  0.00  0.00    -0.287 N 
ATOM     10  C   UNL d   1       3.913  -0.167 -14.391  0.00  0.00     0.134 C 
BRANCH   8  11
ATOM     11  C   UNL d   1       5.630  -1.010 -16.871  0.00  0.00     0.151 A 
ATOM     12  C   UNL d   1       6.342  -1.527 -17.925  0.00  0.00     0.087 A 
ATOM     13  C   UNL d   1       7.724  -1.200 -18.409  0.00  0.00     0.054 C 
ATOM     14  N   UNL d   1       5.573  -2.510 -18.532  0.00  0.00    -0.221 NA
ATOM     15  C   UNL d   1       4.450  -2.538 -17.821  0.00  0.00     0.225 A 
ATOM     16  O   UNL d   1       4.415  -1.640 -16.801  0.00  0.00    -0.282 OA
ENDBRANCH   8  11
ENDBRANCH   4   5
ENDBRANCH   3   4
ENDBRANCH   2   3
ENDBRANCH   1   2
BRANCH   1  17
ATOM     17  N   UNL d   1       8.596   6.088 -11.287  0.00  0.00     0.137 N 
ATOM     18  C   UNL d   1       9.061   7.454 -11.479  0.00  0.00     0.251 C 
ATOM     19  C   UNL d   1      10.016   7.652 -10.335  0.00  0.00     0.038 A 
ATOM     20  C   UNL d   1      10.549   6.292 -10.044  0.00  0.00     0.038 C 
ATOM     21  C   UNL d   1       9.911   8.746  -9.279  0.00  0.00     0.026 A 
ATOM     22  C   UNL d   1      10.997   8.820 -10.331  0.00  0.00     0.007 A 
ATOM     23  C   UNL d   1       9.808   5.352 -11.017  0.00  0.00     0.250 C 
BRANCH  21  24
ATOM     24  C   UNL d   1      10.280   8.482  -7.853  0.00  0.00     0.005 A 
ATOM     25  C   UNL d   1       9.629   7.484  -7.106  0.00  0.00     0.138 A 
ATOM     26  C   UNL d   1      10.057   7.188  -5.797  0.00  0.00     0.059 A 
ATOM     27  F   UNL d   1       8.630   6.748  -7.635  0.00  0.00    -0.204 F 
ATOM     28  C   UNL d   1      11.098   7.928  -5.215  0.00  0.00     0.142 A 
ATOM     29  C   UNL d   1      11.723   8.958  -5.939  0.00  0.00     0.029 A 
ATOM     30  F   UNL d   1      11.501   7.647  -3.956  0.00  0.00    -0.204 F 
ATOM     31  C   UNL d   1      11.315   9.212  -7.255  0.00  0.00     0.000 A 
ENDBRANCH  21  24
ENDBRANCH   1  17
TORSDOF 7
