REMARK  3 active torsions:
REMARK  status: ('A' for Active; 'I' for Inactive)
REMARK    1  A    between atoms: O_2  and  C_3 
REMARK    2  A    between atoms: C_7  and  C_8 
REMARK    3  A    between atoms: C_18  and  O_19 
ROOT
ATOM      1  C   UNL d   1       8.352   6.505 -12.027  0.00  0.00     0.093 A 
ATOM      2  N   UNL d   1       8.152   7.519 -12.751  0.00  0.00    -0.269 NA
ATOM      3  C   UNL d   1       8.666   8.873 -12.435  0.00  0.00     0.130 A 
ATOM      4  C   UNL d   1       9.348   9.123 -11.087  0.00  0.00     0.054 A 
ATOM      5  C   UNL d   1       9.524   7.908 -10.339  0.00  0.00     0.001 A 
ATOM      6  C   UNL d   1       9.072   6.701 -10.784  0.00  0.00     0.095 A 
ATOM      7  N   UNL d   1       9.272   5.776  -9.806  0.00  0.00    -0.244 NA
ATOM      8  C   UNL d   1       9.860   6.405  -8.729  0.00  0.00     0.081 A 
ATOM      9  C   UNL d   1      10.201   5.924  -7.505  0.00  0.00     0.021 A 
ATOM     10  C   UNL d   1      10.880   6.709  -6.566  0.00  0.00     0.026 A 
ATOM     11  C   UNL d   1      11.107   8.082  -6.817  0.00  0.00     0.094 A 
ATOM     12  C   UNL d   1      10.704   8.605  -8.072  0.00  0.00     0.025 A 
ATOM     13  C   UNL d   1      10.081   7.768  -9.046  0.00  0.00     0.017 A 
ENDROOT
BRANCH   1  14
ATOM     14  C   UNL d   1       7.781   5.207 -12.494  0.00  0.00     0.021 A 
ATOM     15  C   UNL d   1       6.482   4.842 -12.091  0.00  0.00     0.002 A 
ATOM     16  C   UNL d   1       5.893   3.660 -12.585  0.00  0.00     0.002 A 
ATOM     17  C   UNL d   1       6.586   2.859 -13.511  0.00  0.00     0.024 A 
ATOM     18  C   UNL d   1       7.898   3.208 -13.932  0.00  0.00     0.094 A 
ATOM     19  C   UNL d   1       8.474   4.394 -13.424  0.00  0.00     0.026 A 
BRANCH  18  20
ATOM     20  O   UNL d   1       8.659   2.448 -14.794  0.00  0.00    -0.328 OA
ATOM     21  C   UNL d   1       8.066   1.297 -15.380  0.00  0.00     0.181 C 
ENDBRANCH  18  20
ENDBRANCH   1  14
BRANCH  11  22
ATOM     22  O   UNL d   1      11.724   8.912  -5.903  0.00  0.00    -0.328 OA
ATOM     23  C   UNL d   1      11.379   8.696  -4.535  0.00  0.00     0.181 C 
ENDBRANCH  11  22
TORSDOF 3
