REMARK  6 active torsions:
REMARK  status: ('A' for Active; 'I' for Inactive)
REMARK    1  A    between atoms: S_2  and  C_5 
REMARK    2  A    between atoms: C_8  and  C_9 
REMARK    3  A    between atoms: C_9  and  C_11 
REMARK    4  A    between atoms: C_11  and  C_12 
REMARK    5  A    between atoms: C_11  and  N_14 
REMARK       I    between atoms: N_14  and  C_15 
REMARK    6  A    between atoms: C_15  and  C_17 
ROOT
ATOM      1  C   UNK d   1      10.468   8.687  -8.507  0.00  0.00     0.199 C 
ATOM      2  O   UNK d   1      11.069   9.807  -9.117  0.00  0.00    -0.216 OA
ENDROOT
BRANCH   1   3
ATOM      3  C   UNK d   1      10.872   8.402  -7.038  0.00  0.00     0.010 A 
ATOM      4  C   UNK d   1      11.629   9.320  -6.268  0.00  0.00    -0.001 A 
ATOM      5  C   UNK d   1      11.928   9.038  -4.916  0.00  0.00     0.011 A 
ATOM      6  C   UNK d   1      11.488   7.840  -4.322  0.00  0.00     0.084 A 
ATOM      7  C   UNK d   1      10.766   6.911  -5.073  0.00  0.00     0.011 A 
ATOM      8  C   UNK d   1      10.418   7.229  -6.384  0.00  0.00    -0.001 A 
BRANCH   6   9
ATOM      9  S   UNK d   1      11.848   7.494  -2.611  0.00  0.00     0.191 S 
ATOM     10  C   UNK d   1      13.171   6.313  -2.697  0.00  0.00     0.145 C 
ATOM     11  O   UNK d   1      10.725   6.753  -2.032  0.00  0.00    -0.222 OA
ATOM     12  O   UNK d   1      12.354   8.728  -1.998  0.00  0.00    -0.222 OA
ENDBRANCH   6   9
ENDBRANCH   1   3
BRANCH   1  13
ATOM     13  C   UNK d   1      10.750   7.614  -9.569  0.00  0.00     0.174 C 
BRANCH  13  14
ATOM     14  C   UNK d   1      12.231   7.364  -9.758  0.00  0.00     0.209 C 
ATOM     15  O   UNK d   1      12.899   8.380 -10.390  0.00  0.00    -0.218 OA
ENDBRANCH  13  14
BRANCH  13  16
ATOM     16  N   UNK d   1      10.174   6.351  -9.220  0.00  0.00    -0.232 NA
ATOM     17  C   UNK d   0       9.389   5.599  -9.989  0.00  0.00     0.282 C 
ATOM     18  O   UNK d   0       9.245   5.762 -11.194  0.00  0.00    -0.268 OA
BRANCH  17  19
ATOM     19  C   UNK d   0       8.658   4.492  -9.265  0.00  0.00     0.238 C 
ATOM     20 CL   UNK d   0       9.860   3.246  -8.836  0.00  0.00    -0.087 Cl
ATOM     21 CL   UNK d   0       7.886   5.197  -7.850  0.00  0.00    -0.087 Cl
ENDBRANCH  17  19
ENDBRANCH  13  16
ENDBRANCH   1  13
TORSDOF 6
