REMARK  11 active torsions:
REMARK  status: ('A' for Active; 'I' for Inactive)
REMARK    1  A    between atoms: C_8  and  O_9 
REMARK    2  A    between atoms: O_9  and  C_10 
REMARK    3  A    between atoms: C_10  and  C_11 
REMARK    4  A    between atoms: C_11  and  C_12 
REMARK    5  A    between atoms: C_12  and  C_13 
REMARK    6  A    between atoms: C_13  and  N_14 
REMARK    7  A    between atoms: N_14  and  C_15 
REMARK    8  A    between atoms: C_15  and  C_16 
REMARK    9  A    between atoms: C_16  and  C_17 
REMARK   10  A    between atoms: N_19  and  S_20 
REMARK   11  A    between atoms: S_20  and  C_23 
ROOT
ATOM      1  C   UNL d   1       8.431   4.242 -13.868  0.00  0.00     0.066 C 
ENDROOT
BRANCH   1   2
ATOM      2  C   UNL d   1       9.456   4.589 -12.781  0.00  0.00     0.295 C 
BRANCH   2   3
ATOM      3  N   UNL d   1       8.898   5.631 -11.933  0.00  0.00     0.339 N 
BRANCH   3   4
ATOM      4  C   UNL d   1       9.851   6.031 -10.922  0.00  0.00     0.290 C 
BRANCH   4   5
ATOM      5  C   UNL d   1       9.463   7.350 -10.285  0.00  0.00     0.041 C 
BRANCH   5   6
ATOM      6  C   UNL d   1      10.677   8.082  -9.681  0.00  0.00     0.035 C 
BRANCH   6   7
ATOM      7  C   UNL d   1      10.199   9.328  -8.901  0.00  0.00     0.149 C 
BRANCH   7   8
ATOM      8  O   UNL d   1      11.153   9.653  -7.889  0.00  0.00    -0.331 OA
BRANCH   8   9
ATOM      9  C   UNL d   1      11.142   8.923  -6.747  0.00  0.00     0.096 C 
ATOM     10  C   UNL d   1      10.537   7.644  -6.674  0.00  0.00     0.024 C 
ATOM     11  C   UNL d   1      10.825   6.802  -5.638  0.00  0.00    -0.001 C 
ATOM     12  C   UNL d   1      11.542   7.266  -4.529  0.00  0.00    -0.004 C 
ATOM     13  C   UNL d   1      11.776   6.375  -3.359  0.00  0.00     0.038 C 
ATOM     14  C   UNL d   1      12.009   8.591  -4.499  0.00  0.00     0.082 C 
ATOM     15  C   UNL d   1      11.807   7.164  -2.046  0.00  0.00     0.095 C 
ATOM     16  C   UNL d   1      12.655   8.430  -2.158  0.00  0.00     0.256 C 
ATOM     17  O   UNL d   1      13.266   8.864  -1.223  0.00  0.00    -0.270 OA
ATOM     18  N   UNL d   1      12.670   9.052  -3.352  0.00  0.00    -0.212 NA
ATOM     19  C   UNL d   1      11.860   9.418  -5.627  0.00  0.00     0.043 C 
ENDBRANCH   8   9
ENDBRANCH   7   8
ENDBRANCH   6   7
ENDBRANCH   5   6
ENDBRANCH   4   5
ENDBRANCH   3   4
ENDBRANCH   2   3
ENDBRANCH   1   2
BRANCH   1  20
ATOM     20  C   UNL d   1       9.099   3.803 -15.135  0.00  0.00    -0.000 A 
ATOM     21  C   UNL d   1       9.470   2.479 -15.531  0.00  0.00     0.014 A 
ATOM     22  C   UNL d   1      10.101   2.549 -16.812  0.00  0.00     0.075 A 
ATOM     23  C   UNL d   1       9.349   1.205 -14.935  0.00  0.00     0.001 A 
ATOM     24  N   UNL d   1      10.085   3.888 -17.172  0.00  0.00    -0.231 N 
ATOM     25  C   UNL d   1      10.602   1.396 -17.448  0.00  0.00     0.018 A 
ATOM     26  C   UNL d   1       9.480   4.624 -16.166  0.00  0.00     0.087 A 
ATOM     27  C   UNL d   1      10.470   0.146 -16.831  0.00  0.00     0.002 A 
ATOM     28  C   UNL d   1       9.846   0.055 -15.576  0.00  0.00     0.000 A 
BRANCH  24  29
ATOM     29  S   UNL d   1      10.751   4.600 -18.598  0.00  0.00     0.271 S 
ATOM     30  O   UNL d   1      10.930   3.526 -19.584  0.00  0.00    -0.200 OA
ATOM     31  O   UNL d   1       9.899   5.764 -18.895  0.00  0.00    -0.200 OA
BRANCH  29  32
ATOM     32  C   UNL d   1      12.354   5.157 -18.034  0.00  0.00     0.104 A 
ATOM     33  C   UNL d   1      12.485   6.464 -17.527  0.00  0.00     0.013 A 
ATOM     34  C   UNL d   1      13.734   6.911 -17.057  0.00  0.00     0.001 A 
ATOM     35  C   UNL d   1      14.848   6.050 -17.098  0.00  0.00     0.000 A 
ATOM     36  C   UNL d   1      14.715   4.743 -17.609  0.00  0.00     0.001 A 
ATOM     37  C   UNL d   1      13.464   4.287 -18.074  0.00  0.00     0.013 A 
ENDBRANCH  29  32
ENDBRANCH  24  29
ENDBRANCH   1  20
TORSDOF 11
