REMARK  7 active torsions:
REMARK  status: ('A' for Active; 'I' for Inactive)
REMARK       I    between atoms: C_2  and  N_3 
REMARK    1  A    between atoms: C_2  and  C_30 
REMARK    2  A    between atoms: N_3  and  C_4 
REMARK    3  A    between atoms: C_7  and  C_8 
REMARK    4  A    between atoms: C_8  and  C_9 
REMARK    5  A    between atoms: C_9  and  N_10 
REMARK    6  A    between atoms: N_13  and  C_14 
REMARK    7  A    between atoms: C_19  and  N_20 
ROOT
ATOM      1  N   UNL d   1       8.368   3.789 -13.526  0.00  0.00     0.141 N 
ATOM      2  C   UNL d   1       8.861   2.530 -14.113  0.00  0.00     0.274 C 
ATOM      3  C   UNL d   1       7.944   2.071 -15.264  0.00  0.00     0.138 C 
ATOM      4  N   UNL d   1       6.598   1.950 -14.757  0.00  0.00    -0.329 N 
ATOM      5  C   UNL d   1       6.058   3.160 -14.144  0.00  0.00     0.138 C 
ATOM      6  C   UNL d   1       6.969   3.674 -13.064  0.00  0.00     0.274 C 
ENDROOT
BRANCH   1   7
ATOM      7  C   UNL d   1       9.273   4.184 -12.444  0.00  0.00     0.250 C 
BRANCH   7   8
ATOM      8  C   UNL d   1       9.002   5.618 -11.941  0.00  0.00     0.035 C 
BRANCH   8   9
ATOM      9  C   UNL d   1       9.524   5.892 -10.528  0.00  0.00     0.002 C 
ATOM     10  C   UNL d   1       9.924   7.365 -10.399  0.00  0.00     0.002 C 
ATOM     11  C   UNL d   1      10.527   7.668  -9.038  0.00  0.00     0.024 C 
ATOM     12  C   UNL d   1       9.553   7.311  -7.894  0.00  0.00     0.107 C 
ATOM     13  C   UNL d   1       9.129   5.833  -8.020  0.00  0.00     0.024 C 
ATOM     14  C   UNL d   1       8.553   5.485  -9.409  0.00  0.00     0.002 C 
BRANCH  12  15
ATOM     15  N   UNL d   1      10.171   7.533  -6.587  0.00  0.00    -0.235 NA
ATOM     16  C   UNL d   1      10.688   8.693  -6.140  0.00  0.00     0.298 C 
ATOM     17  O   UNL d   1      10.663   9.749  -6.755  0.00  0.00    -0.263 OA
BRANCH  16  18
ATOM     18  C   UNL d   1      11.264   8.655  -4.800  0.00  0.00     0.157 A 
ATOM     19  O   UNL d   1      11.285   9.816  -4.094  0.00  0.00    -0.300 OA
ATOM     20  C   UNL d   1      11.877   9.529  -2.912  0.00  0.00     0.123 A 
ATOM     21  C   UNL d   1      12.259   8.219  -2.863  0.00  0.00     0.029 A 
ATOM     22  C   UNL d   1      11.861   7.650  -4.103  0.00  0.00     0.032 A 
ENDBRANCH  16  18
ENDBRANCH  12  15
ENDBRANCH   8   9
ENDBRANCH   7   8
ENDBRANCH   1   7
BRANCH   4  23
ATOM     23  C   UNL d   1       5.828   0.777 -14.921  0.00  0.00     0.148 A 
ATOM     24  C   UNL d   1       5.661   0.134 -16.222  0.00  0.00     0.042 A 
ATOM     25  C   UNL d   1       4.673  -0.900 -16.112  0.00  0.00     0.052 A 
ATOM     26  C   UNL d   1       6.169   0.359 -17.529  0.00  0.00     0.005 A 
ATOM     27  S   UNL d   1       4.030  -0.839 -14.486  0.00  0.00     0.015 SA
ATOM     28  C   UNL d   1       4.308  -1.707 -17.199  0.00  0.00     0.032 A 
ATOM     29  N   UNL d   1       5.077   0.358 -13.941  0.00  0.00    -0.192 NA
ATOM     30  C   UNL d   1       4.883  -1.498 -18.467  0.00  0.00     0.127 A 
ATOM     31  C   UNL d   1       5.804  -0.440 -18.622  0.00  0.00     0.024 A 
BRANCH  30  32
ATOM     32  N   UNL d   1       4.532  -2.372 -19.608  0.00  0.00    -0.114 N 
ATOM     33  O   UNL d   1       3.671  -3.226 -19.440  0.00  0.00    -0.532 OA
ATOM     34  O   UNL d   1       5.129  -2.209 -20.661  0.00  0.00    -0.532 OA
ENDBRANCH  30  32
ENDBRANCH   4  23
TORSDOF 7
