REMARK  7 active torsions:
REMARK  status: ('A' for Active; 'I' for Inactive)
REMARK       I    between atoms: C_2  and  N_3 
REMARK    1  A    between atoms: C_2  and  C_27 
REMARK    2  A    between atoms: N_3  and  C_4 
REMARK    3  A    between atoms: C_7  and  C_8 
REMARK    4  A    between atoms: C_8  and  C_9 
REMARK    5  A    between atoms: C_9  and  N_10 
REMARK    6  A    between atoms: C_13  and  C_14 
REMARK    7  A    between atoms: C_30  and  C_31 
ROOT
ATOM      1  C   UNL d   1      10.308   2.892 -15.243  0.00  0.00     0.106 C 
ATOM      2  C   UNL d   1       9.113   3.828 -15.471  0.00  0.00     0.024 C 
ATOM      3  C   UNL d   1       9.100   4.969 -14.455  0.00  0.00     0.002 C 
ATOM      4  C   UNL d   1       9.032   4.444 -13.013  0.00  0.00     0.002 C 
ATOM      5  C   UNL d   1      10.235   3.503 -12.800  0.00  0.00     0.002 C 
ATOM      6  C   UNL d   1      10.261   2.354 -13.813  0.00  0.00     0.024 C 
ENDROOT
BRANCH   4   7
ATOM      7  C   UNL d   1       9.029   5.607 -12.012  0.00  0.00     0.035 C 
BRANCH   7   8
ATOM      8  C   UNL d   1       8.657   5.188 -10.582  0.00  0.00     0.250 C 
BRANCH   8   9
ATOM      9  N   UNL d   1       9.070   6.164  -9.560  0.00  0.00     0.137 N 
ATOM     10  C   UNL d   1       8.581   5.719  -8.258  0.00  0.00     0.251 C 
ATOM     11  C   UNL d   1       8.944   6.746  -7.160  0.00  0.00     0.040 C 
ATOM     12  C   UNL d   1      10.458   6.973  -7.102  0.00  0.00     0.028 C 
ATOM     13  C   UNL d   1      10.970   7.328  -8.488  0.00  0.00     0.040 C 
ATOM     14  C   UNL d   1      10.526   6.267  -9.488  0.00  0.00     0.251 C 
BRANCH  12  15
ATOM     15  C   UNL d   1      10.819   8.071  -6.121  0.00  0.00     0.004 A 
ATOM     16  C   UNL d   1      11.380   7.914  -4.818  0.00  0.00     0.021 A 
ATOM     17  C   UNL d   1      11.506   9.228  -4.298  0.00  0.00     0.100 A 
ATOM     18  C   UNL d   1      11.776   6.850  -3.980  0.00  0.00     0.002 A 
ATOM     19  O   UNL d   1      11.061  10.142  -5.226  0.00  0.00    -0.305 OA
ATOM     20  C   UNL d   1      11.994   9.495  -3.014  0.00  0.00     0.025 A 
ATOM     21  C   UNL d   1      10.665   9.413  -6.316  0.00  0.00     0.118 A 
ATOM     22  C   UNL d   1      12.383   8.417  -2.202  0.00  0.00     0.002 A 
ATOM     23  C   UNL d   1      12.261   7.090  -2.676  0.00  0.00     0.000 A 
ENDBRANCH  12  15
ENDBRANCH   8   9
ENDBRANCH   7   8
ENDBRANCH   4   7
BRANCH   1  24
ATOM     24  N   UNL d   1      10.225   1.777 -16.175  0.00  0.00    -0.240 NA
ATOM     25  C   UNL d   1      10.816   1.716 -17.367  0.00  0.00     0.251 C 
ATOM     26  O   UNL d   1      11.704   2.493 -17.727  0.00  0.00    -0.271 OA
BRANCH  25  27
ATOM     27  C   UNL d   1      10.297   0.658 -18.338  0.00  0.00     0.081 C 
ATOM     28  C   UNL d   1       9.734  -0.589 -17.614  0.00  0.00     0.010 C 
ATOM     29  C   UNL d   1       9.211  -1.621 -18.608  0.00  0.00     0.009 C 
ATOM     30  C   UNL d   1       8.137  -1.030 -19.550  0.00  0.00     0.095 C 
ATOM     31  C   UNL d   1       8.679   0.229 -20.262  0.00  0.00     0.009 C 
ATOM     32  C   UNL d   1       9.225   1.271 -19.268  0.00  0.00     0.010 C 
BRANCH  30  33
ATOM     33  C   UNL d   1       7.642  -2.083 -20.565  0.00  0.00     0.398 C 
ATOM     34  F   UNL d   1       8.629  -2.448 -21.381  0.00  0.00    -0.170 F 
ATOM     35  F   UNL d   1       7.189  -3.167 -19.929  0.00  0.00    -0.170 F 
ATOM     36  F   UNL d   1       6.644  -1.586 -21.298  0.00  0.00    -0.170 F 
ENDBRANCH  30  33
ENDBRANCH  25  27
ENDBRANCH   1  24
TORSDOF 7
