REMARK  7 active torsions:
REMARK  status: ('A' for Active; 'I' for Inactive)
REMARK    1  A    between atoms: C_2  and  C_4 
REMARK       I    between atoms: C_4  and  N_6 
REMARK    2  A    between atoms: N_6  and  C_7 
REMARK    3  A    between atoms: C_11  and  C_12 
REMARK    4  A    between atoms: N_15  and  C_16 
REMARK    5  A    between atoms: C_16  and  C_17 
REMARK    6  A    between atoms: C_21  and  O_22 
REMARK    7  A    between atoms: O_22  and  C_23 
ROOT
ATOM      1  C   UNL d   1       7.794   0.621 -16.209  0.00  0.00     0.026 C 
ATOM      2  C   UNL d   1       9.303   0.864 -15.998  0.00  0.00     0.040 C 
ATOM      3  C   UNL d   1      10.109   0.491 -17.252  0.00  0.00     0.251 C 
ATOM      4  N   UNL d   1       9.632   1.242 -18.417  0.00  0.00     0.141 N 
ATOM      5  C   UNL d   1       8.235   0.896 -18.685  0.00  0.00     0.251 C 
ATOM      6  C   UNL d   1       7.338   1.304 -17.505  0.00  0.00     0.040 C 
ENDROOT
BRANCH   4   7
ATOM      7  C   UNL d   1      10.444   0.918 -19.592  0.00  0.00     0.277 C 
BRANCH   7   8
ATOM      8  C   UNL d   1      11.817   1.564 -19.588  0.00  0.00     0.013 A 
ATOM      9  C   UNL d   1      11.916   2.965 -19.686  0.00  0.00     0.022 A 
ATOM     10  C   UNL d   1      13.172   3.604 -19.636  0.00  0.00     0.100 A 
ATOM     11  C   UNL d   1      14.344   2.822 -19.575  0.00  0.00     0.025 A 
ATOM     12  C   UNL d   1      14.255   1.413 -19.521  0.00  0.00     0.002 A 
ATOM     13  C   UNL d   1      12.993   0.785 -19.516  0.00  0.00    -0.002 A 
BRANCH  10  14
ATOM     14  O   UNL d   1      13.254   4.976 -19.654  0.00  0.00    -0.307 OA
BRANCH  14  15
ATOM     15  C   UNL d   1      13.059   5.662 -18.476  0.00  0.00     0.100 A 
ATOM     16  C   UNL d   1      13.842   6.810 -18.223  0.00  0.00     0.025 A 
ATOM     17  C   UNL d   1      13.659   7.552 -17.036  0.00  0.00     0.002 A 
ATOM     18  C   UNL d   1      12.694   7.153 -16.092  0.00  0.00     0.000 A 
ATOM     19  C   UNL d   1      11.906   6.013 -16.342  0.00  0.00     0.002 A 
ATOM     20  C   UNL d   1      12.082   5.275 -17.524  0.00  0.00     0.025 A 
ENDBRANCH  14  15
ENDBRANCH  10  14
ENDBRANCH   7   8
ENDBRANCH   4   7
BRANCH   1  21
ATOM     21  C   UNL d   1       6.958   1.084 -15.026  0.00  0.00    -0.021 A 
ATOM     22  C   UNL d   1       6.041   0.211 -14.401  0.00  0.00    -0.004 A 
ATOM     23  C   UNL d   1       5.271   0.664 -13.313  0.00  0.00     0.001 A 
ATOM     24  C   UNL d   1       5.414   1.981 -12.838  0.00  0.00     0.019 A 
ATOM     25  C   UNL d   1       6.321   2.868 -13.450  0.00  0.00     0.084 A 
ATOM     26  C   UNL d   1       7.085   2.408 -14.548  0.00  0.00     0.015 A 
BRANCH  25  27
ATOM     27  N   UNL d   1       6.453   4.169 -12.882  0.00  0.00    -0.212 NA
ATOM     28  C   UNL d   1       7.498   5.017 -12.959  0.00  0.00     0.255 C 
ATOM     29  O   UNL d   1       8.479   4.852 -13.685  0.00  0.00    -0.270 OA
BRANCH  28  30
ATOM     30  C   UNL d   1       7.418   6.258 -12.059  0.00  0.00     0.081 C 
ATOM     31  C   UNL d   1       6.574   7.359 -12.717  0.00  0.00     0.010 C 
ATOM     32  C   UNL d   1       8.830   6.762 -11.694  0.00  0.00     0.010 C 
ENDBRANCH  28  30
ENDBRANCH  25  27
ENDBRANCH   1  21
TORSDOF 7
