REMARK  11 active torsions:
REMARK  status: ('A' for Active; 'I' for Inactive)
REMARK    1  A    between atoms: C_3  and  C_4 
REMARK    2  A    between atoms: C_3  and  C_25 
REMARK    3  A    between atoms: C_3  and  C_31 
REMARK    4  A    between atoms: C_4  and  C_5 
REMARK    5  A    between atoms: C_5  and  N_6 
REMARK    6  A    between atoms: N_6  and  C_7 
REMARK    7  A    between atoms: C_7  and  C_8 
REMARK    8  A    between atoms: C_8  and  C_9 
REMARK    9  A    between atoms: C_9  and  C_10 
REMARK   10  A    between atoms: C_10  and  N_11 
REMARK   11  A    between atoms: N_14  and  C_15 
ROOT
ATOM      1  N   UNL d   1       9.399   5.591 -17.736  0.00  0.00    -0.196 NA
ATOM      2  C   UNL d   1      10.395   5.039 -17.518  0.00  0.00     0.080 C 
ATOM      3  C   UNL d   1      11.670   4.334 -17.250  0.00  0.00     0.119 C 
ENDROOT
BRANCH   3   4
ATOM      4  C   UNL d   1      11.642   3.836 -15.776  0.00  0.00     0.060 C 
BRANCH   4   5
ATOM      5  C   UNL d   1      11.187   4.896 -14.761  0.00  0.00     0.292 C 
BRANCH   5   6
ATOM      6  N   UNL d   1       9.802   4.646 -14.402  0.00  0.00     0.339 N 
BRANCH   6   7
ATOM      7  C   UNL d   1       9.683   4.101 -13.065  0.00  0.00     0.290 C 
BRANCH   7   8
ATOM      8  C   UNL d   1       9.558   5.254 -12.068  0.00  0.00     0.040 C 
BRANCH   8   9
ATOM      9  C   UNL d   1       8.831   4.795 -10.793  0.00  0.00     0.037 C 
BRANCH   9  10
ATOM     10  C   UNL d   1       8.422   6.018  -9.961  0.00  0.00     0.251 C 
BRANCH  10  11
ATOM     11  N   UNL d   1       9.497   6.708  -9.252  0.00  0.00     0.141 N 
ATOM     12  C   UNL d   1       8.947   7.690  -8.294  0.00  0.00     0.274 C 
ATOM     13  C   UNL d   1      10.008   8.473  -7.558  0.00  0.00     0.137 C 
ATOM     14  N   UNL d   1      10.857   7.547  -6.870  0.00  0.00    -0.344 N 
ATOM     15  C   UNL d   1      11.389   6.515  -7.720  0.00  0.00     0.137 C 
ATOM     16  C   UNL d   1      10.259   5.756  -8.454  0.00  0.00     0.274 C 
BRANCH  14  17
ATOM     17  C   UNL d   1      11.246   7.675  -5.552  0.00  0.00     0.068 A 
ATOM     18  C   UNL d   1      11.430   8.895  -4.920  0.00  0.00     0.084 A 
ATOM     19  C   UNL d   1      11.773   8.878  -3.562  0.00  0.00     0.070 A 
ATOM     20 CL   UNL d   1      11.293  10.391  -5.750  0.00  0.00    -0.080 Cl
ATOM     21  C   UNL d   1      11.978   7.711  -2.801  0.00  0.00     0.012 A 
ATOM     22 CL   UNL d   1      11.846  10.350  -2.812  0.00  0.00    -0.081 Cl
ATOM     23  C   UNL d   1      11.865   6.508  -3.455  0.00  0.00     0.002 A 
ATOM     24  C   UNL d   1      11.510   6.515  -4.813  0.00  0.00     0.018 A 
ENDBRANCH  14  17
ENDBRANCH  10  11
ENDBRANCH   9  10
ENDBRANCH   8   9
ENDBRANCH   7   8
ENDBRANCH   6   7
ENDBRANCH   5   6
ENDBRANCH   4   5
ENDBRANCH   3   4
BRANCH   3  25
ATOM     25  C   UNL d   1      11.793   3.171 -18.253  0.00  0.00    -0.006 A 
ATOM     26  C   UNL d   1      11.278   3.295 -19.568  0.00  0.00    -0.003 A 
ATOM     27  C   UNL d   1      11.401   2.238 -20.491  0.00  0.00    -0.000 A 
ATOM     28  C   UNL d   1      12.047   1.044 -20.121  0.00  0.00    -0.000 A 
ATOM     29  C   UNL d   1      12.566   0.910 -18.823  0.00  0.00    -0.000 A 
ATOM     30  C   UNL d   1      12.438   1.964 -17.899  0.00  0.00    -0.003 A 
ENDBRANCH   3  25
BRANCH   3  31
ATOM     31  C   UNL d   1      12.858   5.295 -17.419  0.00  0.00    -0.006 A 
ATOM     32  C   UNL d   1      14.176   4.806 -17.259  0.00  0.00    -0.003 A 
ATOM     33  C   UNL d   1      15.287   5.659 -17.376  0.00  0.00    -0.000 A 
ATOM     34  C   UNL d   1      15.094   7.022 -17.664  0.00  0.00    -0.000 A 
ATOM     35  C   UNL d   1      13.793   7.531 -17.819  0.00  0.00    -0.000 A 
ATOM     36  C   UNL d   1      12.681   6.675 -17.697  0.00  0.00    -0.003 A 
ENDBRANCH   3  31
TORSDOF 11
