REMARK  8 active torsions:
REMARK  status: ('A' for Active; 'I' for Inactive)
REMARK       I    between atoms: C_2  and  N_3 
REMARK    1  A    between atoms: C_2  and  C_21 
REMARK    2  A    between atoms: N_3  and  C_4 
REMARK    3  A    between atoms: C_4  and  C_5 
REMARK    4  A    between atoms: C_5  and  C_6 
REMARK    5  A    between atoms: C_6  and  C_7 
REMARK    6  A    between atoms: C_7  and  N_8 
REMARK    7  A    between atoms: N_11  and  C_12 
REMARK    8  A    between atoms: C_24  and  C_25 
ROOT
ATOM      1  C   UNL d   1       7.092   3.983 -12.422  0.00  0.00     0.029 C 
ENDROOT
BRANCH   1   2
ATOM      2  C   UNL d   1       7.013   5.512 -12.296  0.00  0.00     0.129 C 
BRANCH   2   3
ATOM      3  N   UNL d   1       7.766   5.983 -11.150  0.00  0.00    -0.234 NA
ATOM      4  C   UNL d   1       9.102   5.974 -11.027  0.00  0.00     0.275 C 
ATOM      5  O   UNL d   1       9.858   5.628 -11.927  0.00  0.00    -0.266 OA
BRANCH   4   6
ATOM      6  C   UNL d   1       9.613   6.485  -9.703  0.00  0.00     0.058 A 
ATOM      7  C   UNL d   1       9.056   6.025  -8.490  0.00  0.00     0.005 A 
ATOM      8  C   UNL d   1       9.540   6.508  -7.256  0.00  0.00     0.000 A 
ATOM      9  C   UNL d   1      10.590   7.447  -7.211  0.00  0.00     0.001 A 
ATOM     10  C   UNL d   1      11.144   7.911  -8.421  0.00  0.00     0.000 A 
ATOM     11  C   UNL d   1      10.661   7.433  -9.657  0.00  0.00     0.005 A 
BRANCH   9  12
ATOM     12  C   UNL d   1      11.079   7.949  -5.920  0.00  0.00     0.007 A 
ATOM     13  C   UNL d   1      11.278   9.260  -5.567  0.00  0.00     0.035 A 
ATOM     14  S   UNL d   1      11.862   9.421  -3.931  0.00  0.00    -0.086 SA
ATOM     15  C   UNL d   1      11.866   7.696  -3.726  0.00  0.00     0.035 A 
ATOM     16  C   UNL d   1      11.421   7.057  -4.855  0.00  0.00     0.007 A 
ENDBRANCH   9  12
ENDBRANCH   4   6
ENDBRANCH   2   3
ENDBRANCH   1   2
BRANCH   1  17
ATOM     17  C   UNL d   1       6.293   3.434 -13.621  0.00  0.00     0.037 C 
BRANCH  17  18
ATOM     18  C   UNL d   1       6.769   2.043 -14.109  0.00  0.00     0.251 C 
BRANCH  18  19
ATOM     19  N   UNL d   1       8.203   1.992 -14.420  0.00  0.00     0.141 N 
ATOM     20  C   UNL d   1       8.584   0.620 -14.768  0.00  0.00     0.274 C 
ATOM     21  C   UNL d   1      10.117   0.530 -14.978  0.00  0.00     0.137 C 
ATOM     22  N   UNL d   1      10.526   1.486 -16.002  0.00  0.00    -0.343 N 
ATOM     23  C   UNL d   1      10.108   2.857 -15.749  0.00  0.00     0.137 C 
ATOM     24  C   UNL d   1       8.591   2.899 -15.505  0.00  0.00     0.274 C 
BRANCH  22  25
ATOM     25  C   UNL d   1      11.218   1.147 -17.181  0.00  0.00     0.082 A 
ATOM     26  C   UNL d   1      10.903  -0.002 -17.945  0.00  0.00     0.146 A 
ATOM     27  C   UNL d   1      11.645  -0.336 -19.090  0.00  0.00     0.029 A 
ATOM     28  O   UNL d   1       9.849  -0.798 -17.621  0.00  0.00    -0.189 OA
ATOM     29  C   UNL d   1      12.698   0.490 -19.510  0.00  0.00     0.002 A 
ATOM     30  C   UNL d   1      12.999   1.657 -18.791  0.00  0.00     0.002 A 
ATOM     31  C   UNL d   1      12.262   1.984 -17.635  0.00  0.00     0.019 A 
ENDBRANCH  22  25
ENDBRANCH  18  19
ENDBRANCH  17  18
ENDBRANCH   1  17
TORSDOF 8
