REMARK  5 active torsions:
REMARK  status: ('A' for Active; 'I' for Inactive)
REMARK    1  A    between atoms: O_2  and  C_3 
REMARK    2  A    between atoms: C_8  and  N_9 
REMARK    3  A    between atoms: N_12  and  C_13 
REMARK    4  A    between atoms: C_13  and  N_14 
REMARK       I    between atoms: N_14  and  C_15 
REMARK    5  A    between atoms: C_15  and  C_17 
ROOT
ATOM      1  N   UNL d   1      11.385   7.215  -7.116  0.00  0.00    -0.344 N 
ATOM      2  C   UNL d   1      12.135   7.896  -8.170  0.00  0.00     0.119 C 
ATOM      3  C   UNL d   1      11.181   8.335  -9.295  0.00  0.00     0.102 C 
ATOM      4  N   UNL d   1      10.407   7.188  -9.793  0.00  0.00    -0.232 NA
ATOM      5  C   UNL d   1       9.580   6.666  -8.687  0.00  0.00     0.102 C 
ATOM      6  C   UNL d   1      10.482   6.157  -7.551  0.00  0.00     0.119 C 
ENDROOT
BRANCH   4   7
ATOM      7  C   UNL d   1       9.605   7.630 -10.928  0.00  0.00     0.152 C 
BRANCH   7   8
ATOM      8  N   UNL d   1       8.671   6.653 -11.476  0.00  0.00    -0.194 NA
ATOM      9  C   UNL d   1       8.884   5.810 -12.496  0.00  0.00     0.280 C 
ATOM     10  O   UNL d   1       9.861   5.890 -13.236  0.00  0.00    -0.265 OA
BRANCH   9  11
ATOM     11  C   UNL d   1       7.876   4.736 -12.762  0.00  0.00     0.058 A 
ATOM     12  C   UNL d   1       6.766   4.546 -11.917  0.00  0.00     0.004 A 
ATOM     13  C   UNL d   1       5.854   3.510 -12.162  0.00  0.00    -0.004 A 
ATOM     14  C   UNL d   1       6.029   2.643 -13.260  0.00  0.00    -0.022 A 
ATOM     15  C   UNL d   1       7.142   2.820 -14.104  0.00  0.00    -0.004 A 
ATOM     16  C   UNL d   1       5.106   1.465 -13.468  0.00  0.00     0.031 C 
ATOM     17  C   UNL d   1       8.055   3.863 -13.861  0.00  0.00     0.004 A 
ENDBRANCH   9  11
ENDBRANCH   7   8
ENDBRANCH   4   7
BRANCH   1  18
ATOM     18  C   UNL d   1      11.444   7.632  -5.780  0.00  0.00     0.079 A 
ATOM     19  C   UNL d   1      11.370   9.002  -5.420  0.00  0.00     0.110 A 
ATOM     20  C   UNL d   1      11.497   9.376  -4.056  0.00  0.00     0.026 A 
ATOM     21  C   UNL d   1      11.714   8.407  -3.061  0.00  0.00     0.002 A 
ATOM     22  C   UNL d   1      11.750   7.051  -3.412  0.00  0.00     0.002 A 
ATOM     23  C   UNL d   1      11.608   6.671  -4.756  0.00  0.00     0.019 A 
BRANCH  19  24
ATOM     24  O   UNL d   1      11.107   9.909  -6.421  0.00  0.00    -0.327 OA
ATOM     25  C   UNL d   1      11.815  11.115  -6.331  0.00  0.00     0.181 C 
ENDBRANCH  19  24
ENDBRANCH   1  18
TORSDOF 5
