REMARK  6 active torsions:
REMARK  status: ('A' for Active; 'I' for Inactive)
REMARK       I    between atoms: C_2  and  N_3 
REMARK    1  A    between atoms: C_2  and  C_22 
REMARK    2  A    between atoms: N_3  and  C_4 
REMARK    3  A    between atoms: C_4  and  C_5 
REMARK    4  A    between atoms: C_6  and  C_7 
REMARK    5  A    between atoms: C_7  and  N_8 
REMARK    6  A    between atoms: N_11  and  C_12 
ROOT
ATOM      1  N   UNL d   1       8.688   5.227 -11.721  0.00  0.00     0.145 N 
ATOM      2  C   UNL d   1       8.955   4.789 -10.339  0.00  0.00     0.275 C 
ATOM      3  C   UNL d   1       8.865   5.953  -9.346  0.00  0.00     0.137 C 
ATOM      4  N   UNL d   1       9.733   7.027  -9.770  0.00  0.00    -0.344 N 
ATOM      5  C   UNL d   1       9.552   7.477 -11.139  0.00  0.00     0.137 C 
ATOM      6  C   UNL d   1       9.642   6.274 -12.082  0.00  0.00     0.275 C 
ENDROOT
BRANCH   1   7
ATOM      7  C   UNL d   1       8.817   4.074 -12.604  0.00  0.00     0.276 C 
BRANCH   7   8
ATOM      8  C   UNL d   1       8.837   4.436 -14.075  0.00  0.00     0.006 C 
ATOM      9  C   UNL d   1       9.877   4.185 -14.887  0.00  0.00    -0.003 C 
BRANCH   9  10
ATOM     10  C   UNL d   1       9.941   4.533 -16.360  0.00  0.00     0.155 C 
BRANCH  10  11
ATOM     11  N   UNL d   1      11.135   5.309 -16.679  0.00  0.00    -0.229 NA
ATOM     12  C   UNL d   1      12.345   4.800 -16.977  0.00  0.00     0.275 C 
ATOM     13  O   UNL d   1      12.607   3.603 -16.911  0.00  0.00    -0.266 OA
BRANCH  12  14
ATOM     14  C   UNL d   1      13.388   5.811 -17.370  0.00  0.00     0.058 A 
ATOM     15  C   UNL d   1      14.761   5.491 -17.247  0.00  0.00     0.016 A 
ATOM     16  C   UNL d   1      15.750   6.415 -17.639  0.00  0.00     0.058 A 
ATOM     17  C   UNL d   1      15.379   7.659 -18.182  0.00  0.00     0.011 A 
ATOM     18 CL   UNL d   1      17.417   6.036 -17.416  0.00  0.00    -0.082 Cl
ATOM     19  C   UNL d   1      14.018   7.983 -18.326  0.00  0.00     0.001 A 
ATOM     20  C   UNL d   1      13.028   7.061 -17.934  0.00  0.00     0.005 A 
ENDBRANCH  12  14
ENDBRANCH  10  11
ENDBRANCH   9  10
ENDBRANCH   7   8
ENDBRANCH   1   7
BRANCH   4  21
ATOM     21  C   UNL d   1      10.593   7.703  -8.886  0.00  0.00     0.068 A 
ATOM     22  C   UNL d   1      10.228   8.102  -7.570  0.00  0.00     0.084 A 
ATOM     23  C   UNL d   1      11.173   8.765  -6.763  0.00  0.00     0.070 A 
ATOM     24 CL   UNL d   1       8.669   7.825  -6.886  0.00  0.00    -0.080 Cl
ATOM     25  C   UNL d   1      12.450   9.005  -7.245  0.00  0.00     0.012 A 
ATOM     26 CL   UNL d   1      10.822   9.325  -5.175  0.00  0.00    -0.081 Cl
ATOM     27  C   UNL d   1      12.837   8.582  -8.521  0.00  0.00     0.002 A 
ATOM     28  C   UNL d   1      11.893   7.986  -9.364  0.00  0.00     0.018 A 
ENDBRANCH   4  21
TORSDOF 6
