REMARK  5 active torsions:
REMARK  status: ('A' for Active; 'I' for Inactive)
REMARK    1  A    between atoms: C_2  and  C_3 
REMARK    2  A    between atoms: C_6  and  C_7 
REMARK    3  A    between atoms: C_7  and  N_8 
REMARK    4  A    between atoms: N_11  and  C_12 
REMARK    5  A    between atoms: C_12  and  C_13 
REMARK       I    between atoms: C_13  and  N_15 
ROOT
ATOM      1  N   UNL d   1      10.454   8.279  -8.353  0.00  0.00     0.146 N 
ATOM      2  C   UNL d   1      10.383   8.986  -9.618  0.00  0.00     0.286 C 
ATOM      3  C   UNL d   1      10.457   7.987 -10.754  0.00  0.00     0.286 C 
ATOM      4  N   UNL d   1       9.411   6.980 -10.713  0.00  0.00     0.151 N 
ATOM      5  C   UNL d   1       9.430   6.285  -9.416  0.00  0.00     0.286 C 
ATOM      6  C   UNL d   1       9.330   7.327  -8.280  0.00  0.00     0.286 C 
ENDROOT
BRANCH   4   7
ATOM      7  C   UNL d   1       9.389   6.156 -11.932  0.00  0.00     0.337 C 
BRANCH   7   8
ATOM      8  C   UNL d   1       8.166   5.235 -12.128  0.00  0.00     0.271 C 
ATOM      9  O   UNL d   1       7.170   5.495 -11.464  0.00  0.00    -0.270 OA
ATOM     10  N   UNL d   1       8.239   4.239 -13.057  0.00  0.00    -0.299 N 
ATOM     11  C   UNL d   1       9.469   3.825 -13.809  0.00  0.00     0.093 A 
ATOM     12  C   UNL d   1       7.184   3.310 -13.314  0.00  0.00     0.058 A 
ATOM     13  C   UNL d   1       9.123   2.457 -14.436  0.00  0.00     0.051 A 
ATOM     14  C   UNL d   1       9.835   4.817 -14.919  0.00  0.00     0.025 C 
ATOM     15  C   UNL d   1       7.665   2.275 -14.101  0.00  0.00    -0.004 A 
ATOM     16  C   UNL d   1       6.872   1.175 -14.434  0.00  0.00    -0.003 A 
ATOM     17  C   UNL d   1       5.570   1.105 -13.941  0.00  0.00    -0.000 A 
ATOM     18  C   UNL d   1       5.078   2.152 -13.129  0.00  0.00     0.002 A 
ATOM     19  C   UNL d   1       5.846   3.272 -12.821  0.00  0.00     0.017 A 
ENDBRANCH   7   8
ENDBRANCH   4   7
BRANCH   1  20
ATOM     20  C   UNL d   1      10.450   9.205  -7.255  0.00  0.00     0.277 C 
BRANCH  20  21
ATOM     21  C   UNL d   1      10.951   8.606  -5.972  0.00  0.00     0.011 A 
ATOM     22  C   UNL d   1      11.364   7.252  -5.875  0.00  0.00    -0.003 A 
ATOM     23  C   UNL d   1      11.791   6.754  -4.646  0.00  0.00    -0.004 A 
ATOM     24  C   UNL d   1      11.863   7.604  -3.533  0.00  0.00    -0.022 A 
ATOM     25  C   UNL d   1      11.479   8.971  -3.639  0.00  0.00    -0.004 A 
ATOM     26  C   UNL d   1      11.029   9.464  -4.859  0.00  0.00    -0.003 A 
BRANCH  24  27
ATOM     27  C   UNL d   1      12.348   7.003  -2.250  0.00  0.00     0.026 C 
ATOM     28  C   UNL d   1      12.711   8.090  -1.264  0.00  0.00     0.005 C 
ENDBRANCH  24  27
ENDBRANCH  20  21
ENDBRANCH   1  20
TORSDOF 5
