REMARK  0 active torsions:
REMARK  status: ('A' for Active; 'I' for Inactive)
ROOT
ATOM      1  C   UNL d   1       9.943   3.133 -19.905  0.00  0.00     0.026 C 
ATOM      2  C   UNL d   1      10.879   2.307 -19.022  0.00  0.00     0.104 C 
ATOM      3  C   UNL d   1      10.957   2.824 -17.564  0.00  0.00     0.052 C 
ATOM      4  C   UNL d   1       9.734   2.439 -16.805  0.00  0.00    -0.003 A 
ATOM      5  C   UNL d   1       8.996   1.348 -17.174  0.00  0.00     0.087 A 
ATOM      6  N   UNL d   1       7.932   1.212 -16.297  0.00  0.00    -0.247 NA
ATOM      7  C   UNL d   1       7.947   2.229 -15.357  0.00  0.00     0.082 A 
ATOM      8  C   UNL d   1       7.062   2.568 -14.321  0.00  0.00     0.033 A 
ATOM      9  C   UNL d   1       7.302   3.724 -13.551  0.00  0.00     0.087 A 
ATOM     10 CL   UNL d   1       6.174   4.166 -12.325  0.00  0.00    -0.080 Cl
ATOM     11  C   UNL d   1       8.438   4.516 -13.815  0.00  0.00     0.151 A 
ATOM     12  F   UNL d   1       8.672   5.641 -13.095  0.00  0.00    -0.203 F 
ATOM     13  C   UNL d   1       9.322   4.169 -14.855  0.00  0.00     0.032 A 
ATOM     14  C   UNL d   1       9.094   3.024 -15.663  0.00  0.00     0.017 A 
ATOM     15  C   UNL d   1       9.330   0.448 -18.335  0.00  0.00     0.206 A 
ATOM     16  N   UNL d   1      10.506   0.888 -19.097  0.00  0.00    -0.282 NA
ATOM     17  C   UNL d   1       9.712  -0.930 -17.804  0.00  0.00     0.285 A 
ATOM     18  O   UNL d   1      10.655  -1.094 -17.045  0.00  0.00    -0.267 OA
ATOM     19  N   UNL d   1       8.924  -1.891 -18.294  0.00  0.00    -0.210 NA
ATOM     20  C   UNL d   1       7.937  -1.348 -19.091  0.00  0.00     0.083 A 
ATOM     21  C   UNL d   1       6.877  -2.014 -19.724  0.00  0.00     0.020 A 
ATOM     22  C   UNL d   1       6.011  -1.213 -20.511  0.00  0.00     0.013 A 
ATOM     23  C   UNL d   1       6.228   0.190 -20.618  0.00  0.00     0.058 A 
ATOM     24 CL   UNL d   1       5.207   1.178 -21.611  0.00  0.00    -0.082 Cl
ATOM     25  C   UNL d   1       7.294   0.824 -19.939  0.00  0.00     0.011 A 
ATOM     26  C   UNL d   1       8.146   0.020 -19.175  0.00  0.00     0.030 A 
ENDROOT
TORSDOF 0
