REMARK  7 active torsions:
REMARK  status: ('A' for Active; 'I' for Inactive)
REMARK    1  A    between atoms: O_2  and  C_3 
REMARK    2  A    between atoms: C_7  and  C_8 
REMARK       I    between atoms: C_8  and  N_10 
REMARK    3  A    between atoms: N_10  and  C_11 
REMARK    4  A    between atoms: C_11  and  C_12 
REMARK    5  A    between atoms: C_12  and  N_13 
REMARK    6  A    between atoms: N_16  and  C_17 
REMARK    7  A    between atoms: C_22  and  O_23 
ROOT
ATOM      1  N   UNL d   1       9.619   6.696  -8.851  0.00  0.00     0.143 N 
ATOM      2  C   UNL d   1      11.049   6.778  -8.585  0.00  0.00     0.274 C 
ATOM      3  C   UNL d   1      11.314   7.988  -7.725  0.00  0.00     0.137 C 
ATOM      4  N   UNL d   1      10.575   7.938  -6.465  0.00  0.00    -0.343 N 
ATOM      5  C   UNL d   1       9.141   7.692  -6.610  0.00  0.00     0.137 C 
ATOM      6  C   UNL d   1       8.925   6.496  -7.571  0.00  0.00     0.274 C 
ENDROOT
BRANCH   1   7
ATOM      7  C   UNL d   1       9.371   5.590  -9.761  0.00  0.00     0.277 C 
BRANCH   7   8
ATOM      8  C   UNL d   1       9.096   6.145 -11.168  0.00  0.00     0.164 C 
BRANCH   8   9
ATOM      9  N   UNL d   1       8.690   5.059 -12.045  0.00  0.00    -0.232 NA
ATOM     10  C   UNL d   1       9.315   4.659 -13.157  0.00  0.00     0.275 C 
ATOM     11  O   UNL d   1      10.362   5.158 -13.569  0.00  0.00    -0.266 OA
BRANCH  10  12
ATOM     12  C   UNL d   1       8.674   3.498 -13.864  0.00  0.00     0.059 A 
ATOM     13  C   UNL d   1       7.280   3.280 -13.779  0.00  0.00     0.005 A 
ATOM     14  C   UNL d   1       6.693   2.186 -14.441  0.00  0.00     0.002 A 
ATOM     15  C   UNL d   1       7.486   1.323 -15.214  0.00  0.00     0.024 A 
ATOM     16  C   UNL d   1       8.879   1.524 -15.322  0.00  0.00     0.094 A 
ATOM     17  C   UNL d   1       9.465   2.621 -14.641  0.00  0.00     0.029 A 
BRANCH  16  18
ATOM     18  O   UNL d   1       9.580   0.622 -16.093  0.00  0.00    -0.328 OA
ATOM     19  C   UNL d   1      10.988   0.775 -16.188  0.00  0.00     0.181 C 
ENDBRANCH  16  18
ENDBRANCH  10  12
ENDBRANCH   8   9
ENDBRANCH   7   8
ENDBRANCH   1   7
BRANCH   4  20
ATOM     20  C   UNL d   1      11.213   7.985  -5.227  0.00  0.00     0.079 A 
ATOM     21  C   UNL d   1      11.559   9.217  -4.589  0.00  0.00     0.110 A 
ATOM     22  C   UNL d   1      12.181   9.188  -3.325  0.00  0.00     0.026 A 
ATOM     23  C   UNL d   1      12.435   7.984  -2.647  0.00  0.00     0.002 A 
ATOM     24  C   UNL d   1      12.064   6.781  -3.253  0.00  0.00     0.002 A 
ATOM     25  C   UNL d   1      11.468   6.782  -4.533  0.00  0.00     0.019 A 
BRANCH  21  26
ATOM     26  O   UNL d   1      11.236  10.441  -5.133  0.00  0.00    -0.327 OA
ATOM     27  C   UNL d   1      11.949  10.845  -6.292  0.00  0.00     0.181 C 
ENDBRANCH  21  26
ENDBRANCH   4  20
TORSDOF 7
