REMARK  8 active torsions:
REMARK  status: ('A' for Active; 'I' for Inactive)
REMARK    1  A    between atoms: O_2  and  C_3 
REMARK    2  A    between atoms: C_3  and  C_5 
REMARK    3  A    between atoms: C_16  and  C_17 
REMARK    4  A    between atoms: C_17  and  N_18 
REMARK    5  A    between atoms: N_18  and  C_19 
REMARK    6  A    between atoms: C_19  and  C_20 
REMARK    7  A    between atoms: C_20  and  C_21 
REMARK    8  A    between atoms: C_21  and  C_22 
ROOT
ATOM      1  C   UNL d   1       6.007   0.401 -15.085  0.00  0.00     0.144 A 
ATOM      2  C   UNL d   1       6.144   1.351 -14.097  0.00  0.00     0.028 A 
ATOM      3  C   UNL d   1       7.283   2.134 -14.451  0.00  0.00     0.044 A 
ATOM      4  C   UNL d   1       7.979   3.260 -13.897  0.00  0.00     0.118 A 
ATOM      5  C   UNL d   1       9.135   3.742 -14.552  0.00  0.00     0.116 A 
ATOM      6  C   UNL d   1       9.629   3.152 -15.723  0.00  0.00     0.028 A 
ATOM      7  C   UNL d   1       8.973   2.064 -16.296  0.00  0.00     0.021 A 
ATOM      8  C   UNL d   1       7.836   1.587 -15.661  0.00  0.00     0.084 A 
ATOM      9  N   UNL d   1       7.019   0.561 -16.000  0.00  0.00    -0.240 NA
ATOM     10  O   UNL d   1       9.891   4.800 -14.104  0.00  0.00    -0.326 OA
ATOM     11  C   UNL d   1       9.246   5.640 -13.168  0.00  0.00     0.181 C 
ATOM     12  C   UNL d   1       8.618   4.747 -12.109  0.00  0.00     0.188 C 
ATOM     13  O   UNL d   1       7.588   3.909 -12.721  0.00  0.00    -0.327 OA
ENDROOT
BRANCH  12  14
ATOM     14  C   UNL d   1       8.050   5.658 -11.011  0.00  0.00     0.323 C 
BRANCH  14  15
ATOM     15  N   UNL d   1       9.055   6.342 -10.197  0.00  0.00     0.342 N 
BRANCH  15  16
ATOM     16  C   UNL d   1       9.555   5.450  -9.159  0.00  0.00     0.291 C 
BRANCH  16  17
ATOM     17  C   UNL d   1      10.428   6.242  -8.184  0.00  0.00     0.043 C 
BRANCH  17  18
ATOM     18  C   UNL d   1       9.588   7.040  -7.183  0.00  0.00     0.029 C 
BRANCH  18  19
ATOM     19  C   UNL d   1      10.456   7.787  -6.193  0.00  0.00    -0.022 A 
ATOM     20  C   UNL d   1      10.661   9.170  -6.350  0.00  0.00    -0.004 A 
ATOM     21  C   UNL d   1      11.458   9.871  -5.426  0.00  0.00    -0.000 A 
ATOM     22  C   UNL d   1      12.055   9.187  -4.346  0.00  0.00    -0.000 A 
ATOM     23  C   UNL d   1      11.855   7.804  -4.188  0.00  0.00    -0.000 A 
ATOM     24  C   UNL d   1      11.057   7.104  -5.117  0.00  0.00    -0.004 A 
ENDBRANCH  18  19
ENDBRANCH  17  18
ENDBRANCH  16  17
ENDBRANCH  15  16
ENDBRANCH  14  15
ENDBRANCH  12  14
BRANCH   1  25
ATOM     25  C   UNL d   1       5.066  -0.692 -15.346  0.00  0.00     0.314 C 
ATOM     26  O   UNL d   1       4.177  -1.026 -14.572  0.00  0.00    -0.257 OA
BRANCH  25  27
ATOM     27  O   UNL d   1       5.286  -1.301 -16.590  0.00  0.00    -0.295 OA
ATOM     28  C   UNL d   1       4.526  -2.413 -17.049  0.00  0.00     0.185 C 
ENDBRANCH  25  27
ENDBRANCH   1  25
TORSDOF 8
