REMARK  6 active torsions:
REMARK  status: ('A' for Active; 'I' for Inactive)
REMARK    1  A    between atoms: C_4  and  N_5 
REMARK    2  A    between atoms: N_8  and  C_9 
REMARK    3  A    between atoms: C_9  and  C_10 
REMARK    4  A    between atoms: C_10  and  C_11 
REMARK    5  A    between atoms: C_11  and  O_12 
REMARK    6  A    between atoms: O_12  and  C_13 
ROOT
ATOM      1  O   UNL d   1       9.053   6.780 -12.324  0.00  0.00    -0.331 OA
ENDROOT
BRANCH   1   2
ATOM      2  C   UNL d   1       8.250   5.649 -12.617  0.00  0.00     0.151 C 
BRANCH   2   3
ATOM      3  C   UNL d   1       6.917   5.698 -11.819  0.00  0.00     0.068 C 
BRANCH   3   4
ATOM      4  C   UNL d   1       5.790   4.819 -12.386  0.00  0.00     0.253 C 
BRANCH   4   5
ATOM      5  N   UNL d   1       6.223   3.459 -12.702  0.00  0.00     0.141 N 
ATOM      6  C   UNL d   1       5.090   2.527 -12.569  0.00  0.00     0.274 C 
ATOM      7  C   UNL d   1       5.534   1.075 -12.887  0.00  0.00     0.138 C 
ATOM      8  N   UNL d   1       6.186   1.010 -14.181  0.00  0.00    -0.330 N 
ATOM      9  C   UNL d   1       7.228   1.998 -14.399  0.00  0.00     0.138 C 
ATOM     10  C   UNL d   1       6.729   3.416 -14.088  0.00  0.00     0.274 C 
BRANCH   8  11
ATOM     11  C   UNL d   1       5.775   0.125 -15.238  0.00  0.00     0.140 A 
ATOM     12  C   UNL d   1       4.579  -0.589 -15.140  0.00  0.00     0.037 A 
ATOM     13  C   UNL d   1       4.236  -1.468 -16.194  0.00  0.00     0.005 A 
ATOM     14  C   UNL d   1       5.097  -1.567 -17.294  0.00  0.00     0.021 A 
ATOM     15  C   UNL d   1       6.258  -0.790 -17.312  0.00  0.00     0.101 A 
ATOM     16  N   UNL d   1       6.597   0.054 -16.302  0.00  0.00    -0.227 NA
ENDBRANCH   8  11
ENDBRANCH   4   5
ENDBRANCH   3   4
ENDBRANCH   2   3
ENDBRANCH   1   2
BRANCH   1  17
ATOM     17  C   UNL d   1       9.462   6.988 -11.031  0.00  0.00     0.094 A 
ATOM     18  C   UNL d   1       9.503   5.956 -10.077  0.00  0.00     0.024 A 
ATOM     19  C   UNL d   1       9.893   6.231  -8.771  0.00  0.00     0.005 A 
ATOM     20  C   UNL d   1      10.300   7.537  -8.411  0.00  0.00     0.036 A 
ATOM     21  C   UNL d   1      10.307   8.563  -9.381  0.00  0.00     0.005 A 
ATOM     22  C   UNL d   1      10.720   7.784  -7.049  0.00  0.00     0.162 A 
ATOM     23  C   UNL d   1       9.881   8.296 -10.698  0.00  0.00     0.024 A 
ATOM     24  N   UNL d   1      11.081   6.798  -6.207  0.00  0.00    -0.225 NA
ATOM     25  N   UNL d   1      10.780   9.012  -6.523  0.00  0.00    -0.225 NA
ATOM     26  C   UNL d   1      11.430   7.378  -5.008  0.00  0.00     0.101 A 
ATOM     27  C   UNL d   1      11.219   8.765  -5.240  0.00  0.00     0.101 A 
ATOM     28  C   UNL d   1      11.889   6.894  -3.770  0.00  0.00     0.021 A 
ATOM     29  C   UNL d   1      11.475   9.658  -4.185  0.00  0.00     0.021 A 
ATOM     30  C   UNL d   1      11.918   9.185  -2.936  0.00  0.00     0.002 A 
ATOM     31  C   UNL d   1      12.124   7.807  -2.726  0.00  0.00     0.002 A 
ENDBRANCH   1  17
TORSDOF 6
