REMARK  7 active torsions:
REMARK  status: ('A' for Active; 'I' for Inactive)
REMARK    1  A    between atoms: N_11  and  C_12 
REMARK    2  A    between atoms: C_12  and  C_13 
REMARK    3  A    between atoms: C_13  and  C_14 
REMARK    4  A    between atoms: C_14  and  N_15 
REMARK    5  A    between atoms: N_18  and  C_19 
REMARK    6  A    between atoms: C_19  and  C_20 
REMARK    7  A    between atoms: C_20  and  C_21 
ROOT
ATOM      1  N   UNL d   1       9.234   5.889 -11.250  0.00  0.00     0.141 N 
ATOM      2  C   UNL d   1       8.418   5.390 -10.138  0.00  0.00     0.285 C 
ATOM      3  C   UNL d   1       9.198   5.438  -8.815  0.00  0.00     0.285 C 
ATOM      4  N   UNL d   1       9.630   6.799  -8.487  0.00  0.00     0.142 N 
ATOM      5  C   UNL d   1      10.421   7.319  -9.605  0.00  0.00     0.285 C 
ATOM      6  C   UNL d   1       9.637   7.258 -10.931  0.00  0.00     0.285 C 
ENDROOT
BRANCH   1   7
ATOM      7  C   UNL d   1       8.549   5.816 -12.539  0.00  0.00     0.252 C 
BRANCH   7   8
ATOM      8  C   UNL d   1       8.260   4.387 -13.026  0.00  0.00     0.060 C 
BRANCH   8   9
ATOM      9  C   UNL d   1       9.545   3.540 -13.206  0.00  0.00     0.111 C 
BRANCH   9  10
ATOM     10  N   UNL d   1      10.020   3.532 -14.602  0.00  0.00    -0.299 N 
ATOM     11  C   UNL d   1      11.188   4.159 -14.906  0.00  0.00     0.238 C 
ATOM     12  O   UNL d   1      11.864   4.781 -14.081  0.00  0.00    -0.272 OA
ATOM     13  C   UNL d   1      11.720   4.058 -16.338  0.00  0.00     0.093 C 
ATOM     14  C   UNL d   1      10.604   3.990 -17.393  0.00  0.00     0.038 C 
ATOM     15  C   UNL d   1       9.515   3.018 -16.981  0.00  0.00    -0.006 A 
ATOM     16  C   UNL d   1       9.246   2.831 -15.602  0.00  0.00     0.058 A 
ATOM     17  C   UNL d   1       8.758   2.335 -17.962  0.00  0.00    -0.003 A 
ATOM     18  C   UNL d   1       8.188   1.955 -15.237  0.00  0.00     0.017 A 
ATOM     19  C   UNL d   1       7.439   1.279 -16.217  0.00  0.00     0.002 A 
ATOM     20  C   UNL d   1       7.722   1.464 -17.582  0.00  0.00    -0.000 A 
ENDBRANCH   9  10
ENDBRANCH   8   9
ENDBRANCH   7   8
ENDBRANCH   1   7
BRANCH   4  21
ATOM     21  C   UNL d   1      10.340   6.829  -7.216  0.00  0.00     0.255 C 
BRANCH  21  22
ATOM     22  C   UNL d   1      10.587   8.228  -6.613  0.00  0.00     0.062 C 
BRANCH  22  23
ATOM     23  C   UNL d   1      11.190   8.213  -5.209  0.00  0.00    -0.020 A 
ATOM     24  C   UNL d   1      11.472   7.003  -4.530  0.00  0.00    -0.004 A 
ATOM     25  C   UNL d   1      12.002   7.018  -3.228  0.00  0.00    -0.000 A 
ATOM     26  C   UNL d   1      12.260   8.241  -2.585  0.00  0.00    -0.000 A 
ATOM     27  C   UNL d   1      11.984   9.449  -3.252  0.00  0.00    -0.000 A 
ATOM     28  C   UNL d   1      11.456   9.439  -4.558  0.00  0.00    -0.004 A 
ENDBRANCH  22  23
ENDBRANCH  21  22
ENDBRANCH   4  21
TORSDOF 7
