REMARK  13 active torsions:
REMARK  status: ('A' for Active; 'I' for Inactive)
REMARK    1  A    between atoms: C_9  and  C_10 
REMARK    2  A    between atoms: C_10  and  C_12 
REMARK    3  A    between atoms: C_12  and  N_13 
REMARK    4  A    between atoms: N_13  and  C_14 
REMARK    5  A    between atoms: C_14  and  C_15 
REMARK    6  A    between atoms: C_15  and  C_16 
REMARK    7  A    between atoms: C_16  and  S_17 
REMARK    8  A    between atoms: S_17  and  C_18 
REMARK    9  A    between atoms: C_18  and  C_19 
REMARK   10  A    between atoms: C_19  and  N_20 
REMARK   11  A    between atoms: N_20  and  C_21 
REMARK   12  A    between atoms: C_21  and  C_22 
REMARK   13  A    between atoms: C_22  and  C_23 
ROOT
ATOM      1  C   UNL d   1       6.460   4.171 -13.731  0.00  0.00     0.121 C 
ENDROOT
BRANCH   1   2
ATOM      2  N   UNL d   1       6.855   2.790 -13.947  0.00  0.00    -0.292 NA
BRANCH   2   3
ATOM      3  C   UNL d   1       8.279   2.557 -14.196  0.00  0.00     0.157 C 
BRANCH   3   4
ATOM      4  C   UNL d   1       8.587   1.061 -14.471  0.00  0.00     0.199 C 
ATOM      5  O   UNL d   1       9.967   0.979 -14.777  0.00  0.00    -0.216 OA
BRANCH   4   6
ATOM      6  C   UNL d   1       7.699   0.455 -15.564  0.00  0.00     0.018 A 
ATOM      7  C   UNL d   1       8.139   0.377 -16.906  0.00  0.00     0.001 A 
ATOM      8  C   UNL d   1       7.320  -0.175 -17.915  0.00  0.00     0.029 A 
ATOM      9  C   UNL d   1       6.019  -0.635 -17.622  0.00  0.00     0.149 A 
ATOM     10  C   UNL d   1       5.569  -0.550 -16.287  0.00  0.00     0.116 A 
ATOM     11  O   UNL d   1       5.236  -1.153 -18.607  0.00  0.00    -0.189 OA
ATOM     12  N   UNL d   1       4.295  -0.939 -15.807  0.00  0.00    -0.200 NA
ATOM     13  C   UNL d   1       6.398  -0.044 -15.287  0.00  0.00     0.052 A 
ATOM     14  C   UNL d   1       4.090  -0.744 -14.450  0.00  0.00     0.311 A 
ATOM     15  O   UNL d   1       3.074  -0.959 -13.790  0.00  0.00    -0.258 OA
ATOM     16  S   UNL d   1       5.616  -0.103 -13.729  0.00  0.00    -0.024 SA
ENDBRANCH   4   6
ENDBRANCH   3   4
ENDBRANCH   2   3
ENDBRANCH   1   2
BRANCH   1  17
ATOM     17  C   UNL d   1       6.603   4.581 -12.260  0.00  0.00     0.037 C 
BRANCH  17  18
ATOM     18  C   UNL d   1       7.072   6.024 -12.089  0.00  0.00     0.060 C 
BRANCH  18  19
ATOM     19  S   UNL d   1       8.845   6.178 -12.440  0.00  0.00    -0.138 SA
BRANCH  19  20
ATOM     20  C   UNL d   1       9.170   7.821 -11.752  0.00  0.00     0.096 C 
BRANCH  20  21
ATOM     21  C   UNL d   1       9.708   7.705 -10.319  0.00  0.00     0.302 C 
BRANCH  21  22
ATOM     22  N   UNL d   1      10.120   9.009  -9.816  0.00  0.00     0.340 N 
BRANCH  22  23
ATOM     23  C   UNL d   1      10.884   8.891  -8.586  0.00  0.00     0.295 C 
BRANCH  23  24
ATOM     24  C   UNL d   1       9.960   8.556  -7.406  0.00  0.00     0.065 C 
BRANCH  24  25
ATOM     25  C   UNL d   1      10.762   8.142  -6.191  0.00  0.00    -0.009 A 
ATOM     26  C   UNL d   1      11.127   9.023  -5.156  0.00  0.00     0.064 A 
ATOM     27  C   UNL d   1      11.837   8.557  -4.023  0.00  0.00     0.068 A 
ATOM     28 CL   UNL d   1      10.697  10.669  -5.233  0.00  0.00    -0.082 Cl
ATOM     29  C   UNL d   1      12.191   7.222  -3.915  0.00  0.00     0.012 A 
ATOM     30 CL   UNL d   1      12.225   9.583  -2.720  0.00  0.00    -0.082 Cl
ATOM     31  C   UNL d   1      11.864   6.384  -4.979  0.00  0.00     0.001 A 
ATOM     32  C   UNL d   1      11.144   6.793  -6.092  0.00  0.00    -0.003 A 
ENDBRANCH  24  25
ENDBRANCH  23  24
ENDBRANCH  22  23
ENDBRANCH  21  22
ENDBRANCH  20  21
ENDBRANCH  19  20
ENDBRANCH  18  19
ENDBRANCH  17  18
ENDBRANCH   1  17
TORSDOF 13
