REMARK  5 active torsions:
REMARK  status: ('A' for Active; 'I' for Inactive)
REMARK    1  A    between atoms: C_5  and  C_6 
REMARK    2  A    between atoms: C_6  and  C_7 
REMARK    3  A    between atoms: C_7  and  C_8 
REMARK    4  A    between atoms: C_8  and  C_9 
REMARK    5  A    between atoms: C_9  and  N_10 
ROOT
ATOM      1  C   UNL d   1       9.581   6.077 -10.624  0.00  0.00     0.251 C 
ENDROOT
BRANCH   1   2
ATOM      2  C   UNL d   1       9.759   5.483  -9.232  0.00  0.00     0.036 C 
BRANCH   2   3
ATOM      3  C   UNL d   1      10.629   6.369  -8.332  0.00  0.00     0.007 C 
BRANCH   3   4
ATOM      4  C   UNL d   1       9.817   7.392  -7.516  0.00  0.00     0.026 C 
BRANCH   4   5
ATOM      5  C   UNL d   1      10.593   7.927  -6.315  0.00  0.00    -0.022 A 
ATOM      6  C   UNL d   1      11.124   7.050  -5.347  0.00  0.00    -0.002 A 
ATOM      7  C   UNL d   1      11.815   7.557  -4.232  0.00  0.00     0.029 A 
ATOM      8  C   UNL d   1      11.916   8.948  -4.040  0.00  0.00     0.140 A 
ATOM      9  F   UNL d   1      12.544   9.431  -2.941  0.00  0.00    -0.204 F 
ATOM     10  C   UNL d   1      11.360   9.829  -4.988  0.00  0.00     0.029 A 
ATOM     11  C   UNL d   1      10.713   9.321  -6.131  0.00  0.00    -0.002 A 
ENDBRANCH   4   5
ENDBRANCH   3   4
ENDBRANCH   2   3
ENDBRANCH   1   2
BRANCH   1  12
ATOM     12  N   UNL d   1       8.722   5.196 -11.398  0.00  0.00     0.142 N 
ATOM     13  C   UNL d   1       9.463   4.449 -12.412  0.00  0.00     0.276 C 
ATOM     14  C   UNL d   1       8.576   3.589 -13.284  0.00  0.00     0.007 A 
ATOM     15  C   UNL d   1       7.188   3.886 -13.347  0.00  0.00    -0.022 A 
ATOM     16  C   UNL d   1       9.111   2.537 -14.061  0.00  0.00    -0.003 A 
ATOM     17  C   UNL d   1       6.600   5.009 -12.526  0.00  0.00     0.061 C 
ATOM     18  C   UNL d   1       6.340   3.109 -14.149  0.00  0.00    -0.004 A 
ATOM     19  C   UNL d   1       7.661   5.964 -12.005  0.00  0.00     0.255 C 
ATOM     20  C   UNL d   1       6.870   2.066 -14.927  0.00  0.00    -0.000 A 
ATOM     21  C   UNL d   1       8.252   1.779 -14.888  0.00  0.00    -0.000 A 
ENDBRANCH   1  12
TORSDOF 5
