REMARK  9 active torsions:
REMARK  status: ('A' for Active; 'I' for Inactive)
REMARK    1  A    between atoms: S_2  and  N_4 
REMARK    2  A    between atoms: S_2  and  C_28 
REMARK    3  A    between atoms: N_4  and  C_5 
REMARK    4  A    between atoms: N_8  and  C_9 
REMARK    5  A    between atoms: C_9  and  C_10 
REMARK    6  A    between atoms: C_10  and  C_12 
REMARK    7  A    between atoms: C_12  and  O_13 
REMARK    8  A    between atoms: O_13  and  C_14 
REMARK    9  A    between atoms: C_19  and  C_20 
ROOT
ATOM      1  C   UNL d   1       9.390   6.848  -8.580  0.00  0.00     0.120 C 
ATOM      2  C   UNL d   1       8.675   5.492  -8.509  0.00  0.00     0.060 C 
ATOM      3  C   UNL d   1       7.956   5.194  -9.834  0.00  0.00     0.252 C 
ATOM      4  N   UNL d   1       8.835   5.213 -10.986  0.00  0.00     0.140 N 
ATOM      5  C   UNL d   1       9.432   6.537 -11.095  0.00  0.00     0.252 C 
ATOM      6  C   UNL d   1      10.245   6.911  -9.857  0.00  0.00     0.060 C 
ENDROOT
BRANCH   4   7
ATOM      7  C   UNL d   1       8.124   4.806 -12.197  0.00  0.00     0.285 C 
BRANCH   7   8
ATOM      8  C   UNL d   1       9.024   4.602 -13.431  0.00  0.00     0.215 C 
ATOM      9  O   UNL d   1       8.244   4.008 -14.436  0.00  0.00    -0.219 OA
BRANCH   8  10
ATOM     10  C   UNL d   1      10.175   3.638 -13.128  0.00  0.00     0.184 C 
BRANCH  10  11
ATOM     11  O   UNL d   1      11.199   3.712 -14.116  0.00  0.00    -0.328 OA
BRANCH  11  12
ATOM     12  C   UNL d   1      11.185   2.867 -15.209  0.00  0.00     0.094 A 
ATOM     13  C   UNL d   1      11.900   3.259 -16.381  0.00  0.00     0.022 A 
ATOM     14  C   UNL d   1      11.967   2.357 -17.473  0.00  0.00     0.002 A 
ATOM     15  C   UNL d   1      11.341   1.097 -17.422  0.00  0.00     0.000 A 
ATOM     16  C   UNL d   1      10.625   0.728 -16.275  0.00  0.00     0.002 A 
ATOM     17  C   UNL d   1      10.551   1.598 -15.180  0.00  0.00     0.024 A 
BRANCH  13  18
ATOM     18  C   UNL d   1      12.576   4.577 -16.501  0.00  0.00     0.002 A 
ATOM     19  C   UNL d   1      11.962   5.772 -16.061  0.00  0.00     0.000 A 
ATOM     20  C   UNL d   1      12.614   7.016 -16.172  0.00  0.00     0.000 A 
ATOM     21  C   UNL d   1      13.888   7.092 -16.760  0.00  0.00     0.000 A 
ATOM     22  C   UNL d   1      14.514   5.920 -17.216  0.00  0.00     0.000 A 
ATOM     23  C   UNL d   1      13.861   4.677 -17.089  0.00  0.00     0.000 A 
ENDBRANCH  13  18
ENDBRANCH  11  12
ENDBRANCH  10  11
ENDBRANCH   8  10
ENDBRANCH   7   8
ENDBRANCH   4   7
BRANCH   1  24
ATOM     24  N   UNL d   1      10.207   7.032  -7.380  0.00  0.00    -0.187 NA
BRANCH  24  25
ATOM     25  S   UNL d   1      11.217   8.412  -7.283  0.00  0.00     0.281 S 
ATOM     26  O   UNL d   1      12.479   8.083  -7.955  0.00  0.00    -0.199 OA
ATOM     27  O   UNL d   1      10.429   9.575  -7.718  0.00  0.00    -0.199 OA
BRANCH  25  28
ATOM     28  C   UNL d   1      11.460   8.583  -5.538  0.00  0.00     0.106 A 
ATOM     29  C   UNL d   1      11.837   7.465  -4.768  0.00  0.00     0.024 A 
ATOM     30  C   UNL d   1      12.061   7.641  -3.388  0.00  0.00     0.059 A 
ATOM     31  C   UNL d   1      11.861   8.877  -2.781  0.00  0.00     0.011 A 
ATOM     32 CL   UNL d   1      12.643   6.387  -2.390  0.00  0.00    -0.082 Cl
ATOM     33  C   UNL d   1      11.458   9.964  -3.550  0.00  0.00     0.002 A 
ATOM     34  C   UNL d   1      11.252   9.839  -4.934  0.00  0.00     0.013 A 
ENDBRANCH  25  28
ENDBRANCH  24  25
ENDBRANCH   1  24
TORSDOF 9
