REMARK  7 active torsions:
REMARK  status: ('A' for Active; 'I' for Inactive)
REMARK    1  A    between atoms: C_2  and  C_3 
REMARK       I    between atoms: C_2  and  N_10 
REMARK    2  A    between atoms: C_3  and  C_4 
REMARK    3  A    between atoms: N_10  and  C_11 
REMARK    4  A    between atoms: C_14  and  C_15 
REMARK    5  A    between atoms: C_15  and  C_16 
REMARK    6  A    between atoms: C_16  and  N_17 
REMARK    7  A    between atoms: C_20  and  C_21 
ROOT
ATOM      1  C   UNL d   1       9.299   5.744 -11.604  0.00  0.00     0.035 C 
ENDROOT
BRANCH   1   2
ATOM      2  C   UNL d   1       9.066   4.656 -12.654  0.00  0.00     0.002 C 
ATOM      3  C   UNL d   1       9.067   5.282 -14.040  0.00  0.00     0.002 C 
ATOM      4  C   UNL d   1       8.863   4.218 -15.102  0.00  0.00     0.024 C 
ATOM      5  C   UNL d   1       9.963   3.188 -15.041  0.00  0.00     0.106 C 
ATOM      6  C   UNL d   1       9.980   2.511 -13.669  0.00  0.00     0.024 C 
ATOM      7  C   UNL d   1      10.177   3.589 -12.608  0.00  0.00     0.002 C 
BRANCH   5   8
ATOM      8  N   UNL d   1       9.684   2.189 -16.063  0.00  0.00    -0.240 NA
ATOM      9  C   UNL d   1      10.579   1.616 -16.853  0.00  0.00     0.251 C 
ATOM     10  O   UNL d   1      10.225   0.671 -17.545  0.00  0.00    -0.271 OA
BRANCH   9  11
ATOM     11  C   UNL d   1      12.041   2.128 -16.850  0.00  0.00     0.090 C 
BRANCH  11  12
ATOM     12  C   UNL d   1      12.789   2.125 -18.193  0.00  0.00     0.014 C 
ATOM     13  C   UNL d   1      12.726   0.782 -18.942  0.00  0.00     0.033 C 
ATOM     14  C   UNL d   1      13.470   0.861 -20.277  0.00  0.00     0.142 C 
ATOM     15  O   UNL d   1      12.892   1.910 -21.049  0.00  0.00    -0.354 OA
ATOM     16  C   UNL d   1      13.047   3.201 -20.462  0.00  0.00     0.142 C 
ATOM     17  C   UNL d   1      12.315   3.258 -19.110  0.00  0.00     0.033 C 
ENDBRANCH  11  12
ENDBRANCH   9  11
ENDBRANCH   5   8
ENDBRANCH   1   2
BRANCH   1  18
ATOM     18  C   UNL d   1       8.755   5.344 -10.216  0.00  0.00     0.250 C 
BRANCH  18  19
ATOM     19  N   UNL d   1       9.187   6.245  -9.150  0.00  0.00     0.137 N 
ATOM     20  C   UNL d   1       8.663   5.742  -7.876  0.00  0.00     0.251 C 
ATOM     21  C   UNL d   1       9.027   6.702  -6.728  0.00  0.00     0.040 C 
ATOM     22  C   UNL d   1      10.548   6.926  -6.636  0.00  0.00     0.026 C 
ATOM     23  C   UNL d   1      11.088   7.317  -8.011  0.00  0.00     0.040 C 
ATOM     24  C   UNL d   1      10.645   6.332  -9.075  0.00  0.00     0.251 C 
BRANCH  22  25
ATOM     25  C   UNL d   1      10.902   7.989  -5.600  0.00  0.00    -0.020 A 
ATOM     26  C   UNL d   1      11.558   7.646  -4.396  0.00  0.00     0.021 A 
ATOM     27  C   UNL d   1      11.839   8.680  -3.465  0.00  0.00     0.100 A 
ATOM     28  C   UNL d   1      12.052   6.468  -3.784  0.00  0.00     0.028 A 
ATOM     29  C   UNL d   1      11.468   9.993  -3.697  0.00  0.00     0.025 A 
ATOM     30  O   UNL d   1      12.461   8.163  -2.351  0.00  0.00    -0.305 OA
ATOM     31  C   UNL d   1      10.833  10.326  -4.906  0.00  0.00     0.002 A 
ATOM     32  C   UNL d   1      10.553   9.329  -5.851  0.00  0.00    -0.004 A 
ATOM     33  C   UNL d   1      12.560   6.811  -2.561  0.00  0.00     0.123 A 
ENDBRANCH  22  25
ENDBRANCH  18  19
ENDBRANCH   1  18
TORSDOF 7
