REMARK  7 active torsions:
REMARK  status: ('A' for Active; 'I' for Inactive)
REMARK    1  A    between atoms: C_2  and  C_3 
REMARK       I    between atoms: C_2  and  N_11 
REMARK    2  A    between atoms: C_14  and  C_16 
REMARK    3  A    between atoms: C_16  and  N_17 
REMARK    4  A    between atoms: N_17  and  C_18 
REMARK    5  A    between atoms: C_18  and  C_19 
REMARK    6  A    between atoms: C_19  and  O_20 
REMARK    7  A    between atoms: O_20  and  C_21 
ROOT
ATOM      1  O   UNL d   1       5.874   1.068 -14.496  0.00  0.00    -0.267 OA
ATOM      2  C   UNL d   1       6.908   1.728 -14.600  0.00  0.00     0.257 C 
ATOM      3  N   UNL d   1       7.074   2.965 -14.045  0.00  0.00    -0.317 N 
ATOM      4  C   UNL d   1       8.284   3.831 -14.188  0.00  0.00     0.107 C 
ATOM      5  C   UNL d   1       8.830   4.115 -12.774  0.00  0.00     0.059 C 
ATOM      6  C   UNL d   1       7.778   4.835 -11.916  0.00  0.00     0.172 C 
ATOM      7  F   UNL d   1       7.501   6.020 -12.478  0.00  0.00    -0.238 F 
ATOM      8  C   UNL d   1       6.469   4.028 -11.874  0.00  0.00     0.059 C 
ATOM      9  C   UNL d   1       5.982   3.614 -13.276  0.00  0.00     0.107 C 
ENDROOT
BRANCH   6  10
ATOM     10  C   UNL d   1       8.316   5.066 -10.507  0.00  0.00     0.323 C 
BRANCH  10  11
ATOM     11  N   UNL d   1       9.329   6.109 -10.507  0.00  0.00     0.345 N 
BRANCH  11  12
ATOM     12  C   UNL d   1      10.027   6.111  -9.234  0.00  0.00     0.323 C 
BRANCH  12  13
ATOM     13  C   UNL d   1       9.070   6.456  -8.072  0.00  0.00     0.187 C 
BRANCH  13  14
ATOM     14  O   UNL d   1       9.780   6.489  -6.850  0.00  0.00    -0.327 OA
BRANCH  14  15
ATOM     15  C   UNL d   1      10.513   7.619  -6.547  0.00  0.00     0.112 A 
ATOM     16  C   UNL d   1      11.162   7.649  -5.290  0.00  0.00     0.103 A 
ATOM     17  C   UNL d   1      11.911   8.810  -4.928  0.00  0.00     0.020 A 
ATOM     18  N   UNL d   1      11.086   6.600  -4.456  0.00  0.00    -0.242 NA
ATOM     19  C   UNL d   1      12.020   9.887  -5.816  0.00  0.00     0.002 A 
ATOM     20  C   UNL d   1      12.565   8.856  -3.687  0.00  0.00     0.003 A 
ATOM     21  C   UNL d   1      11.359   9.825  -7.031  0.00  0.00     0.002 A 
ATOM     22  C   UNL d   1      10.620   8.718  -7.421  0.00  0.00     0.026 A 
ATOM     23  C   UNL d   1      12.462   7.753  -2.831  0.00  0.00     0.021 A 
ATOM     24  C   UNL d   1      11.710   6.653  -3.266  0.00  0.00     0.099 A 
ENDBRANCH  14  15
ENDBRANCH  13  14
ENDBRANCH  12  13
ENDBRANCH  11  12
ENDBRANCH  10  11
ENDBRANCH   6  10
BRANCH   2  25
ATOM     25  C   UNL d   1       8.017   1.157 -15.456  0.00  0.00     0.057 A 
ATOM     26  C   UNL d   1       7.734   0.614 -16.731  0.00  0.00     0.017 A 
ATOM     27  C   UNL d   1       8.781   0.126 -17.555  0.00  0.00     0.069 A 
ATOM     28  C   UNL d   1      10.119   0.204 -17.096  0.00  0.00     0.068 A 
ATOM     29 CL   UNL d   1       8.409  -0.575 -19.087  0.00  0.00    -0.082 Cl
ATOM     30  C   UNL d   1      10.389   0.737 -15.825  0.00  0.00     0.012 A 
ATOM     31 CL   UNL d   1      11.431  -0.355 -18.087  0.00  0.00    -0.082 Cl
ATOM     32  C   UNL d   1       9.351   1.169 -15.014  0.00  0.00     0.006 A 
ENDBRANCH   2  25
TORSDOF 7
