REMARK  8 active torsions:
REMARK  status: ('A' for Active; 'I' for Inactive)
REMARK    1  A    between atoms: C_6  and  C_7 
REMARK    2  A    between atoms: N_10  and  C_11 
REMARK    3  A    between atoms: C_11  and  C_12 
REMARK    4  A    between atoms: C_12  and  C_13 
REMARK    5  A    between atoms: C_13  and  O_14 
REMARK    6  A    between atoms: O_14  and  C_15 
REMARK    7  A    between atoms: C_18  and  C_19 
REMARK    8  A    between atoms: C_19  and  N_20 
ROOT
ATOM      1  C   UNL d   1       9.742   3.685 -14.632  0.00  0.00     0.253 C 
ENDROOT
BRANCH   1   2
ATOM      2  N   UNL d   1       9.411   2.462 -15.403  0.00  0.00     0.137 N 
ATOM      3  C   UNL d   1       9.433   2.804 -16.821  0.00  0.00     0.251 C 
ATOM      4  C   UNL d   1       9.142   1.555 -17.690  0.00  0.00     0.041 C 
ATOM      5  C   UNL d   1       7.828   0.884 -17.276  0.00  0.00     0.047 C 
ATOM      6  C   UNL d   1       7.822   0.605 -15.783  0.00  0.00     0.041 C 
ATOM      7  C   UNL d   1       8.120   1.913 -15.004  0.00  0.00     0.251 C 
BRANCH   5   8
ATOM      8  C   UNL d   1       7.598  -0.416 -18.055  0.00  0.00     0.087 A 
ATOM      9  C   UNL d   1       6.411  -0.947 -18.597  0.00  0.00     0.041 A 
ATOM     10  C   UNL d   1       5.082  -0.470 -18.610  0.00  0.00     0.006 A 
ATOM     11  C   UNL d   1       6.699  -2.190 -19.165  0.00  0.00     0.129 A 
ATOM     12  C   UNL d   1       4.080  -1.259 -19.233  0.00  0.00     0.030 A 
ATOM     13  C   UNL d   1       4.415  -2.505 -19.832  0.00  0.00     0.142 A 
ATOM     14  F   UNL d   1       3.455  -3.240 -20.445  0.00  0.00    -0.204 F 
ATOM     15  C   UNL d   1       5.736  -2.983 -19.800  0.00  0.00     0.057 A 
ATOM     16  O   UNL d   1       8.046  -2.399 -18.946  0.00  0.00    -0.211 OA
ATOM     17  N   UNL d   1       8.588  -1.279 -18.244  0.00  0.00    -0.131 NA
ENDBRANCH   5   8
ENDBRANCH   1   2
BRANCH   1  18
ATOM     18  C   UNL d   1       9.322   3.622 -13.162  0.00  0.00     0.068 C 
BRANCH  18  19
ATOM     19  C   UNL d   1       9.561   4.944 -12.421  0.00  0.00     0.151 C 
BRANCH  19  20
ATOM     20  O   UNL d   1       9.064   4.758 -11.105  0.00  0.00    -0.331 OA
BRANCH  20  21
ATOM     21  C   UNL d   1       9.282   5.729 -10.156  0.00  0.00     0.096 A 
ATOM     22  C   UNL d   1      10.111   6.848 -10.361  0.00  0.00     0.053 A 
ATOM     23  C   UNL d   1      10.353   7.793  -9.358  0.00  0.00     0.140 A 
ATOM     24  C   UNL d   1       9.736   7.637  -8.108  0.00  0.00     0.038 A 
ATOM     25  F   UNL d   1      11.183   8.833  -9.615  0.00  0.00    -0.204 F 
ATOM     26  C   UNL d   1       8.875   6.541  -7.883  0.00  0.00     0.002 A 
ATOM     27  C   UNL d   1       8.664   5.577  -8.896  0.00  0.00     0.024 A 
BRANCH  24  28
ATOM     28  C   UNL d   1       9.976   8.657  -7.017  0.00  0.00     0.279 C 
BRANCH  28  29
ATOM     29  N   UNL d   1      11.027   8.289  -6.065  0.00  0.00     0.141 N 
ATOM     30  C   UNL d   1      10.682   7.046  -5.359  0.00  0.00     0.251 C 
ATOM     31  C   UNL d   1      11.781   6.646  -4.385  0.00  0.00     0.035 C 
ATOM     32  C   UNL d   1      12.072   7.748  -3.372  0.00  0.00     0.004 C 
ATOM     33  C   UNL d   1      12.332   9.064  -4.117  0.00  0.00     0.035 C 
ATOM     34  C   UNL d   1      11.200   9.382  -5.105  0.00  0.00     0.251 C 
ENDBRANCH  28  29
ENDBRANCH  24  28
ENDBRANCH  20  21
ENDBRANCH  19  20
ENDBRANCH  18  19
ENDBRANCH   1  18
TORSDOF 8
