REMARK  2 active torsions:
REMARK  status: ('A' for Active; 'I' for Inactive)
REMARK    1  A    between atoms: N_11  and  C_12 
REMARK    2  A    between atoms: C_12  and  C_13 
ROOT
ATOM      1  N   UNL d   1      10.188  -0.205 -16.506  0.00  0.00    -0.191 NA
ATOM      2  C   UNL d   1       9.352   0.263 -15.874  0.00  0.00     0.101 C 
ATOM      3  C   UNL d   1       8.284   0.865 -15.076  0.00  0.00     0.068 A 
ATOM      4  C   UNL d   1       7.225   0.068 -14.596  0.00  0.00     0.010 A 
ATOM      5  C   UNL d   1       6.190   0.650 -13.842  0.00  0.00    -0.004 A 
ATOM      6  C   UNL d   1       6.197   2.031 -13.586  0.00  0.00    -0.026 A 
ATOM      7  C   UNL d   1       7.286   2.830 -14.042  0.00  0.00    -0.024 A 
ATOM      8  C   UNL d   1       8.320   2.243 -14.805  0.00  0.00     0.006 A 
ATOM      9  C   UNL d   1       7.319   4.292 -13.656  0.00  0.00     0.057 C 
ATOM     10  C   UNL d   1       8.644   5.008 -13.500  0.00  0.00     0.255 C 
ATOM     11  N   UNL d   1       8.195   6.251 -12.853  0.00  0.00     0.142 N 
ATOM     12  C   UNL d   1       6.914   6.077 -12.136  0.00  0.00     0.251 C 
ATOM     13  C   UNL d   1       6.645   4.580 -12.341  0.00  0.00     0.040 C 
ATOM     14  C   UNL d   1       5.205   4.112 -12.433  0.00  0.00     0.007 C 
ATOM     15  C   UNL d   1       5.126   2.591 -12.629  0.00  0.00     0.026 C 
ENDROOT
BRANCH  11  16
ATOM     16  C   UNL d   1       9.227   6.997 -12.163  0.00  0.00     0.277 C 
BRANCH  16  17
ATOM     17  C   UNL d   1       9.452   6.559 -10.697  0.00  0.00     0.011 A 
ATOM     18  C   UNL d   1       9.130   5.231 -10.270  0.00  0.00    -0.002 A 
ATOM     19  C   UNL d   1       9.171   4.971  -8.901  0.00  0.00    -0.000 A 
ATOM     20  C   UNL d   1       9.627   5.943  -7.966  0.00  0.00    -0.000 A 
ATOM     21  C   UNL d   1      10.039   7.199  -8.380  0.00  0.00    -0.000 A 
ATOM     22  C   UNL d   1       9.934   7.513  -9.766  0.00  0.00    -0.002 A 
ENDBRANCH  16  17
ENDBRANCH  11  16
TORSDOF 2
