REMARK  4 active torsions:
REMARK  status: ('A' for Active; 'I' for Inactive)
REMARK       I    between atoms: N_4  and  C_5 
REMARK    1  A    between atoms: C_5  and  C_7 
REMARK    2  A    between atoms: C_10  and  C_11 
REMARK    3  A    between atoms: C_16  and  C_17 
REMARK       I    between atoms: N_25  and  C_26 
REMARK    4  A    between atoms: C_26  and  C_28 
ROOT
ATOM      1  C   UNL d   1       9.612   4.184 -13.729  0.00  0.00     0.026 C 
ATOM      2  C   UNL d   1       8.517   5.182 -13.432  0.00  0.00     0.106 C 
ATOM      3  C   UNL d   1       7.083   4.679 -13.701  0.00  0.00     0.127 C 
ATOM      4  N   UNL d   1       6.656   3.587 -12.862  0.00  0.00    -0.313 N 
ATOM      5  C   UNL d   1       6.184   2.393 -13.273  0.00  0.00     0.257 C 
ATOM      6  O   UNL d   1       5.450   1.696 -12.579  0.00  0.00    -0.267 OA
ATOM      7  C   UNL d   1       6.767   3.981 -11.482  0.00  0.00     0.129 C 
ATOM      8  C   UNL d   1       8.225   4.398 -11.199  0.00  0.00     0.129 C 
ATOM      9  N   UNL d   1       8.622   5.550 -12.024  0.00  0.00    -0.315 N 
ATOM     10  C   UNL d   1       9.006   6.781 -11.624  0.00  0.00     0.257 C 
ATOM     11  O   UNL d   1       9.097   7.725 -12.415  0.00  0.00    -0.267 OA
ENDROOT
BRANCH   5  12
ATOM     12  C   UNL d   1       6.717   1.808 -14.560  0.00  0.00     0.056 C 
ATOM     13  C   UNL d   1       5.992   0.991 -15.410  0.00  0.00     0.005 C 
ATOM     14  C   UNL d   1       6.555   0.530 -16.620  0.00  0.00     0.000 C 
ATOM     15  C   UNL d   1       7.901   0.781 -16.975  0.00  0.00    -0.000 C 
ATOM     16  C   UNL d   1       8.658   1.459 -16.034  0.00  0.00     0.000 C 
ATOM     17  C   UNL d   1       8.042   1.904 -14.902  0.00  0.00     0.005 C 
BRANCH  15  18
ATOM     18  C   UNL d   1       8.520   0.269 -18.197  0.00  0.00     0.004 A 
ATOM     19  C   UNL d   1       9.450   1.020 -18.972  0.00  0.00     0.071 A 
ATOM     20  C   UNL d   1       9.954   0.434 -20.153  0.00  0.00     0.004 A 
ATOM     21  C   UNL d   1       9.563  -0.856 -20.550  0.00  0.00    -0.000 A 
ATOM     22  C   UNL d   1       8.654  -1.583 -19.768  0.00  0.00    -0.000 A 
ATOM     23  C   UNL d   1       8.143  -1.024 -18.594  0.00  0.00    -0.000 A 
BRANCH  19  24
ATOM     24  C   UNL d   1       9.881   2.465 -18.635  0.00  0.00     0.419 C 
ATOM     25  F   UNL d   1      10.673   2.587 -17.583  0.00  0.00    -0.166 F 
ATOM     26  F   UNL d   1      10.654   2.972 -19.588  0.00  0.00    -0.166 F 
ATOM     27  F   UNL d   1       8.795   3.238 -18.500  0.00  0.00    -0.166 F 
ENDBRANCH  19  24
ENDBRANCH  15  18
ENDBRANCH   5  12
BRANCH  10  28
ATOM     28  C   UNL d   1       9.467   6.964 -10.191  0.00  0.00     0.057 A 
ATOM     29  C   UNL d   1      10.542   7.822  -9.897  0.00  0.00     0.024 A 
ATOM     30  C   UNL d   1      10.912   8.028  -8.555  0.00  0.00     0.082 A 
ATOM     31  C   UNL d   1      10.244   7.381  -7.471  0.00  0.00     0.019 A 
ATOM     32  N   UNL d   1      11.888   8.791  -7.962  0.00  0.00    -0.244 NA
ATOM     33  C   UNL d   1       9.170   6.540  -7.780  0.00  0.00     0.002 A 
ATOM     34  C   UNL d   1      10.854   7.787  -6.242  0.00  0.00     0.022 A 
ATOM     35  C   UNL d   1       8.770   6.398  -9.095  0.00  0.00     0.005 A 
ATOM     36  C   UNL d   1      11.850   8.658  -6.585  0.00  0.00     0.099 A 
ENDBRANCH  10  28
TORSDOF 4
