REMARK  8 active torsions:
REMARK  status: ('A' for Active; 'I' for Inactive)
REMARK    1  A    between atoms: C_3  and  S_4 
REMARK    2  A    between atoms: S_4  and  C_5 
REMARK    3  A    between atoms: C_5  and  C_6 
REMARK    4  A    between atoms: C_6  and  C_7 
REMARK    5  A    between atoms: C_7  and  N_8 
REMARK    6  A    between atoms: C_13  and  C_14 
REMARK    7  A    between atoms: C_17  and  C_18 
REMARK    8  A    between atoms: C_27  and  C_28 
ROOT
ATOM      1  C   UNL d   1       9.443   2.824 -13.751  0.00  0.00     0.251 C 
ENDROOT
BRANCH   1   2
ATOM      2  C   UNL d   1       9.679   4.281 -13.329  0.00  0.00     0.047 C 
BRANCH   2   3
ATOM      3  C   UNL d   1       8.370   4.963 -12.906  0.00  0.00     0.067 C 
BRANCH   3   4
ATOM      4  S   UNL d   1       8.649   6.684 -12.409  0.00  0.00    -0.075 SA
BRANCH   4   5
ATOM      5  C   UNL d   1       9.245   6.470 -10.753  0.00  0.00     0.193 A 
ATOM      6  N   UNL d   1       9.746   7.496 -10.028  0.00  0.00    -0.289 N 
ATOM      7  C   UNL d   1       9.894   8.876 -10.453  0.00  0.00     0.134 C 
ATOM      8  C   UNL d   1       9.968   6.893  -8.829  0.00  0.00     0.168 A 
ATOM      9  N   UNL d   1       9.680   5.588  -8.839  0.00  0.00    -0.128 NA
ATOM     10  N   UNL d   1       9.212   5.311 -10.094  0.00  0.00    -0.122 NA
BRANCH   8  11
ATOM     11  C   UNL d   1      10.480   7.510  -7.586  0.00  0.00     0.053 A 
ATOM     12  C   UNL d   1      10.750   8.813  -7.416  0.00  0.00     0.082 A 
ATOM     13  N   UNL d   1      11.269   9.332  -6.222  0.00  0.00    -0.292 N 
ATOM     14  C   UNL d   1      11.461   8.591  -5.093  0.00  0.00     0.261 A 
ATOM     15  C   UNL d   1      11.555  10.750  -6.195  0.00  0.00     0.134 C 
ATOM     16  C   UNL d   1      11.157   7.172  -5.240  0.00  0.00     0.061 A 
ATOM     17  O   UNL d   1      11.868   9.077  -4.039  0.00  0.00    -0.267 OA
ATOM     18  C   UNL d   1      10.715   6.676  -6.415  0.00  0.00     0.009 A 
ENDBRANCH   8  11
ENDBRANCH   4   5
ENDBRANCH   3   4
ENDBRANCH   2   3
ENDBRANCH   1   2
BRANCH   1  19
ATOM     19  N   UNL d   1       9.291   2.713 -15.192  0.00  0.00     0.137 N 
ATOM     20  C   UNL d   1      10.503   2.179 -15.786  0.00  0.00     0.251 C 
ATOM     21  C   UNL d   1      10.066   1.819 -17.188  0.00  0.00     0.037 A 
ATOM     22  C   UNL d   1       8.591   1.532 -17.058  0.00  0.00     0.038 C 
ATOM     23  C   UNL d   1      10.672   2.516 -18.398  0.00  0.00     0.024 A 
ATOM     24  C   UNL d   1      10.965   1.056 -18.147  0.00  0.00     0.007 A 
ATOM     25  C   UNL d   1       8.270   1.757 -15.580  0.00  0.00     0.250 C 
BRANCH  23  26
ATOM     26  C   UNL d   1      11.707   3.583 -18.190  0.00  0.00    -0.022 A 
ATOM     27  C   UNL d   1      13.073   3.295 -18.382  0.00  0.00    -0.004 A 
ATOM     28  C   UNL d   1      14.053   4.266 -18.111  0.00  0.00     0.004 A 
ATOM     29  C   UNL d   1      13.675   5.544 -17.654  0.00  0.00     0.071 A 
ATOM     30  C   UNL d   1      12.308   5.837 -17.462  0.00  0.00     0.004 A 
ATOM     31  C   UNL d   1      11.329   4.862 -17.727  0.00  0.00    -0.004 A 
BRANCH  29  32
ATOM     32  C   UNL d   1      14.741   6.596 -17.404  0.00  0.00     0.419 C 
ATOM     33  F   UNL d   1      15.777   6.072 -16.747  0.00  0.00    -0.166 F 
ATOM     34  F   UNL d   1      15.169   7.073 -18.573  0.00  0.00    -0.166 F 
ATOM     35  F   UNL d   1      14.249   7.603 -16.687  0.00  0.00    -0.166 F 
ENDBRANCH  29  32
ENDBRANCH  23  26
ENDBRANCH   1  19
TORSDOF 8
