REMARK  6 active torsions:
REMARK  status: ('A' for Active; 'I' for Inactive)
REMARK    1  A    between atoms: O_2  and  C_3 
REMARK    2  A    between atoms: C_9  and  N_10 
REMARK    3  A    between atoms: N_10  and  C_11 
REMARK    4  A    between atoms: C_11  and  C_12 
REMARK    5  A    between atoms: C_12  and  N_13 
REMARK    6  A    between atoms: N_16  and  C_17 
ROOT
ATOM      1  C   UNL d   1       9.344   5.691 -11.554  0.00  0.00     0.155 C 
ENDROOT
BRANCH   1   2
ATOM      2  N   UNL d   1       8.309   5.284 -12.504  0.00  0.00    -0.291 NA
BRANCH   2   3
ATOM      3  C   UNL d   1       8.494   3.982 -13.152  0.00  0.00     0.120 C 
ATOM      4  C   UNL d   1       9.395   3.995 -14.398  0.00  0.00    -0.003 A 
ATOM      5  C   UNL d   1       9.103   3.175 -15.529  0.00  0.00    -0.024 A 
ATOM      6  C   UNL d   1      10.584   4.758 -14.435  0.00  0.00     0.021 A 
ATOM      7  C   UNL d   1       9.951   3.180 -16.654  0.00  0.00    -0.003 A 
ATOM      8  C   UNL d   1       7.864   2.285 -15.584  0.00  0.00     0.026 C 
ATOM      9  C   UNL d   1      11.107   3.973 -16.677  0.00  0.00     0.024 A 
ATOM     10  C   UNL d   1      11.437   4.775 -15.552  0.00  0.00     0.094 A 
ATOM     11  C   UNL d   1       7.205   2.061 -14.221  0.00  0.00     0.007 C 
ATOM     12  C   UNL d   1       7.103   3.372 -13.433  0.00  0.00     0.029 C 
BRANCH  10  13
ATOM     13  O   UNL d   1      12.546   5.581 -15.450  0.00  0.00    -0.328 OA
ATOM     14  C   UNL d   1      13.493   5.537 -16.502  0.00  0.00     0.181 C 
ENDBRANCH  10  13
ENDBRANCH   2   3
ENDBRANCH   1   2
BRANCH   1  15
ATOM     15  C   UNL d   1       8.818   6.733 -10.590  0.00  0.00     0.276 C 
BRANCH  15  16
ATOM     16  N   UNL d   1       9.860   7.416  -9.822  0.00  0.00     0.143 N 
ATOM     17  C   UNL d   1       9.303   8.439  -8.937  0.00  0.00     0.274 C 
ATOM     18  C   UNL d   1      10.359   9.192  -8.126  0.00  0.00     0.137 C 
ATOM     19  N   UNL d   1      11.185   8.246  -7.421  0.00  0.00    -0.344 N 
ATOM     20  C   UNL d   1      11.744   7.193  -8.230  0.00  0.00     0.137 C 
ATOM     21  C   UNL d   1      10.615   6.492  -8.991  0.00  0.00     0.274 C 
BRANCH  19  22
ATOM     22  C   UNL d   1      11.374   8.301  -6.033  0.00  0.00     0.056 A 
ATOM     23  C   UNL d   1      11.476   9.559  -5.408  0.00  0.00     0.018 A 
ATOM     24  C   UNL d   1      11.726   9.620  -4.024  0.00  0.00     0.013 A 
ATOM     25  C   UNL d   1      11.948   8.460  -3.281  0.00  0.00     0.058 A 
ATOM     26  C   UNL d   1      11.851   7.202  -3.887  0.00  0.00     0.013 A 
ATOM     27 CL   UNL d   1      12.375   8.596  -1.632  0.00  0.00    -0.082 Cl
ATOM     28  C   UNL d   1      11.519   7.119  -5.253  0.00  0.00     0.018 A 
ENDBRANCH  19  22
ENDBRANCH  15  16
ENDBRANCH   1  15
TORSDOF 6
