REMARK  5 active torsions:
REMARK  status: ('A' for Active; 'I' for Inactive)
REMARK    1  A    between atoms: C_6  and  N_7 
REMARK    2  A    between atoms: N_7  and  C_8 
REMARK    3  A    between atoms: N_7  and  C_11 
REMARK    4  A    between atoms: C_8  and  C_9 
REMARK    5  A    between atoms: C_11  and  C_12 
ROOT
ATOM      1  C   UNL d   1       6.494   0.473 -16.003  0.00  0.00     0.081 C 
ATOM      2  C   UNL d   1       6.706   1.389 -15.181  0.00  0.00    -0.131 C 
ATOM      3  C   UNL d   1       6.916   2.456 -14.292  0.00  0.00     0.004 C 
ATOM      4  C   UNL d   1       8.135   3.022 -14.207  0.00  0.00    -0.021 C 
ATOM      5  C   UNL d   1       8.501   4.116 -13.243  0.00  0.00     0.059 C 
ATOM      6  C   UNL d   1       7.268   4.779 -12.557  0.00  0.00     0.224 C 
ATOM      7  C   UNL d   1       6.160   3.758 -12.203  0.00  0.00     0.039 C 
ATOM      8  C   UNL d   1       5.744   2.899 -13.412  0.00  0.00     0.035 C 
ENDROOT
BRANCH   6   9
ATOM      9  N   UNL d   1       7.654   5.638 -11.426  0.00  0.00     0.135 N 
BRANCH   9  10
ATOM     10  C   UNL d   1       8.266   4.889 -10.310  0.00  0.00     0.250 C 
BRANCH  10  11
ATOM     11  C   UNL d   1       8.528   5.718  -9.052  0.00  0.00     0.035 C 
ATOM     12  C   UNL d   1       9.480   4.945  -8.155  0.00  0.00     0.002 C 
ENDBRANCH  10  11
ENDBRANCH   9  10
BRANCH   9  13
ATOM     13  C   UNL d   1       8.468   6.783 -11.841  0.00  0.00     0.250 C 
BRANCH  13  14
ATOM     14  C   UNL d   1       7.664   7.891 -12.543  0.00  0.00     0.035 C 
ATOM     15  C   UNL d   1       8.500   9.176 -12.545  0.00  0.00     0.002 C 
ENDBRANCH  13  14
ENDBRANCH   9  13
ENDBRANCH   6   9
TORSDOF 5
