REMARK  4 active torsions:
REMARK  status: ('A' for Active; 'I' for Inactive)
REMARK    1  A    between atoms: O_2  and  C_3 
REMARK    2  A    between atoms: C_8  and  O_9 
REMARK    3  A    between atoms: C_16  and  O_17 
REMARK    4  A    between atoms: C_19  and  O_20 
ROOT
ATOM      1  C   UNL d   1       9.228   0.721 -15.996  0.00  0.00     0.116 A 
ATOM      2  C   UNL d   1      10.279   1.658 -15.888  0.00  0.00     0.022 A 
ATOM      3  C   UNL d   1      10.122   2.796 -15.095  0.00  0.00    -0.020 A 
ATOM      4  C   UNL d   1       8.910   3.022 -14.403  0.00  0.00     0.007 A 
ATOM      5  C   UNL d   1       7.857   2.099 -14.503  0.00  0.00     0.024 A 
ATOM      6  C   UNL d   1       8.017   0.935 -15.294  0.00  0.00     0.116 A 
ATOM      7  C   UNL d   1       8.761   4.248 -13.521  0.00  0.00     0.246 C 
ATOM      8  C   UNL d   1       8.890   3.919 -12.030  0.00  0.00     0.064 C 
ATOM      9  C   UNL d   1       9.093   5.051 -11.053  0.00  0.00    -0.020 A 
ATOM     10  C   UNL d   1       8.971   4.886  -9.653  0.00  0.00    -0.002 A 
ATOM     11  C   UNL d   1       9.173   5.966  -8.797  0.00  0.00     0.026 A 
ATOM     12  C   UNL d   1       9.467   7.254  -9.309  0.00  0.00     0.116 A 
ATOM     13  C   UNL d   1       9.548   7.416 -10.722  0.00  0.00     0.114 A 
ATOM     14  C   UNL d   1       9.387   6.307 -11.570  0.00  0.00     0.031 A 
ATOM     15  C   UNL d   1       9.440   6.457 -13.065  0.00  0.00     0.279 C 
ATOM     16  N   UNL d   1       9.719   5.267 -13.878  0.00  0.00     0.144 N 
ATOM     17  C   UNL d   1      11.084   4.788 -13.889  0.00  0.00     0.256 C 
ATOM     18  C   UNL d   1      11.247   3.804 -15.033  0.00  0.00     0.061 C 
ENDROOT
BRANCH   1  19
ATOM     19  O   UNL d   1       9.327  -0.424 -16.758  0.00  0.00    -0.326 OA
ATOM     20  C   UNL d   1      10.366  -0.501 -17.718  0.00  0.00     0.181 C 
ENDBRANCH   1  19
BRANCH   6  21
ATOM     21  O   UNL d   1       7.033  -0.021 -15.439  0.00  0.00    -0.326 OA
ATOM     22  C   UNL d   1       5.844   0.119 -14.680  0.00  0.00     0.181 C 
ENDBRANCH   6  21
BRANCH  13  23
ATOM     23  O   UNL d   1       9.757   8.685 -11.230  0.00  0.00    -0.326 OA
ATOM     24  C   UNL d   1       8.646   9.190 -11.990  0.00  0.00     0.181 C 
ENDBRANCH  13  23
BRANCH  12  25
ATOM     25  O   UNL d   1       9.708   8.354  -8.514  0.00  0.00    -0.326 OA
ATOM     26  C   UNL d   1       9.498   8.207  -7.115  0.00  0.00     0.181 C 
ENDBRANCH  12  25
TORSDOF 4
