REMARK  0 active torsions:
REMARK  status: ('A' for Active; 'I' for Inactive)
ROOT
ATOM      1  C   UNL d   1       3.493  -1.369 -16.441  0.00  0.00     0.285 C 
ATOM      2  N   UNL d   1       4.594  -1.304 -15.497  0.00  0.00     0.140 N 
ATOM      3  C   UNL d   1       4.400  -0.241 -14.508  0.00  0.00     0.255 C 
ATOM      4  C   UNL d   1       5.567  -0.016 -13.516  0.00  0.00     0.061 C 
ATOM      5  C   UNL d   1       6.245   1.340 -13.714  0.00  0.00    -0.024 A 
ATOM      6  C   UNL d   1       5.549   2.471 -13.232  0.00  0.00    -0.004 A 
ATOM      7  C   UNL d   1       6.087   3.765 -13.361  0.00  0.00    -0.000 A 
ATOM      8  C   UNL d   1       7.354   3.940 -13.938  0.00  0.00    -0.000 A 
ATOM      9  C   UNL d   1       8.058   2.832 -14.429  0.00  0.00    -0.004 A 
ATOM     10  C   UNL d   1       7.520   1.532 -14.329  0.00  0.00    -0.022 A 
ATOM     11  C   UNL d   1       8.408   0.394 -14.794  0.00  0.00     0.052 C 
ATOM     12  C   UNL d   1       8.697   0.375 -16.295  0.00  0.00    -0.020 A 
ATOM     13  C   UNL d   1      10.046   0.492 -16.702  0.00  0.00     0.023 A 
ATOM     14  C   UNL d   1      10.395   0.445 -18.063  0.00  0.00     0.131 A 
ATOM     15  O   UNL d   1      11.698   0.563 -18.448  0.00  0.00    -0.190 OA
ATOM     16  C   UNL d   1       9.388   0.270 -19.033  0.00  0.00     0.027 A 
ATOM     17  C   UNL d   1       8.043   0.143 -18.640  0.00  0.00    -0.002 A 
ATOM     18  C   UNL d   1       7.678   0.199 -17.277  0.00  0.00    -0.024 A 
ATOM     19  C   UNL d   1       6.199   0.086 -16.921  0.00  0.00     0.061 C 
ATOM     20  C   UNL d   1       5.858  -1.248 -16.218  0.00  0.00     0.255 C 
ENDROOT
TORSDOF 0
