REMARK  6 active torsions:
REMARK  status: ('A' for Active; 'I' for Inactive)
REMARK    1  A    between atoms: C_11  and  C_12 
REMARK    2  A    between atoms: C_12  and  C_13 
REMARK    3  A    between atoms: C_13  and  C_14 
REMARK    4  A    between atoms: C_14  and  C_15 
REMARK    5  A    between atoms: C_15  and  N_16 
REMARK    6  A    between atoms: N_19  and  C_20 
ROOT
ATOM      1  C   UNL d   1       9.562   6.103  -9.520  0.00  0.00     0.035 C 
ENDROOT
BRANCH   1   2
ATOM      2  C   UNL d   1      10.152   5.606  -8.200  0.00  0.00     0.003 C 
BRANCH   2   3
ATOM      3  C   UNL d   1      11.086   6.627  -7.524  0.00  0.00     0.014 C 
BRANCH   3   4
ATOM      4  C   UNL d   1      10.357   7.459  -6.451  0.00  0.00     0.105 A 
ATOM      5  C   UNL d   1      10.255   8.923  -6.855  0.00  0.00     0.259 A 
ATOM      6  O   UNL d   1       9.684   9.242  -7.891  0.00  0.00    -0.270 OA
ATOM      7  N   UNL d   1      10.844   9.725  -5.942  0.00  0.00    -0.212 NA
ATOM      8  C   UNL d   1      11.376   8.953  -4.900  0.00  0.00     0.081 A 
ATOM      9  C   UNL d   1      11.117   7.620  -5.170  0.00  0.00     0.006 A 
ATOM     10  C   UNL d   1      12.039   9.350  -3.728  0.00  0.00     0.021 A 
ATOM     11  C   UNL d   1      11.521   6.622  -4.287  0.00  0.00     0.027 A 
ATOM     12  C   UNL d   1      12.223   6.990  -3.124  0.00  0.00     0.140 A 
ATOM     13  C   UNL d   1      12.476   8.349  -2.842  0.00  0.00     0.031 A 
ATOM     14  F   UNL d   1      12.668   6.043  -2.273  0.00  0.00    -0.204 F 
ENDBRANCH   3   4
ENDBRANCH   2   3
ENDBRANCH   1   2
BRANCH   1  15
ATOM     15  C   UNL d   1       8.410   5.179  -9.969  0.00  0.00     0.250 C 
BRANCH  15  16
ATOM     16  N   UNL d   1       8.222   5.088 -11.406  0.00  0.00     0.141 N 
ATOM     17  C   UNL d   1       9.336   4.382 -12.048  0.00  0.00     0.274 C 
ATOM     18  C   UNL d   1       9.153   4.350 -13.565  0.00  0.00     0.137 C 
ATOM     19  N   UNL d   1       7.892   3.710 -13.895  0.00  0.00    -0.344 N 
ATOM     20  C   UNL d   1       6.731   4.270 -13.210  0.00  0.00     0.137 C 
ATOM     21  C   UNL d   1       6.981   4.355 -11.692  0.00  0.00     0.274 C 
BRANCH  19  22
ATOM     22  C   UNL d   1       7.845   2.599 -14.787  0.00  0.00     0.056 A 
ATOM     23  C   UNL d   1       8.856   2.404 -15.758  0.00  0.00     0.017 A 
ATOM     24  C   UNL d   1       8.796   1.320 -16.655  0.00  0.00     0.002 A 
ATOM     25  C   UNL d   1       7.721   0.421 -16.601  0.00  0.00     0.000 A 
ATOM     26  C   UNL d   1       6.712   0.603 -15.644  0.00  0.00     0.002 A 
ATOM     27  C   UNL d   1       6.774   1.677 -14.733  0.00  0.00     0.017 A 
ENDBRANCH  19  22
ENDBRANCH  15  16
ENDBRANCH   1  15
TORSDOF 6
