REMARK  9 active torsions:
REMARK  status: ('A' for Active; 'I' for Inactive)
REMARK    1  A    between atoms: S_2  and  O_5 
REMARK    2  A    between atoms: O_5  and  C_6 
REMARK    3  A    between atoms: N_19  and  C_20 
REMARK    4  A    between atoms: C_20  and  C_21 
REMARK    5  A    between atoms: C_21  and  C_22 
REMARK    6  A    between atoms: C_22  and  C_23 
REMARK    7  A    between atoms: C_23  and  N_24 
REMARK       I    between atoms: N_24  and  C_25 
REMARK    8  A    between atoms: C_25  and  C_27 
REMARK    9  A    between atoms: C_30  and  C_31 
ROOT
ATOM      1  C   UNL d   1      14.650   4.974 -19.496  0.00  0.00     0.109 A 
ATOM      2  C   UNL d   1      14.393   4.546 -20.816  0.00  0.00     0.025 A 
ATOM      3  C   UNL d   1      13.226   3.821 -21.108  0.00  0.00     0.002 A 
ATOM      4  C   UNL d   1      12.332   3.488 -20.076  0.00  0.00    -0.004 A 
ATOM      5  C   UNL d   1      12.602   3.851 -18.738  0.00  0.00    -0.023 A 
ATOM      6  C   UNL d   1      13.768   4.614 -18.450  0.00  0.00    -0.002 A 
ATOM      7  C   UNL d   1      14.104   5.033 -17.019  0.00  0.00     0.030 C 
ATOM      8  C   UNL d   1      12.894   5.027 -16.091  0.00  0.00     0.038 C 
ATOM      9  C   UNL d   1      12.182   3.683 -16.215  0.00  0.00     0.224 C 
ATOM     10  C   UNL d   1      11.612   3.463 -17.635  0.00  0.00     0.053 C 
ATOM     11  C   UNL d   1      11.118   2.005 -17.728  0.00  0.00     0.008 C 
ATOM     12  C   UNL d   1      10.149   1.690 -16.579  0.00  0.00     0.036 C 
ATOM     13  C   UNL d   1      10.753   2.060 -15.212  0.00  0.00     0.250 C 
ATOM     14  N   UNL d   1      11.178   3.467 -15.168  0.00  0.00     0.135 N 
ENDROOT
BRANCH  14  15
ATOM     15  C   UNL d   1      10.059   4.419 -15.208  0.00  0.00     0.250 C 
BRANCH  15  16
ATOM     16  C   UNL d   1       9.309   4.379 -13.877  0.00  0.00     0.037 C 
BRANCH  16  17
ATOM     17  C   UNL d   1       8.126   5.356 -13.805  0.00  0.00     0.029 C 
BRANCH  17  18
ATOM     18  C   UNL d   1       7.283   5.281 -12.526  0.00  0.00     0.129 C 
BRANCH  18  19
ATOM     19  N   UNL d   1       7.949   5.928 -11.409  0.00  0.00    -0.234 NA
ATOM     20  C   UNL d   1       8.943   5.401 -10.724  0.00  0.00     0.275 C 
ATOM     21  O   UNL d   1       9.429   4.298 -10.995  0.00  0.00    -0.266 OA
BRANCH  20  22
ATOM     22  C   UNL d   1       9.455   6.177  -9.572  0.00  0.00     0.058 A 
ATOM     23  C   UNL d   1       9.885   5.497  -8.441  0.00  0.00     0.005 A 
ATOM     24  C   UNL d   1      10.352   6.188  -7.329  0.00  0.00     0.000 A 
ATOM     25  C   UNL d   1      10.390   7.595  -7.293  0.00  0.00     0.000 A 
ATOM     26  C   UNL d   1       9.972   8.287  -8.457  0.00  0.00     0.000 A 
ATOM     27  C   UNL d   1       9.531   7.591  -9.592  0.00  0.00     0.005 A 
BRANCH  25  28
ATOM     28  C   UNL d   1      10.846   8.281  -6.073  0.00  0.00     0.000 A 
ATOM     29  C   UNL d   1      10.691   9.676  -5.967  0.00  0.00     0.000 A 
ATOM     30  C   UNL d   1      11.089  10.321  -4.818  0.00  0.00     0.000 A 
ATOM     31  C   UNL d   1      11.685   9.666  -3.744  0.00  0.00     0.000 A 
ATOM     32  C   UNL d   1      11.861   8.282  -3.824  0.00  0.00     0.000 A 
ATOM     33  C   UNL d   1      11.441   7.598  -4.978  0.00  0.00     0.000 A 
ENDBRANCH  25  28
ENDBRANCH  20  22
ENDBRANCH  18  19
ENDBRANCH  17  18
ENDBRANCH  16  17
ENDBRANCH  15  16
ENDBRANCH  14  15
BRANCH   1  34
ATOM     34  O   UNL d   1      15.780   5.703 -19.230  0.00  0.00    -0.231 OA
BRANCH  34  35
ATOM     35  S   UNL d   1      15.693   7.398 -19.256  0.00  0.00     0.285 S 
ATOM     36  C   UNL d   1      15.246   7.693 -21.000  0.00  0.00     0.172 C 
ATOM     37  O   UNL d   1      17.051   7.896 -19.002  0.00  0.00    -0.197 OA
ATOM     38  O   UNL d   1      14.557   7.838 -18.429  0.00  0.00    -0.197 OA
ENDBRANCH  34  35
ENDBRANCH   1  34
TORSDOF 9
