REMARK  8 active torsions:
REMARK  status: ('A' for Active; 'I' for Inactive)
REMARK    1  A    between atoms: C_2  and  C_5 
REMARK    2  A    between atoms: C_7  and  N_8 
REMARK    3  A    between atoms: N_11  and  C_12 
REMARK    4  A    between atoms: C_12  and  C_13 
REMARK    5  A    between atoms: C_13  and  C_14 
REMARK    6  A    between atoms: C_14  and  C_15 
REMARK    7  A    between atoms: C_15  and  N_16 
REMARK    8  A    between atoms: C_28  and  C_29 
ROOT
ATOM      1  N   UNL d   1       8.295   1.550 -16.327  0.00  0.00    -0.330 N 
ATOM      2  C   UNL d   1       7.775   1.472 -14.966  0.00  0.00     0.138 C 
ATOM      3  C   UNL d   1       7.858   2.857 -14.302  0.00  0.00     0.274 C 
ATOM      4  N   UNL d   1       9.241   3.352 -14.328  0.00  0.00     0.141 N 
ATOM      5  C   UNL d   1       9.681   3.496 -15.722  0.00  0.00     0.274 C 
ATOM      6  C   UNL d   1       9.632   2.128 -16.435  0.00  0.00     0.138 C 
ENDROOT
BRANCH   1   7
ATOM      7  C   UNL d   1       7.553   1.108 -17.437  0.00  0.00     0.143 A 
ATOM      8  N   UNL d   1       6.589   0.192 -17.224  0.00  0.00    -0.214 NA
ATOM      9  C   UNL d   1       5.874  -0.241 -18.273  0.00  0.00     0.140 A 
ATOM     10  N   UNL d   1       6.081   0.122 -19.541  0.00  0.00    -0.227 NA
ATOM     11  C   UNL d   1       7.027   1.054 -19.779  0.00  0.00     0.157 A 
ATOM     12  C   UNL d   1       7.804   1.596 -18.733  0.00  0.00     0.060 A 
BRANCH   9  13
ATOM     13  C   UNL d   1       4.887  -1.393 -18.031  0.00  0.00     0.052 C 
ATOM     14  C   UNL d   1       4.413  -1.419 -16.560  0.00  0.00     0.008 C 
ATOM     15  C   UNL d   1       5.566  -2.731 -18.372  0.00  0.00     0.008 C 
ATOM     16  C   UNL d   1       3.622  -1.214 -18.899  0.00  0.00     0.008 C 
ENDBRANCH   9  13
BRANCH  11  17
ATOM     17  C   UNL d   1       7.239   1.481 -21.228  0.00  0.00     0.435 C 
ATOM     18  F   UNL d   1       6.072   1.590 -21.859  0.00  0.00    -0.165 F 
ATOM     19  F   UNL d   1       7.858   2.660 -21.286  0.00  0.00    -0.165 F 
ATOM     20  F   UNL d   1       7.992   0.581 -21.857  0.00  0.00    -0.165 F 
ENDBRANCH  11  17
ENDBRANCH   1   7
BRANCH   4  21
ATOM     21  C   UNL d   1       9.316   4.640 -13.653  0.00  0.00     0.251 C 
BRANCH  21  22
ATOM     22  C   UNL d   1       9.107   4.505 -12.133  0.00  0.00     0.037 C 
BRANCH  22  23
ATOM     23  C   UNL d   1       9.230   5.872 -11.446  0.00  0.00     0.026 C 
BRANCH  23  24
ATOM     24  C   UNL d   1       9.167   5.816  -9.918  0.00  0.00     0.104 C 
BRANCH  24  25
ATOM     25  N   UNL d   1       9.466   7.104  -9.280  0.00  0.00    -0.320 N 
ATOM     26  C   UNL d   1       9.340   7.241  -7.942  0.00  0.00     0.234 C 
ATOM     27  C   UNL d   1       9.652   8.607  -7.295  0.00  0.00     0.096 C 
ATOM     28  O   UNL d   1       8.968   6.323  -7.217  0.00  0.00    -0.272 OA
ATOM     29  C   UNL d   1      11.098   9.161  -7.483  0.00  0.00     0.074 C 
ATOM     30  C   UNL d   1      11.964   8.463  -8.535  0.00  0.00     0.153 C 
ATOM     31  C   UNL d   1      11.477   8.408  -9.972  0.00  0.00     0.089 C 
ATOM     32  O   UNL d   1      13.053   8.002  -8.236  0.00  0.00    -0.296 OA
ATOM     33  C   UNL d   1       9.960   8.216 -10.117  0.00  0.00     0.112 C 
ENDBRANCH  24  25
ENDBRANCH  23  24
ENDBRANCH  22  23
ENDBRANCH  21  22
ENDBRANCH   4  21
TORSDOF 8
