REMARK  8 active torsions:
REMARK  status: ('A' for Active; 'I' for Inactive)
REMARK    1  A    between atoms: S_2  and  N_4 
REMARK    2  A    between atoms: S_2  and  C_25 
REMARK    3  A    between atoms: N_4  and  C_5 
REMARK    4  A    between atoms: N_8  and  C_9 
REMARK    5  A    between atoms: C_9  and  C_10 
REMARK    6  A    between atoms: C_10  and  O_11 
REMARK    7  A    between atoms: O_11  and  C_12 
REMARK    8  A    between atoms: C_17  and  C_18 
ROOT
ATOM      1  C   UNL d   1      10.029   6.952  -7.818  0.00  0.00     0.151 C 
ATOM      2  C   UNL d   1       8.679   6.342  -7.407  0.00  0.00     0.063 C 
ATOM      3  C   UNL d   1       8.303   5.582  -8.652  0.00  0.00     0.253 C 
ATOM      4  N   UNL d   1       9.563   5.335  -9.348  0.00  0.00     0.142 N 
ATOM      5  C   UNL d   1      10.255   6.601  -9.281  0.00  0.00     0.275 C 
ENDROOT
BRANCH   4   6
ATOM      6  C   UNL d   1       9.410   4.898 -10.721  0.00  0.00     0.283 C 
BRANCH   6   7
ATOM      7  C   UNL d   1       8.118   5.359 -11.446  0.00  0.00     0.184 C 
BRANCH   7   8
ATOM      8  O   UNL d   1       7.808   4.469 -12.494  0.00  0.00    -0.329 OA
BRANCH   8   9
ATOM      9  C   UNL d   1       8.657   4.288 -13.534  0.00  0.00     0.094 A 
ATOM     10  C   UNL d   1       8.440   3.151 -14.357  0.00  0.00     0.022 A 
ATOM     11  C   UNL d   1       9.339   2.927 -15.406  0.00  0.00     0.002 A 
ATOM     12  C   UNL d   1      10.417   3.799 -15.658  0.00  0.00     0.000 A 
ATOM     13  C   UNL d   1      10.607   4.934 -14.861  0.00  0.00     0.002 A 
ATOM     14  C   UNL d   1       9.723   5.193 -13.806  0.00  0.00     0.024 A 
BRANCH  10  15
ATOM     15  C   UNL d   1       7.309   2.200 -14.110  0.00  0.00     0.002 A 
ATOM     16  C   UNL d   1       6.070   2.601 -13.545  0.00  0.00     0.000 A 
ATOM     17  C   UNL d   1       5.075   1.661 -13.242  0.00  0.00     0.000 A 
ATOM     18  C   UNL d   1       5.226   0.320 -13.582  0.00  0.00     0.000 A 
ATOM     19  C   UNL d   1       6.428  -0.112 -14.167  0.00  0.00     0.000 A 
ATOM     20  C   UNL d   1       7.464   0.822 -14.414  0.00  0.00     0.000 A 
ENDBRANCH  10  15
ENDBRANCH   8   9
ENDBRANCH   7   8
ENDBRANCH   6   7
ENDBRANCH   4   6
BRANCH   1  21
ATOM     21  N   UNL d   1       9.990   8.400  -7.622  0.00  0.00    -0.184 NA
BRANCH  21  22
ATOM     22  S   UNL d   1      11.397   9.114  -6.987  0.00  0.00     0.287 S 
ATOM     23  O   UNL d   1      12.508   8.688  -7.851  0.00  0.00    -0.198 OA
ATOM     24  O   UNL d   1      11.160  10.520  -6.695  0.00  0.00    -0.198 OA
BRANCH  22  25
ATOM     25  C   UNL d   1      11.639   8.384  -5.386  0.00  0.00     0.135 A 
ATOM     26  S   UNL d   1      12.195   9.448  -4.137  0.00  0.00    -0.062 SA
ATOM     27  C   UNL d   1      12.241   8.138  -3.019  0.00  0.00     0.088 A 
ATOM     28  C   UNL d   1      11.799   6.950  -3.568  0.00  0.00     0.019 A 
ATOM     29 CL   UNL d   1      12.835   8.463  -1.461  0.00  0.00    -0.075 Cl
ATOM     30  C   UNL d   1      11.460   7.105  -4.945  0.00  0.00     0.021 A 
ENDBRANCH  22  25
ENDBRANCH  21  22
ENDBRANCH   1  21
TORSDOF 8
