REMARK  8 active torsions:
REMARK  status: ('A' for Active; 'I' for Inactive)
REMARK    1  A    between atoms: O_2  and  C_3 
REMARK    2  A    between atoms: C_6  and  C_7 
REMARK    3  A    between atoms: N_10  and  C_11 
REMARK    4  A    between atoms: C_11  and  C_12 
REMARK    5  A    between atoms: C_12  and  C_13 
REMARK    6  A    between atoms: C_13  and  C_14 
REMARK    7  A    between atoms: C_14  and  N_15 
REMARK    8  A    between atoms: C_19  and  C_20 
ROOT
ATOM      1  C   UNL d   1      10.247   3.381 -19.388  0.00  0.00     0.072 A 
ATOM      2  C   UNL d   1       9.608   2.490 -18.418  0.00  0.00     0.266 A 
ATOM      3  O   UNL d   1       8.472   2.688 -17.981  0.00  0.00    -0.267 OA
ATOM      4  N   UNL d   1      10.372   1.374 -18.010  0.00  0.00    -0.249 N 
ATOM      5  C   UNL d   1      11.635   1.050 -18.537  0.00  0.00     0.338 A 
ATOM      6  O   UNL d   1      12.252   0.051 -18.160  0.00  0.00    -0.246 OA
ATOM      7  N   UNL d   1      12.157   1.894 -19.537  0.00  0.00    -0.259 N 
ATOM      8  C   UNL d   1      13.385   1.592 -20.119  0.00  0.00     0.085 A 
ATOM      9  C   UNL d   1      13.925   2.367 -21.080  0.00  0.00     0.019 A 
ATOM     10  C   UNL d   1      13.237   3.557 -21.530  0.00  0.00     0.003 A 
ATOM     11  C   UNL d   1      12.063   3.883 -20.971  0.00  0.00     0.018 A 
ATOM     12  C   UNL d   1      11.450   3.038 -19.938  0.00  0.00     0.073 A 
ENDROOT
BRANCH   4  13
ATOM     13  C   UNL d   1       9.849   0.532 -16.941  0.00  0.00     0.114 C 
BRANCH  13  14
ATOM     14  C   UNL d   1      10.294   0.946 -15.518  0.00  0.00     0.027 C 
BRANCH  14  15
ATOM     15  C   UNL d   1       9.862   2.374 -15.155  0.00  0.00     0.037 C 
BRANCH  15  16
ATOM     16  C   UNL d   1       9.798   2.643 -13.662  0.00  0.00     0.250 C 
BRANCH  16  17
ATOM     17  N   UNL d   1       9.319   3.987 -13.381  0.00  0.00     0.137 N 
ATOM     18  C   UNL d   1       9.579   4.277 -11.979  0.00  0.00     0.255 C 
ATOM     19  C   UNL d   1       9.195   5.723 -11.577  0.00  0.00     0.057 C 
ATOM     20  C   UNL d   1       7.705   5.939 -11.858  0.00  0.00     0.009 C 
ATOM     21  C   UNL d   1       7.400   5.496 -13.260  0.00  0.00     0.036 C 
ATOM     22  C   UNL d   1       7.874   4.084 -13.583  0.00  0.00     0.250 C 
BRANCH  19  23
ATOM     23  C   UNL d   1       9.462   5.985 -10.137  0.00  0.00     0.000 A 
ATOM     24  C   UNL d   1      10.045   7.176  -9.571  0.00  0.00     0.015 A 
ATOM     25  C   UNL d   1      10.108   7.016  -8.155  0.00  0.00     0.081 A 
ATOM     26  C   UNL d   1      10.533   8.384 -10.107  0.00  0.00     0.001 A 
ATOM     27  N   UNL d   1       9.562   5.787  -7.899  0.00  0.00    -0.244 NA
ATOM     28  C   UNL d   1      10.649   7.997  -7.308  0.00  0.00     0.019 A 
ATOM     29  C   UNL d   1       9.166   5.171  -9.072  0.00  0.00     0.095 A 
ATOM     30  C   UNL d   1      11.135   9.187  -7.875  0.00  0.00     0.002 A 
ATOM     31  C   UNL d   1      11.063   9.376  -9.271  0.00  0.00     0.000 A 
ENDBRANCH  19  23
ENDBRANCH  16  17
ENDBRANCH  15  16
ENDBRANCH  14  15
ENDBRANCH  13  14
ENDBRANCH   4  13
BRANCH   1  32
ATOM     32  C   UNL d   1       9.510   4.594 -19.796  0.00  0.00     0.006 A 
ATOM     33  C   UNL d   1       9.322   5.642 -18.870  0.00  0.00     0.002 A 
ATOM     34  C   UNL d   1       8.602   6.790 -19.245  0.00  0.00     0.024 A 
ATOM     35  C   UNL d   1       8.069   6.912 -20.546  0.00  0.00     0.094 A 
ATOM     36  C   UNL d   1       8.254   5.852 -21.467  0.00  0.00     0.024 A 
ATOM     37  C   UNL d   1       8.960   4.694 -21.091  0.00  0.00     0.002 A 
BRANCH  35  38
ATOM     38  O   UNL d   1       7.394   8.077 -20.838  0.00  0.00    -0.328 OA
ATOM     39  C   UNL d   1       6.815   8.207 -22.128  0.00  0.00     0.181 C 
ENDBRANCH  35  38
ENDBRANCH   1  32
TORSDOF 8
