REMARK  0 active torsions:
REMARK  status: ('A' for Active; 'I' for Inactive)
ROOT
ATOM      1  C   UNL d   1      10.950   6.941  -6.588  0.00  0.00     0.062 C 
ATOM      2  C   UNL d   1       9.680   7.243  -7.351  0.00  0.00     0.116 C 
ATOM      3  N   UNL d   1       9.062   8.338  -7.242  0.00  0.00    -0.145 N 
ATOM      4  S   UNL d   1       9.063   5.988  -8.439  0.00  0.00    -0.033 SA
ENDROOT
TORSDOF 0
