REMARK  3 active torsions:
REMARK  status: ('A' for Active; 'I' for Inactive)
REMARK    1  A    between atoms: S_2  and  C_4 
REMARK    2  A    between atoms: S_2  and  N_11 
REMARK    3  A    between atoms: C_15  and  N_16 
ROOT
ATOM      1  N   UNL d   1       8.788   2.289 -15.405  0.00  0.00    -0.231 N 
ATOM      2  C   UNL d   1       7.480   2.022 -14.948  0.00  0.00     0.092 A 
ATOM      3  C   UNL d   1       6.856   1.105 -15.729  0.00  0.00     0.024 A 
ATOM      4  C   UNL d   1       7.836   0.773 -16.694  0.00  0.00     0.052 A 
ATOM      5  C   UNL d   1       7.697  -0.174 -17.753  0.00  0.00     0.141 A 
ATOM      6  N   UNL d   1       8.784  -0.461 -18.524  0.00  0.00    -0.229 NA
ATOM      7  C   UNL d   1       9.970   0.167 -18.368  0.00  0.00     0.084 A 
ATOM      8  C   UNL d   1      11.049  -0.150 -19.220  0.00  0.00     0.019 A 
ATOM      9  C   UNL d   1      12.295   0.482 -19.092  0.00  0.00     0.002 A 
ATOM     10  C   UNL d   1      12.491   1.455 -18.093  0.00  0.00     0.000 A 
ATOM     11  C   UNL d   1      11.428   1.788 -17.231  0.00  0.00     0.003 A 
ATOM     12  C   UNL d   1      10.167   1.164 -17.361  0.00  0.00     0.035 A 
ATOM     13  C   UNL d   1       9.069   1.457 -16.507  0.00  0.00     0.079 A 
ENDROOT
BRANCH   1  14
ATOM     14  S   UNL d   1       9.865   3.435 -14.659  0.00  0.00     0.271 S 
ATOM     15  O   UNL d   1      10.141   4.457 -15.680  0.00  0.00    -0.200 OA
ATOM     16  O   UNL d   1      10.954   2.622 -14.080  0.00  0.00    -0.200 OA
BRANCH  14  17
ATOM     17  C   UNL d   1       8.945   4.210 -13.315  0.00  0.00     0.105 A 
ATOM     18  C   UNL d   1       9.472   4.230 -12.014  0.00  0.00     0.024 A 
ATOM     19  C   UNL d   1       8.754   4.833 -10.965  0.00  0.00     0.059 A 
ATOM     20  C   UNL d   1       7.485   5.409 -11.218  0.00  0.00     0.011 A 
ATOM     21 CL   UNL d   1       9.390   4.864  -9.362  0.00  0.00    -0.082 Cl
ATOM     22  C   UNL d   1       6.936   5.351 -12.501  0.00  0.00     0.002 A 
ATOM     23  C   UNL d   1       7.681   4.788 -13.545  0.00  0.00     0.013 A 
ENDBRANCH  14  17
ENDBRANCH   1  14
BRANCH   5  24
ATOM     24  N   UNL d   1       6.506  -0.848 -18.058  0.00  0.00    -0.330 N 
ATOM     25  C   UNL d   1       6.521  -2.273 -18.416  0.00  0.00     0.141 C 
ATOM     26  C   UNL d   1       5.595  -3.085 -17.478  0.00  0.00     0.314 C 
ATOM     27  N   UNL d   1       4.256  -2.513 -17.468  0.00  0.00     0.343 N 
ATOM     28  C   UNL d   1       4.326  -1.147 -16.962  0.00  0.00     0.314 C 
ATOM     29  C   UNL d   1       5.163  -0.270 -17.934  0.00  0.00     0.141 C 
ENDBRANCH   5  24
TORSDOF 3
