REMARK  9 active torsions:
REMARK  status: ('A' for Active; 'I' for Inactive)
REMARK    1  A    between atoms: O_2  and  C_3 
REMARK    2  A    between atoms: C_9  and  C_10 
REMARK    3  A    between atoms: C_12  and  C_13 
REMARK    4  A    between atoms: C_13  and  N_14 
REMARK    5  A    between atoms: N_14  and  C_15 
REMARK    6  A    between atoms: C_15  and  C_16 
REMARK    7  A    between atoms: C_16  and  C_17 
REMARK    8  A    between atoms: C_17  and  O_18 
REMARK    9  A    between atoms: O_18  and  C_19 
ROOT
ATOM      1  C   UNL d   1       9.257   6.226 -10.797  0.00  0.00     0.293 C 
ENDROOT
BRANCH   1   2
ATOM      2  N   UNL d   1       9.768   6.362 -12.147  0.00  0.00     0.339 N 
BRANCH   2   3
ATOM      3  C   UNL d   1       9.177   5.391 -13.020  0.00  0.00     0.290 C 
BRANCH   3   4
ATOM      4  C   UNL d   1      10.010   5.156 -14.279  0.00  0.00     0.041 A 
ATOM      5  C   UNL d   1       9.777   3.910 -15.123  0.00  0.00     0.026 A 
ATOM      6  C   UNL d   1       9.374   5.264 -15.644  0.00  0.00     0.007 A 
BRANCH   5   7
ATOM      7  C   UNL d   1       8.712   2.870 -14.836  0.00  0.00     0.002 A 
ATOM      8  C   UNL d   1       8.930   1.501 -15.148  0.00  0.00     0.090 A 
ATOM      9  C   UNL d   1       7.918   0.541 -14.833  0.00  0.00     0.026 A 
ATOM     10  C   UNL d   1       6.719   0.941 -14.190  0.00  0.00     0.032 A 
ATOM     11  C   UNL d   1       6.517   2.304 -13.917  0.00  0.00     0.140 A 
ATOM     12  F   UNL d   1       5.421   2.712 -13.242  0.00  0.00    -0.204 F 
ATOM     13  C   UNL d   1       7.465   3.258 -14.284  0.00  0.00     0.027 A 
BRANCH   8  14
ATOM     14  O   UNL d   1      10.120   1.157 -15.777  0.00  0.00    -0.328 OA
ATOM     15  C   UNL d   1      10.278  -0.181 -16.217  0.00  0.00     0.181 C 
ENDBRANCH   8  14
ENDBRANCH   5   7
ENDBRANCH   3   4
ENDBRANCH   2   3
ENDBRANCH   1   2
BRANCH   1  16
ATOM     16  C   UNL d   1       9.867   7.357  -9.959  0.00  0.00     0.071 C 
BRANCH  16  17
ATOM     17  C   UNL d   1       9.290   7.355  -8.528  0.00  0.00     0.151 C 
BRANCH  17  18
ATOM     18  O   UNL d   1       9.943   8.364  -7.770  0.00  0.00    -0.331 OA
BRANCH  18  19
ATOM     19  C   UNL d   1      10.659   7.975  -6.684  0.00  0.00     0.096 A 
ATOM     20  C   UNL d   1      10.839   8.892  -5.624  0.00  0.00     0.043 A 
ATOM     21  C   UNL d   1      11.500   8.470  -4.461  0.00  0.00     0.082 A 
ATOM     22  C   UNL d   1      11.981   7.156  -4.350  0.00  0.00    -0.004 A 
ATOM     23  N   UNL d   1      11.741   9.332  -3.390  0.00  0.00    -0.212 NA
ATOM     24  C   UNL d   1      11.866   6.303  -5.421  0.00  0.00    -0.001 A 
ATOM     25  C   UNL d   1      12.765   6.704  -3.136  0.00  0.00     0.038 C 
ATOM     26  C   UNL d   1      11.217   6.686  -6.585  0.00  0.00     0.024 A 
ATOM     27  C   UNL d   1      12.274   7.400  -1.916  0.00  0.00     0.095 C 
ATOM     28  C   UNL d   1      12.122   8.858  -2.204  0.00  0.00     0.256 C 
ATOM     29  O   UNL d   1      12.255   9.585  -1.235  0.00  0.00    -0.270 OA
ENDBRANCH  18  19
ENDBRANCH  17  18
ENDBRANCH  16  17
ENDBRANCH   1  16
TORSDOF 9
