REMARK  7 active torsions:
REMARK  status: ('A' for Active; 'I' for Inactive)
REMARK    1  A    between atoms: C_6  and  S_7 
REMARK    2  A    between atoms: S_7  and  N_10 
REMARK    3  A    between atoms: N_10  and  C_11 
REMARK    4  A    between atoms: N_14  and  C_15 
REMARK    5  A    between atoms: C_15  and  C_16 
REMARK    6  A    between atoms: C_16  and  C_17 
REMARK    7  A    between atoms: C_17  and  C_18 
ROOT
ATOM      1  C   UNL d   1       7.309   5.026 -11.747  0.00  0.00     0.151 C 
ATOM      2  C   UNL d   1       7.639   6.456 -12.183  0.00  0.00     0.063 C 
ATOM      3  C   UNL d   1       8.841   6.805 -11.311  0.00  0.00     0.252 C 
ATOM      4  N   UNL d   1       8.670   5.985 -10.115  0.00  0.00     0.139 N 
ATOM      5  C   UNL d   1       8.283   4.682 -10.614  0.00  0.00     0.275 C 
ENDROOT
BRANCH   1   6
ATOM      6  N   UNL d   1       7.391   4.072 -12.848  0.00  0.00    -0.185 NA
BRANCH   6   7
ATOM      7  S   UNL d   1       8.802   3.920 -13.842  0.00  0.00     0.281 S 
ATOM      8  O   UNL d   1       9.952   3.634 -12.971  0.00  0.00    -0.199 OA
ATOM      9  O   UNL d   1       8.840   5.057 -14.768  0.00  0.00    -0.199 OA
BRANCH   7  10
ATOM     10  C   UNL d   1       8.464   2.469 -14.812  0.00  0.00     0.106 A 
ATOM     11  C   UNL d   1       9.547   1.882 -15.509  0.00  0.00     0.029 A 
ATOM     12  C   UNL d   1      10.951   2.156 -15.633  0.00  0.00     0.021 A 
ATOM     13  C   UNL d   1       9.249   0.743 -16.309  0.00  0.00     0.061 A 
ATOM     14  C   UNL d   1      11.455   1.208 -16.479  0.00  0.00     0.076 A 
ATOM     15  N   UNL d   1      10.449   0.349 -16.886  0.00  0.00    -0.324 N 
ATOM     16  C   UNL d   1      10.616  -0.777 -17.778  0.00  0.00     0.131 C 
ATOM     17  C   UNL d   1       7.943   0.226 -16.407  0.00  0.00     0.017 A 
ATOM     18  C   UNL d   1       6.889   0.835 -15.697  0.00  0.00     0.002 A 
ATOM     19  C   UNL d   1       7.150   1.961 -14.902  0.00  0.00     0.013 A 
ENDBRANCH   7  10
ENDBRANCH   6   7
ENDBRANCH   1   6
BRANCH   4  20
ATOM     20  C   UNL d   1       9.899   5.927  -9.319  0.00  0.00     0.251 C 
BRANCH  20  21
ATOM     21  C   UNL d   1       9.939   7.073  -8.307  0.00  0.00     0.042 C 
BRANCH  21  22
ATOM     22  C   UNL d   1      11.332   7.245  -7.688  0.00  0.00     0.050 C 
BRANCH  22  23
ATOM     23  C   UNL d   1      11.345   8.273  -6.593  0.00  0.00     0.088 A 
ATOM     24  C   UNL d   1      11.554   8.129  -5.206  0.00  0.00     0.041 A 
ATOM     25  C   UNL d   1      11.517   9.390  -4.610  0.00  0.00     0.126 A 
ATOM     26  C   UNL d   1      11.830   6.993  -4.413  0.00  0.00     0.003 A 
ATOM     27  O   UNL d   1      11.267  10.277  -5.645  0.00  0.00    -0.211 OA
ATOM     28  C   UNL d   1      11.723   9.589  -3.240  0.00  0.00     0.027 A 
ATOM     29  N   UNL d   1      11.177   9.565  -6.873  0.00  0.00    -0.131 NA
ATOM     30  C   UNL d   1      11.983   8.455  -2.441  0.00  0.00     0.002 A 
ATOM     31  C   UNL d   1      12.040   7.165  -3.025  0.00  0.00     0.000 A 
ENDBRANCH  22  23
ENDBRANCH  21  22
ENDBRANCH  20  21
ENDBRANCH   4  20
TORSDOF 7
