REMARK  11 active torsions:
REMARK  status: ('A' for Active; 'I' for Inactive)
REMARK    1  A    between atoms: C_6  and  C_7 
REMARK    2  A    between atoms: C_7  and  C_9 
REMARK    3  A    between atoms: C_9  and  N_10 
REMARK    4  A    between atoms: N_10  and  C_11 
REMARK    5  A    between atoms: C_11  and  C_12 
REMARK    6  A    between atoms: C_12  and  C_13 
REMARK    7  A    between atoms: C_17  and  C_18 
REMARK    8  A    between atoms: C_18  and  N_19 
REMARK    9  A    between atoms: N_19  and  C_20 
REMARK   10  A    between atoms: C_20  and  C_21 
REMARK   11  A    between atoms: C_21  and  C_22 
ROOT
ATOM      1  C   UNL d   1       6.898   3.626 -12.439  0.00  0.00     0.295 C 
ENDROOT
BRANCH   1   2
ATOM      2  N   UNL d   1       6.213   3.002 -13.582  0.00  0.00     0.343 N 
BRANCH   2   3
ATOM      3  C   UNL d   1       7.138   2.571 -14.636  0.00  0.00     0.327 C 
BRANCH   3   4
ATOM      4  C   UNL d   1       7.462   1.054 -14.584  0.00  0.00     0.210 C 
ATOM      5  O   UNL d   1       8.784   0.828 -15.028  0.00  0.00    -0.216 OA
BRANCH   4   6
ATOM      6  C   UNL d   1       6.425   0.241 -15.359  0.00  0.00     0.011 A 
ATOM      7  C   UNL d   1       6.315   0.311 -16.777  0.00  0.00     0.018 A 
ATOM      8  C   UNL d   1       7.185   1.121 -17.649  0.00  0.00     0.006 A 
ATOM      9  C   UNL d   1       5.321  -0.446 -17.443  0.00  0.00     0.110 A 
ATOM     10  C   UNL d   1       7.037   1.147 -18.984  0.00  0.00     0.063 A 
ATOM     11  C   UNL d   1       5.975   0.396 -19.663  0.00  0.00     0.279 A 
ATOM     12  O   UNL d   1       5.781   0.450 -20.873  0.00  0.00    -0.265 OA
ATOM     13  N   UNL d   1       5.199  -0.352 -18.857  0.00  0.00    -0.206 NA
ATOM     14  C   UNL d   1       4.445  -1.276 -16.715  0.00  0.00     0.149 A 
ATOM     15  C   UNL d   1       4.552  -1.346 -15.319  0.00  0.00     0.029 A 
ATOM     16  O   UNL d   1       3.485  -2.004 -17.362  0.00  0.00    -0.189 OA
ATOM     17  C   UNL d   1       5.535  -0.591 -14.645  0.00  0.00     0.000 A 
ENDBRANCH   4   6
ENDBRANCH   3   4
ENDBRANCH   2   3
ENDBRANCH   1   2
BRANCH   1  18
ATOM     18  C   UNL d   1       6.619   5.103 -12.294  0.00  0.00     0.065 C 
BRANCH  18  19
ATOM     19  C   UNL d   1       7.779   5.803 -11.636  0.00  0.00    -0.020 A 
ATOM     20  C   UNL d   1       8.248   5.431 -10.355  0.00  0.00    -0.007 A 
ATOM     21  C   UNL d   1       9.292   6.132  -9.737  0.00  0.00     0.001 A 
ATOM     22  C   UNL d   1       9.910   7.204 -10.423  0.00  0.00    -0.002 A 
ATOM     23  C   UNL d   1       9.457   7.569 -11.703  0.00  0.00    -0.001 A 
ATOM     24  C   UNL d   1       8.403   6.868 -12.314  0.00  0.00    -0.004 A 
BRANCH  21  25
ATOM     25  C   UNL d   1       9.721   5.768  -8.327  0.00  0.00     0.146 C 
BRANCH  25  26
ATOM     26  N   UNL d   1       9.074   6.570  -7.282  0.00  0.00    -0.290 NA
BRANCH  26  27
ATOM     27  C   UNL d   1       9.399   7.995  -7.310  0.00  0.00     0.127 C 
BRANCH  27  28
ATOM     28  C   UNL d   1      10.897   8.303  -7.052  0.00  0.00     0.072 C 
BRANCH  28  29
ATOM     29  C   UNL d   1      11.270   8.206  -5.584  0.00  0.00     0.061 A 
ATOM     30  N   UNL d   1      11.444   9.382  -4.940  0.00  0.00    -0.248 NA
ATOM     31  C   UNL d   1      11.847   9.347  -3.655  0.00  0.00     0.099 A 
ATOM     32  C   UNL d   1      12.074   8.152  -2.949  0.00  0.00     0.021 A 
ATOM     33  C   UNL d   1      11.859   6.928  -3.611  0.00  0.00     0.003 A 
ATOM     34  C   UNL d   1      11.453   6.958  -4.957  0.00  0.00     0.015 A 
ENDBRANCH  28  29
ENDBRANCH  27  28
ENDBRANCH  26  27
ENDBRANCH  25  26
ENDBRANCH  21  25
ENDBRANCH  18  19
ENDBRANCH   1  18
TORSDOF 11
