REMARK  7 active torsions:
REMARK  status: ('A' for Active; 'I' for Inactive)
REMARK    1  A    between atoms: C_2  and  C_3 
REMARK    2  A    between atoms: N_15  and  C_16 
REMARK    3  A    between atoms: C_16  and  C_18 
REMARK    4  A    between atoms: C_18  and  C_19 
REMARK    5  A    between atoms: C_19  and  S_20 
REMARK    6  A    between atoms: S_20  and  C_21 
REMARK    7  A    between atoms: C_24  and  C_25 
ROOT
ATOM      1  C   UNL d   1       7.346  -0.384 -21.171  0.00  0.00     0.045 C 
ENDROOT
BRANCH   1   2
ATOM      2  C   UNL d   1       8.876  -0.623 -21.357  0.00  0.00     0.220 C 
ATOM      3  C   UNL d   1       9.096  -1.902 -22.201  0.00  0.00     0.035 C 
BRANCH   2   4
ATOM      4  N   UNL d   1       9.574   0.542 -21.967  0.00  0.00     0.136 N 
ATOM      5  C   UNL d   1       9.286   1.889 -21.442  0.00  0.00     0.255 C 
ATOM      6  C   UNL d   1       9.664   2.030 -19.923  0.00  0.00     0.061 C 
ATOM      7  C   UNL d   1      11.102   2.397 -19.660  0.00  0.00    -0.026 A 
ATOM      8  C   UNL d   1      12.153   1.543 -20.087  0.00  0.00    -0.023 A 
ATOM      9  C   UNL d   1      11.455   3.642 -18.968  0.00  0.00    -0.002 A 
ATOM     10  C   UNL d   1      13.500   1.854 -19.867  0.00  0.00     0.017 A 
ATOM     11  C   UNL d   1      11.826   0.215 -20.780  0.00  0.00     0.061 C 
ATOM     12  C   UNL d   1      13.850   3.065 -19.207  0.00  0.00     0.105 A 
ATOM     13  N   UNL d   1      15.059   3.554 -18.780  0.00  0.00    -0.224 NA
ATOM     14  C   UNL d   1      12.789   3.910 -18.796  0.00  0.00     0.115 A 
ATOM     15  C   UNL d   1      14.712   4.692 -18.157  0.00  0.00     0.159 A 
ATOM     16  O   UNL d   1      13.383   5.006 -18.163  0.00  0.00    -0.292 OA
ATOM     17  C   UNL d   1      11.027   0.362 -22.095  0.00  0.00     0.255 C 
ATOM     18  C   UNL d   1      10.380   4.617 -18.497  0.00  0.00     0.033 C 
BRANCH  15  19
ATOM     19  C   UNL d   1      15.652   5.663 -17.525  0.00  0.00     0.072 C 
ATOM     20  C   UNL d   1      16.086   6.753 -18.509  0.00  0.00     0.009 C 
ENDBRANCH  15  19
ENDBRANCH   2   4
ENDBRANCH   1   2
BRANCH   1  21
ATOM     21  C   UNL d   1       6.606  -1.437 -20.313  0.00  0.00     0.067 C 
BRANCH  21  22
ATOM     22  S   UNL d   1       7.459  -1.901 -18.765  0.00  0.00    -0.075 SA
BRANCH  22  23
ATOM     23  C   UNL d   1       7.764  -0.316 -18.061  0.00  0.00     0.193 A 
ATOM     24  N   UNL d   1       8.900  -0.051 -17.364  0.00  0.00    -0.289 N 
ATOM     25  C   UNL d   1       8.741   1.279 -17.055  0.00  0.00     0.167 A 
ATOM     26  C   UNL d   1       9.984  -0.920 -16.987  0.00  0.00     0.134 C 
ATOM     27  N   UNL d   1       7.588   1.763 -17.544  0.00  0.00    -0.128 NA
ATOM     28  N   UNL d   1       6.936   0.724 -18.159  0.00  0.00    -0.122 NA
BRANCH  25  29
ATOM     29  C   UNL d   1       9.674   2.056 -16.269  0.00  0.00     0.037 A 
ATOM     30  C   UNL d   1       9.210   2.804 -15.097  0.00  0.00     0.021 A 
ATOM     31  C   UNL d   1      10.115   3.656 -14.406  0.00  0.00     0.081 A 
ATOM     32  C   UNL d   1       7.866   2.743 -14.683  0.00  0.00     0.003 A 
ATOM     33  C   UNL d   1      11.454   3.725 -14.819  0.00  0.00     0.019 A 
ATOM     34  N   UNL d   1       9.712   4.434 -13.359  0.00  0.00    -0.250 NA
ATOM     35  C   UNL d   1      11.900   2.945 -15.915  0.00  0.00     0.002 A 
ATOM     36  C   UNL d   1      11.002   2.148 -16.639  0.00  0.00     0.003 A 
ATOM     37  C   UNL d   1       8.433   4.348 -12.961  0.00  0.00     0.059 A 
ATOM     38  C   UNL d   1       8.082   5.139 -11.732  0.00  0.00     0.052 C 
ATOM     39  C   UNL d   1       7.461   3.557 -13.597  0.00  0.00     0.015 A 
ENDBRANCH  25  29
ENDBRANCH  22  23
ENDBRANCH  21  22
ENDBRANCH   1  21
TORSDOF 7
