REMARK  9 active torsions:
REMARK  status: ('A' for Active; 'I' for Inactive)
REMARK    1  A    between atoms: C_2  and  C_5 
REMARK    2  A    between atoms: C_7  and  N_8 
REMARK    3  A    between atoms: N_11  and  C_12 
REMARK    4  A    between atoms: C_12  and  C_13 
REMARK    5  A    between atoms: C_13  and  C_14 
REMARK    6  A    between atoms: C_14  and  C_15 
REMARK    7  A    between atoms: C_15  and  N_16 
REMARK       I    between atoms: N_16  and  C_17 
REMARK    8  A    between atoms: C_17  and  C_19 
REMARK    9  A    between atoms: C_31  and  C_32 
ROOT
ATOM      1  N   UNL d   1       7.857   2.012 -14.786  0.00  0.00    -0.330 N 
ATOM      2  C   UNL d   1       7.027   2.995 -14.111  0.00  0.00     0.138 C 
ATOM      3  C   UNL d   1       7.843   4.289 -13.884  0.00  0.00     0.274 C 
ATOM      4  N   UNL d   1       9.094   4.006 -13.160  0.00  0.00     0.141 N 
ATOM      5  C   UNL d   1       9.908   3.098 -13.990  0.00  0.00     0.274 C 
ATOM      6  C   UNL d   1       9.173   1.770 -14.229  0.00  0.00     0.138 C 
ENDROOT
BRANCH   4   7
ATOM      7  C   UNL d   1       9.840   5.239 -12.953  0.00  0.00     0.251 C 
BRANCH   7   8
ATOM      8  C   UNL d   1       9.203   6.182 -11.901  0.00  0.00     0.037 C 
BRANCH   8   9
ATOM      9  C   UNL d   1       9.975   6.208 -10.575  0.00  0.00     0.029 C 
BRANCH   9  10
ATOM     10  C   UNL d   1       9.307   7.091  -9.528  0.00  0.00     0.129 C 
BRANCH  10  11
ATOM     11  N   UNL d   1      10.105   7.205  -8.319  0.00  0.00    -0.233 NA
ATOM     12  C   UNL d   1      10.774   8.313  -7.971  0.00  0.00     0.293 C 
ATOM     13  O   UNL d   1      10.984   9.245  -8.742  0.00  0.00    -0.264 OA
BRANCH  12  14
ATOM     14  C   UNL d   1      11.130   8.427  -6.545  0.00  0.00     0.139 A 
ATOM     15  N   UNL d   1      11.339   7.274  -5.801  0.00  0.00    -0.241 NA
ATOM     16  C   UNL d   1      11.654   7.591  -4.500  0.00  0.00     0.082 A 
ATOM     17  C   UNL d   1      11.632   9.013  -4.423  0.00  0.00     0.019 A 
ATOM     18  C   UNL d   1      11.965   6.787  -3.396  0.00  0.00     0.019 A 
ATOM     19  C   UNL d   1      11.311   9.518  -5.729  0.00  0.00     0.025 A 
ATOM     20  C   UNL d   1      11.909   9.588  -3.166  0.00  0.00     0.002 A 
ATOM     21  C   UNL d   1      12.262   8.791  -2.059  0.00  0.00     0.000 A 
ATOM     22  C   UNL d   1      12.273   7.389  -2.171  0.00  0.00     0.002 A 
ENDBRANCH  12  14
ENDBRANCH  10  11
ENDBRANCH   9  10
ENDBRANCH   8   9
ENDBRANCH   7   8
ENDBRANCH   4   7
BRANCH   1  23
ATOM     23  C   UNL d   1       7.438   1.363 -15.953  0.00  0.00     0.143 A 
ATOM     24  N   UNL d   1       8.214   1.486 -17.050  0.00  0.00    -0.214 NA
ATOM     25  C   UNL d   1       7.796   0.901 -18.174  0.00  0.00     0.140 A 
ATOM     26  N   UNL d   1       6.707   0.138 -18.281  0.00  0.00    -0.227 NA
ATOM     27  C   UNL d   1       5.930  -0.019 -17.189  0.00  0.00     0.157 A 
ATOM     28  C   UNL d   1       6.256   0.610 -15.968  0.00  0.00     0.060 A 
BRANCH  25  29
ATOM     29  C   UNL d   1       8.745   0.933 -19.386  0.00  0.00     0.052 C 
ATOM     30  C   UNL d   1       9.575   2.236 -19.403  0.00  0.00     0.008 C 
ATOM     31  C   UNL d   1       7.957   0.910 -20.716  0.00  0.00     0.008 C 
ATOM     32  C   UNL d   1       9.690  -0.281 -19.322  0.00  0.00     0.008 C 
ENDBRANCH  25  29
BRANCH  27  33
ATOM     33  C   UNL d   1       4.700  -0.912 -17.349  0.00  0.00     0.435 C 
ATOM     34  F   UNL d   1       3.973  -0.938 -16.233  0.00  0.00    -0.165 F 
ATOM     35  F   UNL d   1       3.940  -0.458 -18.347  0.00  0.00    -0.165 F 
ATOM     36  F   UNL d   1       5.073  -2.157 -17.638  0.00  0.00    -0.165 F 
ENDBRANCH  27  33
ENDBRANCH   1  23
TORSDOF 9
