REMARK  6 active torsions:
REMARK  status: ('A' for Active; 'I' for Inactive)
REMARK    1  A    between atoms: O_2  and  C_3 
REMARK    2  A    between atoms: C_12  and  C_13 
REMARK    3  A    between atoms: C_13  and  N_14 
REMARK    4  A    between atoms: N_14  and  C_16 
REMARK    5  A    between atoms: C_16  and  C_17 
REMARK    6  A    between atoms: C_17  and  C_18 
ROOT
ATOM      1  C   UNL d   1       9.313   5.299 -11.495  0.00  0.00     0.255 C 
ENDROOT
BRANCH   1   2
ATOM      2  C   UNL d   1       8.395   4.957 -12.694  0.00  0.00     0.056 C 
ATOM      3  C   UNL d   1       9.036   3.912 -13.613  0.00  0.00    -0.023 A 
ATOM      4  C   UNL d   1      10.413   4.032 -13.936  0.00  0.00    -0.004 A 
ATOM      5  C   UNL d   1       8.275   2.867 -14.203  0.00  0.00    -0.004 A 
ATOM      6  C   UNL d   1      11.039   3.098 -14.758  0.00  0.00     0.002 A 
ATOM      7  C   UNL d   1      10.300   2.047 -15.319  0.00  0.00     0.024 A 
ATOM      8  C   UNL d   1       8.911   1.924 -15.060  0.00  0.00     0.090 A 
ATOM      9  C   UNL d   1       6.768   2.734 -13.922  0.00  0.00     0.028 C 
ATOM     10  C   UNL d   1       6.126   3.983 -13.289  0.00  0.00     0.005 C 
ATOM     11  C   UNL d   1       7.001   4.549 -12.173  0.00  0.00     0.007 C 
BRANCH   8  12
ATOM     12  O   UNL d   1       8.121   0.921 -15.598  0.00  0.00    -0.328 OA
ATOM     13  C   UNL d   1       8.765  -0.012 -16.454  0.00  0.00     0.181 C 
ENDBRANCH   8  12
ENDBRANCH   1   2
BRANCH   1  14
ATOM     14  N   UNL d   1       8.996   6.537 -10.821  0.00  0.00     0.140 N 
ATOM     15  C   UNL d   1       9.197   7.720 -11.664  0.00  0.00     0.285 C 
BRANCH  14  16
ATOM     16  C   UNL d   1       9.819   6.614  -9.625  0.00  0.00     0.255 C 
BRANCH  16  17
ATOM     17  C   UNL d   1       9.406   7.715  -8.631  0.00  0.00     0.062 C 
BRANCH  17  18
ATOM     18  C   UNL d   1      10.199   7.726  -7.340  0.00  0.00    -0.018 A 
ATOM     19  C   UNL d   1      10.333   8.925  -6.609  0.00  0.00     0.021 A 
ATOM     20  C   UNL d   1      11.036   8.901  -5.392  0.00  0.00     0.100 A 
ATOM     21  C   UNL d   1      11.608   7.719  -4.860  0.00  0.00     0.025 A 
ATOM     22  O   UNL d   1      11.274   9.948  -4.526  0.00  0.00    -0.305 OA
ATOM     23  C   UNL d   1      11.455   6.537  -5.612  0.00  0.00     0.002 A 
ATOM     24  C   UNL d   1      12.251   8.083  -3.640  0.00  0.00     0.029 A 
ATOM     25  C   UNL d   1      10.770   6.536  -6.830  0.00  0.00    -0.004 A 
ATOM     26  C   UNL d   1      12.007   9.425  -3.488  0.00  0.00     0.123 A 
ENDBRANCH  17  18
ENDBRANCH  16  17
ENDBRANCH  14  16
ENDBRANCH   1  14
TORSDOF 6
