REMARK  7 active torsions:
REMARK  status: ('A' for Active; 'I' for Inactive)
REMARK    1  A    between atoms: C_2  and  C_3 
REMARK    2  A    between atoms: C_3  and  N_4 
REMARK    3  A    between atoms: N_4  and  C_5 
REMARK    4  A    between atoms: N_4  and  C_19 
REMARK    5  A    between atoms: C_5  and  C_6 
REMARK    6  A    between atoms: C_6  and  N_7 
REMARK    7  A    between atoms: N_10  and  C_11 
ROOT
ATOM      1  N   UNL d   1       8.696   4.246 -12.761  0.00  0.00     0.137 N 
ENDROOT
BRANCH   1   2
ATOM      2  C   UNL d   1       7.445   4.725 -13.350  0.00  0.00     0.250 C 
BRANCH   2   3
ATOM      3  C   UNL d   1       6.229   4.601 -12.431  0.00  0.00     0.035 C 
ATOM      4  C   UNL d   1       5.066   4.005 -13.227  0.00  0.00     0.002 C 
ENDBRANCH   2   3
ENDBRANCH   1   2
BRANCH   1   5
ATOM      5  C   UNL d   1       9.184   5.219 -11.756  0.00  0.00     0.285 C 
BRANCH   5   6
ATOM      6  C   UNL d   1       8.938   4.888 -10.275  0.00  0.00     0.286 C 
BRANCH   6   7
ATOM      7  N   UNL d   1       9.026   6.065  -9.387  0.00  0.00     0.143 N 
ATOM      8  C   UNL d   1      10.295   6.789  -9.477  0.00  0.00     0.274 C 
ATOM      9  C   UNL d   1      10.344   8.043  -8.590  0.00  0.00     0.137 C 
ATOM     10  N   UNL d   1      10.032   7.683  -7.212  0.00  0.00    -0.344 N 
ATOM     11  C   UNL d   1       8.793   6.931  -7.051  0.00  0.00     0.137 C 
ATOM     12  C   UNL d   1       8.774   5.709  -7.993  0.00  0.00     0.274 C 
BRANCH  10  13
ATOM     13  C   UNL d   1      10.896   7.984  -6.139  0.00  0.00     0.056 A 
ATOM     14  C   UNL d   1      11.043   7.111  -5.033  0.00  0.00     0.017 A 
ATOM     15  C   UNL d   1      11.857   7.444  -3.937  0.00  0.00     0.002 A 
ATOM     16  C   UNL d   1      12.584   8.652  -3.949  0.00  0.00     0.000 A 
ATOM     17  C   UNL d   1      12.510   9.493  -5.080  0.00  0.00     0.002 A 
ATOM     18  C   UNL d   1      11.650   9.177  -6.151  0.00  0.00     0.017 A 
ENDBRANCH  10  13
ENDBRANCH   6   7
ENDBRANCH   5   6
ENDBRANCH   1   5
BRANCH   1  19
ATOM     19  C   UNL d   1       9.713   3.850 -13.760  0.00  0.00     0.224 C 
ATOM     20  C   UNL d   1       9.294   2.711 -14.771  0.00  0.00     0.059 C 
ATOM     21  C   UNL d   1      10.364   2.392 -15.834  0.00  0.00    -0.026 A 
ATOM     22  C   UNL d   1      11.426   3.253 -16.094  0.00  0.00    -0.026 A 
ATOM     23  C   UNL d   1      10.312   1.255 -16.665  0.00  0.00     0.001 A 
ATOM     24  C   UNL d   1      11.594   4.538 -15.284  0.00  0.00     0.028 C 
ATOM     25  C   UNL d   1      12.404   2.999 -17.079  0.00  0.00    -0.003 A 
ATOM     26  C   UNL d   1      10.325   5.001 -14.582  0.00  0.00     0.038 C 
ATOM     27  C   UNL d   1      12.359   1.823 -17.881  0.00  0.00     0.019 A 
ATOM     28  C   UNL d   1      11.280   0.970 -17.640  0.00  0.00     0.081 A 
ATOM     29  N   UNL d   1      11.002  -0.240 -18.275  0.00  0.00    -0.212 NA
ATOM     30  C   UNL d   1       9.863  -0.730 -17.799  0.00  0.00     0.260 A 
ATOM     31  C   UNL d   1       9.265   0.139 -16.679  0.00  0.00     0.117 A 
ATOM     32  O   UNL d   1       9.300  -1.748 -18.210  0.00  0.00    -0.270 OA
ENDBRANCH   1  19
TORSDOF 7
