REMARK  3 active torsions:
REMARK  status: ('A' for Active; 'I' for Inactive)
REMARK    1  A    between atoms: N_2  and  C_3 
REMARK    2  A    between atoms: C_3  and  C_4 
REMARK    3  A    between atoms: C_4  and  C_5 
ROOT
ATOM      1  C   UNL d   1      10.984   7.898  -5.244  0.00  0.00    -0.021 A 
ATOM      2  C   UNL d   1      11.506   6.859  -4.448  0.00  0.00    -0.004 A 
ATOM      3  C   UNL d   1      12.153   7.148  -3.233  0.00  0.00    -0.000 A 
ATOM      4  C   UNL d   1      12.260   8.485  -2.800  0.00  0.00    -0.000 A 
ATOM      5  C   UNL d   1      11.733   9.524  -3.589  0.00  0.00    -0.000 A 
ATOM      6  C   UNL d   1      11.100   9.238  -4.813  0.00  0.00    -0.004 A 
ENDROOT
BRANCH   1   7
ATOM      7  C   UNL d   1      10.268   7.563  -6.541  0.00  0.00     0.048 C 
BRANCH   7   8
ATOM      8  C   UNL d   1      11.248   7.325  -7.689  0.00  0.00     0.123 C 
BRANCH   8   9
ATOM      9  N   UNL d   1      11.993   8.528  -8.059  0.00  0.00    -0.079 NA
ATOM     10  N   UNL d   1      12.732   8.384  -9.253  0.00  0.00    -0.062 N 
ENDBRANCH   8   9
ENDBRANCH   7   8
ENDBRANCH   1   7
TORSDOF 3
