REMARK  7 active torsions:
REMARK  status: ('A' for Active; 'I' for Inactive)
REMARK    1  A    between atoms: C_2  and  N_5 
REMARK    2  A    between atoms: N_5  and  C_6 
REMARK    3  A    between atoms: C_6  and  C_7 
REMARK    4  A    between atoms: C_7  and  C_9 
REMARK    5  A    between atoms: C_9  and  O_10 
REMARK    6  A    between atoms: O_10  and  C_11 
REMARK    7  A    between atoms: C_15  and  N_16 
ROOT
ATOM      1  C   UNL d   1       8.805   6.143 -10.808  0.00  0.00     0.222 C 
ATOM      2  N   UNL d   1       9.655   7.159 -10.847  0.00  0.00    -0.164 NA
ATOM      3  S   UNL d   1       9.063   8.156 -12.042  0.00  0.00     0.120 SA
ATOM      4  N   UNL d   1       7.845   7.178 -12.645  0.00  0.00    -0.171 NA
ATOM      5  C   UNL d   1       7.846   6.138 -11.868  0.00  0.00     0.191 C 
ENDROOT
BRANCH   1   6
ATOM      6  O   UNL d   1       8.855   5.274  -9.774  0.00  0.00    -0.309 OA
BRANCH   6   7
ATOM      7  C   UNL d   1       9.735   5.514  -8.684  0.00  0.00     0.185 C 
BRANCH   7   8
ATOM      8  C   UNL d   1       9.377   6.735  -7.794  0.00  0.00     0.206 C 
ATOM      9  O   UNL d   1       8.264   6.387  -7.007  0.00  0.00    -0.219 OA
BRANCH   8  10
ATOM     10  C   UNL d   1      10.516   7.113  -6.839  0.00  0.00     0.155 C 
BRANCH  10  11
ATOM     11  N   UNL d   1      10.179   8.367  -6.152  0.00  0.00    -0.297 NA
BRANCH  11  12
ATOM     12  C   UNL d   1      11.249   9.053  -5.420  0.00  0.00     0.080 C 
ATOM     13  C   UNL d   1      11.895   8.123  -4.375  0.00  0.00     0.024 C 
ATOM     14  C   UNL d   1      10.675  10.278  -4.680  0.00  0.00     0.024 C 
ATOM     15  C   UNL d   1      12.277   9.584  -6.421  0.00  0.00     0.024 C 
ENDBRANCH  11  12
ENDBRANCH  10  11
ENDBRANCH   8  10
ENDBRANCH   7   8
ENDBRANCH   6   7
ENDBRANCH   1   6
BRANCH   5  16
ATOM     16  N   UNL d   1       6.912   5.111 -12.037  0.00  0.00    -0.325 N 
ATOM     17  C   UNL d   1       7.319   3.733 -12.133  0.00  0.00     0.135 C 
ATOM     18  C   UNL d   1       6.827   3.129 -13.459  0.00  0.00     0.167 C 
ATOM     19  O   UNL d   1       5.418   3.256 -13.469  0.00  0.00    -0.350 OA
ATOM     20  C   UNL d   1       5.002   4.615 -13.486  0.00  0.00     0.167 C 
ATOM     21  C   UNL d   1       5.491   5.343 -12.214  0.00  0.00     0.135 C 
ENDBRANCH   5  16
TORSDOF 7
