REMARK  9 active torsions:
REMARK  status: ('A' for Active; 'I' for Inactive)
REMARK    1  A    between atoms: O_2  and  C_3 
REMARK    2  A    between atoms: C_6  and  C_7 
REMARK    3  A    between atoms: C_7  and  C_8 
REMARK    4  A    between atoms: C_8  and  N_10 
REMARK    5  A    between atoms: N_10  and  C_11 
REMARK    6  A    between atoms: C_11  and  C_12 
REMARK    7  A    between atoms: C_12  and  C_14 
REMARK    8  A    between atoms: C_19  and  N_20 
REMARK    9  A    between atoms: N_20  and  C_21 
ROOT
ATOM      1  C   UNL d   1       9.469   6.260 -11.165  0.00  0.00     0.157 C 
ENDROOT
BRANCH   1   2
ATOM      2  N   UNL d   1       9.865   7.605 -10.759  0.00  0.00    -0.294 NA
BRANCH   2   3
ATOM      3  C   UNL d   1      10.713   7.690  -9.587  0.00  0.00     0.102 C 
ATOM      4  C   UNL d   1      11.554   8.975  -9.666  0.00  0.00     0.026 C 
BRANCH   3   5
ATOM      5  C   UNL d   1       9.837   7.542  -8.318  0.00  0.00     0.050 C 
BRANCH   5   6
ATOM      6  C   UNL d   1      10.526   7.945  -7.017  0.00  0.00    -0.020 A 
ATOM      7  C   UNL d   1      10.969   9.255  -6.814  0.00  0.00    -0.002 A 
ATOM      8  C   UNL d   1      11.686   9.605  -5.679  0.00  0.00     0.024 A 
ATOM      9  C   UNL d   1      11.872   8.686  -4.636  0.00  0.00     0.094 A 
ATOM     10  C   UNL d   1      11.378   7.362  -4.789  0.00  0.00     0.024 A 
ATOM     11  C   UNL d   1      10.697   7.017  -5.977  0.00  0.00    -0.002 A 
BRANCH   9  12
ATOM     12  O   UNL d   1      12.565   9.128  -3.529  0.00  0.00    -0.328 OA
ATOM     13  C   UNL d   1      12.599   8.280  -2.400  0.00  0.00     0.181 C 
ENDBRANCH   9  12
ENDBRANCH   5   6
ENDBRANCH   3   5
ENDBRANCH   2   3
ENDBRANCH   1   2
BRANCH   1  14
ATOM     14  C   UNL d   1       8.020   6.190 -11.713  0.00  0.00     0.198 C 
ATOM     15  O   UNL d   1       7.689   7.351 -12.446  0.00  0.00    -0.216 OA
BRANCH  14  16
ATOM     16  C   UNL d   1       7.741   4.934 -12.528  0.00  0.00     0.011 A 
ATOM     17  C   UNL d   1       8.780   4.320 -13.258  0.00  0.00     0.020 A 
ATOM     18  C   UNL d   1       8.545   3.156 -14.033  0.00  0.00     0.110 A 
ATOM     19  C   UNL d   1       7.228   2.621 -14.069  0.00  0.00     0.149 A 
ATOM     20  C   UNL d   1       6.183   3.244 -13.350  0.00  0.00     0.029 A 
ATOM     21  O   UNL d   1       6.936   1.489 -14.784  0.00  0.00    -0.189 OA
ATOM     22  C   UNL d   1       6.435   4.400 -12.584  0.00  0.00     0.001 A 
BRANCH  18  23
ATOM     23  N   UNL d   1       9.588   2.496 -14.760  0.00  0.00    -0.202 NA
BRANCH  23  24
ATOM     24  C   UNL d   1      10.889   2.811 -14.899  0.00  0.00     0.337 C 
ATOM     25  O   UNL d   1      11.488   3.754 -14.375  0.00  0.00    -0.260 OA
ENDBRANCH  23  24
ENDBRANCH  18  23
ENDBRANCH  14  16
ENDBRANCH   1  14
TORSDOF 9
