REMARK  7 active torsions:
REMARK  status: ('A' for Active; 'I' for Inactive)
REMARK    1  A    between atoms: C_2  and  C_3 
REMARK       I    between atoms: C_2  and  N_9 
REMARK    2  A    between atoms: C_3  and  C_4 
REMARK    3  A    between atoms: N_9  and  C_10 
REMARK    4  A    between atoms: C_13  and  C_14 
REMARK    5  A    between atoms: C_14  and  C_15 
REMARK    6  A    between atoms: C_15  and  N_16 
REMARK    7  A    between atoms: C_19  and  C_20 
ROOT
ATOM      1  C   UNL d   1       9.201   6.617 -11.557  0.00  0.00     0.035 C 
ENDROOT
BRANCH   1   2
ATOM      2  C   UNL d   1       9.455   7.639 -10.455  0.00  0.00     0.002 C 
ATOM      3  C   UNL d   1       9.172   7.052  -9.048  0.00  0.00     0.002 C 
ATOM      4  C   UNL d   1       9.423   8.104  -7.981  0.00  0.00     0.024 C 
ATOM      5  C   UNL d   1      10.885   8.587  -8.062  0.00  0.00     0.106 C 
ATOM      6  C   UNL d   1      11.188   9.172  -9.428  0.00  0.00     0.024 C 
ATOM      7  C   UNL d   1      10.903   8.128 -10.492  0.00  0.00     0.002 C 
BRANCH   5   8
ATOM      8  N   UNL d   1      11.145   9.596  -7.082  0.00  0.00    -0.240 NA
ATOM      9  C   UNL d   1      11.233   9.401  -5.764  0.00  0.00     0.254 C 
ATOM     10  O   UNL d   1      11.236  10.378  -5.014  0.00  0.00    -0.271 OA
BRANCH   9  11
ATOM     11  C   UNL d   1      11.276   7.969  -5.229  0.00  0.00     0.119 C 
BRANCH  11  12
ATOM     12  C   UNL d   1      12.168   7.716  -4.011  0.00  0.00     0.125 C 
ATOM     13  O   UNL d   1      11.773   6.502  -3.392  0.00  0.00    -0.356 OA
ATOM     14  C   UNL d   1      12.413   6.461  -2.130  0.00  0.00     0.142 C 
ATOM     15  C   UNL d   1      12.380   7.951  -1.637  0.00  0.00     0.035 C 
ATOM     16  C   UNL d   1      12.109   8.741  -2.886  0.00  0.00     0.033 C 
ENDBRANCH  11  12
ENDBRANCH   9  11
ENDBRANCH   5   8
ENDBRANCH   1   2
BRANCH   1  17
ATOM     17  C   UNL d   1       7.735   6.153 -11.689  0.00  0.00     0.250 C 
BRANCH  17  18
ATOM     18  N   UNL d   1       7.555   5.178 -12.770  0.00  0.00     0.137 N 
ATOM     19  C   UNL d   1       8.462   4.041 -12.606  0.00  0.00     0.251 C 
ATOM     20  C   UNL d   1       8.298   3.065 -13.758  0.00  0.00     0.040 C 
ATOM     21  C   UNL d   1       6.857   2.541 -13.902  0.00  0.00     0.028 C 
ATOM     22  C   UNL d   1       5.863   3.710 -13.849  0.00  0.00     0.040 C 
ATOM     23  C   UNL d   1       6.178   4.701 -12.715  0.00  0.00     0.251 C 
BRANCH  21  24
ATOM     24  C   UNL d   1       6.694   1.638 -15.119  0.00  0.00     0.002 A 
ATOM     25  C   UNL d   1       5.877   0.497 -15.094  0.00  0.00     0.115 A 
ATOM     26  C   UNL d   1       5.687  -0.304 -16.215  0.00  0.00     0.119 A 
ATOM     27  O   UNL d   1       5.117   0.009 -14.073  0.00  0.00    -0.300 OA
ATOM     28  C   UNL d   1       6.334  -0.038 -17.428  0.00  0.00     0.026 A 
ATOM     29  O   UNL d   1       4.793  -1.287 -15.928  0.00  0.00    -0.300 OA
ATOM     30  C   UNL d   1       7.180   1.088 -17.478  0.00  0.00     0.002 A 
ATOM     31  C   UNL d   1       7.367   1.921 -16.355  0.00  0.00    -0.002 A 
ATOM     32  C   UNL d   1       4.452  -1.125 -14.581  0.00  0.00     0.304 A 
ENDBRANCH  21  24
ENDBRANCH  17  18
ENDBRANCH   1  17
TORSDOF 7
