REMARK  9 active torsions:
REMARK  status: ('A' for Active; 'I' for Inactive)
REMARK    1  A    between atoms: C_2  and  C_3 
REMARK    2  A    between atoms: C_3  and  C_4 
REMARK    3  A    between atoms: C_4  and  C_5 
REMARK    4  A    between atoms: C_5  and  C_6 
REMARK    5  A    between atoms: C_6  and  N_7 
REMARK       I    between atoms: N_7  and  C_8 
REMARK       I    between atoms: C_8  and  N_10 
REMARK       I    between atoms: C_11  and  N_13 
REMARK    6  A    between atoms: N_13  and  C_14 
REMARK    7  A    between atoms: C_14  and  C_15 
REMARK    8  A    between atoms: C_15  and  C_16 
REMARK    9  A    between atoms: C_16  and  C_17 
ROOT
ATOM      1  N   UNL d   1      10.060   3.586 -13.783  0.00  0.00    -0.217 NA
ATOM      2  C   UNL d   1       8.962   4.212 -13.356  0.00  0.00     0.367 C 
ATOM      3  O   UNL d   1       7.890   4.121 -13.965  0.00  0.00    -0.243 OA
ATOM      4  N   UNL d   1       9.259   4.933 -12.215  0.00  0.00    -0.159 NA
ATOM      5  C   UNL d   1       8.360   5.650 -11.608  0.00  0.00     0.237 C 
ATOM      6  N   UNL d   1       7.032   5.793 -11.956  0.00  0.00    -0.060 NA
ATOM      7  N   UNL d   1       8.669   6.384 -10.480  0.00  0.00    -0.241 NA
ENDROOT
BRANCH   7   8
ATOM      8  C   UNL d   1       9.950   6.349  -9.790  0.00  0.00     0.129 C 
BRANCH   8   9
ATOM      9  C   UNL d   1       9.960   7.270  -8.566  0.00  0.00     0.033 C 
BRANCH   9  10
ATOM     10  C   UNL d   1      11.350   7.370  -7.933  0.00  0.00     0.057 C 
BRANCH  10  11
ATOM     11  C   UNL d   1      11.384   8.252  -6.736  0.00  0.00     0.113 A 
ATOM     12  S   UNL d   1      11.451   7.616  -5.095  0.00  0.00    -0.029 SA
ATOM     13  C   UNL d   1      11.457   9.292  -4.593  0.00  0.00     0.236 A 
ATOM     14  N   UNL d   1      11.389  10.190  -5.578  0.00  0.00    -0.120 NA
ATOM     15  N   UNL d   1      11.497   9.626  -3.256  0.00  0.00    -0.118 N 
ATOM     16  N   UNL d   1      11.370   9.588  -6.823  0.00  0.00    -0.144 NA
ENDBRANCH  10  11
ENDBRANCH   9  10
ENDBRANCH   8   9
ENDBRANCH   7   8
BRANCH   1  17
ATOM     17  C   UNL d   1      10.173   2.786 -14.999  0.00  0.00     0.131 C 
BRANCH  17  18
ATOM     18  C   UNL d   1      10.365   3.657 -16.257  0.00  0.00     0.026 C 
BRANCH  18  19
ATOM     19  C   UNL d   1      11.632   4.516 -16.189  0.00  0.00     0.002 C 
BRANCH  19  20
ATOM     20  C   UNL d   1      11.870   5.357 -17.451  0.00  0.00     0.000 C 
BRANCH  20  21
ATOM     21  C   UNL d   1      13.152   6.203 -17.374  0.00  0.00     0.000 C 
ATOM     22  C   UNL d   1      13.120   7.278 -16.273  0.00  0.00     0.000 C 
ENDBRANCH  20  21
ENDBRANCH  19  20
ENDBRANCH  18  19
ENDBRANCH  17  18
ENDBRANCH   1  17
TORSDOF 9
