REMARK  8 active torsions:
REMARK  status: ('A' for Active; 'I' for Inactive)
REMARK    1  A    between atoms: O_2  and  C_3 
REMARK    2  A    between atoms: C_8  and  N_9 
REMARK    3  A    between atoms: N_12  and  C_13 
REMARK    4  A    between atoms: C_13  and  C_14 
REMARK    5  A    between atoms: C_19  and  C_20 
REMARK    6  A    between atoms: C_20  and  N_21 
REMARK       I    between atoms: N_21  and  C_22 
REMARK    7  A    between atoms: C_22  and  C_24 
REMARK    8  A    between atoms: C_25  and  C_26 
ROOT
ATOM      1  C   UNL d   1       9.859   2.981 -14.362  0.00  0.00     0.009 A 
ATOM      2  C   UNL d   1      10.881   2.248 -15.002  0.00  0.00    -0.003 A 
ATOM      3  C   UNL d   1      11.922   2.917 -15.659  0.00  0.00    -0.000 A 
ATOM      4  C   UNL d   1      11.986   4.321 -15.614  0.00  0.00    -0.000 A 
ATOM      5  C   UNL d   1      10.994   5.054 -14.933  0.00  0.00    -0.003 A 
ATOM      6  C   UNL d   1       9.902   4.392 -14.322  0.00  0.00     0.000 A 
ENDROOT
BRANCH   1   7
ATOM      7  C   UNL d   1       8.680   2.208 -13.811  0.00  0.00     0.277 C 
BRANCH   7   8
ATOM      8  N   UNL d   1       7.566   1.928 -14.730  0.00  0.00     0.145 N 
ATOM      9  C   UNL d   1       8.026   1.640 -16.092  0.00  0.00     0.275 C 
ATOM     10  C   UNL d   1       6.856   1.426 -17.032  0.00  0.00     0.137 C 
ATOM     11  N   UNL d   1       6.068   0.303 -16.558  0.00  0.00    -0.343 N 
ATOM     12  C   UNL d   1       5.651   0.360 -15.160  0.00  0.00     0.137 C 
ATOM     13  C   UNL d   1       6.847   0.728 -14.250  0.00  0.00     0.275 C 
BRANCH  11  14
ATOM     14  C   UNL d   1       5.828  -0.832 -17.344  0.00  0.00     0.079 A 
ATOM     15  C   UNL d   1       6.843  -1.427 -18.160  0.00  0.00     0.110 A 
ATOM     16  C   UNL d   1       6.523  -2.562 -18.940  0.00  0.00     0.026 A 
ATOM     17  C   UNL d   1       5.229  -3.111 -18.918  0.00  0.00     0.002 A 
ATOM     18  C   UNL d   1       4.234  -2.532 -18.109  0.00  0.00     0.002 A 
ATOM     19  C   UNL d   1       4.536  -1.407 -17.328  0.00  0.00     0.019 A 
BRANCH  15  20
ATOM     20  O   UNL d   1       8.111  -0.886 -18.098  0.00  0.00    -0.327 OA
ATOM     21  C   UNL d   1       9.149  -1.464 -18.852  0.00  0.00     0.181 C 
ENDBRANCH  15  20
ENDBRANCH  11  14
ENDBRANCH   7   8
ENDBRANCH   1   7
BRANCH   6  22
ATOM     22  C   UNL d   1       8.784   5.161 -13.631  0.00  0.00     0.155 C 
BRANCH  22  23
ATOM     23  N   UNL d   1       9.135   5.518 -12.258  0.00  0.00    -0.229 NA
ATOM     24  C   UNL d   1       9.210   6.761 -11.764  0.00  0.00     0.275 C 
ATOM     25  O   UNL d   1       9.004   7.771 -12.438  0.00  0.00    -0.266 OA
BRANCH  24  26
ATOM     26  C   UNL d   1       9.609   6.732 -10.369  0.00  0.00     0.062 C 
ATOM     27  C   UNL d   1      10.109   7.814  -9.748  0.00  0.00     0.005 C 
BRANCH  27  28
ATOM     28  C   UNL d   1      10.455   7.867  -8.314  0.00  0.00     0.000 A 
ATOM     29  C   UNL d   1       9.942   6.938  -7.379  0.00  0.00     0.000 A 
ATOM     30  C   UNL d   1      10.318   7.018  -6.024  0.00  0.00     0.000 A 
ATOM     31  C   UNL d   1      11.214   8.004  -5.585  0.00  0.00     0.000 A 
ATOM     32  C   UNL d   1      11.744   8.922  -6.512  0.00  0.00     0.000 A 
ATOM     33  C   UNL d   1      11.380   8.831  -7.873  0.00  0.00     0.000 A 
ENDBRANCH  27  28
ENDBRANCH  24  26
ENDBRANCH  22  23
ENDBRANCH   6  22
TORSDOF 8
