REMARK  6 active torsions:
REMARK  status: ('A' for Active; 'I' for Inactive)
REMARK    1  A    between atoms: C_6  and  N_7 
REMARK    2  A    between atoms: N_10  and  C_11 
REMARK    3  A    between atoms: C_11  and  C_12 
REMARK    4  A    between atoms: C_12  and  C_13 
REMARK    5  A    between atoms: C_17  and  N_18 
REMARK       I    between atoms: N_18  and  C_19 
REMARK    6  A    between atoms: C_19  and  C_21 
ROOT
ATOM      1  N   UNL d   1       7.115   3.043 -13.982  0.00  0.00    -0.344 N 
ATOM      2  C   UNL d   1       8.528   3.040 -13.744  0.00  0.00     0.137 C 
ATOM      3  C   UNL d   1       8.724   3.780 -12.393  0.00  0.00     0.274 C 
ATOM      4  N   UNL d   1       8.221   5.166 -12.413  0.00  0.00     0.141 N 
ATOM      5  C   UNL d   1       6.765   5.099 -12.619  0.00  0.00     0.274 C 
ATOM      6  C   UNL d   1       6.524   4.353 -13.942  0.00  0.00     0.137 C 
ENDROOT
BRANCH   4   7
ATOM      7  C   UNL d   1       8.397   5.800 -11.105  0.00  0.00     0.255 C 
BRANCH   7   8
ATOM      8  C   UNL d   1       9.852   5.780 -10.658  0.00  0.00     0.062 C 
BRANCH   8   9
ATOM      9  C   UNL d   1      10.235   6.946  -9.782  0.00  0.00    -0.019 A 
ATOM     10  C   UNL d   1      10.370   6.839  -8.373  0.00  0.00     0.015 A 
ATOM     11  C   UNL d   1      10.739   7.998  -7.622  0.00  0.00     0.084 A 
ATOM     12  C   UNL d   1      11.033   9.175  -8.296  0.00  0.00     0.019 A 
ATOM     13  C   UNL d   1      10.949   9.260  -9.676  0.00  0.00     0.001 A 
ATOM     14  C   UNL d   1      10.517   8.162 -10.428  0.00  0.00    -0.004 A 
BRANCH  11  15
ATOM     15  N   UNL d   1      10.804   7.933  -6.225  0.00  0.00    -0.208 NA
ATOM     16  C   UNL d   1      11.482   8.815  -5.441  0.00  0.00     0.279 C 
ATOM     17  O   UNL d   1      11.818   9.961  -5.721  0.00  0.00    -0.265 OA
BRANCH  16  18
ATOM     18  C   UNL d   1      11.812   8.256  -4.124  0.00  0.00     0.058 A 
ATOM     19  C   UNL d   1      11.964   6.852  -3.965  0.00  0.00     0.005 A 
ATOM     20  C   UNL d   1      12.415   6.413  -2.711  0.00  0.00     0.000 A 
ATOM     21  C   UNL d   1      12.648   7.291  -1.667  0.00  0.00     0.000 A 
ATOM     22  C   UNL d   1      12.538   8.683  -1.833  0.00  0.00     0.000 A 
ATOM     23  C   UNL d   1      12.086   9.172  -3.067  0.00  0.00     0.005 A 
ENDBRANCH  16  18
ENDBRANCH  11  15
ENDBRANCH   8   9
ENDBRANCH   7   8
ENDBRANCH   4   7
BRANCH   1  24
ATOM     24  C   UNL d   1       6.408   1.877 -14.379  0.00  0.00     0.058 A 
ATOM     25  C   UNL d   1       6.575   1.317 -15.659  0.00  0.00     0.033 A 
ATOM     26  C   UNL d   1       7.436   1.859 -16.641  0.00  0.00     0.004 A 
ATOM     27  C   UNL d   1       5.764   0.199 -16.036  0.00  0.00     0.082 A 
ATOM     28  C   UNL d   1       7.503   1.266 -17.912  0.00  0.00     0.015 A 
ATOM     29  C   UNL d   1       6.676   0.155 -18.173  0.00  0.00     0.059 A 
ATOM     30  C   UNL d   1       6.746  -0.572 -19.495  0.00  0.00     0.052 C 
ATOM     31  N   UNL d   1       5.817  -0.347 -17.265  0.00  0.00    -0.250 NA
ATOM     32  C   UNL d   1       4.837  -0.296 -15.100  0.00  0.00     0.019 A 
ATOM     33  C   UNL d   1       4.684   0.288 -13.838  0.00  0.00     0.003 A 
ATOM     34  C   UNL d   1       5.471   1.394 -13.472  0.00  0.00     0.017 A 
ENDBRANCH   1  24
TORSDOF 6
