REMARK  7 active torsions:
REMARK  status: ('A' for Active; 'I' for Inactive)
REMARK    1  A    between atoms: C_2  and  C_3 
REMARK       I    between atoms: C_2  and  N_9 
REMARK    2  A    between atoms: C_3  and  C_4 
REMARK    3  A    between atoms: N_9  and  C_10 
REMARK    4  A    between atoms: C_13  and  C_14 
REMARK    5  A    between atoms: C_14  and  C_15 
REMARK    6  A    between atoms: C_15  and  N_16 
REMARK    7  A    between atoms: C_19  and  C_20 
ROOT
ATOM      1  C   UNL d   1       9.270   6.305 -11.471  0.00  0.00     0.035 C 
ENDROOT
BRANCH   1   2
ATOM      2  C   UNL d   1       9.457   7.357 -10.383  0.00  0.00     0.002 C 
ATOM      3  C   UNL d   1       9.191   6.790  -8.971  0.00  0.00     0.002 C 
ATOM      4  C   UNL d   1       9.399   7.879  -7.914  0.00  0.00     0.024 C 
ATOM      5  C   UNL d   1      10.820   8.489  -7.997  0.00  0.00     0.106 C 
ATOM      6  C   UNL d   1      11.065   9.059  -9.404  0.00  0.00     0.024 C 
ATOM      7  C   UNL d   1      10.870   7.953 -10.414  0.00  0.00     0.002 C 
BRANCH   5   8
ATOM      8  N   UNL d   1      11.003   9.542  -7.032  0.00  0.00    -0.240 NA
ATOM      9  C   UNL d   1      11.061   9.376  -5.701  0.00  0.00     0.254 C 
ATOM     10  O   UNL d   1      11.009  10.321  -4.923  0.00  0.00    -0.271 OA
BRANCH   9  11
ATOM     11  C   UNL d   1      11.116   7.936  -5.155  0.00  0.00     0.119 C 
BRANCH  11  12
ATOM     12  C   UNL d   1      12.090   7.714  -3.985  0.00  0.00     0.125 C 
ATOM     13  O   UNL d   1      11.676   6.577  -3.239  0.00  0.00    -0.356 OA
ATOM     14  C   UNL d   1      12.456   6.595  -2.043  0.00  0.00     0.142 C 
ATOM     15  C   UNL d   1      12.475   8.078  -1.647  0.00  0.00     0.035 C 
ATOM     16  C   UNL d   1      12.171   8.827  -2.955  0.00  0.00     0.033 C 
ENDBRANCH  11  12
ENDBRANCH   9  11
ENDBRANCH   5   8
ENDBRANCH   1   2
BRANCH   1  17
ATOM     17  C   UNL d   1       7.856   5.700 -11.560  0.00  0.00     0.250 C 
BRANCH  17  18
ATOM     18  N   UNL d   1       7.685   4.852 -12.748  0.00  0.00     0.137 N 
ATOM     19  C   UNL d   1       8.722   3.817 -12.796  0.00  0.00     0.251 C 
ATOM     20  C   UNL d   1       8.562   2.964 -14.055  0.00  0.00     0.040 C 
ATOM     21  C   UNL d   1       7.177   2.312 -14.164  0.00  0.00     0.028 C 
ATOM     22  C   UNL d   1       6.092   3.373 -13.942  0.00  0.00     0.040 C 
ATOM     23  C   UNL d   1       6.358   4.237 -12.688  0.00  0.00     0.251 C 
BRANCH  21  24
ATOM     24  C   UNL d   1       7.008   1.583 -15.500  0.00  0.00     0.002 A 
ATOM     25  C   UNL d   1       6.109   0.498 -15.612  0.00  0.00     0.115 A 
ATOM     26  C   UNL d   1       5.917  -0.161 -16.812  0.00  0.00     0.119 A 
ATOM     27  O   UNL d   1       5.290  -0.038 -14.669  0.00  0.00    -0.300 OA
ATOM     28  C   UNL d   1       6.622   0.206 -17.974  0.00  0.00     0.026 A 
ATOM     29  O   UNL d   1       4.974  -1.124 -16.656  0.00  0.00    -0.300 OA
ATOM     30  C   UNL d   1       7.535   1.273 -17.884  0.00  0.00     0.002 A 
ATOM     31  C   UNL d   1       7.726   1.964 -16.654  0.00  0.00    -0.002 A 
ATOM     32  C   UNL d   1       4.577  -1.065 -15.312  0.00  0.00     0.304 A 
ENDBRANCH  21  24
ENDBRANCH  17  18
ENDBRANCH   1  17
TORSDOF 7
