REMARK  11 active torsions:
REMARK  status: ('A' for Active; 'I' for Inactive)
REMARK    1  A    between atoms: O_2  and  C_3 
REMARK    2  A    between atoms: C_8  and  N_9 
REMARK    3  A    between atoms: N_12  and  C_13 
REMARK    4  A    between atoms: C_13  and  C_14 
REMARK    5  A    between atoms: C_14  and  C_15 
REMARK    6  A    between atoms: C_15  and  C_16 
REMARK    7  A    between atoms: C_16  and  N_17 
REMARK       I    between atoms: N_17  and  C_18 
REMARK    8  A    between atoms: C_18  and  C_20 
REMARK    9  A    between atoms: C_21  and  C_22 
REMARK   10  A    between atoms: C_26  and  O_27 
REMARK   11  A    between atoms: C_29  and  O_30 
ROOT
ATOM      1  C   UNL d   1       8.930   5.164 -12.932  0.00  0.00     0.029 C 
ENDROOT
BRANCH   1   2
ATOM      2  C   UNL d   1       8.392   4.574 -14.237  0.00  0.00     0.037 C 
BRANCH   2   3
ATOM      3  C   UNL d   1       7.454   3.349 -13.945  0.00  0.00     0.251 C 
BRANCH   3   4
ATOM      4  N   UNL d   1       7.811   2.131 -14.675  0.00  0.00     0.141 N 
ATOM      5  C   UNL d   1       9.212   1.749 -14.437  0.00  0.00     0.274 C 
ATOM      6  C   UNL d   1       9.541   0.428 -15.185  0.00  0.00     0.137 C 
ATOM      7  N   UNL d   1       9.203   0.573 -16.589  0.00  0.00    -0.343 N 
ATOM      8  C   UNL d   1       7.857   1.023 -16.887  0.00  0.00     0.137 C 
ATOM      9  C   UNL d   1       7.566   2.311 -16.101  0.00  0.00     0.274 C 
BRANCH   7  10
ATOM     10  C   UNL d   1      10.166   0.427 -17.613  0.00  0.00     0.079 A 
ATOM     11  C   UNL d   1      11.399   1.112 -17.577  0.00  0.00     0.110 A 
ATOM     12  C   UNL d   1      12.347   0.884 -18.606  0.00  0.00     0.026 A 
ATOM     13  C   UNL d   1      12.054  -0.003 -19.664  0.00  0.00     0.002 A 
ATOM     14  C   UNL d   1      10.802  -0.643 -19.702  0.00  0.00     0.002 A 
ATOM     15  C   UNL d   1       9.864  -0.432 -18.677  0.00  0.00     0.019 A 
BRANCH  11  16
ATOM     16  O   UNL d   1      11.641   1.969 -16.519  0.00  0.00    -0.327 OA
ATOM     17  C   UNL d   1      12.569   3.025 -16.700  0.00  0.00     0.181 C 
ENDBRANCH  11  16
ENDBRANCH   7  10
ENDBRANCH   3   4
ENDBRANCH   2   3
ENDBRANCH   1   2
BRANCH   1  18
ATOM     18  C   UNL d   1       7.857   5.635 -11.931  0.00  0.00     0.129 C 
BRANCH  18  19
ATOM     19  N   UNL d   1       8.437   6.311 -10.749  0.00  0.00    -0.234 NA
ATOM     20  C   UNL d   1       9.285   5.724  -9.867  0.00  0.00     0.275 C 
ATOM     21  O   UNL d   1       9.743   4.575  -9.982  0.00  0.00    -0.266 OA
BRANCH  20  22
ATOM     22  C   UNL d   1       9.538   6.600  -8.748  0.00  0.00     0.062 C 
ATOM     23  C   UNL d   1      10.478   6.258  -7.849  0.00  0.00     0.005 C 
BRANCH  23  24
ATOM     24  C   UNL d   1      10.858   7.046  -6.683  0.00  0.00     0.003 A 
ATOM     25  C   UNL d   1      11.477   6.423  -5.578  0.00  0.00     0.026 A 
ATOM     26  C   UNL d   1      11.721   7.028  -4.335  0.00  0.00     0.117 A 
ATOM     27  C   UNL d   1      11.462   8.392  -4.243  0.00  0.00     0.122 A 
ATOM     28  C   UNL d   1      10.938   9.017  -5.376  0.00  0.00     0.054 A 
ATOM     29  C   UNL d   1      10.577   8.395  -6.577  0.00  0.00     0.008 A 
ATOM     30  I   UNL d   1      10.719  11.008  -5.202  0.00  0.00    -0.041 I 
BRANCH  26  31
ATOM     31  O   UNL d   1      12.171   6.232  -3.315  0.00  0.00    -0.326 OA
ATOM     32  C   UNL d   1      11.569   6.382  -2.041  0.00  0.00     0.181 C 
ENDBRANCH  26  31
BRANCH  27  33
ATOM     33  O   UNL d   1      11.713   9.165  -3.137  0.00  0.00    -0.326 OA
ATOM     34  C   UNL d   1      13.050   9.092  -2.758  0.00  0.00     0.181 C 
ENDBRANCH  27  33
ENDBRANCH  23  24
ENDBRANCH  20  22
ENDBRANCH  18  19
ENDBRANCH   1  18
TORSDOF 11
