REMARK  5 active torsions:
REMARK  status: ('A' for Active; 'I' for Inactive)
REMARK    1  A    between atoms: O_2  and  C_3 
REMARK    2  A    between atoms: C_8  and  N_9 
REMARK    3  A    between atoms: N_12  and  C_13 
REMARK    4  A    between atoms: C_13  and  C_14 
REMARK    5  A    between atoms: C_17  and  N_18 
ROOT
ATOM      1  C   UNL d   1      10.514   0.247 -16.528  0.00  0.00     0.297 C 
ENDROOT
BRANCH   1   2
ATOM      2  N   UNL d   1      10.619   1.571 -15.923  0.00  0.00     0.147 N 
ATOM      3  C   UNL d   1       9.561   2.436 -16.460  0.00  0.00     0.275 C 
ATOM      4  C   UNL d   1       9.682   3.861 -15.870  0.00  0.00     0.137 C 
ATOM      5  N   UNL d   1       9.694   3.817 -14.421  0.00  0.00    -0.343 N 
ATOM      6  C   UNL d   1      10.589   2.863 -13.807  0.00  0.00     0.137 C 
ATOM      7  C   UNL d   1      10.445   1.474 -14.468  0.00  0.00     0.275 C 
BRANCH   5   8
ATOM      8  C   UNL d   1       8.743   4.487 -13.640  0.00  0.00     0.079 A 
ATOM      9  C   UNL d   1       7.409   4.032 -13.527  0.00  0.00     0.110 A 
ATOM     10  C   UNL d   1       6.501   4.769 -12.722  0.00  0.00     0.026 A 
ATOM     11  C   UNL d   1       6.924   5.927 -12.040  0.00  0.00     0.002 A 
ATOM     12  C   UNL d   1       8.252   6.354 -12.142  0.00  0.00     0.002 A 
ATOM     13  C   UNL d   1       9.162   5.627 -12.928  0.00  0.00     0.019 A 
BRANCH   9  14
ATOM     14  O   UNL d   1       7.059   2.895 -14.221  0.00  0.00    -0.327 OA
ATOM     15  C   UNL d   1       5.985   2.128 -13.712  0.00  0.00     0.181 C 
ENDBRANCH   9  14
ENDBRANCH   5   8
ENDBRANCH   1   2
BRANCH   1  16
ATOM     16  C   UNL d   1      10.856   0.054 -17.980  0.00  0.00     0.112 A 
ATOM     17  N   UNL d   1       9.878  -0.268 -18.910  0.00  0.00    -0.229 NA
ATOM     18  C   UNL d   1      10.497  -0.353 -20.088  0.00  0.00     0.149 A 
ATOM     19  N   UNL d   1      11.885  -0.098 -19.940  0.00  0.00    -0.274 N 
ATOM     20  C   UNL d   1      10.009  -0.646 -21.388  0.00  0.00     0.037 A 
ATOM     21  C   UNL d   1      12.078   0.168 -18.590  0.00  0.00     0.100 A 
ATOM     22  C   UNL d   1      12.749  -0.129 -21.008  0.00  0.00     0.150 A 
ATOM     23  C   UNL d   1      12.250  -0.413 -22.262  0.00  0.00     0.038 A 
ATOM     24  C   UNL d   1      10.875  -0.676 -22.455  0.00  0.00     0.006 A 
BRANCH  22  25
ATOM     25  N   UNL d   1      14.135   0.117 -20.865  0.00  0.00    -0.212 N 
ATOM     26  N   UNL d   1      14.772   0.983 -21.686  0.00  0.00    -0.162 NA
ATOM     27  C   UNL d   1      16.035   0.965 -21.290  0.00  0.00     0.122 A 
ATOM     28  C   UNL d   1      16.251   0.079 -20.198  0.00  0.00     0.043 A 
ATOM     29  C   UNL d   1      15.015  -0.453 -19.968  0.00  0.00     0.104 A 
ENDBRANCH  22  25
ENDBRANCH   1  16
TORSDOF 5
