REMARK  6 active torsions:
REMARK  status: ('A' for Active; 'I' for Inactive)
REMARK    1  A    between atoms: C_2  and  C_3 
REMARK    2  A    between atoms: C_2  and  C_9 
REMARK    3  A    between atoms: C_14  and  O_15 
REMARK    4  A    between atoms: O_15  and  C_16 
REMARK    5  A    between atoms: C_16  and  C_17 
REMARK    6  A    between atoms: C_17  and  N_18 
ROOT
ATOM      1  C   UNL d   1       8.683   4.264 -13.304  0.00  0.00     0.061 A 
ATOM      2  C   UNL d   1       7.518   3.778 -13.973  0.00  0.00     0.005 A 
ATOM      3  C   UNL d   1       6.234   3.979 -13.444  0.00  0.00     0.000 A 
ATOM      4  C   UNL d   1       6.063   4.705 -12.248  0.00  0.00     0.002 A 
ATOM      5  C   UNL d   1       7.196   5.247 -11.613  0.00  0.00     0.024 A 
ATOM      6  C   UNL d   1       8.497   5.042 -12.118  0.00  0.00     0.097 A 
ENDROOT
BRANCH   1   7
ATOM      7  C   UNL d   1      10.059   3.983 -13.856  0.00  0.00     0.197 C 
ATOM      8  O   UNL d   1      11.003   4.771 -13.704  0.00  0.00    -0.286 OA
BRANCH   7   9
ATOM      9  C   UNL d   1      10.277   2.733 -14.644  0.00  0.00     0.039 A 
ATOM     10  C   UNL d   1       9.507   1.555 -14.442  0.00  0.00     0.003 A 
ATOM     11  C   UNL d   1       9.679   0.432 -15.252  0.00  0.00     0.000 A 
ATOM     12  C   UNL d   1      10.661   0.432 -16.258  0.00  0.00     0.000 A 
ATOM     13  C   UNL d   1      11.469   1.575 -16.443  0.00  0.00     0.000 A 
ATOM     14  C   UNL d   1      11.275   2.716 -15.641  0.00  0.00     0.003 A 
ENDBRANCH   7   9
ENDBRANCH   1   7
BRANCH   6  15
ATOM     15  O   UNL d   1       9.602   5.625 -11.518  0.00  0.00    -0.329 OA
BRANCH  15  16
ATOM     16  C   UNL d   1       9.586   5.895 -10.122  0.00  0.00     0.184 C 
BRANCH  16  17
ATOM     17  C   UNL d   1      10.446   7.167  -9.893  0.00  0.00     0.283 C 
BRANCH  17  18
ATOM     18  N   UNL d   1      10.519   7.563  -8.478  0.00  0.00     0.140 N 
ATOM     19  C   UNL d   1      10.536   6.453  -7.529  0.00  0.00     0.250 C 
ATOM     20  C   UNL d   1      10.273   7.114  -6.179  0.00  0.00     0.037 C 
ATOM     21  C   UNL d   1       9.487   8.379  -6.531  0.00  0.00     0.037 C 
ATOM     22  C   UNL d   1       9.383   8.368  -8.061  0.00  0.00     0.250 C 
ENDBRANCH  17  18
ENDBRANCH  16  17
ENDBRANCH  15  16
ENDBRANCH   6  15
TORSDOF 6
