REMARK  6 active torsions:
REMARK  status: ('A' for Active; 'I' for Inactive)
REMARK       I    between atoms: C_2  and  N_3 
REMARK    1  A    between atoms: C_2  and  C_22 
REMARK    2  A    between atoms: N_3  and  C_4 
REMARK    3  A    between atoms: C_4  and  C_5 
REMARK    4  A    between atoms: C_6  and  C_7 
REMARK    5  A    between atoms: C_7  and  N_8 
REMARK    6  A    between atoms: N_11  and  C_12 
ROOT
ATOM      1  N   UNL d   1       8.835   4.806 -12.455  0.00  0.00     0.145 N 
ATOM      2  C   UNL d   1       9.489   3.699 -13.184  0.00  0.00     0.275 C 
ATOM      3  C   UNL d   1       8.686   3.284 -14.434  0.00  0.00     0.137 C 
ATOM      4  N   UNL d   1       7.301   2.998 -14.082  0.00  0.00    -0.344 N 
ATOM      5  C   UNL d   1       6.640   4.021 -13.265  0.00  0.00     0.137 C 
ATOM      6  C   UNL d   1       7.478   4.430 -12.037  0.00  0.00     0.275 C 
ENDROOT
BRANCH   1   7
ATOM      7  C   UNL d   1       9.693   5.196 -11.335  0.00  0.00     0.276 C 
BRANCH   7   8
ATOM      8  C   UNL d   1       9.011   5.921 -10.205  0.00  0.00     0.006 C 
ATOM      9  C   UNL d   1       9.504   5.928  -8.953  0.00  0.00    -0.003 C 
BRANCH   9  10
ATOM     10  C   UNL d   1       8.735   6.606  -7.839  0.00  0.00     0.155 C 
BRANCH  10  11
ATOM     11  N   UNL d   1       9.523   6.847  -6.651  0.00  0.00    -0.229 NA
ATOM     12  C   UNL d   1      10.622   7.605  -6.646  0.00  0.00     0.276 C 
ATOM     13  O   UNL d   1      11.101   8.123  -7.654  0.00  0.00    -0.266 OA
BRANCH  12  14
ATOM     14  C   UNL d   1      11.237   7.790  -5.292  0.00  0.00     0.063 A 
ATOM     15  C   UNL d   1      11.676   9.055  -4.850  0.00  0.00     0.035 A 
ATOM     16  C   UNL d   1      12.258   9.195  -3.572  0.00  0.00     0.006 A 
ATOM     17  I   UNL d   1      11.436  10.754  -6.032  0.00  0.00    -0.043 I 
ATOM     18  C   UNL d   1      12.403   8.080  -2.732  0.00  0.00     0.000 A 
ATOM     19  C   UNL d   1      11.970   6.821  -3.169  0.00  0.00     0.000 A 
ATOM     20  C   UNL d   1      11.404   6.676  -4.446  0.00  0.00     0.005 A 
ENDBRANCH  12  14
ENDBRANCH  10  11
ENDBRANCH   9  10
ENDBRANCH   7   8
ENDBRANCH   1   7
BRANCH   4  21
ATOM     21  C   UNL d   1       6.641   1.788 -14.426  0.00  0.00     0.068 A 
ATOM     22  C   UNL d   1       6.748   1.178 -15.710  0.00  0.00     0.084 A 
ATOM     23  C   UNL d   1       6.045  -0.017 -15.974  0.00  0.00     0.070 A 
ATOM     24 CL   UNL d   1       7.632   1.904 -17.002  0.00  0.00    -0.080 Cl
ATOM     25  C   UNL d   1       5.203  -0.575 -15.002  0.00  0.00     0.012 A 
ATOM     26 CL   UNL d   1       6.133  -0.757 -17.530  0.00  0.00    -0.081 Cl
ATOM     27  C   UNL d   1       5.053   0.054 -13.757  0.00  0.00     0.002 A 
ATOM     28  C   UNL d   1       5.788   1.211 -13.469  0.00  0.00     0.018 A 
ENDBRANCH   4  21
TORSDOF 6
