REMARK  6 active torsions:
REMARK  status: ('A' for Active; 'I' for Inactive)
REMARK    1  A    between atoms: C_2  and  C_3 
REMARK    2  A    between atoms: C_3  and  N_4 
REMARK    3  A    between atoms: N_4  and  C_5 
REMARK    4  A    between atoms: N_4  and  C_8 
REMARK    5  A    between atoms: C_5  and  C_6 
REMARK    6  A    between atoms: C_14  and  C_15 
ROOT
ATOM      1  C   UNL d   1       6.755   3.883 -12.187  0.00  0.00     0.227 C 
ATOM      2  C   UNL d   1       5.219   3.863 -12.370  0.00  0.00     0.060 C 
ATOM      3  C   UNL d   1       4.692   2.427 -12.473  0.00  0.00     0.129 C 
ATOM      4  N   UNL d   1       5.523   1.623 -13.363  0.00  0.00    -0.255 N 
ATOM      5  N   UNL d   1       5.150   0.371 -13.719  0.00  0.00    -0.168 NA
ATOM      6  C   UNL d   1       6.160  -0.059 -14.466  0.00  0.00     0.120 A 
ATOM      7  C   UNL d   1       7.235   0.872 -14.548  0.00  0.00     0.045 A 
ATOM      8  C   UNL d   1       6.764   1.950 -13.841  0.00  0.00     0.058 A 
ATOM      9  C   UNL d   1       7.436   3.237 -13.438  0.00  0.00     0.079 C 
ENDROOT
BRANCH   1  10
ATOM     10  N   UNL d   1       7.263   5.206 -11.792  0.00  0.00     0.135 N 
BRANCH  10  11
ATOM     11  C   UNL d   1       7.120   6.174 -12.836  0.00  0.00     0.250 C 
BRANCH  11  12
ATOM     12  C   UNL d   1       7.081   7.624 -12.422  0.00  0.00     0.035 C 
ATOM     13  C   UNL d   1       5.650   8.068 -12.071  0.00  0.00     0.002 C 
ENDBRANCH  11  12
ENDBRANCH  10  11
BRANCH  10  14
ATOM     14  C   UNL d   1       8.618   5.207 -11.267  0.00  0.00     0.250 C 
BRANCH  14  15
ATOM     15  C   UNL d   1       8.499   5.127  -9.744  0.00  0.00     0.035 C 
ATOM     16  C   UNL d   1       9.861   4.878  -9.138  0.00  0.00     0.002 C 
ENDBRANCH  14  15
ENDBRANCH  10  14
ENDBRANCH   1  10
BRANCH   7  17
ATOM     17  C   UNL d   1       8.587   0.692 -15.178  0.00  0.00     0.212 C 
ATOM     18  O   UNL d   1       8.490   0.039 -16.420  0.00  0.00    -0.215 OA
ENDBRANCH   7  17
TORSDOF 6
