REMARK  0 active torsions:
REMARK  status: ('A' for Active; 'I' for Inactive)
ROOT
ATOM      1  N   UNL d   1      12.745   9.653  -5.396  0.00  0.00    -0.148 N 
ATOM      2  C   UNL d   1      11.856   8.775  -5.949  0.00  0.00     0.103 C 
ATOM      3  C   UNL d   1      10.930   8.148  -5.095  0.00  0.00     0.021 C 
ATOM      4  C   UNL d   1       9.956   7.311  -5.609  0.00  0.00     0.006 C 
ATOM      5  C   UNL d   1       9.746   7.072  -6.960  0.00  0.00     0.058 A 
ATOM      6  C   UNL d   1      10.731   7.598  -7.793  0.00  0.00     0.011 A 
ATOM      7  C   UNL d   1      10.537   7.250  -9.151  0.00  0.00     0.058 A 
ATOM      8  C   UNL d   1      11.463   7.763 -10.007  0.00  0.00     0.005 C 
ATOM      9  C   UNL d   1      12.616   8.406  -9.586  0.00  0.00     0.000 C 
ATOM     10  C   UNL d   1      12.769   8.749  -8.240  0.00  0.00     0.002 C 
ATOM     11  C   UNL d   1      11.788   8.400  -7.313  0.00  0.00     0.020 C 
ATOM     12  C   UNL d   1       9.403   6.393  -9.666  0.00  0.00     0.282 A 
ATOM     13  O   UNL d   1       9.273   6.136 -10.869  0.00  0.00    -0.265 OA
ATOM     14  N   UNL d   1       8.551   5.959  -8.763  0.00  0.00    -0.169 NA
ATOM     15  C   UNL d   1       8.599   6.285  -7.477  0.00  0.00     0.282 A 
ATOM     16  O   UNL d   1       7.728   5.983  -6.727  0.00  0.00    -0.265 OA
ENDROOT
TORSDOF 0
