REMARK  1 active torsions:
REMARK  status: ('A' for Active; 'I' for Inactive)
REMARK    1  A    between atoms: C_2  and  C_4 
ROOT
ATOM      1  C   UNL d   1      10.451   8.125  -6.400  0.00  0.00     0.084 A 
ATOM      2  C   UNL d   1      11.043   7.211  -5.497  0.00  0.00     0.009 A 
ATOM      3  C   UNL d   1      11.837   7.703  -4.440  0.00  0.00     0.021 A 
ATOM      4  C   UNL d   1      12.009   9.096  -4.324  0.00  0.00     0.099 A 
ATOM      5  N   UNL d   1      11.447   9.980  -5.171  0.00  0.00    -0.242 NA
ATOM      6  C   UNL d   1      10.699   9.499  -6.186  0.00  0.00     0.105 A 
ENDROOT
BRANCH   1   7
ATOM      7  C   UNL d   1       9.588   7.647  -7.535  0.00  0.00     0.212 C 
ATOM      8  O   UNL d   1       9.363   6.450  -7.715  0.00  0.00    -0.644 OA
ATOM      9  O   UNL d   1       9.060   8.642  -8.310  0.00  0.00    -0.644 OA
ENDBRANCH   1   7
TORSDOF 1
