REMARK  7 active torsions:
REMARK  status: ('A' for Active; 'I' for Inactive)
REMARK    1  A    between atoms: C_2  and  N_3 
REMARK    2  A    between atoms: N_3  and  C_4 
REMARK    3  A    between atoms: N_3  and  C_12 
REMARK    4  A    between atoms: C_4  and  C_5 
REMARK    5  A    between atoms: C_5  and  C_6 
REMARK    6  A    between atoms: C_12  and  C_13 
REMARK    7  A    between atoms: C_16  and  C_17 
ROOT
ATOM      1  N   UNL d   1       8.399   4.798 -11.658  0.00  0.00     0.143 N 
ENDROOT
BRANCH   1   2
ATOM      2  C   UNL d   1       7.296   5.164 -12.550  0.00  0.00     0.251 C 
ATOM      3  C   UNL d   1       6.517   3.933 -13.075  0.00  0.00     0.037 C 
ENDBRANCH   1   2
BRANCH   1   4
ATOM      4  C   UNL d   1       8.953   5.989 -10.991  0.00  0.00     0.257 C 
BRANCH   4   5
ATOM      5  C   UNL d   1       9.430   5.631  -9.576  0.00  0.00     0.081 C 
BRANCH   5   6
ATOM      6  C   UNL d   1       9.895   6.832  -8.775  0.00  0.00     0.061 A 
ATOM      7  N   UNL d   1      11.043   7.410  -9.178  0.00  0.00    -0.248 NA
ATOM      8  C   UNL d   1      11.526   8.465  -8.480  0.00  0.00     0.099 A 
ATOM      9  C   UNL d   1      10.868   8.991  -7.346  0.00  0.00     0.021 A 
ATOM     10  C   UNL d   1       9.664   8.391  -6.939  0.00  0.00     0.003 A 
ATOM     11  C   UNL d   1       9.180   7.283  -7.654  0.00  0.00     0.015 A 
ENDBRANCH   5   6
ENDBRANCH   4   5
ENDBRANCH   1   4
BRANCH   1  12
ATOM     12  C   UNL d   1       9.443   3.978 -12.288  0.00  0.00     0.296 C 
BRANCH  12  13
ATOM     13  C   UNL d   1       9.994   4.308 -13.643  0.00  0.00     0.099 A 
ATOM     14  N   UNL d   1      11.372   4.454 -13.861  0.00  0.00    -0.245 NA
ATOM     15  C   UNL d   1      11.623   4.707 -15.147  0.00  0.00     0.087 A 
ATOM     16  S   UNL d   1      10.200   4.766 -16.179  0.00  0.00    -0.070 SA
ATOM     17  C   UNL d   1       9.268   4.370 -14.797  0.00  0.00     0.053 A 
BRANCH  15  18
ATOM     18  C   UNL d   1      12.972   4.977 -15.674  0.00  0.00     0.046 C 
ATOM     19  C   UNL d   1      13.252   4.162 -16.942  0.00  0.00     0.006 C 
ATOM     20  C   UNL d   1      14.340   4.963 -17.654  0.00  0.00     0.000 C 
ATOM     21  C   UNL d   1      14.130   6.437 -17.239  0.00  0.00     0.000 C 
ATOM     22  C   UNL d   1      13.127   6.448 -16.082  0.00  0.00     0.006 C 
ENDBRANCH  15  18
ENDBRANCH  12  13
ENDBRANCH   1  12
TORSDOF 7
