REMARK  4 active torsions:
REMARK  status: ('A' for Active; 'I' for Inactive)
REMARK    1  A    between atoms: C_4  and  N_5 
REMARK    2  A    between atoms: N_8  and  C_9 
REMARK    3  A    between atoms: C_9  and  C_10 
REMARK    4  A    between atoms: N_13  and  C_14 
ROOT
ATOM      1  N   UNL d   1      10.539   8.211  -6.293  0.00  0.00    -0.344 N 
ATOM      2  C   UNL d   1       9.622   7.205  -6.820  0.00  0.00     0.137 C 
ATOM      3  C   UNL d   1      10.085   6.761  -8.219  0.00  0.00     0.275 C 
ATOM      4  N   UNL d   1      10.214   7.926  -9.101  0.00  0.00     0.146 N 
ATOM      5  C   UNL d   1      11.230   8.826  -8.553  0.00  0.00     0.275 C 
ATOM      6  C   UNL d   1      10.784   9.336  -7.174  0.00  0.00     0.137 C 
ENDROOT
BRANCH   4   7
ATOM      7  C   UNL d   1      10.615   7.509 -10.428  0.00  0.00     0.280 C 
BRANCH   7   8
ATOM      8  C   UNL d   1       9.508   6.882 -11.236  0.00  0.00     0.051 A 
ATOM      9  C   UNL d   1       9.185   5.569 -11.433  0.00  0.00     0.101 A 
ATOM     10  N   UNL d   1       8.107   5.539 -12.289  0.00  0.00    -0.211 N 
ATOM     11  N   UNL d   1       7.733   6.773 -12.681  0.00  0.00    -0.163 NA
ATOM     12  C   UNL d   1       8.581   7.576 -12.055  0.00  0.00     0.120 A 
BRANCH  10  13
ATOM     13  C   UNL d   1       7.430   4.413 -12.786  0.00  0.00     0.164 A 
ATOM     14  N   UNL d   1       8.073   3.610 -13.659  0.00  0.00    -0.225 NA
ATOM     15  C   UNL d   1       7.420   2.527 -14.128  0.00  0.00     0.101 A 
ATOM     16  C   UNL d   1       6.115   2.186 -13.732  0.00  0.00     0.021 A 
ATOM     17  C   UNL d   1       5.447   3.028 -12.828  0.00  0.00     0.005 A 
ATOM     18  C   UNL d   1       6.113   4.171 -12.349  0.00  0.00     0.039 A 
ENDBRANCH  10  13
ENDBRANCH   7   8
ENDBRANCH   4   7
BRANCH   1  19
ATOM     19  C   UNL d   1      11.160   8.124  -5.029  0.00  0.00     0.056 A 
ATOM     20  C   UNL d   1      11.464   6.870  -4.450  0.00  0.00     0.017 A 
ATOM     21  C   UNL d   1      12.059   6.794  -3.176  0.00  0.00     0.002 A 
ATOM     22  C   UNL d   1      12.356   7.967  -2.461  0.00  0.00     0.000 A 
ATOM     23  C   UNL d   1      12.055   9.216  -3.029  0.00  0.00     0.002 A 
ATOM     24  C   UNL d   1      11.462   9.298  -4.296  0.00  0.00     0.017 A 
ENDBRANCH   1  19
TORSDOF 4
