REMARK  9 active torsions:
REMARK  status: ('A' for Active; 'I' for Inactive)
REMARK    1  A    between atoms: C_2  and  C_3 
REMARK       I    between atoms: C_2  and  N_17 
REMARK    2  A    between atoms: C_3  and  N_4 
REMARK       I    between atoms: N_4  and  C_5 
REMARK    3  A    between atoms: C_5  and  C_7 
REMARK    4  A    between atoms: C_11  and  C_12 
REMARK    5  A    between atoms: N_17  and  C_18 
REMARK    6  A    between atoms: N_21  and  C_22 
REMARK    7  A    between atoms: C_22  and  C_23 
REMARK    8  A    between atoms: C_23  and  N_24 
REMARK       I    between atoms: N_27  and  C_28 
REMARK    9  A    between atoms: C_28  and  C_30 
ROOT
ATOM      1  C   UNL d   1       8.784   4.623 -11.472  0.00  0.00     0.142 C 
ATOM      2  C   UNL d   1       9.629   5.611 -12.273  0.00  0.00     0.062 C 
ATOM      3  C   UNL d   1       8.932   5.627 -13.617  0.00  0.00     0.253 C 
ATOM      4  N   UNL d   1       8.208   4.390 -13.740  0.00  0.00     0.141 N 
ATOM      5  C   UNL d   1       7.646   4.219 -12.424  0.00  0.00     0.275 C 
ENDROOT
BRANCH   1   6
ATOM      6  N   UNL d   1       8.263   5.216 -10.257  0.00  0.00    -0.236 NA
ATOM      7  C   UNL d   1       8.866   5.116  -9.066  0.00  0.00     0.276 C 
ATOM      8  O   UNL d   1       9.795   4.344  -8.855  0.00  0.00    -0.268 OA
BRANCH   7   9
ATOM      9  C   UNL d   1       8.347   6.017  -7.950  0.00  0.00     0.218 C 
BRANCH   9  10
ATOM     10  N   UNL d   1       9.338   6.493  -6.988  0.00  0.00    -0.224 NA
ATOM     11  C   UNL d   1      10.509   7.090  -7.277  0.00  0.00     0.275 C 
ATOM     12  O   UNL d   1      11.021   7.186  -8.397  0.00  0.00    -0.266 OA
BRANCH  11  13
ATOM     13  C   UNL d   1      11.177   7.733  -6.106  0.00  0.00     0.058 A 
ATOM     14  C   UNL d   1      11.248   7.111  -4.845  0.00  0.00     0.009 A 
ATOM     15  C   UNL d   1      11.922   7.758  -3.786  0.00  0.00     0.072 A 
ATOM     16  C   UNL d   1      12.516   9.028  -4.012  0.00  0.00     0.004 A 
ATOM     17  C   UNL d   1      12.489   9.619  -5.287  0.00  0.00     0.000 A 
ATOM     18  C   UNL d   1      11.817   8.972  -6.326  0.00  0.00     0.005 A 
BRANCH  15  19
ATOM     19  C   UNL d   1      12.015   7.095  -2.424  0.00  0.00     0.419 C 
ATOM     20  F   UNL d   1      12.789   6.017  -2.466  0.00  0.00    -0.166 F 
ATOM     21  F   UNL d   1      12.523   7.955  -1.540  0.00  0.00    -0.166 F 
ATOM     22  F   UNL d   1      10.802   6.731  -2.016  0.00  0.00    -0.166 F 
ENDBRANCH  15  19
ENDBRANCH  11  13
ENDBRANCH   9  10
ENDBRANCH   7   9
ENDBRANCH   1   6
BRANCH   4  23
ATOM     23  C   UNL d   1       9.080   3.293 -14.149  0.00  0.00     0.285 C 
BRANCH  23  24
ATOM     24  C   UNL d   1       8.418   2.266 -15.086  0.00  0.00     0.286 C 
BRANCH  24  25
ATOM     25  N   UNL d   1       9.343   1.270 -15.652  0.00  0.00     0.143 N 
ATOM     26  C   UNL d   1       8.631   0.434 -16.621  0.00  0.00     0.274 C 
ATOM     27  C   UNL d   1       9.562  -0.625 -17.237  0.00  0.00     0.140 C 
ATOM     28  N   UNL d   1      10.784  -0.002 -17.800  0.00  0.00    -0.312 N 
ATOM     29  C   UNL d   1      11.495   0.836 -16.816  0.00  0.00     0.140 C 
ATOM     30  C   UNL d   1      11.170  -0.221 -19.077  0.00  0.00     0.257 C 
ATOM     31  C   UNL d   1      10.507   1.888 -16.309  0.00  0.00     0.274 C 
ATOM     32  O   UNL d   1      10.452  -0.756 -19.924  0.00  0.00    -0.267 OA
BRANCH  30  33
ATOM     33  C   UNL d   1      12.586   0.149 -19.468  0.00  0.00     0.056 A 
ATOM     34  C   UNL d   1      13.472  -0.822 -19.983  0.00  0.00     0.005 A 
ATOM     35  C   UNL d   1      14.798  -0.475 -20.340  0.00  0.00     0.000 A 
ATOM     36  C   UNL d   1      15.234   0.854 -20.197  0.00  0.00     0.000 A 
ATOM     37  C   UNL d   1      14.330   1.829 -19.701  0.00  0.00     0.000 A 
ATOM     38  C   UNL d   1      13.019   1.487 -19.372  0.00  0.00     0.005 A 
ENDBRANCH  30  33
ENDBRANCH  24  25
ENDBRANCH  23  24
ENDBRANCH   4  23
TORSDOF 9
