REMARK  4 active torsions:
REMARK  status: ('A' for Active; 'I' for Inactive)
REMARK    1  A    between atoms: N_3  and  C_4 
REMARK    2  A    between atoms: C_4  and  C_5 
REMARK    3  A    between atoms: C_5  and  N_6 
REMARK    4  A    between atoms: N_22  and  C_23 
ROOT
ATOM      1  C   UNL d   1       9.364   6.294 -11.221  0.00  0.00     0.274 C 
ENDROOT
BRANCH   1   2
ATOM      2  C   UNL d   1       8.578   5.042 -10.850  0.00  0.00     0.141 C 
BRANCH   2   3
ATOM      3  N   UNL d   1       8.143   4.395 -12.088  0.00  0.00    -0.298 N 
ATOM      4  C   UNL d   1       8.957   3.914 -13.035  0.00  0.00     0.328 A 
ATOM      5  O   UNL d   1      10.197   3.954 -12.988  0.00  0.00    -0.247 OA
ATOM      6  N   UNL d   1       8.216   3.356 -14.015  0.00  0.00    -0.280 N 
ATOM      7  C   UNL d   1       6.804   3.321 -13.649  0.00  0.00     0.135 A 
ATOM      8  C   UNL d   1       6.753   4.050 -12.306  0.00  0.00     0.131 A 
BRANCH   6   9
ATOM      9  C   UNL d   1       8.729   2.743 -15.213  0.00  0.00     0.065 A 
ATOM     10  C   UNL d   1       9.838   3.314 -15.885  0.00  0.00     0.029 A 
ATOM     11  C   UNL d   1      10.367   2.728 -17.047  0.00  0.00     0.059 A 
ATOM     12  C   UNL d   1       9.775   1.558 -17.570  0.00  0.00     0.011 A 
ATOM     13 CL   UNL d   1      11.738   3.457 -17.808  0.00  0.00    -0.082 Cl
ATOM     14  C   UNL d   1       8.658   0.979 -16.919  0.00  0.00     0.002 A 
ATOM     15  C   UNL d   1       8.139   1.574 -15.748  0.00  0.00     0.017 A 
ENDBRANCH   6   9
ENDBRANCH   2   3
ENDBRANCH   1   2
BRANCH   1  16
ATOM     16  N   UNL d   1       9.614   7.110 -10.058  0.00  0.00     0.137 N 
ATOM     17  C   UNL d   1      10.743   6.653  -9.232  0.00  0.00     0.224 C 
ATOM     18  C   UNL d   1      12.017   7.568  -9.366  0.00  0.00     0.034 C 
ATOM     19  C   UNL d   1      10.269   6.346  -7.793  0.00  0.00     0.059 C 
ATOM     20  C   UNL d   1      11.732   9.052  -9.223  0.00  0.00     0.004 C 
ATOM     21  C   UNL d   1      10.243   9.319  -9.307  0.00  0.00     0.038 C 
ATOM     22  C   UNL d   1       9.681   8.506 -10.469  0.00  0.00     0.251 C 
ATOM     23  C   UNL d   1       9.444   9.070  -7.982  0.00  0.00     0.028 C 
ATOM     24  C   UNL d   1      10.271   8.659  -6.772  0.00  0.00    -0.026 A 
ATOM     25  C   UNL d   1      10.674   7.322  -6.691  0.00  0.00    -0.024 A 
ATOM     26  C   UNL d   1      10.654   9.583  -5.769  0.00  0.00    -0.005 A 
ATOM     27  C   UNL d   1      11.419   6.899  -5.573  0.00  0.00    -0.004 A 
ATOM     28  C   UNL d   1      11.763   7.806  -4.549  0.00  0.00    -0.000 A 
ATOM     29  C   UNL d   1      11.378   9.156  -4.645  0.00  0.00    -0.000 A 
ENDBRANCH   1  16
TORSDOF 4
