REMARK  8 active torsions:
REMARK  status: ('A' for Active; 'I' for Inactive)
REMARK    1  A    between atoms: S_2  and  C_4 
REMARK    2  A    between atoms: S_2  and  C_23 
REMARK    3  A    between atoms: C_4  and  C_5 
REMARK    4  A    between atoms: N_8  and  C_9 
REMARK    5  A    between atoms: C_9  and  C_10 
REMARK    6  A    between atoms: C_10  and  C_11 
REMARK    7  A    between atoms: C_11  and  C_12 
REMARK    8  A    between atoms: C_26  and  C_27 
ROOT
ATOM      1  C   UNL d   1      10.320   5.104 -19.063  0.00  0.00     0.052 C 
ATOM      2  C   UNL d   1       9.576   6.177 -19.860  0.00  0.00     0.038 C 
ATOM      3  C   UNL d   1      10.470   7.411 -19.761  0.00  0.00     0.250 C 
ATOM      4  N   UNL d   1      11.805   6.865 -19.571  0.00  0.00     0.137 N 
ATOM      5  C   UNL d   1      11.597   5.803 -18.596  0.00  0.00     0.251 C 
ENDROOT
BRANCH   1   6
ATOM      6  C   UNL d   1       9.494   4.522 -17.906  0.00  0.00     0.129 C 
BRANCH   6   7
ATOM      7  S   UNL d   1      10.472   3.340 -16.888  0.00  0.00     0.190 S 
ATOM      8  O   UNL d   1      11.092   2.362 -17.793  0.00  0.00    -0.222 OA
ATOM      9  O   UNL d   1      11.313   4.115 -15.963  0.00  0.00    -0.222 OA
BRANCH   7  10
ATOM     10  C   UNL d   1       9.229   2.502 -15.921  0.00  0.00     0.084 A 
ATOM     11  C   UNL d   1       8.649   3.168 -14.826  0.00  0.00     0.011 A 
ATOM     12  C   UNL d   1       7.615   2.544 -14.103  0.00  0.00     0.004 A 
ATOM     13  C   UNL d   1       7.179   1.244 -14.454  0.00  0.00     0.071 A 
ATOM     14  C   UNL d   1       7.772   0.587 -15.554  0.00  0.00     0.004 A 
ATOM     15  C   UNL d   1       8.789   1.218 -16.296  0.00  0.00     0.011 A 
BRANCH  13  16
ATOM     16  C   UNL d   1       6.099   0.536 -13.649  0.00  0.00     0.419 C 
ATOM     17  F   UNL d   1       5.457   1.379 -12.840  0.00  0.00    -0.166 F 
ATOM     18  F   UNL d   1       5.210  -0.030 -14.464  0.00  0.00    -0.166 F 
ATOM     19  F   UNL d   1       6.661  -0.414 -12.905  0.00  0.00    -0.166 F 
ENDBRANCH  13  16
ENDBRANCH   7  10
ENDBRANCH   6   7
ENDBRANCH   1   6
BRANCH   4  20
ATOM     20  C   UNL d   1      12.732   7.877 -19.071  0.00  0.00     0.251 C 
BRANCH  20  21
ATOM     21  C   UNL d   1      14.182   7.368 -19.148  0.00  0.00     0.042 C 
BRANCH  21  22
ATOM     22  C   UNL d   1      15.164   8.300 -18.425  0.00  0.00     0.050 C 
BRANCH  22  23
ATOM     23  C   UNL d   1      16.574   7.773 -18.448  0.00  0.00     0.088 A 
ATOM     24  C   UNL d   1      17.759   8.340 -18.961  0.00  0.00     0.041 A 
ATOM     25  C   UNL d   1      18.823   7.467 -18.719  0.00  0.00     0.129 A 
ATOM     26  C   UNL d   1      18.000   9.565 -19.621  0.00  0.00     0.006 A 
ATOM     27  O   UNL d   1      18.264   6.391 -18.049  0.00  0.00    -0.211 OA
ATOM     28  C   UNL d   1      20.141   7.742 -19.114  0.00  0.00     0.057 A 
ATOM     29  N   UNL d   1      16.869   6.603 -17.877  0.00  0.00    -0.131 NA
ATOM     30  C   UNL d   1      20.384   8.965 -19.773  0.00  0.00     0.142 A 
ATOM     31  F   UNL d   1      21.640   9.279 -20.170  0.00  0.00    -0.204 F 
ATOM     32  C   UNL d   1      19.321   9.868 -20.023  0.00  0.00     0.030 A 
ENDBRANCH  22  23
ENDBRANCH  21  22
ENDBRANCH  20  21
ENDBRANCH   4  20
TORSDOF 8
