REMARK  5 active torsions:
REMARK  status: ('A' for Active; 'I' for Inactive)
REMARK    1  A    between atoms: C_2  and  N_3 
REMARK    2  A    between atoms: C_7  and  C_8 
REMARK    3  A    between atoms: C_8  and  N_9 
REMARK       I    between atoms: N_9  and  C_10 
REMARK    4  A    between atoms: C_10  and  C_12 
REMARK    5  A    between atoms: C_20  and  O_21 
ROOT
ATOM      1  C   UNL d   1       9.271   6.459  -9.586  0.00  0.00     0.089 A 
ATOM      2  C   UNL d   1       9.514   7.604 -10.388  0.00  0.00     0.052 A 
ATOM      3 BR   UNL d   1      10.331   9.188  -9.676  0.00  0.00    -0.048 Br
ATOM      4  C   UNL d   1       9.009   7.641 -11.696  0.00  0.00     0.066 A 
ATOM      5 CL   UNL d   1       8.789   9.168 -12.409  0.00  0.00    -0.082 Cl
ATOM      6  C   UNL d   1       8.347   6.566 -12.268  0.00  0.00     0.041 A 
ATOM      7  C   UNL d   1       8.124   5.413 -11.487  0.00  0.00     0.154 A 
ATOM      8  O   UNL d   1       7.480   4.375 -12.062  0.00  0.00    -0.188 OA
ATOM      9  C   UNL d   1       8.591   5.378 -10.150  0.00  0.00     0.124 A 
ENDROOT
BRANCH   1  10
ATOM     10  C   UNL d   1       9.627   6.476  -8.136  0.00  0.00     0.277 C 
ATOM     11  N   UNL d   1      10.906   6.724  -7.919  0.00  0.00    -0.232 NA
ATOM     12  O   UNL d   1       8.829   6.161  -7.247  0.00  0.00    -0.265 OA
BRANCH  11  13
ATOM     13  C   UNL d   1      11.580   6.729  -6.650  0.00  0.00     0.162 C 
BRANCH  13  14
ATOM     14  C   UNL d   1      11.003   7.835  -5.737  0.00  0.00     0.243 C 
ATOM     15  N   UNL d   1      11.835   8.147  -4.584  0.00  0.00     0.137 N 
ATOM     16  C   UNL d   1      11.279   9.409  -4.103  0.00  0.00     0.250 C 
ATOM     17  C   UNL d   1      11.020  10.229  -5.348  0.00  0.00     0.037 C 
ATOM     18  C   UNL d   1      10.829   9.192  -6.426  0.00  0.00     0.037 C 
BRANCH  15  19
ATOM     19  C   UNL d   1      11.782   7.086  -3.581  0.00  0.00     0.250 C 
ATOM     20  C   UNL d   1      12.424   7.541  -2.267  0.00  0.00     0.037 C 
ENDBRANCH  15  19
ENDBRANCH  13  14
ENDBRANCH  11  13
ENDBRANCH   1  10
BRANCH   9  21
ATOM     21  O   UNL d   1       8.418   4.294  -9.339  0.00  0.00    -0.326 OA
ATOM     22  C   UNL d   1       9.634   3.602  -9.102  0.00  0.00     0.181 C 
ENDBRANCH   9  21
TORSDOF 5
