REMARK  6 active torsions:
REMARK  status: ('A' for Active; 'I' for Inactive)
REMARK    1  A    between atoms: C_2  and  C_3 
REMARK       I    between atoms: C_2  and  N_9 
REMARK    2  A    between atoms: N_12  and  C_13 
REMARK    3  A    between atoms: C_13  and  C_14 
REMARK    4  A    between atoms: C_14  and  C_15 
REMARK    5  A    between atoms: C_15  and  N_16 
REMARK    6  A    between atoms: N_19  and  C_20 
ROOT
ATOM      1  C   UNL d   1       9.415   6.306 -12.787  0.00  0.00     0.253 C 
ENDROOT
BRANCH   1   2
ATOM      2  N   UNL d   1      10.118   5.104 -13.240  0.00  0.00     0.141 N 
ATOM      3  C   UNL d   1      10.670   5.275 -14.587  0.00  0.00     0.274 C 
ATOM      4  C   UNL d   1      11.465   4.022 -14.985  0.00  0.00     0.140 C 
ATOM      5  N   UNL d   1      10.543   2.871 -15.001  0.00  0.00    -0.312 N 
ATOM      6  C   UNL d   1      10.366   1.985 -16.016  0.00  0.00     0.257 C 
ATOM      7  C   UNL d   1       9.905   2.681 -13.695  0.00  0.00     0.140 C 
ATOM      8  O   UNL d   1       9.845   0.883 -15.854  0.00  0.00    -0.267 OA
ATOM      9  C   UNL d   1       9.186   3.969 -13.254  0.00  0.00     0.274 C 
BRANCH   6  10
ATOM     10  C   UNL d   1      10.819   2.389 -17.386  0.00  0.00     0.056 A 
ATOM     11  C   UNL d   1      11.595   1.499 -18.170  0.00  0.00     0.005 A 
ATOM     12  C   UNL d   1      12.027   1.876 -19.457  0.00  0.00     0.000 A 
ATOM     13  C   UNL d   1      11.682   3.138 -19.979  0.00  0.00     0.000 A 
ATOM     14  C   UNL d   1      10.896   4.022 -19.216  0.00  0.00     0.000 A 
ATOM     15  C   UNL d   1      10.448   3.639 -17.939  0.00  0.00     0.005 A 
ENDBRANCH   6  10
ENDBRANCH   1   2
BRANCH   1  16
ATOM     16  C   UNL d   1       9.223   6.296 -11.254  0.00  0.00     0.071 C 
BRANCH  16  17
ATOM     17  C   UNL d   1       9.914   7.475 -10.539  0.00  0.00     0.253 C 
BRANCH  17  18
ATOM     18  N   UNL d   1       9.616   7.453  -9.113  0.00  0.00     0.141 N 
ATOM     19  C   UNL d   1       9.938   8.755  -8.526  0.00  0.00     0.274 C 
ATOM     20  C   UNL d   1       9.585   8.782  -7.034  0.00  0.00     0.137 C 
ATOM     21  N   UNL d   1      10.275   7.702  -6.326  0.00  0.00    -0.344 N 
ATOM     22  C   UNL d   1      10.038   6.392  -6.931  0.00  0.00     0.137 C 
ATOM     23  C   UNL d   1      10.390   6.426  -8.420  0.00  0.00     0.274 C 
BRANCH  21  24
ATOM     24  C   UNL d   1      11.061   7.896  -5.171  0.00  0.00     0.056 A 
ATOM     25  C   UNL d   1      11.461   6.793  -4.353  0.00  0.00     0.017 A 
ATOM     26  C   UNL d   1      12.258   6.975  -3.208  0.00  0.00     0.002 A 
ATOM     27  C   UNL d   1      12.658   8.260  -2.818  0.00  0.00     0.000 A 
ATOM     28  C   UNL d   1      12.251   9.361  -3.577  0.00  0.00     0.002 A 
ATOM     29  C   UNL d   1      11.491   9.190  -4.749  0.00  0.00     0.017 A 
ENDBRANCH  21  24
ENDBRANCH  17  18
ENDBRANCH  16  17
ENDBRANCH   1  16
TORSDOF 6
