REMARK  11 active torsions:
REMARK  status: ('A' for Active; 'I' for Inactive)
REMARK    1  A    between atoms: O_2  and  C_3 
REMARK    2  A    between atoms: C_6  and  C_7 
REMARK    3  A    between atoms: C_12  and  N_13 
REMARK    4  A    between atoms: N_16  and  C_17 
REMARK    5  A    between atoms: C_17  and  C_18 
REMARK    6  A    between atoms: C_18  and  C_19 
REMARK    7  A    between atoms: C_19  and  C_20 
REMARK    8  A    between atoms: C_20  and  C_21 
REMARK    9  A    between atoms: C_21  and  C_22 
REMARK       I    between atoms: C_22  and  N_24 
REMARK   10  A    between atoms: N_24  and  C_25 
REMARK   11  A    between atoms: C_25  and  C_27 
ROOT
ATOM      1  C   UNL d   1      11.417   8.604  -6.866  0.00  0.00    -0.000 A 
ATOM      2  C   UNL d   1      12.150   9.561  -6.093  0.00  0.00    -0.002 A 
ATOM      3  C   UNL d   1      12.374   9.318  -4.719  0.00  0.00     0.010 A 
ATOM      4  C   UNL d   1      11.915   8.125  -4.144  0.00  0.00     0.068 A 
ATOM      5  C   UNL d   1      12.134   7.854  -2.728  0.00  0.00     0.101 C 
ATOM      6  N   UNL d   1      12.288   7.615  -1.643  0.00  0.00    -0.191 NA
ATOM      7  C   UNL d   1      11.209   7.175  -4.911  0.00  0.00     0.010 A 
ATOM      8  C   UNL d   1      10.924   7.436  -6.244  0.00  0.00    -0.002 A 
ENDROOT
BRANCH   1   9
ATOM      9  C   UNL d   1      11.208   8.843  -8.358  0.00  0.00     0.129 C 
ATOM     10  C   UNL d   1      12.477   8.540  -9.195  0.00  0.00     0.031 C 
BRANCH   9  11
ATOM     11  N   UNL d   1      10.033   8.194  -8.944  0.00  0.00    -0.235 NA
ATOM     12  C   UNL d   1       9.960   6.908  -9.285  0.00  0.00     0.252 C 
ATOM     13  O   UNL d   1      10.530   5.997  -8.689  0.00  0.00    -0.271 OA
BRANCH  12  14
ATOM     14  C   UNL d   1       9.239   6.593 -10.593  0.00  0.00     0.090 C 
BRANCH  14  15
ATOM     15  C   UNL d   1       8.490   5.239 -10.476  0.00  0.00     0.010 C 
BRANCH  15  16
ATOM     16  C   UNL d   1       7.667   4.987 -11.725  0.00  0.00     0.003 C 
BRANCH  16  17
ATOM     17  C   UNL d   1       8.505   4.977 -12.997  0.00  0.00     0.035 C 
BRANCH  17  18
ATOM     18  C   UNL d   1       9.509   3.797 -13.067  0.00  0.00     0.250 C 
BRANCH  18  19
ATOM     19  N   UNL d   1      10.207   3.696 -14.354  0.00  0.00     0.141 N 
ATOM     20  C   UNL d   1       9.241   3.788 -15.456  0.00  0.00     0.274 C 
ATOM     21  C   UNL d   1       9.949   3.703 -16.791  0.00  0.00     0.137 C 
ATOM     22  N   UNL d   1      10.703   2.467 -16.893  0.00  0.00    -0.344 N 
ATOM     23  C   UNL d   1      11.621   2.237 -15.783  0.00  0.00     0.137 C 
ATOM     24  C   UNL d   1      10.882   2.386 -14.427  0.00  0.00     0.274 C 
BRANCH  22  25
ATOM     25  C   UNL d   1      10.585   1.599 -17.988  0.00  0.00     0.056 A 
ATOM     26  C   UNL d   1      10.462   2.083 -19.320  0.00  0.00     0.015 A 
ATOM     27  C   UNL d   1      10.305   1.155 -20.371  0.00  0.00     0.001 A 
ATOM     28  C   UNL d   1      10.304  -0.227 -20.121  0.00  0.00     0.000 A 
ATOM     29  C   UNL d   1      10.437  -0.703 -18.807  0.00  0.00     0.002 A 
ATOM     30  C   UNL d   1      10.576   0.209 -17.746  0.00  0.00     0.017 A 
BRANCH  26  31
ATOM     31  C   UNL d   1      10.448   3.512 -19.678  0.00  0.00     0.002 A 
ATOM     32  C   UNL d   1       9.299   4.062 -20.283  0.00  0.00     0.002 A 
ATOM     33  C   UNL d   1       9.223   5.435 -20.560  0.00  0.00     0.024 A 
ATOM     34  C   UNL d   1      10.300   6.304 -20.258  0.00  0.00     0.094 A 
ATOM     35  C   UNL d   1      11.456   5.753 -19.653  0.00  0.00     0.024 A 
ATOM     36  C   UNL d   1      11.525   4.372 -19.381  0.00  0.00     0.002 A 
BRANCH  34  37
ATOM     37  O   UNL d   1      10.249   7.654 -20.553  0.00  0.00    -0.328 OA
ATOM     38  C   UNL d   1       9.068   8.143 -21.183  0.00  0.00     0.181 C 
ENDBRANCH  34  37
ENDBRANCH  26  31
ENDBRANCH  22  25
ENDBRANCH  18  19
ENDBRANCH  17  18
ENDBRANCH  16  17
ENDBRANCH  15  16
ENDBRANCH  14  15
ENDBRANCH  12  14
ENDBRANCH   9  11
ENDBRANCH   1   9
TORSDOF 11
