REMARK  10 active torsions:
REMARK  status: ('A' for Active; 'I' for Inactive)
REMARK    1  A    between atoms: C_2  and  C_3 
REMARK    2  A    between atoms: C_3  and  N_4 
REMARK    3  A    between atoms: N_4  and  C_5 
REMARK    4  A    between atoms: N_4  and  C_24 
REMARK    5  A    between atoms: C_5  and  C_6 
REMARK    6  A    between atoms: C_6  and  C_7 
REMARK    7  A    between atoms: C_7  and  C_8 
REMARK    8  A    between atoms: C_8  and  N_9 
REMARK       I    between atoms: N_9  and  C_10 
REMARK    9  A    between atoms: C_10  and  C_12 
REMARK   10  A    between atoms: C_15  and  C_16 
ROOT
ATOM      1  C   UNL d   1       9.300   3.759 -13.816  0.00  0.00     0.037 C 
ENDROOT
BRANCH   1   2
ATOM      2  C   UNL d   1      10.415   2.940 -14.494  0.00  0.00     0.250 C 
BRANCH   2   3
ATOM      3  N   UNL d   1      10.004   2.360 -15.783  0.00  0.00     0.135 N 
BRANCH   3   4
ATOM      4  C   UNL d   1      11.032   1.428 -16.282  0.00  0.00     0.250 C 
BRANCH   4   5
ATOM      5  C   UNL d   1      12.276   2.148 -16.811  0.00  0.00     0.035 C 
ATOM      6  C   UNL d   1      11.972   3.026 -18.029  0.00  0.00     0.002 C 
ENDBRANCH   4   5
ENDBRANCH   3   4
BRANCH   3   7
ATOM      7  C   UNL d   1       8.667   1.752 -15.769  0.00  0.00     0.224 C 
ATOM      8  C   UNL d   1       8.122   1.599 -17.205  0.00  0.00     0.062 C 
ATOM      9  C   UNL d   1       6.859   0.762 -17.243  0.00  0.00     0.013 A 
ATOM     10  C   UNL d   1       6.442  -0.042 -16.159  0.00  0.00     0.058 A 
ATOM     11  C   UNL d   1       6.066   0.720 -18.399  0.00  0.00     0.097 A 
ATOM     12  C   UNL d   1       7.190  -0.106 -14.841  0.00  0.00     0.048 C 
ATOM     13  N   UNL d   1       5.332  -0.801 -16.244  0.00  0.00    -0.235 NA
ATOM     14  C   UNL d   1       8.618   0.442 -14.950  0.00  0.00     0.040 C 
ATOM     15  C   UNL d   1       4.666  -0.776 -17.401  0.00  0.00     0.139 A 
ATOM     16  C   UNL d   1       3.419  -1.614 -17.477  0.00  0.00     0.074 C 
ATOM     17  N   UNL d   1       4.965  -0.056 -18.482  0.00  0.00    -0.230 NA
ENDBRANCH   3   7
ENDBRANCH   2   3
ENDBRANCH   1   2
BRANCH   1  18
ATOM     18  C   UNL d   1       9.724   4.423 -12.509  0.00  0.00     0.029 C 
BRANCH  18  19
ATOM     19  C   UNL d   1       8.561   5.217 -11.894  0.00  0.00     0.129 C 
BRANCH  19  20
ATOM     20  N   UNL d   1       8.941   5.738 -10.593  0.00  0.00    -0.234 NA
ATOM     21  C   UNL d   1       9.514   6.931 -10.386  0.00  0.00     0.275 C 
ATOM     22  O   UNL d   1       9.706   7.759 -11.280  0.00  0.00    -0.266 OA
BRANCH  21  23
ATOM     23  C   UNL d   1      10.003   7.183  -8.991  0.00  0.00     0.058 A 
ATOM     24  C   UNL d   1      11.093   8.050  -8.771  0.00  0.00     0.005 A 
ATOM     25  C   UNL d   1      11.545   8.313  -7.463  0.00  0.00     0.000 A 
ATOM     26  C   UNL d   1      10.917   7.714  -6.351  0.00  0.00     0.000 A 
ATOM     27  C   UNL d   1       9.821   6.855  -6.575  0.00  0.00     0.000 A 
ATOM     28  C   UNL d   1       9.357   6.597  -7.877  0.00  0.00     0.005 A 
BRANCH  26  29
ATOM     29  C   UNL d   1      11.389   7.991  -4.986  0.00  0.00     0.000 A 
ATOM     30  C   UNL d   1      11.464   9.316  -4.507  0.00  0.00     0.000 A 
ATOM     31  C   UNL d   1      11.894   9.578  -3.194  0.00  0.00     0.000 A 
ATOM     32  C   UNL d   1      12.269   8.518  -2.346  0.00  0.00     0.000 A 
ATOM     33  C   UNL d   1      12.199   7.192  -2.811  0.00  0.00     0.000 A 
ATOM     34  C   UNL d   1      11.755   6.935  -4.122  0.00  0.00     0.000 A 
ENDBRANCH  26  29
ENDBRANCH  21  23
ENDBRANCH  19  20
ENDBRANCH  18  19
ENDBRANCH   1  18
TORSDOF 10
