REMARK  8 active torsions:
REMARK  status: ('A' for Active; 'I' for Inactive)
REMARK    1  A    between atoms: C_2  and  C_3 
REMARK    2  A    between atoms: C_3  and  N_4 
REMARK    3  A    between atoms: C_8  and  C_9 
REMARK    4  A    between atoms: C_9  and  N_10 
REMARK       I    between atoms: N_10  and  C_11 
REMARK    5  A    between atoms: C_11  and  C_13 
REMARK    6  A    between atoms: C_17  and  C_18 
REMARK    7  A    between atoms: C_18  and  C_19 
REMARK    8  A    between atoms: C_19  and  C_20 
ROOT
ATOM      1  N   UNL d   1      10.148   6.331  -8.551  0.00  0.00    -0.232 NA
ATOM      2  C   UNL d   1      10.334   6.898  -9.759  0.00  0.00     0.275 C 
ATOM      3  O   UNL d   1      11.250   7.677 -10.015  0.00  0.00    -0.266 OA
ENDROOT
BRANCH   2   4
ATOM      4  C   UNL d   1       9.257   6.647 -10.780  0.00  0.00     0.057 C 
ATOM      5  C   UNL d   1       8.508   5.453 -10.762  0.00  0.00     0.001 C 
ATOM      6  C   UNL d   1       7.410   5.286 -11.643  0.00  0.00    -0.022 C 
ATOM      7  C   UNL d   1       7.028   6.338 -12.472  0.00  0.00    -0.004 C 
ATOM      8  C   UNL d   1       7.770   7.522 -12.492  0.00  0.00    -0.000 C 
ATOM      9  C   UNL d   1       8.952   7.654 -11.716  0.00  0.00     0.005 C 
BRANCH   6  10
ATOM     10  C   UNL d   1       6.573   4.037 -11.650  0.00  0.00     0.029 C 
BRANCH  10  11
ATOM     11  C   UNL d   1       6.547   3.354 -13.040  0.00  0.00     0.043 C 
BRANCH  11  12
ATOM     12  C   UNL d   1       5.418   2.332 -13.141  0.00  0.00     0.194 C 
ATOM     13  F   UNL d   1       5.445   1.384 -12.207  0.00  0.00    -0.234 F 
ENDBRANCH  11  12
ENDBRANCH  10  11
ENDBRANCH   6  10
ENDBRANCH   2   4
BRANCH   1  14
ATOM     14  C   UNL d   1      11.001   6.523  -7.375  0.00  0.00     0.162 C 
BRANCH  14  15
ATOM     15  C   UNL d   1      10.572   7.744  -6.533  0.00  0.00     0.244 C 
ATOM     16  N   UNL d   1      11.459   7.937  -5.386  0.00  0.00     0.141 N 
ATOM     17  C   UNL d   1      11.219   9.313  -4.962  0.00  0.00     0.251 C 
ATOM     18  C   UNL d   1      11.139  10.102  -6.250  0.00  0.00     0.037 C 
ATOM     19  C   UNL d   1      10.722   9.083  -7.283  0.00  0.00     0.037 C 
BRANCH  16  20
ATOM     20  C   UNL d   1      11.315   6.904  -4.352  0.00  0.00     0.277 C 
BRANCH  20  21
ATOM     21  C   UNL d   1      11.864   7.313  -2.987  0.00  0.00     0.009 C 
ATOM     22  C   UNL d   1      12.662   6.565  -2.224  0.00  0.00    -0.003 C 
ENDBRANCH  20  21
ENDBRANCH  16  20
ENDBRANCH  14  15
ENDBRANCH   1  14
TORSDOF 8
