REMARK  7 active torsions:
REMARK  status: ('A' for Active; 'I' for Inactive)
REMARK    1  A    between atoms: O_2  and  C_3 
REMARK    2  A    between atoms: C_8  and  C_9 
REMARK       I    between atoms: C_9  and  N_11 
REMARK    3  A    between atoms: N_11  and  C_12 
REMARK    4  A    between atoms: C_12  and  C_13 
REMARK    5  A    between atoms: C_14  and  C_15 
REMARK    6  A    between atoms: C_15  and  N_16 
REMARK    7  A    between atoms: N_19  and  C_20 
ROOT
ATOM      1  C   UNL d   1       9.491   6.523 -11.441  0.00  0.00     0.276 C 
ENDROOT
BRANCH   1   2
ATOM      2  C   UNL d   1       9.427   5.064 -11.852  0.00  0.00     0.006 C 
ATOM      3  C   UNL d   1       9.970   4.571 -12.982  0.00  0.00    -0.003 C 
BRANCH   3   4
ATOM      4  C   UNL d   1       9.893   3.121 -13.405  0.00  0.00     0.155 C 
BRANCH   4   5
ATOM      5  N   UNL d   1       9.265   2.972 -14.707  0.00  0.00    -0.229 NA
ATOM      6  C   UNL d   1       9.957   2.839 -15.845  0.00  0.00     0.277 C 
ATOM      7  O   UNL d   1      11.172   3.035 -15.907  0.00  0.00    -0.266 OA
BRANCH   6   8
ATOM      8  C   UNL d   1       9.148   2.413 -17.045  0.00  0.00     0.080 A 
ATOM      9  C   UNL d   1       9.486   2.847 -18.356  0.00  0.00     0.099 A 
ATOM     10  C   UNL d   1       8.725   2.368 -19.455  0.00  0.00     0.024 A 
ATOM     11  C   UNL d   1       7.654   1.477 -19.261  0.00  0.00     0.002 A 
ATOM     12  C   UNL d   1       7.324   1.049 -17.965  0.00  0.00     0.000 A 
ATOM     13  C   UNL d   1       8.072   1.507 -16.868  0.00  0.00     0.007 A 
BRANCH   9  14
ATOM     14  O   UNL d   1      10.541   3.726 -18.508  0.00  0.00    -0.328 OA
ATOM     15  C   UNL d   1      10.957   4.079 -19.818  0.00  0.00     0.181 C 
ENDBRANCH   9  14
ENDBRANCH   6   8
ENDBRANCH   4   5
ENDBRANCH   3   4
ENDBRANCH   1   2
BRANCH   1  16
ATOM     16  N   UNL d   1       9.414   6.755 -10.017  0.00  0.00     0.145 N 
ATOM     17  C   UNL d   1      10.503   6.098  -9.307  0.00  0.00     0.275 C 
ATOM     18  C   UNL d   1      10.336   6.313  -7.809  0.00  0.00     0.137 C 
ATOM     19  N   UNL d   1      10.242   7.729  -7.511  0.00  0.00    -0.344 N 
ATOM     20  C   UNL d   1       9.278   8.491  -8.292  0.00  0.00     0.137 C 
ATOM     21  C   UNL d   1       9.491   8.217  -9.795  0.00  0.00     0.275 C 
BRANCH  19  22
ATOM     22  C   UNL d   1      11.023   8.335  -6.553  0.00  0.00     0.068 A 
ATOM     23  C   UNL d   1      11.263   7.824  -5.252  0.00  0.00     0.084 A 
ATOM     24  C   UNL d   1      12.042   8.444  -4.290  0.00  0.00     0.070 A 
ATOM     25 CL   UNL d   1      10.655   6.392  -4.782  0.00  0.00    -0.080 Cl
ATOM     26  C   UNL d   1      12.700   9.577  -4.662  0.00  0.00     0.012 A 
ATOM     27 CL   UNL d   1      12.214   7.853  -2.672  0.00  0.00    -0.081 Cl
ATOM     28  C   UNL d   1      12.452  10.155  -5.945  0.00  0.00     0.002 A 
ATOM     29  C   UNL d   1      11.655   9.525  -6.891  0.00  0.00     0.018 A 
ENDBRANCH  19  22
ENDBRANCH   1  16
TORSDOF 7
