REMARK  6 active torsions:
REMARK  status: ('A' for Active; 'I' for Inactive)
REMARK       I    between atoms: C_2  and  N_3 
REMARK    1  A    between atoms: C_2  and  C_28 
REMARK    2  A    between atoms: N_3  and  C_4 
REMARK    3  A    between atoms: C_4  and  C_5 
REMARK    4  A    between atoms: C_8  and  C_9 
REMARK    5  A    between atoms: C_9  and  N_10 
REMARK    6  A    between atoms: N_13  and  C_14 
ROOT
ATOM      1  N   UNL d   1       8.414   4.853 -12.195  0.00  0.00     0.141 N 
ATOM      2  C   UNL d   1       7.211   4.263 -12.783  0.00  0.00     0.274 C 
ATOM      3  C   UNL d   1       7.445   4.166 -14.283  0.00  0.00     0.138 C 
ATOM      4  N   UNL d   1       8.615   3.362 -14.586  0.00  0.00    -0.329 N 
ATOM      5  C   UNL d   1       9.816   3.934 -14.004  0.00  0.00     0.138 C 
ATOM      6  C   UNL d   1       9.589   4.028 -12.504  0.00  0.00     0.274 C 
ENDROOT
BRANCH   1   7
ATOM      7  C   UNL d   1       8.171   4.999 -10.761  0.00  0.00     0.250 C 
BRANCH   7   8
ATOM      8  C   UNL d   1       9.315   5.711 -10.034  0.00  0.00     0.033 C 
ATOM      9  C   UNL d   1       9.613   7.097 -10.655  0.00  0.00     0.002 C 
ATOM     10  C   UNL d   1      10.752   7.803  -9.909  0.00  0.00     0.002 C 
ATOM     11  C   UNL d   1      10.478   7.876  -8.396  0.00  0.00     0.025 C 
ATOM     12  C   UNL d   1      10.138   6.472  -7.811  0.00  0.00     0.002 C 
ATOM     13  C   UNL d   1       8.979   5.819  -8.546  0.00  0.00     0.002 C 
BRANCH  11  14
ATOM     14  C   UNL d   1      11.669   8.552  -7.682  0.00  0.00     0.129 C 
BRANCH  14  15
ATOM     15  N   UNL d   1      11.597   8.348  -6.253  0.00  0.00    -0.233 NA
ATOM     16  C   UNL d   1      11.515   9.280  -5.304  0.00  0.00     0.298 C 
ATOM     17  O   UNL d   1      11.287  10.467  -5.520  0.00  0.00    -0.263 OA
BRANCH  16  18
ATOM     18  C   UNL d   1      11.808   8.778  -3.956  0.00  0.00     0.157 A 
ATOM     19  O   UNL d   1      11.882   9.693  -2.958  0.00  0.00    -0.300 OA
ATOM     20  C   UNL d   1      12.262   9.027  -1.834  0.00  0.00     0.123 A 
ATOM     21  C   UNL d   1      12.341   7.686  -2.062  0.00  0.00     0.029 A 
ATOM     22  C   UNL d   1      12.063   7.520  -3.454  0.00  0.00     0.032 A 
ENDBRANCH  16  18
ENDBRANCH  14  15
ENDBRANCH  11  14
ENDBRANCH   7   8
ENDBRANCH   1   7
BRANCH   4  23
ATOM     23  C   UNL d   1       8.645   2.330 -15.502  0.00  0.00     0.148 A 
ATOM     24  C   UNL d   1       7.526   1.388 -15.600  0.00  0.00     0.042 A 
ATOM     25  C   UNL d   1       7.804   0.452 -16.654  0.00  0.00     0.051 A 
ATOM     26  C   UNL d   1       6.326   1.196 -14.870  0.00  0.00     0.004 A 
ATOM     27  S   UNL d   1       9.404   0.798 -17.291  0.00  0.00     0.015 SA
ATOM     28  C   UNL d   1       6.896  -0.560 -16.983  0.00  0.00     0.019 A 
ATOM     29  N   UNL d   1       9.683   2.122 -16.291  0.00  0.00    -0.192 NA
ATOM     30  C   UNL d   1       5.714  -0.709 -16.241  0.00  0.00     0.058 A 
ATOM     31 CL   UNL d   1       4.660  -2.012 -16.552  0.00  0.00    -0.082 Cl
ATOM     32  C   UNL d   1       5.412   0.190 -15.207  0.00  0.00     0.011 A 
ENDBRANCH   4  23
TORSDOF 6
