REMARK  7 active torsions:
REMARK  status: ('A' for Active; 'I' for Inactive)
REMARK    1  A    between atoms: N_11  and  C_12 
REMARK    2  A    between atoms: C_12  and  C_13 
REMARK    3  A    between atoms: C_13  and  C_14 
REMARK    4  A    between atoms: C_14  and  N_15 
REMARK    5  A    between atoms: C_18  and  C_19 
REMARK    6  A    between atoms: C_19  and  C_20 
REMARK    7  A    between atoms: C_20  and  C_21 
ROOT
ATOM      1  N   UNL d   1       9.459   5.877 -11.084  0.00  0.00     0.137 N 
ATOM      2  C   UNL d   1       8.582   5.313 -10.050  0.00  0.00     0.250 C 
ATOM      3  C   UNL d   1       9.266   5.394  -8.688  0.00  0.00     0.035 C 
ATOM      4  C   UNL d   1       9.593   6.848  -8.330  0.00  0.00     0.004 C 
ATOM      5  C   UNL d   1      10.391   7.478  -9.479  0.00  0.00     0.035 C 
ATOM      6  C   UNL d   1       9.664   7.300 -10.819  0.00  0.00     0.250 C 
ENDROOT
BRANCH   1   7
ATOM      7  C   UNL d   1       8.816   5.752 -12.385  0.00  0.00     0.252 C 
BRANCH   7   8
ATOM      8  C   UNL d   1       8.905   4.314 -12.920  0.00  0.00     0.060 C 
BRANCH   8   9
ATOM      9  C   UNL d   1       8.020   4.134 -14.154  0.00  0.00     0.111 C 
BRANCH   9  10
ATOM     10  N   UNL d   1       8.242   2.814 -14.796  0.00  0.00    -0.299 N 
ATOM     11  C   UNL d   1       7.290   1.849 -14.685  0.00  0.00     0.238 C 
ATOM     12  O   UNL d   1       6.258   1.986 -14.022  0.00  0.00    -0.272 OA
ATOM     13  C   UNL d   1       7.486   0.535 -15.448  0.00  0.00     0.093 C 
ATOM     14  C   UNL d   1       8.961   0.119 -15.507  0.00  0.00     0.038 C 
ATOM     15  C   UNL d   1       9.854   1.280 -15.892  0.00  0.00    -0.006 A 
ATOM     16  C   UNL d   1       9.476   2.593 -15.516  0.00  0.00     0.058 A 
ATOM     17  C   UNL d   1      11.065   1.054 -16.583  0.00  0.00    -0.003 A 
ATOM     18  C   UNL d   1      10.344   3.668 -15.839  0.00  0.00     0.017 A 
ATOM     19  C   UNL d   1      11.549   3.436 -16.527  0.00  0.00     0.002 A 
ATOM     20  C   UNL d   1      11.913   2.134 -16.905  0.00  0.00    -0.000 A 
ENDBRANCH   9  10
ENDBRANCH   8   9
ENDBRANCH   7   8
ENDBRANCH   1   7
BRANCH   4  21
ATOM     21  C   UNL d   1      10.351   6.903  -7.005  0.00  0.00     0.005 C 
BRANCH  21  22
ATOM     22  C   UNL d   1      10.595   8.318  -6.461  0.00  0.00     0.026 C 
BRANCH  22  23
ATOM     23  C   UNL d   1      11.200   8.330  -5.066  0.00  0.00    -0.022 A 
ATOM     24  C   UNL d   1      11.335   9.562  -4.389  0.00  0.00    -0.004 A 
ATOM     25  C   UNL d   1      11.863   9.593  -3.081  0.00  0.00    -0.000 A 
ATOM     26  C   UNL d   1      12.266   8.400  -2.446  0.00  0.00    -0.000 A 
ATOM     27  C   UNL d   1      12.138   7.173  -3.118  0.00  0.00    -0.000 A 
ATOM     28  C   UNL d   1      11.610   7.137  -4.420  0.00  0.00    -0.004 A 
ENDBRANCH  22  23
ENDBRANCH  21  22
ENDBRANCH   4  21
TORSDOF 7
