REMARK  3 active torsions:
REMARK  status: ('A' for Active; 'I' for Inactive)
REMARK       I    between atoms: C_2  and  N_4 
REMARK    1  A    between atoms: N_4  and  C_5 
REMARK    2  A    between atoms: C_8  and  N_9 
REMARK       I    between atoms: N_9  and  C_10 
REMARK    3  A    between atoms: C_15  and  C_16 
ROOT
ATOM      1  C   UNL d   1       7.938   3.100 -14.052  0.00  0.00     0.097 A 
ATOM      2  C   UNL d   1       7.197   1.947 -14.372  0.00  0.00     0.066 A 
ATOM      3  I   UNL d   1       5.633   1.306 -13.181  0.00  0.00    -0.040 I 
ATOM      4  C   UNL d   1       7.596   1.129 -15.452  0.00  0.00     0.097 A 
ATOM      5  C   UNL d   1       8.789   1.393 -16.166  0.00  0.00     0.055 A 
ATOM      6  I   UNL d   1       9.378   0.057 -17.694  0.00  0.00    -0.041 I 
ATOM      7  C   UNL d   1       9.569   2.517 -15.816  0.00  0.00     0.078 A 
ATOM      8  C   UNL d   1       9.136   3.365 -14.755  0.00  0.00     0.055 A 
ATOM      9  I   UNL d   1      10.297   5.009 -14.130  0.00  0.00    -0.041 I 
ENDROOT
BRANCH   1  10
ATOM     10  N   UNL d   1       7.579   3.977 -12.981  0.00  0.00    -0.211 NA
ATOM     11  C   UNL d   1       6.425   4.661 -12.909  0.00  0.00     0.256 C 
ATOM     12  C   UNL d   1       6.377   5.859 -11.927  0.00  0.00     0.100 C 
ATOM     13  O   UNL d   1       5.437   4.364 -13.584  0.00  0.00    -0.270 OA
ENDBRANCH   1  10
BRANCH   7  14
ATOM     14  C   UNL d   1      10.837   2.802 -16.554  0.00  0.00     0.212 C 
ATOM     15  O   UNL d   1      10.978   3.815 -17.233  0.00  0.00    -0.644 OA
ATOM     16  O   UNL d   1      11.799   1.848 -16.417  0.00  0.00    -0.644 OA
ENDBRANCH   7  14
BRANCH   4  17
ATOM     17  N   UNL d   1       6.817  -0.013 -15.767  0.00  0.00    -0.211 NA
ATOM     18  C   UNL d   1       5.939  -0.068 -16.782  0.00  0.00     0.256 C 
ATOM     19  C   UNL d   1       5.073  -1.320 -16.869  0.00  0.00     0.100 C 
ATOM     20  O   UNL d   1       5.825   0.821 -17.624  0.00  0.00    -0.270 OA
ENDBRANCH   4  17
TORSDOF 3
