REMARK  3 active torsions:
REMARK  status: ('A' for Active; 'I' for Inactive)
REMARK    1  A    between atoms: C_5  and  C_6 
REMARK       I    between atoms: C_6  and  N_8 
REMARK    2  A    between atoms: N_8  and  N_9 
REMARK    3  A    between atoms: C_18  and  N_19 
ROOT
ATOM      1  N   UNL d   1       8.395   1.070 -17.315  0.00  0.00    -0.225 N 
ATOM      2  C   UNL d   1       7.197   0.454 -17.701  0.00  0.00     0.101 A 
ATOM      3  C   UNL d   1       6.541  -0.410 -16.795  0.00  0.00     0.022 A 
ATOM      4  C   UNL d   1       5.390  -1.118 -17.183  0.00  0.00     0.013 A 
ATOM      5  C   UNL d   1       4.878  -0.969 -18.480  0.00  0.00     0.059 A 
ATOM      6 CL   UNL d   1       3.481  -1.865 -18.937  0.00  0.00    -0.082 Cl
ATOM      7  C   UNL d   1       5.513  -0.097 -19.385  0.00  0.00     0.032 A 
ATOM      8  C   UNL d   1       6.676   0.618 -19.017  0.00  0.00     0.101 A 
ATOM      9  N   UNL d   1       7.162   1.531 -19.964  0.00  0.00    -0.227 NA
ATOM     10  C   UNL d   1       8.409   1.835 -20.160  0.00  0.00     0.142 C 
ATOM     11  C   UNL d   1       9.578   1.195 -19.450  0.00  0.00     0.051 A 
ATOM     12  C   UNL d   1      10.768   0.954 -20.179  0.00  0.00     0.004 A 
ATOM     13  C   UNL d   1      11.922   0.465 -19.539  0.00  0.00     0.000 A 
ATOM     14  C   UNL d   1      11.898   0.198 -18.160  0.00  0.00     0.002 A 
ATOM     15  C   UNL d   1      10.720   0.404 -17.426  0.00  0.00     0.019 A 
ATOM     16  C   UNL d   1       9.560   0.891 -18.066  0.00  0.00     0.086 A 
ENDROOT
BRANCH   1  17
ATOM     17  N   UNL d   1       8.470   1.698 -16.060  0.00  0.00    -0.123 NA
ATOM     18  C   UNL d   1       9.058   2.894 -15.852  0.00  0.00     0.295 C 
ATOM     19  O   UNL d   1       9.766   3.479 -16.669  0.00  0.00    -0.264 OA
BRANCH  18  20
ATOM     20  C   UNL d   1       8.779   3.508 -14.515  0.00  0.00     0.059 A 
ATOM     21  C   UNL d   1       7.505   3.378 -13.917  0.00  0.00     0.004 A 
ATOM     22  C   UNL d   1       7.231   4.016 -12.694  0.00  0.00    -0.004 A 
ATOM     23  C   UNL d   1       8.224   4.794 -12.067  0.00  0.00    -0.022 A 
ATOM     24  C   UNL d   1       7.931   5.460 -10.741  0.00  0.00     0.031 C 
ATOM     25  C   UNL d   1       9.485   4.949 -12.674  0.00  0.00    -0.004 A 
ATOM     26  C   UNL d   1       9.760   4.313 -13.899  0.00  0.00     0.004 A 
ENDBRANCH  18  20
ENDBRANCH   1  17
BRANCH  10  27
ATOM     27  N   UNL d   1       8.752   2.841 -21.058  0.00  0.00    -0.330 N 
ATOM     28  C   UNL d   1       9.658   3.944 -20.745  0.00  0.00     0.138 C 
ATOM     29  C   UNL d   1       8.996   5.301 -21.051  0.00  0.00     0.274 C 
ATOM     30  N   UNL d   1       8.575   5.343 -22.454  0.00  0.00     0.143 N 
ATOM     31  C   UNL d   1       7.580   4.293 -22.680  0.00  0.00     0.274 C 
ATOM     32  C   UNL d   1       7.982   6.639 -22.745  0.00  0.00     0.286 C 
ATOM     33  C   UNL d   1       8.200   2.913 -22.406  0.00  0.00     0.138 C 
ENDBRANCH  10  27
TORSDOF 3
