REMARK  2 active torsions:
REMARK  status: ('A' for Active; 'I' for Inactive)
REMARK    1  A    between atoms: C_2  and  C_3 
REMARK       I    between atoms: C_3  and  N_5 
REMARK    2  A    between atoms: N_5  and  C_6 
ROOT
ATOM      1  C   UNL d   1      13.010   5.295 -17.546  0.00  0.00     0.080 C 
ATOM      2  C   UNL d   1      12.290   6.471 -17.870  0.00  0.00     0.019 C 
ATOM      3  C   UNL d   1      10.946   6.471 -18.098  0.00  0.00     0.001 C 
ATOM      4  C   UNL d   1      10.182   5.314 -17.832  0.00  0.00    -0.004 C 
ATOM      5  C   UNL d   1      10.831   4.145 -17.384  0.00  0.00    -0.019 C 
ATOM      6  C   UNL d   1      12.259   4.118 -17.294  0.00  0.00    -0.008 C 
ATOM      7  C   UNL d   1      12.938   2.814 -16.916  0.00  0.00     0.030 C 
ATOM      8  C   UNL d   1      12.144   1.613 -17.414  0.00  0.00     0.039 C 
ATOM      9  C   UNL d   1      10.732   1.617 -16.808  0.00  0.00     0.228 C 
ATOM     10  C   UNL d   1       9.966   2.953 -17.005  0.00  0.00     0.075 C 
ATOM     11  C   UNL d   1       9.069   3.220 -15.788  0.00  0.00    -0.018 A 
ATOM     12  C   UNL d   1       9.336   4.289 -14.894  0.00  0.00     0.024 A 
ATOM     13  C   UNL d   1       8.493   4.539 -13.794  0.00  0.00     0.141 A 
ATOM     14  O   UNL d   1       8.770   5.584 -12.959  0.00  0.00    -0.189 OA
ATOM     15  C   UNL d   1       7.374   3.713 -13.570  0.00  0.00     0.083 A 
ATOM     16 CL   UNL d   1       6.319   3.997 -12.233  0.00  0.00    -0.080 Cl
ATOM     17  C   UNL d   1       7.119   2.633 -14.433  0.00  0.00     0.009 A 
ATOM     18  C   UNL d   1       7.963   2.377 -15.533  0.00  0.00    -0.023 A 
ATOM     19  C   UNL d   1       7.675   1.172 -16.409  0.00  0.00     0.061 C 
ATOM     20  C   UNL d   1       8.809   0.132 -16.362  0.00  0.00     0.255 C 
ATOM     21  N   UNL d   1       9.978   0.419 -17.195  0.00  0.00     0.138 N 
ATOM     22  C   UNL d   1       9.680   0.283 -18.621  0.00  0.00     0.285 C 
ENDROOT
BRANCH   1  23
ATOM     23  N   UNL d   1      14.443   5.252 -17.432  0.00  0.00    -0.212 NA
ATOM     24  C   UNL d   1      15.365   6.043 -18.002  0.00  0.00     0.256 C 
ATOM     25  O   UNL d   1      16.575   5.881 -17.760  0.00  0.00    -0.270 OA
BRANCH  24  26
ATOM     26  C   UNL d   1      14.933   7.155 -18.987  0.00  0.00     0.090 C 
ATOM     27  C   UNL d   1      15.125   8.557 -18.337  0.00  0.00     0.010 C 
ENDBRANCH  24  26
ENDBRANCH   1  23
TORSDOF 2
