REMARK  8 active torsions:
REMARK  status: ('A' for Active; 'I' for Inactive)
REMARK    1  A    between atoms: O_2  and  C_3 
REMARK    2  A    between atoms: C_8  and  N_9 
REMARK    3  A    between atoms: N_12  and  C_13 
REMARK    4  A    between atoms: C_13  and  C_14 
REMARK    5  A    between atoms: C_14  and  C_15 
REMARK    6  A    between atoms: C_15  and  C_16 
REMARK    7  A    between atoms: C_16  and  N_17 
REMARK       I    between atoms: N_17  and  C_18 
REMARK       I    between atoms: C_18  and  N_20 
REMARK    8  A    between atoms: N_21  and  C_22 
ROOT
ATOM      1  C   UNL d   1      10.603   7.919 -10.323  0.00  0.00     0.251 C 
ENDROOT
BRANCH   1   2
ATOM      2  N   UNL d   1      10.388   8.574  -9.033  0.00  0.00     0.141 N 
ATOM      3  C   UNL d   1      11.714   8.956  -8.514  0.00  0.00     0.274 C 
ATOM      4  C   UNL d   1      11.590   9.668  -7.127  0.00  0.00     0.137 C 
ATOM      5  N   UNL d   1      10.809   8.865  -6.217  0.00  0.00    -0.343 N 
ATOM      6  C   UNL d   1       9.540   8.351  -6.695  0.00  0.00     0.137 C 
ATOM      7  C   UNL d   1       9.686   7.689  -8.081  0.00  0.00     0.274 C 
BRANCH   5   8
ATOM      8  C   UNL d   1      11.334   8.496  -4.946  0.00  0.00     0.079 A 
ATOM      9  C   UNL d   1      11.484   7.147  -4.557  0.00  0.00     0.110 A 
ATOM     10  C   UNL d   1      11.912   6.816  -3.266  0.00  0.00     0.026 A 
ATOM     11  C   UNL d   1      12.279   7.821  -2.350  0.00  0.00     0.002 A 
ATOM     12  C   UNL d   1      12.153   9.177  -2.751  0.00  0.00     0.002 A 
ATOM     13  C   UNL d   1      11.685   9.503  -4.027  0.00  0.00     0.019 A 
BRANCH   9  14
ATOM     14  O   UNL d   1      11.110   6.115  -5.369  0.00  0.00    -0.327 OA
ATOM     15  C   UNL d   1      11.956   5.903  -6.492  0.00  0.00     0.181 C 
ENDBRANCH   9  14
ENDBRANCH   5   8
ENDBRANCH   1   2
BRANCH   1  16
ATOM     16  C   UNL d   1       9.285   7.509 -11.000  0.00  0.00     0.037 C 
BRANCH  16  17
ATOM     17  C   UNL d   1       9.439   6.588 -12.201  0.00  0.00     0.029 C 
BRANCH  17  18
ATOM     18  C   UNL d   1       8.089   5.973 -12.594  0.00  0.00     0.131 C 
BRANCH  18  19
ATOM     19  N   UNL d   1       8.322   4.883 -13.509  0.00  0.00    -0.216 NA
ATOM     20  C   UNL d   1       7.540   3.795 -13.636  0.00  0.00     0.382 C 
ATOM     21  O   UNL d   1       6.457   3.642 -13.085  0.00  0.00    -0.241 OA
ATOM     22  N   UNL d   1       8.050   2.728 -14.549  0.00  0.00    -0.088 NA
ATOM     23  N   UNL d   1       9.268   2.792 -14.886  0.00  0.00    -0.144 NA
BRANCH  23  24
ATOM     24  C   UNL d   1       9.698   1.787 -15.766  0.00  0.00     0.103 A 
ATOM     25  C   UNL d   1       8.902   0.675 -16.138  0.00  0.00     0.023 A 
ATOM     26  C   UNL d   1       9.381  -0.269 -17.054  0.00  0.00     0.031 A 
ATOM     27  C   UNL d   1      10.662  -0.133 -17.599  0.00  0.00     0.140 A 
ATOM     28  C   UNL d   1      11.478   0.955 -17.230  0.00  0.00     0.031 A 
ATOM     29  F   UNL d   1      11.133  -1.056 -18.474  0.00  0.00    -0.204 F 
ATOM     30  C   UNL d   1      11.000   1.915 -16.306  0.00  0.00     0.023 A 
ENDBRANCH  23  24
ENDBRANCH  18  19
ENDBRANCH  17  18
ENDBRANCH  16  17
ENDBRANCH   1  16
TORSDOF 8
