REMARK  8 active torsions:
REMARK  status: ('A' for Active; 'I' for Inactive)
REMARK    1  A    between atoms: S_2  and  N_4 
REMARK    2  A    between atoms: S_2  and  C_25 
REMARK    3  A    between atoms: N_4  and  C_5 
REMARK    4  A    between atoms: C_5  and  C_6 
REMARK    5  A    between atoms: C_6  and  C_7 
REMARK    6  A    between atoms: C_7  and  C_8 
REMARK    7  A    between atoms: C_8  and  N_9 
REMARK    8  A    between atoms: C_12  and  C_13 
ROOT
ATOM      1  C   UNL d   1       8.510   4.184 -14.188  0.00  0.00     0.250 C 
ENDROOT
BRANCH   1   2
ATOM      2  C   UNL d   1       7.977   2.741 -14.326  0.00  0.00     0.037 C 
BRANCH   2   3
ATOM      3  C   UNL d   1       8.187   2.152 -15.702  0.00  0.00     0.029 C 
BRANCH   3   4
ATOM      4  C   UNL d   1       7.890   0.639 -15.741  0.00  0.00     0.139 C 
BRANCH   4   5
ATOM      5  N   UNL d   1       8.464   0.034 -16.943  0.00  0.00    -0.185 NA
BRANCH   5   6
ATOM      6  S   UNL d   1       7.709   0.220 -18.482  0.00  0.00     0.283 S 
ATOM      7  O   UNL d   1       7.177   1.580 -18.594  0.00  0.00    -0.199 OA
ATOM      8  O   UNL d   1       8.677  -0.268 -19.489  0.00  0.00    -0.199 OA
BRANCH   6   9
ATOM      9  C   UNL d   1       6.329  -0.911 -18.353  0.00  0.00     0.123 A 
ATOM     10  C   UNL d   1       6.513  -2.304 -18.539  0.00  0.00     0.100 A 
ATOM     11  C   UNL d   1       5.354  -3.133 -18.420  0.00  0.00     0.049 A 
ATOM     12  N   UNL d   1       7.689  -2.989 -18.840  0.00  0.00    -0.236 NA
ATOM     13  C   UNL d   1       4.084  -2.600 -18.143  0.00  0.00     0.008 A 
ATOM     14  S   UNL d   1       5.784  -4.826 -18.660  0.00  0.00    -0.064 SA
ATOM     15  C   UNL d   1       3.942  -1.216 -17.954  0.00  0.00     0.001 A 
ATOM     16  C   UNL d   1       5.059  -0.369 -18.058  0.00  0.00     0.015 A 
ATOM     17  C   UNL d   1       7.441  -4.301 -18.916  0.00  0.00     0.135 A 
ENDBRANCH   6   9
ENDBRANCH   5   6
ENDBRANCH   4   5
ENDBRANCH   3   4
ENDBRANCH   2   3
ENDBRANCH   1   2
BRANCH   1  18
ATOM     18  N   UNL d   1       8.494   4.648 -12.804  0.00  0.00     0.137 N 
ATOM     19  C   UNL d   1       9.559   4.005 -12.041  0.00  0.00     0.251 C 
ATOM     20  C   UNL d   1       9.473   4.405 -10.562  0.00  0.00     0.041 C 
ATOM     21  C   UNL d   1       9.650   5.914 -10.416  0.00  0.00     0.047 C 
ATOM     22  C   UNL d   1       8.624   6.602 -11.307  0.00  0.00     0.041 C 
ATOM     23  C   UNL d   1       8.698   6.101 -12.764  0.00  0.00     0.251 C 
BRANCH  21  24
ATOM     24  C   UNL d   1       9.527   6.321  -8.952  0.00  0.00     0.087 A 
ATOM     25  C   UNL d   1      10.289   7.215  -8.205  0.00  0.00     0.041 A 
ATOM     26  C   UNL d   1       9.764   7.274  -6.915  0.00  0.00     0.129 A 
ATOM     27  C   UNL d   1      11.424   7.992  -8.527  0.00  0.00     0.006 A 
ATOM     28  O   UNL d   1       8.689   6.407  -6.906  0.00  0.00    -0.211 OA
ATOM     29  C   UNL d   1      10.313   8.062  -5.910  0.00  0.00     0.057 A 
ATOM     30  N   UNL d   1       8.576   5.800  -8.189  0.00  0.00    -0.131 NA
ATOM     31  C   UNL d   1      11.445   8.835  -6.214  0.00  0.00     0.142 A 
ATOM     32  F   UNL d   1      12.011   9.604  -5.250  0.00  0.00    -0.204 F 
ATOM     33  C   UNL d   1      12.003   8.793  -7.514  0.00  0.00     0.030 A 
ENDBRANCH  21  24
ENDBRANCH   1  18
TORSDOF 8
