REMARK  2 active torsions:
REMARK  status: ('A' for Active; 'I' for Inactive)
REMARK    1  A    between atoms: C_2  and  C_3 
REMARK    2  A    between atoms: C_3  and  N_4 
ROOT
ATOM      1  N   UNL d   1       9.300   6.798  -8.231  0.00  0.00     0.140 N 
ATOM      2  C   UNL d   1       8.626   7.417  -7.126  0.00  0.00     0.251 C 
ATOM      3  C   UNL d   1       8.849   8.830  -7.571  0.00  0.00     0.038 C 
ATOM      4  C   UNL d   1      10.300   8.948  -7.992  0.00  0.00     0.038 C 
ATOM      5  C   UNL d   1      11.139   9.605  -6.852  0.00  0.00     0.030 C 
ATOM      6  C   UNL d   1      11.294   8.680  -5.656  0.00  0.00    -0.001 A 
ATOM      7  C   UNL d   1      11.326   9.116  -4.324  0.00  0.00     0.127 A 
ATOM      8  O   UNL d   1      11.057  10.395  -4.035  0.00  0.00    -0.191 OA
ATOM      9  C   UNL d   1      11.648   8.230  -3.270  0.00  0.00     0.027 A 
ATOM     10  C   UNL d   1      11.878   6.871  -3.572  0.00  0.00     0.002 A 
ATOM     11  C   UNL d   1      11.849   6.445  -4.899  0.00  0.00    -0.004 A 
ATOM     12  C   UNL d   1      11.532   7.331  -5.936  0.00  0.00    -0.022 A 
ATOM     13  C   UNL d   1      11.692   6.904  -7.378  0.00  0.00     0.059 C 
ATOM     14  C   UNL d   1      10.616   7.464  -8.346  0.00  0.00     0.224 C 
ENDROOT
BRANCH   1  15
ATOM     15  C   UNL d   1       9.257   5.361  -8.094  0.00  0.00     0.276 C 
BRANCH  15  16
ATOM     16  C   UNL d   1       9.714   4.635  -9.339  0.00  0.00     0.009 C 
ATOM     17  C   UNL d   1       9.509   5.092 -10.587  0.00  0.00    -0.003 C 
ENDBRANCH  15  16
ENDBRANCH   1  15
TORSDOF 2
