REMARK  6 active torsions:
REMARK  status: ('A' for Active; 'I' for Inactive)
REMARK    1  A    between atoms: O_2  and  N_3 
REMARK    2  A    between atoms: C_4  and  C_5 
REMARK    3  A    between atoms: C_4  and  C_19 
REMARK    4  A    between atoms: C_5  and  C_6 
REMARK    5  A    between atoms: C_6  and  N_7 
REMARK    6  A    between atoms: N_10  and  C_11 
ROOT
ATOM      1  C   UNL d   1      10.043   4.307 -17.473  0.00  0.00     0.084 C 
ENDROOT
BRANCH   1   2
ATOM      2  C   UNL d   1      10.694   5.549 -18.096  0.00  0.00     0.088 C 
ATOM      3  N   UNL d   1      10.040   6.393 -18.788  0.00  0.00    -0.136 NA
BRANCH   3   4
ATOM      4  O   UNL d   1       8.665   6.111 -18.856  0.00  0.00    -0.234 OA
ATOM      5  C   UNL d   1       8.121   6.892 -19.898  0.00  0.00     0.211 C 
ENDBRANCH   3   4
BRANCH   2   6
ATOM      6  C   UNL d   1      12.170   5.712 -17.942  0.00  0.00     0.026 A 
ATOM      7  C   UNL d   1      12.834   5.613 -16.700  0.00  0.00     0.060 A 
ATOM      8  C   UNL d   1      14.242   5.640 -16.600  0.00  0.00     0.023 A 
ATOM      9 CL   UNL d   1      11.927   5.479 -15.220  0.00  0.00    -0.082 Cl
ATOM     10  C   UNL d   1      15.000   5.865 -17.750  0.00  0.00     0.059 A 
ATOM     11  C   UNL d   1      14.357   6.042 -18.987  0.00  0.00     0.011 A 
ATOM     12 CL   UNL d   1      16.714   5.946 -17.632  0.00  0.00    -0.082 Cl
ATOM     13  C   UNL d   1      12.961   5.954 -19.075  0.00  0.00     0.003 A 
ENDBRANCH   2   6
ENDBRANCH   1   2
BRANCH   1  14
ATOM     14  C   UNL d   1      11.017   3.179 -16.960  0.00  0.00     0.257 C 
BRANCH  14  15
ATOM     15  N   UNL d   1      10.320   2.150 -16.195  0.00  0.00     0.141 N 
ATOM     16  C   UNL d   1       9.729   1.141 -17.071  0.00  0.00     0.274 C 
ATOM     17  C   UNL d   1       9.097   0.016 -16.228  0.00  0.00     0.138 C 
ATOM     18  N   UNL d   1       8.118   0.572 -15.294  0.00  0.00    -0.330 N 
ATOM     19  C   UNL d   1       8.623   1.631 -14.426  0.00  0.00     0.138 C 
ATOM     20  C   UNL d   1       9.290   2.707 -15.297  0.00  0.00     0.274 C 
BRANCH  18  21
ATOM     21  C   UNL d   1       6.769   0.155 -15.288  0.00  0.00     0.140 A 
ATOM     22  N   UNL d   1       6.096   0.296 -14.127  0.00  0.00    -0.227 NA
ATOM     23  C   UNL d   1       4.814  -0.149 -14.075  0.00  0.00     0.101 A 
ATOM     24  C   UNL d   1       4.164  -0.743 -15.160  0.00  0.00     0.021 A 
ATOM     25  C   UNL d   1       4.849  -0.877 -16.370  0.00  0.00     0.005 A 
ATOM     26  C   UNL d   1       6.184  -0.410 -16.442  0.00  0.00     0.037 A 
ENDBRANCH  18  21
ENDBRANCH  14  15
ENDBRANCH   1  14
TORSDOF 6
