REMARK  3 active torsions:
REMARK  status: ('A' for Active; 'I' for Inactive)
REMARK    1  A    between atoms: C_5  and  S_6 
REMARK    2  A    between atoms: S_6  and  N_9 
REMARK       I    between atoms: N_9  and  C_10 
REMARK       I    between atoms: C_10  and  N_12 
REMARK    3  A    between atoms: N_12  and  N_13 
ROOT
ATOM      1  N   UNL d   1       9.385   4.691 -12.498  0.00  0.00    -0.099 NA
ATOM      2  C   UNL d   1       8.233   5.412 -12.149  0.00  0.00     0.390 C 
ATOM      3  O   UNL d   1       7.264   5.532 -12.902  0.00  0.00    -0.241 OA
ATOM      4  N   UNL d   1       8.236   5.959 -10.951  0.00  0.00    -0.137 NA
ENDROOT
BRANCH   1   5
ATOM      5  S   UNL d   1       9.841   4.078 -14.059  0.00  0.00     0.289 S 
ATOM      6  O   UNL d   1      11.244   3.616 -13.979  0.00  0.00    -0.198 OA
ATOM      7  O   UNL d   1       9.501   5.103 -15.053  0.00  0.00    -0.198 OA
BRANCH   5   8
ATOM      8  C   UNL d   1       8.737   2.663 -14.334  0.00  0.00     0.105 A 
ATOM      9  C   UNL d   1       7.347   2.818 -14.154  0.00  0.00     0.013 A 
ATOM     10  C   UNL d   1       6.523   1.707 -14.263  0.00  0.00    -0.004 A 
ATOM     11  C   UNL d   1       7.039   0.466 -14.672  0.00  0.00    -0.022 A 
ATOM     12  C   UNL d   1       6.068  -0.684 -14.885  0.00  0.00     0.031 C 
ATOM     13  C   UNL d   1       8.426   0.324 -14.920  0.00  0.00    -0.004 A 
ATOM     14  C   UNL d   1       9.301   1.421 -14.727  0.00  0.00     0.013 A 
ENDBRANCH   5   8
ENDBRANCH   1   5
BRANCH   4  15
ATOM     15  N   UNL d   1       9.382   6.089 -10.226  0.00  0.00    -0.174 NA
ATOM     16  C   UNL d   1       9.908   7.451 -10.246  0.00  0.00     0.096 C 
ATOM     17  C   UNL d   1      10.890   7.445  -9.083  0.00  0.00     0.019 C 
ATOM     18  C   UNL d   1      10.363   6.329  -8.148  0.00  0.00     0.019 C 
ATOM     19  C   UNL d   1      10.893   8.725  -8.269  0.00  0.00     0.002 C 
ATOM     20  C   UNL d   1       9.129   5.789  -8.844  0.00  0.00     0.096 C 
ATOM     21  C   UNL d   1      10.056   6.973  -6.809  0.00  0.00     0.002 C 
ATOM     22  C   UNL d   1       9.910   8.462  -7.128  0.00  0.00     0.000 C 
ENDBRANCH   4  15
TORSDOF 3
