REMARK  7 active torsions:
REMARK  status: ('A' for Active; 'I' for Inactive)
REMARK    1  A    between atoms: C_2  and  C_3 
REMARK    2  A    between atoms: C_3  and  C_4 
REMARK    3  A    between atoms: C_4  and  C_5 
REMARK    4  A    between atoms: C_5  and  C_6 
REMARK    5  A    between atoms: C_6  and  C_7 
REMARK    6  A    between atoms: C_7  and  N_8 
REMARK    7  A    between atoms: C_11  and  C_12 
ROOT
ATOM      1  N   UNL d   1      10.272   6.493  -8.564  0.00  0.00     0.137 N 
ATOM      2  C   UNL d   1       9.027   7.095  -8.114  0.00  0.00     0.251 C 
ATOM      3  C   UNL d   1       9.045   6.956  -6.609  0.00  0.00     0.042 C 
ATOM      4  C   UNL d   1      10.533   6.911  -6.268  0.00  0.00     0.058 C 
ATOM      5  C   UNL d   1      11.242   7.018  -7.617  0.00  0.00     0.255 C 
ENDROOT
BRANCH   1   6
ATOM      6  C   UNL d   1      10.603   6.875  -9.933  0.00  0.00     0.250 C 
BRANCH   6   7
ATOM      7  C   UNL d   1       9.865   5.987 -10.951  0.00  0.00     0.035 C 
BRANCH   7   8
ATOM      8  C   UNL d   1       8.484   6.489 -11.355  0.00  0.00     0.002 C 
BRANCH   8   9
ATOM      9  C   UNL d   1       7.862   5.761 -12.536  0.00  0.00     0.000 C 
BRANCH   9  10
ATOM     10  C   UNL d   1       7.448   4.329 -12.174  0.00  0.00     0.000 C 
BRANCH  10  11
ATOM     11  C   UNL d   1       6.728   3.614 -13.319  0.00  0.00     0.000 C 
ATOM     12  C   UNL d   1       7.698   3.137 -14.406  0.00  0.00     0.000 C 
ENDBRANCH  10  11
ENDBRANCH   9  10
ENDBRANCH   8   9
ENDBRANCH   7   8
ENDBRANCH   6   7
ENDBRANCH   1   6
BRANCH   4  13
ATOM     13  C   UNL d   1      10.996   7.965  -5.304  0.00  0.00    -0.018 A 
ATOM     14  C   UNL d   1      11.659   7.612  -4.105  0.00  0.00     0.023 A 
ATOM     15  C   UNL d   1      12.013   8.626  -3.199  0.00  0.00     0.131 A 
ATOM     16  C   UNL d   1      11.687   9.964  -3.491  0.00  0.00     0.027 A 
ATOM     17  O   UNL d   1      12.648   8.333  -2.033  0.00  0.00    -0.190 OA
ATOM     18  C   UNL d   1      11.055  10.303  -4.698  0.00  0.00     0.002 A 
ATOM     19  C   UNL d   1      10.720   9.303  -5.613  0.00  0.00    -0.004 A 
ENDBRANCH   4  13
TORSDOF 7
