REMARK  9 active torsions:
REMARK  status: ('A' for Active; 'I' for Inactive)
REMARK    1  A    between atoms: C_5  and  O_6 
REMARK    2  A    between atoms: O_6  and  C_7 
REMARK    3  A    between atoms: C_7  and  C_8 
REMARK    4  A    between atoms: C_8  and  N_9 
REMARK    5  A    between atoms: N_9  and  C_10 
REMARK    6  A    between atoms: C_10  and  C_11 
REMARK    7  A    between atoms: C_11  and  C_12 
REMARK    8  A    between atoms: C_12  and  O_13 
REMARK    9  A    between atoms: O_13  and  C_14 
ROOT
ATOM      1  N   UNL d   1       9.074   6.025 -10.961  0.00  0.00     0.342 N 
ENDROOT
BRANCH   1   2
ATOM      2  C   UNL d   1       9.135   4.831 -11.786  0.00  0.00     0.323 C 
BRANCH   2   3
ATOM      3  C   UNL d   1       8.860   5.202 -13.253  0.00  0.00     0.187 C 
BRANCH   3   4
ATOM      4  O   UNL d   1       9.049   4.064 -14.086  0.00  0.00    -0.329 OA
BRANCH   4   5
ATOM      5  C   UNL d   1       8.089   3.073 -14.110  0.00  0.00     0.094 A 
ATOM      6  C   UNL d   1       8.445   1.846 -14.713  0.00  0.00     0.024 A 
ATOM      7  C   UNL d   1       7.522   0.784 -14.788  0.00  0.00    -0.002 A 
ATOM      8  C   UNL d   1       6.229   0.938 -14.252  0.00  0.00    -0.022 A 
ATOM      9  C   UNL d   1       5.218  -0.184 -14.334  0.00  0.00     0.031 C 
ATOM     10  C   UNL d   1       5.867   2.155 -13.639  0.00  0.00    -0.002 A 
ATOM     11  C   UNL d   1       6.784   3.221 -13.579  0.00  0.00     0.024 A 
ENDBRANCH   4   5
ENDBRANCH   3   4
ENDBRANCH   2   3
ENDBRANCH   1   2
BRANCH   1  12
ATOM     12  C   UNL d   1       9.459   5.728  -9.591  0.00  0.00     0.293 C 
BRANCH  12  13
ATOM     13  C   UNL d   1       9.653   7.032  -8.805  0.00  0.00     0.071 C 
BRANCH  13  14
ATOM     14  C   UNL d   1      10.270   6.791  -7.423  0.00  0.00     0.151 C 
BRANCH  14  15
ATOM     15  O   UNL d   1      10.519   8.050  -6.807  0.00  0.00    -0.331 OA
BRANCH  15  16
ATOM     16  C   UNL d   1      11.067   8.063  -5.542  0.00  0.00     0.094 A 
ATOM     17  C   UNL d   1      11.438   6.900  -4.823  0.00  0.00     0.026 A 
ATOM     18  C   UNL d   1      11.969   7.000  -3.521  0.00  0.00     0.032 A 
ATOM     19  C   UNL d   1      12.153   8.262  -2.930  0.00  0.00     0.140 A 
ATOM     20  C   UNL d   1      11.796   9.422  -3.638  0.00  0.00     0.032 A 
ATOM     21  F   UNL d   1      12.657   8.359  -1.676  0.00  0.00    -0.204 F 
ATOM     22  C   UNL d   1      11.261   9.323  -4.939  0.00  0.00     0.026 A 
ENDBRANCH  15  16
ENDBRANCH  14  15
ENDBRANCH  13  14
ENDBRANCH  12  13
ENDBRANCH   1  12
TORSDOF 9
