REMARK  5 active torsions:
REMARK  status: ('A' for Active; 'I' for Inactive)
REMARK    1  A    between atoms: C_2  and  C_3 
REMARK    2  A    between atoms: C_2  and  C_23 
REMARK    3  A    between atoms: C_3  and  C_4 
REMARK    4  A    between atoms: C_4  and  C_5 
REMARK    5  A    between atoms: C_5  and  N_6 
ROOT
ATOM      1  N   UNL d   1       8.960   5.990 -11.517  0.00  0.00     0.137 N 
ATOM      2  C   UNL d   1       7.724   5.306 -11.130  0.00  0.00     0.252 C 
ATOM      3  C   UNL d   1       7.625   4.048 -11.980  0.00  0.00     0.052 C 
ATOM      4  C   UNL d   1       7.524   4.279 -13.490  0.00  0.00     0.070 C 
ATOM      5  C   UNL d   1       8.543   5.344 -13.899  0.00  0.00     0.072 C 
ATOM      6  C   UNL d   1       8.746   6.483 -12.874  0.00  0.00     0.256 C 
ATOM      7  C   UNL d   1       9.751   4.535 -14.255  0.00  0.00    -0.008 A 
ATOM      8  C   UNL d   1      11.068   4.899 -14.562  0.00  0.00    -0.003 A 
ATOM      9  C   UNL d   1      11.947   3.893 -15.009  0.00  0.00     0.000 A 
ATOM     10  C   UNL d   1      11.480   2.579 -15.244  0.00  0.00     0.007 A 
ATOM     11  C   UNL d   1      10.143   2.179 -14.998  0.00  0.00     0.035 A 
ATOM     12  C   UNL d   1       9.337   3.217 -14.473  0.00  0.00     0.038 A 
ATOM     13  N   UNL d   1       7.954   3.055 -14.171  0.00  0.00    -0.253 NA
ATOM     14  C   UNL d   1       7.199   2.545 -15.305  0.00  0.00     0.077 C 
ATOM     15  C   UNL d   1       6.893   1.057 -15.193  0.00  0.00     0.030 C 
ATOM     16  C   UNL d   1       8.030   0.237 -14.583  0.00  0.00     0.064 C 
ATOM     17  S   UNL d   1       9.630   0.519 -15.371  0.00  0.00    -0.113 SA
ENDROOT
BRANCH   1  18
ATOM     18  C   UNL d   1       9.193   7.125 -10.622  0.00  0.00     0.251 C 
BRANCH  18  19
ATOM     19  C   UNL d   1      10.573   7.140 -10.005  0.00  0.00     0.043 C 
BRANCH  19  20
ATOM     20  C   UNL d   1      10.743   8.432  -9.176  0.00  0.00     0.071 C 
BRANCH  20  21
ATOM     21  C   UNL d   1      11.971   8.382  -8.294  0.00  0.00     0.173 C 
ATOM     22  O   UNL d   1      13.094   8.383  -8.811  0.00  0.00    -0.291 OA
BRANCH  21  23
ATOM     23  C   UNL d   1      11.777   8.313  -6.843  0.00  0.00     0.035 A 
ATOM     24  C   UNL d   1      12.170   9.343  -5.989  0.00  0.00     0.003 A 
ATOM     25  C   UNL d   1      12.032   9.211  -4.592  0.00  0.00     0.000 A 
ATOM     26  C   UNL d   1      11.483   8.031  -4.055  0.00  0.00     0.000 A 
ATOM     27  C   UNL d   1      11.074   6.985  -4.904  0.00  0.00     0.000 A 
ATOM     28  C   UNL d   1      11.210   7.111  -6.295  0.00  0.00     0.003 A 
ENDBRANCH  21  23
ENDBRANCH  20  21
ENDBRANCH  19  20
ENDBRANCH  18  19
ENDBRANCH   1  18
TORSDOF 5
