REMARK  2 active torsions:
REMARK  status: ('A' for Active; 'I' for Inactive)
REMARK    1  A    between atoms: C_9  and  C_10 
REMARK    2  A    between atoms: C_10  and  C_11 
ROOT
ATOM      1  F   UNL d   1      11.981   7.630  -3.313  0.00  0.00    -0.204 F 
ATOM      2  C   UNL d   1      11.625   7.941  -4.586  0.00  0.00     0.140 A 
ATOM      3  C   UNL d   1      11.825   9.246  -5.082  0.00  0.00     0.029 A 
ATOM      4  C   UNL d   1      11.462   9.579  -6.409  0.00  0.00    -0.002 A 
ATOM      5  C   UNL d   1      10.903   8.577  -7.215  0.00  0.00    -0.026 A 
ATOM      6  C   UNL d   1      10.704   7.293  -6.731  0.00  0.00    -0.024 A 
ATOM      7  C   UNL d   1      11.059   6.951  -5.414  0.00  0.00     0.025 A 
ATOM      8  C   UNL d   1      10.083   6.394  -7.765  0.00  0.00     0.026 C 
ATOM      9  C   UNL d   1       9.737   7.351  -8.936  0.00  0.00     0.011 C 
ATOM     10  C   UNL d   1      10.444   8.704  -8.641  0.00  0.00     0.026 C 
ENDROOT
BRANCH   9  11
ATOM     11  C   UNL d   1      10.079   6.786 -10.333  0.00  0.00     0.027 C 
BRANCH  11  12
ATOM     12  C   UNL d   1       9.211   5.581 -10.742  0.00  0.00     0.129 C 
ATOM     13  N   UNL d   1       7.862   5.981 -11.044  0.00  0.00    -0.251 NA
ATOM     14  C   UNL d   1       7.677   5.803 -12.393  0.00  0.00     0.190 C 
ATOM     15  N   UNL d   1       8.616   5.202 -13.029  0.00  0.00    -0.249 NA
ATOM     16  C   UNL d   1       9.656   4.911 -12.065  0.00  0.00     0.152 C 
ENDBRANCH  11  12
ENDBRANCH   9  11
TORSDOF 2
