REMARK  8 active torsions:
REMARK  status: ('A' for Active; 'I' for Inactive)
REMARK    1  A    between atoms: C_2  and  N_3 
REMARK    2  A    between atoms: C_2  and  C_21 
REMARK    3  A    between atoms: N_3  and  C_4 
REMARK    4  A    between atoms: C_8  and  N_9 
REMARK    5  A    between atoms: N_9  and  C_10 
REMARK    6  A    between atoms: C_10  and  C_11 
REMARK    7  A    between atoms: C_11  and  O_12 
REMARK    8  A    between atoms: O_12  and  C_13 
ROOT
ATOM      1  C   UNL d   1       8.392   5.115 -12.076  0.00  0.00     0.178 A 
ATOM      2  C   UNL d   1       8.793   6.345 -12.592  0.00  0.00     0.060 A 
ATOM      3  C   UNL d   1       9.321   7.274 -11.667  0.00  0.00     0.121 A 
ATOM      4  N   UNL d   1       9.485   6.952 -10.376  0.00  0.00    -0.058 NA
ATOM      5  C   UNL d   1       9.046   5.760  -9.982  0.00  0.00     0.747 A 
ATOM      6  N   UNL d   1       8.526   4.823 -10.769  0.00  0.00    -0.041 NA
ENDROOT
BRANCH   5   7
ATOM      7  N   UNL d   1       9.227   5.405  -8.676  0.00  0.00    -0.083 NA
BRANCH   7   8
ATOM      8  C   UNL d   1       9.436   6.406  -7.632  0.00  0.00     0.178 C 
BRANCH   8   9
ATOM      9  C   UNL d   1      10.866   7.011  -7.645  0.00  0.00     0.176 C 
BRANCH   9  10
ATOM     10  O   UNL d   1      10.896   8.198  -6.863  0.00  0.00    -0.329 OA
BRANCH  10  11
ATOM     11  C   UNL d   1      11.253   8.150  -5.541  0.00  0.00     0.094 A 
ATOM     12  C   UNL d   1      11.449   6.947  -4.819  0.00  0.00     0.026 A 
ATOM     13  C   UNL d   1      11.876   6.986  -3.483  0.00  0.00     0.032 A 
ATOM     14  C   UNL d   1      12.101   8.226  -2.847  0.00  0.00     0.140 A 
ATOM     15  C   UNL d   1      11.855   9.426  -3.540  0.00  0.00     0.032 A 
ATOM     16  F   UNL d   1      12.550   8.260  -1.571  0.00  0.00    -0.204 F 
ATOM     17  C   UNL d   1      11.445   9.386  -4.886  0.00  0.00     0.026 A 
ENDBRANCH  10  11
ENDBRANCH   9  10
ENDBRANCH   8   9
ENDBRANCH   7   8
ENDBRANCH   5   7
BRANCH   1  18
ATOM     18  N   UNL d   1       7.956   4.140 -12.954  0.00  0.00    -0.250 NA
BRANCH  18  19
ATOM     19  C   UNL d   1       6.634   3.547 -12.763  0.00  0.00     0.127 C 
ATOM     20  C   UNL d   1       5.480   4.553 -12.949  0.00  0.00     0.031 C 
BRANCH  19  21
ATOM     21  C   UNL d   1       6.381   2.333 -13.651  0.00  0.00    -0.000 A 
ATOM     22  C   UNL d   1       7.076   2.136 -14.869  0.00  0.00    -0.002 A 
ATOM     23  C   UNL d   1       6.859   0.972 -15.633  0.00  0.00    -0.000 A 
ATOM     24  C   UNL d   1       5.939   0.004 -15.194  0.00  0.00    -0.000 A 
ATOM     25  C   UNL d   1       5.236   0.194 -13.992  0.00  0.00    -0.000 A 
ATOM     26  C   UNL d   1       5.468   1.351 -13.221  0.00  0.00    -0.002 A 
ENDBRANCH  19  21
ENDBRANCH  18  19
ENDBRANCH   1  18
TORSDOF 8
