REMARK  7 active torsions:
REMARK  status: ('A' for Active; 'I' for Inactive)
REMARK    1  A    between atoms: C_3  and  S_4 
REMARK    2  A    between atoms: S_4  and  C_5 
REMARK    3  A    between atoms: C_5  and  C_6 
REMARK    4  A    between atoms: C_6  and  C_7 
REMARK    5  A    between atoms: C_7  and  N_8 
REMARK    6  A    between atoms: N_16  and  C_17 
REMARK    7  A    between atoms: C_29  and  C_30 
ROOT
ATOM      1  N   UNL d   1       8.870   4.610 -13.177  0.00  0.00     0.137 N 
ATOM      2  C   UNL d   1       8.057   5.805 -12.913  0.00  0.00     0.250 C 
ATOM      3  C   UNL d   1       7.639   5.875 -11.454  0.00  0.00     0.035 C 
ATOM      4  C   UNL d   1       8.863   5.916 -10.531  0.00  0.00     0.008 C 
ATOM      5  C   UNL d   1       9.690   4.695 -10.886  0.00  0.00     0.035 C 
ATOM      6  C   UNL d   1      10.083   4.622 -12.365  0.00  0.00     0.250 C 
ATOM      7  C   UNL d   1       9.694   7.227 -10.717  0.00  0.00     0.024 C 
ATOM      8  C   UNL d   1      10.889   7.285  -9.758  0.00  0.00     0.101 C 
ATOM      9  N   UNL d   1      10.466   7.032  -8.378  0.00  0.00    -0.347 N 
ATOM     10  C   UNL d   1       9.669   5.861  -8.052  0.00  0.00     0.101 C 
ATOM     11  C   UNL d   1       8.472   5.769  -9.027  0.00  0.00     0.024 C 
ENDROOT
BRANCH   1  12
ATOM     12  C   UNL d   1       9.277   4.611 -14.574  0.00  0.00     0.251 C 
BRANCH  12  13
ATOM     13  C   UNL d   1       9.796   3.203 -14.915  0.00  0.00     0.047 C 
BRANCH  13  14
ATOM     14  C   UNL d   1      10.210   3.114 -16.400  0.00  0.00     0.067 C 
BRANCH  14  15
ATOM     15  S   UNL d   1      10.491   1.401 -16.946  0.00  0.00    -0.075 SA
BRANCH  15  16
ATOM     16  C   UNL d   1       8.854   0.815 -16.987  0.00  0.00     0.193 A 
ATOM     17  N   UNL d   1       8.389  -0.006 -17.993  0.00  0.00    -0.289 N 
ATOM     18  C   UNL d   1       9.119  -0.532 -19.133  0.00  0.00     0.134 C 
ATOM     19  C   UNL d   1       7.117  -0.152 -17.620  0.00  0.00     0.167 A 
ATOM     20  N   UNL d   1       6.774   0.489 -16.488  0.00  0.00    -0.128 NA
ATOM     21  N   UNL d   1       7.944   1.103 -16.081  0.00  0.00    -0.122 NA
BRANCH  19  22
ATOM     22  C   UNL d   1       6.103  -0.918 -18.317  0.00  0.00     0.036 A 
ATOM     23  C   UNL d   1       5.999  -0.860 -19.721  0.00  0.00     0.003 A 
ATOM     24  C   UNL d   1       5.015  -1.610 -20.384  0.00  0.00     0.000 A 
ATOM     25  C   UNL d   1       4.118  -2.407 -19.631  0.00  0.00     0.000 A 
ATOM     26  C   UNL d   1       4.193  -2.429 -18.224  0.00  0.00     0.000 A 
ATOM     27  C   UNL d   1       5.186  -1.692 -17.571  0.00  0.00     0.003 A 
ENDBRANCH  19  22
ENDBRANCH  15  16
ENDBRANCH  14  15
ENDBRANCH  13  14
ENDBRANCH  12  13
ENDBRANCH   1  12
BRANCH   9  28
ATOM     28  C   UNL d   1      10.802   7.925  -7.370  0.00  0.00     0.068 A 
ATOM     29  C   UNL d   1      11.438   7.574  -6.151  0.00  0.00     0.084 A 
ATOM     30  C   UNL d   1      11.748   8.545  -5.142  0.00  0.00     0.070 A 
ATOM     31 CL   UNL d   1      11.839   6.001  -5.926  0.00  0.00    -0.080 Cl
ATOM     32  C   UNL d   1      11.431   9.857  -5.383  0.00  0.00     0.012 A 
ATOM     33 CL   UNL d   1      12.537   8.128  -3.648  0.00  0.00    -0.081 Cl
ATOM     34  C   UNL d   1      10.865  10.198  -6.611  0.00  0.00     0.002 A 
ATOM     35  C   UNL d   1      10.490   9.250  -7.573  0.00  0.00     0.018 A 
ENDBRANCH   9  28
TORSDOF 7
