REMARK  0 active torsions:
REMARK  status: ('A' for Active; 'I' for Inactive)
ROOT
ATOM      1  C   UNL d   1      12.614   2.845 -17.384  0.00  0.00     0.285 C 
ATOM      2  N   UNL d   1      11.629   1.917 -16.846  0.00  0.00     0.140 N 
ATOM      3  C   UNL d   1      11.265   0.950 -17.886  0.00  0.00     0.255 C 
ATOM      4  C   UNL d   1      10.232  -0.130 -17.465  0.00  0.00     0.061 C 
ATOM      5  C   UNL d   1       8.784   0.205 -17.835  0.00  0.00    -0.024 A 
ATOM      6  C   UNL d   1       8.503   0.338 -19.215  0.00  0.00    -0.004 A 
ATOM      7  C   UNL d   1       7.207   0.633 -19.673  0.00  0.00    -0.000 A 
ATOM      8  C   UNL d   1       6.162   0.789 -18.751  0.00  0.00    -0.000 A 
ATOM      9  C   UNL d   1       6.419   0.651 -17.377  0.00  0.00    -0.004 A 
ATOM     10  C   UNL d   1       7.717   0.362 -16.898  0.00  0.00    -0.021 A 
ATOM     11  C   UNL d   1       7.871   0.225 -15.385  0.00  0.00     0.059 C 
ATOM     12  C   UNL d   1       7.791   1.546 -14.672  0.00  0.00     0.008 A 
ATOM     13  S   UNL d   1       6.266   2.078 -14.035  0.00  0.00    -0.091 SA
ATOM     14  C   UNL d   1       6.966   3.572 -13.449  0.00  0.00     0.029 A 
ATOM     15  C   UNL d   1       6.313   4.617 -12.772  0.00  0.00     0.006 A 
ATOM     16  C   UNL d   1       7.040   5.749 -12.368  0.00  0.00     0.001 A 
ATOM     17  C   UNL d   1       8.416   5.828 -12.641  0.00  0.00     0.000 A 
ATOM     18  C   UNL d   1       9.064   4.776 -13.318  0.00  0.00     0.000 A 
ATOM     19  C   UNL d   1       8.367   3.616 -13.740  0.00  0.00     0.002 A 
ATOM     20  C   UNL d   1       8.824   2.429 -14.439  0.00  0.00    -0.017 A 
ATOM     21  C   UNL d   1      10.234   2.177 -14.873  0.00  0.00     0.062 C 
ATOM     22  C   UNL d   1      10.483   2.648 -16.313  0.00  0.00     0.255 C 
ENDROOT
TORSDOF 0
