REMARK  0 active torsions:
REMARK  status: ('A' for Active; 'I' for Inactive)
ROOT
ATOM      1  C   UNL d   1       6.926   5.779 -12.201  0.00  0.00     0.002 A 
ATOM      2  C   UNL d   1       8.004   5.683 -13.101  0.00  0.00     0.000 A 
ATOM      3  C   UNL d   1       8.168   4.536 -13.895  0.00  0.00     0.001 A 
ATOM      4  C   UNL d   1       7.260   3.459 -13.804  0.00  0.00     0.015 A 
ATOM      5  C   UNL d   1       7.135   2.190 -14.446  0.00  0.00    -0.003 A 
ATOM      6  C   UNL d   1       6.049   1.569 -13.903  0.00  0.00     0.086 A 
ATOM      7  N   UNL d   1       5.468   2.394 -12.960  0.00  0.00    -0.248 NA
ATOM      8  C   UNL d   1       6.178   3.576 -12.870  0.00  0.00     0.081 A 
ATOM      9  C   UNL d   1       6.012   4.719 -12.079  0.00  0.00     0.019 A 
ATOM     10  C   UNL d   1       5.600   0.191 -14.280  0.00  0.00     0.259 C 
ATOM     11  C   UNL d   1       4.075   0.059 -14.377  0.00  0.00     0.040 C 
ATOM     12  C   UNL d   1       3.608  -1.289 -14.825  0.00  0.00     0.004 C 
ATOM     13  C   UNL d   1       4.327  -1.704 -16.101  0.00  0.00     0.035 C 
ATOM     14  C   UNL d   1       5.814  -1.519 -15.934  0.00  0.00     0.251 C 
ATOM     15  N   UNL d   1       6.155  -0.141 -15.605  0.00  0.00     0.141 N 
ATOM     16  C   UNL d   1       7.615   0.032 -15.598  0.00  0.00     0.255 C 
ATOM     17  C   UNL d   1       7.953   1.536 -15.518  0.00  0.00     0.063 C 
ENDROOT
TORSDOF 0
