REMARK  6 active torsions:
REMARK  status: ('A' for Active; 'I' for Inactive)
REMARK    1  A    between atoms: C_6  and  C_7 
REMARK       I    between atoms: C_7  and  N_9 
REMARK    2  A    between atoms: N_9  and  C_10 
REMARK    3  A    between atoms: C_10  and  C_11 
REMARK    4  A    between atoms: C_12  and  C_13 
REMARK    5  A    between atoms: C_13  and  N_14 
REMARK    6  A    between atoms: N_17  and  C_18 
ROOT
ATOM      1  N   UNL d   1       9.604   3.815 -15.886  0.00  0.00     0.145 N 
ATOM      2  C   UNL d   1      10.718   3.874 -16.839  0.00  0.00     0.275 C 
ATOM      3  C   UNL d   1      10.219   3.581 -18.270  0.00  0.00     0.137 C 
ATOM      4  N   UNL d   1       9.561   2.284 -18.306  0.00  0.00    -0.344 N 
ATOM      5  C   UNL d   1       8.501   2.107 -17.317  0.00  0.00     0.137 C 
ATOM      6  C   UNL d   1       9.030   2.461 -15.909  0.00  0.00     0.275 C 
ENDROOT
BRANCH   1   7
ATOM      7  C   UNL d   1      10.103   4.128 -14.547  0.00  0.00     0.276 C 
BRANCH   7   8
ATOM      8  C   UNL d   1       8.998   4.608 -13.624  0.00  0.00     0.006 C 
ATOM      9  C   UNL d   1       8.827   4.197 -12.356  0.00  0.00    -0.003 C 
BRANCH   9  10
ATOM     10  C   UNL d   1       7.747   4.703 -11.409  0.00  0.00     0.155 C 
BRANCH  10  11
ATOM     11  N   UNL d   1       8.310   5.583 -10.388  0.00  0.00    -0.229 NA
ATOM     12  C   UNL d   1       8.744   5.236  -9.172  0.00  0.00     0.275 C 
ATOM     13  O   UNL d   1       8.598   4.125  -8.662  0.00  0.00    -0.266 OA
BRANCH  12  14
ATOM     14  C   UNL d   1       9.478   6.307  -8.440  0.00  0.00     0.059 A 
ATOM     15  C   UNL d   1       9.073   6.723  -7.151  0.00  0.00     0.005 A 
ATOM     16  C   UNL d   1       9.835   7.674  -6.452  0.00  0.00     0.001 A 
ATOM     17  C   UNL d   1      10.998   8.218  -7.030  0.00  0.00     0.014 A 
ATOM     18  C   UNL d   1      11.406   7.807  -8.313  0.00  0.00     0.070 A 
ATOM     19  N   UNL d   1      12.584   8.300  -8.876  0.00  0.00    -0.101 NA
ATOM     20  C   UNL d   1      10.641   6.857  -9.018  0.00  0.00     0.019 A 
ENDBRANCH  12  14
ENDBRANCH  10  11
ENDBRANCH   9  10
ENDBRANCH   7   8
ENDBRANCH   1   7
BRANCH   4  21
ATOM     21  C   UNL d   1       9.953   1.255 -19.185  0.00  0.00     0.068 A 
ATOM     22  C   UNL d   1      11.302   0.825 -19.337  0.00  0.00     0.084 A 
ATOM     23  C   UNL d   1      11.623  -0.203 -20.256  0.00  0.00     0.070 A 
ATOM     24 CL   UNL d   1      12.586   1.489 -18.383  0.00  0.00    -0.080 Cl
ATOM     25  C   UNL d   1      10.616  -0.808 -21.023  0.00  0.00     0.012 A 
ATOM     26 CL   UNL d   1      13.250  -0.748 -20.437  0.00  0.00    -0.081 Cl
ATOM     27  C   UNL d   1       9.282  -0.408 -20.864  0.00  0.00     0.002 A 
ATOM     28  C   UNL d   1       8.950   0.613 -19.951  0.00  0.00     0.018 A 
ENDBRANCH   4  21
TORSDOF 6
