REMARK  7 active torsions:
REMARK  status: ('A' for Active; 'I' for Inactive)
REMARK    1  A    between atoms: C_2  and  C_3 
REMARK    2  A    between atoms: C_3  and  O_4 
REMARK    3  A    between atoms: O_4  and  C_5 
REMARK    4  A    between atoms: C_8  and  C_9 
REMARK    5  A    between atoms: C_9  and  N_10 
REMARK    6  A    between atoms: N_13  and  C_14 
REMARK    7  A    between atoms: C_14  and  C_15 
ROOT
ATOM      1  N   UNL d   1      11.792   3.240 -16.890  0.00  0.00     0.146 N 
ATOM      2  C   UNL d   1      12.585   4.413 -16.489  0.00  0.00     0.286 C 
ATOM      3  C   UNL d   1      13.118   5.195 -17.686  0.00  0.00     0.286 C 
ATOM      4  N   UNL d   1      13.949   4.373 -18.567  0.00  0.00     0.148 N 
ATOM      5  C   UNL d   1      13.154   3.214 -19.000  0.00  0.00     0.286 C 
ATOM      6  C   UNL d   1      12.623   2.417 -17.789  0.00  0.00     0.286 C 
ENDROOT
BRANCH   1   7
ATOM      7  C   UNL d   1      11.303   2.457 -15.745  0.00  0.00     0.277 C 
BRANCH   7   8
ATOM      8  C   UNL d   1      10.216   3.135 -14.923  0.00  0.00     0.011 A 
ATOM      9  C   UNL d   1      10.486   4.345 -14.255  0.00  0.00    -0.000 A 
ATOM     10  C   UNL d   1       9.443   5.041 -13.622  0.00  0.00     0.024 A 
ATOM     11  C   UNL d   1       8.154   4.471 -13.510  0.00  0.00     0.094 A 
ATOM     12  C   UNL d   1       7.886   3.224 -14.117  0.00  0.00     0.024 A 
ATOM     13  C   UNL d   1       8.916   2.572 -14.829  0.00  0.00    -0.000 A 
BRANCH  11  14
ATOM     14  O   UNL d   1       7.159   5.066 -12.765  0.00  0.00    -0.331 OA
BRANCH  14  15
ATOM     15  C   UNL d   1       7.573   5.808 -11.616  0.00  0.00     0.149 C 
BRANCH  15  16
ATOM     16  C   UNL d   1       8.204   4.835 -10.595  0.00  0.00     0.033 C 
ATOM     17  C   UNL d   1       8.680   5.506  -9.309  0.00  0.00     0.003 C 
ENDBRANCH  15  16
ENDBRANCH  14  15
ENDBRANCH  11  14
ENDBRANCH   7   8
ENDBRANCH   1   7
BRANCH   4  18
ATOM     18  C   UNL d   1      14.431   5.153 -19.717  0.00  0.00     0.301 C 
BRANCH  18  19
ATOM     19  C   UNL d   1      15.326   6.292 -19.326  0.00  0.00     0.111 A 
ATOM     20  O   UNL d   1      16.642   5.996 -19.079  0.00  0.00    -0.309 OA
ATOM     21  C   UNL d   1      17.267   7.166 -18.746  0.00  0.00     0.100 A 
ATOM     22  C   UNL d   1      16.320   8.236 -18.770  0.00  0.00     0.025 A 
ATOM     23  C   UNL d   1      18.621   7.361 -18.424  0.00  0.00     0.025 A 
ATOM     24  C   UNL d   1      15.071   7.634 -19.133  0.00  0.00     0.024 A 
ATOM     25  C   UNL d   1      16.799   9.524 -18.447  0.00  0.00     0.002 A 
ATOM     26  C   UNL d   1      18.158   9.735 -18.122  0.00  0.00     0.000 A 
ATOM     27  C   UNL d   1      19.068   8.653 -18.113  0.00  0.00     0.002 A 
ENDBRANCH  18  19
ENDBRANCH   4  18
TORSDOF 7
