REMARK  7 active torsions:
REMARK  status: ('A' for Active; 'I' for Inactive)
REMARK    1  A    between atoms: C_2  and  C_3 
REMARK    2  A    between atoms: C_3  and  C_5 
REMARK       I    between atoms: C_5  and  N_7 
REMARK    3  A    between atoms: N_7  and  C_8 
REMARK    4  A    between atoms: C_11  and  C_12 
REMARK    5  A    between atoms: C_12  and  C_13 
REMARK    6  A    between atoms: C_13  and  N_14 
REMARK    7  A    between atoms: C_17  and  C_18 
ROOT
ATOM      1  N   UNL d   1       9.123   5.790  -9.604  0.00  0.00     0.137 N 
ATOM      2  C   UNL d   1      10.242   5.227  -8.852  0.00  0.00     0.251 C 
ATOM      3  C   UNL d   1      10.866   6.218  -7.911  0.00  0.00     0.040 C 
ATOM      4  C   UNL d   1       9.848   6.708  -6.933  0.00  0.00     0.026 C 
ATOM      5  C   UNL d   1       8.561   7.081  -7.662  0.00  0.00     0.040 C 
ATOM      6  C   UNL d   1       8.113   5.943  -8.601  0.00  0.00     0.251 C 
ENDROOT
BRANCH   1   7
ATOM      7  C   UNL d   1       8.694   4.845 -10.627  0.00  0.00     0.250 C 
BRANCH   7   8
ATOM      8  C   UNL d   1       9.248   5.083 -12.023  0.00  0.00     0.035 C 
BRANCH   8   9
ATOM      9  C   UNL d   1       9.254   3.827 -12.940  0.00  0.00     0.002 C 
ATOM     10  C   UNL d   1       7.871   3.576 -13.573  0.00  0.00     0.002 C 
ATOM     11  C   UNL d   1       7.883   2.392 -14.562  0.00  0.00     0.024 C 
ATOM     12  C   UNL d   1       8.953   2.573 -15.650  0.00  0.00     0.106 C 
ATOM     13  C   UNL d   1      10.334   2.785 -15.018  0.00  0.00     0.024 C 
ATOM     14  C   UNL d   1      10.326   3.973 -14.038  0.00  0.00     0.002 C 
BRANCH  12  15
ATOM     15  N   UNL d   1       8.988   1.416 -16.527  0.00  0.00    -0.240 NA
ATOM     16  C   UNL d   1       8.132   1.192 -17.538  0.00  0.00     0.251 C 
ATOM     17  O   UNL d   1       7.245   1.989 -17.857  0.00  0.00    -0.271 OA
BRANCH  16  18
ATOM     18  C   UNL d   1       8.293  -0.131 -18.301  0.00  0.00     0.081 C 
ATOM     19  C   UNL d   1       6.964  -0.909 -18.267  0.00  0.00     0.010 C 
BRANCH  18  20
ATOM     20  C   UNL d   1       8.769   0.150 -19.742  0.00  0.00     0.009 C 
ATOM     21  C   UNL d   1       9.248  -1.108 -20.474  0.00  0.00     0.001 C 
ENDBRANCH  18  20
ENDBRANCH  16  18
ENDBRANCH  12  15
ENDBRANCH   8   9
ENDBRANCH   7   8
ENDBRANCH   1   7
BRANCH   4  22
ATOM     22  C   UNL d   1      10.428   7.818  -6.078  0.00  0.00    -0.024 A 
ATOM     23  C   UNL d   1      11.175   7.542  -4.900  0.00  0.00    -0.001 A 
ATOM     24  C   UNL d   1      11.622   8.537  -4.071  0.00  0.00     0.090 A 
ATOM     25  C   UNL d   1      11.525   6.243  -4.281  0.00  0.00     0.061 A 
ATOM     26  C   UNL d   1      11.359   9.876  -4.378  0.00  0.00     0.024 A 
ATOM     27  O   UNL d   1      12.251   8.089  -2.937  0.00  0.00    -0.331 OA
ATOM     28  C   UNL d   1      10.662  10.177  -5.600  0.00  0.00     0.002 A 
ATOM     29  C   UNL d   1      10.237   9.158  -6.447  0.00  0.00    -0.004 A 
ATOM     30  C   UNL d   1      12.179   6.661  -2.939  0.00  0.00     0.154 A 
ENDBRANCH   4  22
TORSDOF 7
