REMARK  2 active torsions:
REMARK  status: ('A' for Active; 'I' for Inactive)
REMARK    1  A    between atoms: N_2  and  C_4 
REMARK    2  A    between atoms: C_4  and  C_5 
ROOT
ATOM      1  C   UNL d   1       9.086   4.520 -13.996  0.00  0.00     0.149 C 
ATOM      2  C   UNL d   1       9.533   3.100 -13.649  0.00  0.00     0.039 C 
ATOM      3  C   UNL d   1      10.596   2.815 -14.689  0.00  0.00     0.058 C 
ATOM      4  C   UNL d   1       9.980   2.175 -15.942  0.00  0.00     0.003 A 
ATOM      5  C   UNL d   1       9.705   0.788 -15.886  0.00  0.00    -0.002 A 
ATOM      6  C   UNL d   1       9.105   0.125 -16.971  0.00  0.00    -0.000 A 
ATOM      7  C   UNL d   1       8.766   0.839 -18.134  0.00  0.00     0.002 A 
ATOM      8  C   UNL d   1       9.031   2.218 -18.206  0.00  0.00     0.024 A 
ATOM      9  C   UNL d   1       9.635   2.889 -17.123  0.00  0.00     0.096 A 
ATOM     10  O   UNL d   1       9.885   4.225 -17.268  0.00  0.00    -0.308 OA
ATOM     11  C   UNL d   1      11.208   4.553 -17.308  0.00  0.00     0.098 A 
ATOM     12  C   UNL d   1      11.832   4.873 -18.531  0.00  0.00     0.027 A 
ATOM     13  C   UNL d   1      13.212   5.164 -18.562  0.00  0.00     0.032 A 
ATOM     14  C   UNL d   1      13.960   5.130 -17.370  0.00  0.00     0.140 A 
ATOM     15  F   UNL d   1      15.286   5.408 -17.393  0.00  0.00    -0.204 F 
ATOM     16  C   UNL d   1      13.332   4.813 -16.151  0.00  0.00     0.030 A 
ATOM     17  C   UNL d   1      11.954   4.526 -16.112  0.00  0.00     0.030 A 
ATOM     18  C   UNL d   1      11.274   4.197 -14.793  0.00  0.00     0.143 C 
ATOM     19  O   UNL d   1      10.280   5.160 -14.445  0.00  0.00    -0.352 OA
ENDROOT
BRANCH   1  20
ATOM     20  C   UNL d   1       8.474   5.320 -12.834  0.00  0.00     0.280 C 
BRANCH  20  21
ATOM     21  N   UNL d   1       7.017   5.228 -12.707  0.00  0.00     0.144 N 
ATOM     22  C   UNL d   1       6.567   3.904 -12.309  0.00  0.00     0.286 C 
ATOM     23  C   UNL d   1       6.543   6.204 -11.740  0.00  0.00     0.286 C 
ENDBRANCH  20  21
ENDBRANCH   1  20
TORSDOF 2
