REMARK  3 active torsions:
REMARK  status: ('A' for Active; 'I' for Inactive)
REMARK    1  A    between atoms: C_2  and  C_3 
REMARK    2  A    between atoms: C_3  and  C_4 
REMARK    3  A    between atoms: C_4  and  C_5 
ROOT
ATOM      1  C   UNL d   1      11.227   8.919  -6.729  0.00  0.00     0.047 C 
ATOM      2  C   UNL d   1      11.267   7.934  -5.517  0.00  0.00     0.003 C 
ATOM      3  C   UNL d   1      10.790   6.521  -5.876  0.00  0.00     0.000 C 
ATOM      4  C   UNL d   1       9.400   6.547  -6.541  0.00  0.00     0.000 C 
ATOM      5  C   UNL d   1       9.349   7.503  -7.726  0.00  0.00     0.000 C 
ATOM      6  C   UNL d   1       9.765   8.908  -7.290  0.00  0.00     0.003 C 
ENDROOT
BRANCH   1   7
ATOM      7  C   UNL d   1      11.607  10.340  -6.253  0.00  0.00     0.339 C 
ATOM      8  N   UNL d   1      10.853  10.780  -5.094  0.00  0.00     0.618 N 
ENDBRANCH   1   7
BRANCH   1   9
ATOM      9  C   UNL d   1      12.300   8.490  -7.779  0.00  0.00     0.100 C 
BRANCH   9  10
ATOM     10  C   UNL d   1      12.009   8.755  -9.240  0.00  0.00     0.185 C 
ATOM     11  O   UNL d   1      11.226   9.585  -9.664  0.00  0.00    -0.647 OA
ATOM     12  O   UNL d   1      12.739   7.904 -10.025  0.00  0.00    -0.647 OA
ENDBRANCH   9  10
ENDBRANCH   1   9
TORSDOF 3
