REMARK  3 active torsions:
REMARK  status: ('A' for Active; 'I' for Inactive)
REMARK    1  A    between atoms: C_5  and  N_6 
REMARK    2  A    between atoms: N_10  and  C_11 
REMARK    3  A    between atoms: C_11  and  C_12 
ROOT
ATOM      1  N   UNL d   1       5.988   3.719 -12.832  0.00  0.00    -0.346 N 
ATOM      2  C   UNL d   1       5.351   4.913 -13.330  0.00  0.00     0.103 C 
ATOM      3  C   UNL d   1       5.866   6.247 -12.672  0.00  0.00     0.059 C 
ATOM      4  C   UNL d   1       7.401   6.443 -12.732  0.00  0.00     0.253 C 
ATOM      5  N   UNL d   1       8.069   5.839 -11.588  0.00  0.00     0.146 N 
ATOM      6  C   UNL d   1       8.057   4.385 -11.658  0.00  0.00     0.275 C 
ATOM      7  C   UNL d   1       6.654   3.797 -11.575  0.00  0.00     0.137 C 
ENDROOT
BRANCH   5   8
ATOM      8  C   UNL d   1       9.452   6.327 -11.457  0.00  0.00     0.302 C 
BRANCH   8   9
ATOM      9  C   UNL d   1       9.819   6.707 -10.059  0.00  0.00     0.122 A 
ATOM     10  S   UNL d   1       9.587   5.640  -8.666  0.00  0.00    -0.069 SA
ATOM     11  C   UNL d   1      10.306   6.887  -7.647  0.00  0.00     0.048 A 
ATOM     12  C   UNL d   1      10.621   8.024  -8.442  0.00  0.00     0.088 A 
ATOM     13  C   UNL d   1      10.570   6.869  -6.264  0.00  0.00     0.008 A 
ATOM     14  N   UNL d   1      10.356   7.904  -9.800  0.00  0.00    -0.241 NA
ATOM     15  C   UNL d   1      11.200   9.138  -7.799  0.00  0.00     0.020 A 
ATOM     16  C   UNL d   1      11.448   9.138  -6.412  0.00  0.00     0.002 A 
ATOM     17  C   UNL d   1      11.134   8.000  -5.642  0.00  0.00     0.001 A 
ENDBRANCH   8   9
ENDBRANCH   5   8
BRANCH   1  18
ATOM     18  C   UNL d   1       6.154   2.604 -13.600  0.00  0.00     0.056 C 
ATOM     19  C   UNL d   1       5.427   1.438 -13.303  0.00  0.00     0.018 C 
ATOM     20  C   UNL d   1       5.416   0.369 -14.200  0.00  0.00     0.013 C 
ATOM     21  C   UNL d   1       6.163   0.442 -15.402  0.00  0.00     0.058 C 
ATOM     22 CL   UNL d   1       5.960  -0.745 -16.637  0.00  0.00    -0.082 Cl
ATOM     23  C   UNL d   1       6.992   1.560 -15.633  0.00  0.00     0.013 C 
ATOM     24  C   UNL d   1       7.019   2.615 -14.719  0.00  0.00     0.018 C 
ENDBRANCH   1  18
TORSDOF 3
