REMARK  6 active torsions:
REMARK  status: ('A' for Active; 'I' for Inactive)
REMARK    1  A    between atoms: C_6  and  C_7 
REMARK    2  A    between atoms: C_10  and  S_11 
REMARK    3  A    between atoms: S_11  and  C_12 
REMARK    4  A    between atoms: C_12  and  C_13 
REMARK    5  A    between atoms: C_13  and  C_14 
REMARK    6  A    between atoms: C_14  and  N_15 
ROOT
ATOM      1  C   UNL d   1       9.743   3.164 -16.296  0.00  0.00     0.047 C 
ENDROOT
BRANCH   1   2
ATOM      2  C   UNL d   1       8.942   2.139 -15.440  0.00  0.00     0.067 C 
BRANCH   2   3
ATOM      3  S   UNL d   1       7.656   2.890 -14.392  0.00  0.00    -0.075 SA
BRANCH   3   4
ATOM      4  C   UNL d   1       8.610   3.966 -13.399  0.00  0.00     0.193 A 
ATOM      5  N   UNL d   1       9.822   4.382 -13.697  0.00  0.00    -0.122 NA
ATOM      6  N   UNL d   1      10.219   5.174 -12.717  0.00  0.00    -0.128 NA
ATOM      7  C   UNL d   1       9.203   5.237 -11.841  0.00  0.00     0.174 A 
ATOM      8  N   UNL d   1       8.155   4.467 -12.242  0.00  0.00    -0.288 N 
ATOM      9  C   UNL d   1       6.904   4.248 -11.553  0.00  0.00     0.134 C 
BRANCH   7  10
ATOM     10  C   UNL d   1       9.312   6.017 -10.630  0.00  0.00     0.080 C 
ATOM     11  C   UNL d   1       9.631   7.353 -10.480  0.00  0.00     0.069 C 
ATOM     12  N   UNL d   1       9.752   7.741  -9.128  0.00  0.00    -0.247 NA
ATOM     13  C   UNL d   1       9.847   8.382 -11.552  0.00  0.00     0.053 C 
ATOM     14  C   UNL d   1       9.467   6.730  -8.302  0.00  0.00     0.088 C 
ATOM     15  C   UNL d   1       9.400   6.861  -6.843  0.00  0.00     0.059 C 
ATOM     16  S   UNL d   1       9.215   5.191  -9.089  0.00  0.00    -0.068 SA
ENDBRANCH   7  10
ENDBRANCH   3   4
ENDBRANCH   2   3
ENDBRANCH   1   2
BRANCH   1  17
ATOM     17  C   UNL d   1      10.697   2.529 -17.287  0.00  0.00     0.251 C 
BRANCH  17  18
ATOM     18  N   UNL d   1      11.094   3.549 -18.253  0.00  0.00     0.137 N 
ATOM     19  C   UNL d   1      11.850   4.672 -17.690  0.00  0.00     0.254 C 
ATOM     20  C   UNL d   1      12.441   5.324 -18.940  0.00  0.00     0.052 C 
ATOM     21  C   UNL d   1      12.603   4.168 -19.942  0.00  0.00     0.041 C 
ATOM     22  C   UNL d   1      13.748   6.057 -18.663  0.00  0.00    -0.024 A 
ATOM     23  C   UNL d   1      11.515   6.436 -19.532  0.00  0.00     0.011 C 
ATOM     24  C   UNL d   1      12.000   2.966 -19.223  0.00  0.00     0.251 C 
ATOM     25  C   UNL d   1      13.727   7.328 -19.238  0.00  0.00    -0.026 A 
ATOM     26  C   UNL d   1      14.872   5.623 -17.946  0.00  0.00     0.007 A 
ATOM     27  C   UNL d   1      12.426   7.621 -19.944  0.00  0.00     0.026 C 
ATOM     28  C   UNL d   1      14.820   8.197 -19.156  0.00  0.00    -0.004 A 
ATOM     29  C   UNL d   1      15.962   7.763 -18.452  0.00  0.00     0.011 A 
ATOM     30  C   UNL d   1      16.001   6.494 -17.839  0.00  0.00     0.057 A 
ATOM     31 CL   UNL d   1      17.375   6.004 -16.942  0.00  0.00    -0.082 Cl
ENDBRANCH  17  18
ENDBRANCH   1  17
TORSDOF 6
