REMARK  4 active torsions:
REMARK  status: ('A' for Active; 'I' for Inactive)
REMARK    1  A    between atoms: C_2  and  C_6 
REMARK    2  A    between atoms: C_8  and  C_9 
REMARK    3  A    between atoms: C_9  and  N_10 
REMARK    4  A    between atoms: C_16  and  C_17 
ROOT
ATOM      1  C   UNL d   1       6.366  -1.316 -13.781  0.00  0.00     0.020 C 
ATOM      2  C   UNL d   1       5.817  -0.260 -14.711  0.00  0.00     0.098 C 
ATOM      3  C   UNL d   1       5.856  -0.730 -16.179  0.00  0.00     0.020 C 
ATOM      4  C   UNL d   1       4.410  -0.127 -14.335  0.00  0.00     0.076 C 
ATOM      5  N   UNL d   1       3.305  -0.036 -14.038  0.00  0.00    -0.196 NA
ENDROOT
BRANCH   2   6
ATOM      6  C   UNL d   1       6.614   1.036 -14.506  0.00  0.00    -0.010 A 
ATOM      7  C   UNL d   1       7.912   1.157 -15.054  0.00  0.00    -0.007 A 
ATOM      8  C   UNL d   1       8.679   2.331 -14.892  0.00  0.00    -0.010 A 
ATOM      9  C   UNL d   1       8.113   3.407 -14.180  0.00  0.00    -0.006 A 
ATOM     10  C   UNL d   1       6.826   3.311 -13.596  0.00  0.00     0.002 A 
ATOM     11  C   UNL d   1       6.090   2.118 -13.752  0.00  0.00    -0.006 A 
BRANCH   8  12
ATOM     12  C   UNL d   1      10.083   2.463 -15.503  0.00  0.00     0.098 C 
ATOM     13  C   UNL d   1      10.882   1.151 -15.373  0.00  0.00     0.020 C 
ATOM     14  C   UNL d   1       9.961   2.857 -16.984  0.00  0.00     0.020 C 
ATOM     15  C   UNL d   1      10.863   3.512 -14.809  0.00  0.00     0.076 C 
ATOM     16  N   UNL d   1      11.472   4.338 -14.269  0.00  0.00    -0.196 NA
ENDBRANCH   8  12
BRANCH  10  17
ATOM     17  C   UNL d   1       6.239   4.471 -12.788  0.00  0.00     0.156 C 
BRANCH  17  18
ATOM     18  N   UNL d   1       7.261   5.278 -12.130  0.00  0.00    -0.226 N 
ATOM     19  N   UNL d   1       7.800   6.369 -12.728  0.00  0.00    -0.145 NA
ATOM     20  C   UNL d   1       8.755   6.729 -11.871  0.00  0.00     0.221 A 
ATOM     21  N   UNL d   1       8.908   5.928 -10.773  0.00  0.00    -0.201 NA
ATOM     22  C   UNL d   1       7.900   5.090 -10.974  0.00  0.00     0.198 A 
ENDBRANCH  17  18
ENDBRANCH  10  17
ENDBRANCH   2   6
TORSDOF 4
