REMARK  1 active torsions:
REMARK  status: ('A' for Active; 'I' for Inactive)
REMARK    1  A    between atoms: C_9  and  C_10 
ROOT
ATOM      1  C   UNL d   1       6.473   5.505 -12.130  0.00  0.00     0.031 C 
ATOM      2  C   UNL d   1       7.384   4.523 -12.834  0.00  0.00    -0.020 A 
ATOM      3  C   UNL d   1       8.768   4.521 -12.575  0.00  0.00    -0.003 A 
ATOM      4  C   UNL d   1       9.608   3.605 -13.238  0.00  0.00     0.020 A 
ATOM      5  C   UNL d   1       9.080   2.686 -14.162  0.00  0.00     0.099 A 
ATOM      6  C   UNL d   1       7.681   2.665 -14.411  0.00  0.00     0.099 A 
ATOM      7  C   UNL d   1       6.846   3.589 -13.736  0.00  0.00     0.016 A 
ATOM      8  N   UNL d   1       7.041   1.696 -15.189  0.00  0.00    -0.244 NA
ATOM      9  C   UNL d   1       7.457   1.179 -16.279  0.00  0.00     0.079 C 
ATOM     10  C   UNL d   1       8.741   1.592 -16.961  0.00  0.00     0.035 C 
ATOM     11  C   UNL d   1       8.819   1.771 -18.364  0.00  0.00    -0.001 C 
ATOM     12  C   UNL d   1      10.045   1.915 -19.036  0.00  0.00    -0.022 C 
ATOM     13  C   UNL d   1      10.034   1.982 -20.551  0.00  0.00     0.031 C 
ATOM     14  C   UNL d   1      11.244   2.006 -18.304  0.00  0.00    -0.003 C 
ATOM     15  C   UNL d   1      11.193   1.956 -16.894  0.00  0.00     0.019 C 
ATOM     16  C   UNL d   1       9.952   1.757 -16.226  0.00  0.00     0.083 C 
ATOM     17  N   UNL d   1       9.965   1.833 -14.833  0.00  0.00    -0.244 NA
ENDROOT
BRANCH   9  18
ATOM     18  C   UNL d   1       6.579   0.102 -16.856  0.00  0.00    -0.005 C 
ATOM     19  C   UNL d   1       6.805  -0.460 -18.256  0.00  0.00     0.063 C 
ATOM     20  C   UNL d   1       5.652  -1.282 -18.788  0.00  0.00     0.255 C 
ATOM     21  N   UNL d   1       5.307  -2.306 -17.824  0.00  0.00     0.144 N 
ATOM     22  C   UNL d   1       4.796  -1.695 -16.590  0.00  0.00     0.276 C 
ATOM     23  C   UNL d   1       4.322  -3.194 -18.400  0.00  0.00     0.286 C 
ATOM     24  C   UNL d   1       5.641  -0.525 -16.106  0.00  0.00     0.006 C 
ENDBRANCH   9  18
TORSDOF 1
