REMARK  5 active torsions:
REMARK  status: ('A' for Active; 'I' for Inactive)
REMARK    1  A    between atoms: N_4  and  C_5 
REMARK    2  A    between atoms: C_5  and  C_7 
REMARK    3  A    between atoms: C_14  and  C_15 
REMARK    4  A    between atoms: C_15  and  N_16 
REMARK    5  A    between atoms: C_18  and  C_19 
ROOT
ATOM      1  C   UNL d   1       9.890   1.143 -17.728  0.00  0.00     0.128 C 
ATOM      2  C   UNL d   1       8.753   1.621 -18.518  0.00  0.00     0.076 C 
ATOM      3  N   UNL d   1       7.859   1.993 -19.140  0.00  0.00    -0.196 NA
ENDROOT
BRANCH   1   4
ATOM      4  C   UNL d   1       9.482   0.787 -16.282  0.00  0.00     0.104 C 
ATOM      5  C   UNL d   1      10.355  -0.318 -15.703  0.00  0.00     0.026 C 
BRANCH   4   6
ATOM      6  N   UNL d   1       9.516   1.964 -15.394  0.00  0.00    -0.293 N 
ATOM      7  C   UNL d   1      10.746   2.659 -15.258  0.00  0.00     0.093 A 
ATOM      8  C   UNL d   1      10.921   3.765 -14.497  0.00  0.00     0.078 A 
ATOM      9  C   UNL d   1      12.216   4.543 -14.364  0.00  0.00     0.054 C 
ATOM     10  N   UNL d   1       9.799   4.221 -13.784  0.00  0.00    -0.228 N 
ATOM     11  C   UNL d   1       8.609   3.562 -13.866  0.00  0.00     0.140 A 
ATOM     12  N   UNL d   1       9.746   5.282 -12.969  0.00  0.00    -0.168 NA
ATOM     13  C   UNL d   1       8.411   2.359 -14.699  0.00  0.00     0.279 A 
ATOM     14  C   UNL d   1       7.705   4.196 -13.065  0.00  0.00     0.043 A 
ATOM     15  O   UNL d   1       7.317   1.796 -14.742  0.00  0.00    -0.265 OA
ATOM     16  C   UNL d   1       8.487   5.265 -12.514  0.00  0.00     0.105 A 
BRANCH  16  17
ATOM     17  C   UNL d   1       8.034   6.313 -11.534  0.00  0.00     0.176 C 
BRANCH  17  18
ATOM     18  N   UNL d   1       9.075   6.654 -10.581  0.00  0.00    -0.234 N 
ATOM     19  C   UNL d   1       9.434   6.040  -9.405  0.00  0.00     0.137 A 
ATOM     20  C   UNL d   1      10.465   6.698  -8.818  0.00  0.00     0.052 A 
ATOM     21 CL   UNL d   1       8.675   4.610  -8.839  0.00  0.00    -0.062 Cl
ATOM     22  C   UNL d   1      10.695   7.754  -9.745  0.00  0.00     0.147 A 
ATOM     23  N   UNL d   1       9.862   7.734 -10.782  0.00  0.00    -0.167 NA
BRANCH  22  24
ATOM     24  C   UNL d   1      11.728   8.829  -9.681  0.00  0.00     0.360 C 
ATOM     25  F   UNL d   1      11.101   9.999  -9.621  0.00  0.00    -0.192 F 
ATOM     26  F   UNL d   1      12.505   8.680  -8.609  0.00  0.00    -0.192 F 
ENDBRANCH  22  24
ENDBRANCH  17  18
ENDBRANCH  16  17
ENDBRANCH   4   6
ENDBRANCH   1   4
TORSDOF 5
