REMARK  7 active torsions:
REMARK  status: ('A' for Active; 'I' for Inactive)
REMARK    1  A    between atoms: C_4  and  C_5 
REMARK    2  A    between atoms: N_13  and  C_14 
REMARK    3  A    between atoms: C_14  and  C_15 
REMARK    4  A    between atoms: C_15  and  C_16 
REMARK    5  A    between atoms: C_16  and  S_17 
REMARK    6  A    between atoms: S_17  and  C_18 
REMARK    7  A    between atoms: C_21  and  C_22 
ROOT
ATOM      1  C   UNL d   1      18.052   8.085 -19.382  0.00  0.00     0.036 A 
ATOM      2  C   UNL d   1      19.448   7.917 -19.509  0.00  0.00     0.004 A 
ATOM      3  C   UNL d   1      20.328   8.795 -18.851  0.00  0.00     0.010 A 
ATOM      4  C   UNL d   1      19.817   9.844 -18.056  0.00  0.00     0.068 A 
ATOM      5  C   UNL d   1      20.726  10.751 -17.382  0.00  0.00     0.101 C 
ATOM      6  N   UNL d   1      21.455  11.470 -16.843  0.00  0.00    -0.191 NA
ATOM      7  C   UNL d   1      18.422   9.998 -17.912  0.00  0.00     0.010 A 
ATOM      8  C   UNL d   1      17.543   9.125 -18.578  0.00  0.00     0.004 A 
ENDROOT
BRANCH   1   9
ATOM      9  C   UNL d   1      17.159   7.168 -20.072  0.00  0.00     0.167 A 
ATOM     10  N   UNL d   1      17.357   5.847 -20.026  0.00  0.00    -0.128 NA
ATOM     11  N   UNL d   1      16.341   5.288 -20.761  0.00  0.00    -0.122 NA
ATOM     12  C   UNL d   1      15.609   6.315 -21.195  0.00  0.00     0.193 A 
ATOM     13  N   UNL d   1      16.080   7.518 -20.808  0.00  0.00    -0.289 N 
ATOM     14  C   UNL d   1      15.559   8.845 -21.109  0.00  0.00     0.134 C 
BRANCH  12  15
ATOM     15  S   UNL d   1      14.171   6.130 -22.195  0.00  0.00    -0.075 SA
BRANCH  15  16
ATOM     16  C   UNL d   1      13.563   4.535 -21.565  0.00  0.00     0.067 C 
BRANCH  16  17
ATOM     17  C   UNL d   1      12.867   4.680 -20.202  0.00  0.00     0.047 C 
BRANCH  17  18
ATOM     18  C   UNL d   1      12.454   3.310 -19.648  0.00  0.00     0.251 C 
BRANCH  18  19
ATOM     19  N   UNL d   1      11.654   3.467 -18.428  0.00  0.00     0.138 N 
ATOM     20  C   UNL d   1      10.252   3.199 -18.759  0.00  0.00     0.255 C 
ATOM     21  C   UNL d   1       9.250   3.605 -17.666  0.00  0.00     0.061 C 
ATOM     22  C   UNL d   1       9.120   2.586 -16.549  0.00  0.00    -0.024 A 
ATOM     23  C   UNL d   1      10.235   2.251 -15.748  0.00  0.00    -0.024 A 
ATOM     24  C   UNL d   1       7.872   1.969 -16.302  0.00  0.00    -0.003 A 
ATOM     25  C   UNL d   1      10.083   1.313 -14.707  0.00  0.00    -0.004 A 
ATOM     26  C   UNL d   1      11.593   2.885 -15.986  0.00  0.00     0.061 C 
ATOM     27  C   UNL d   1       8.833   0.716 -14.456  0.00  0.00     0.001 A 
ATOM     28  C   UNL d   1       7.718   1.038 -15.252  0.00  0.00     0.020 A 
ATOM     29  C   UNL d   1      12.178   2.591 -17.378  0.00  0.00     0.255 C 
BRANCH  28  30
ATOM     30  C   UNL d   1       6.420   0.402 -15.013  0.00  0.00     0.110 A 
ATOM     31  C   UNL d   1       5.456  -0.015 -15.972  0.00  0.00     0.044 A 
ATOM     32  C   UNL d   1       4.433  -0.515 -15.217  0.00  0.00     0.105 A 
ATOM     33  C   UNL d   1       3.115  -1.117 -15.560  0.00  0.00     0.061 C 
ATOM     34  O   UNL d   1       4.731  -0.409 -13.899  0.00  0.00    -0.215 OA
ATOM     35  N   UNL d   1       6.000   0.167 -13.776  0.00  0.00    -0.127 NA
ENDBRANCH  28  30
ENDBRANCH  18  19
ENDBRANCH  17  18
ENDBRANCH  16  17
ENDBRANCH  15  16
ENDBRANCH  12  15
ENDBRANCH   1   9
TORSDOF 7
