REMARK  10 active torsions:
REMARK  status: ('A' for Active; 'I' for Inactive)
REMARK    1  A    between atoms: S_2  and  N_4 
REMARK    2  A    between atoms: S_2  and  C_24 
REMARK    3  A    between atoms: N_4  and  C_5 
REMARK    4  A    between atoms: C_5  and  C_6 
REMARK    5  A    between atoms: C_6  and  C_7 
REMARK    6  A    between atoms: C_7  and  C_8 
REMARK    7  A    between atoms: C_8  and  N_9 
REMARK    8  A    between atoms: N_12  and  C_13 
REMARK    9  A    between atoms: C_27  and  O_28 
REMARK   10  A    between atoms: O_28  and  C_29 
ROOT
ATOM      1  C   UNL d   1       8.156   5.698 -11.592  0.00  0.00     0.029 C 
ENDROOT
BRANCH   1   2
ATOM      2  C   UNL d   1       7.706   4.769 -12.701  0.00  0.00     0.139 C 
BRANCH   2   3
ATOM      3  N   UNL d   1       8.328   5.095 -13.993  0.00  0.00    -0.185 NA
BRANCH   3   4
ATOM      4  S   UNL d   1       9.476   4.036 -14.735  0.00  0.00     0.281 S 
ATOM      5  O   UNL d   1       9.970   4.724 -15.945  0.00  0.00    -0.199 OA
ATOM      6  O   UNL d   1      10.416   3.582 -13.713  0.00  0.00    -0.199 OA
BRANCH   4   7
ATOM      7  C   UNL d   1       8.505   2.619 -15.233  0.00  0.00     0.105 A 
ATOM      8  C   UNL d   1       7.352   2.233 -14.502  0.00  0.00     0.015 A 
ATOM      9  C   UNL d   1       6.636   1.100 -14.886  0.00  0.00     0.025 A 
ATOM     10  C   UNL d   1       7.016   0.347 -16.023  0.00  0.00     0.102 A 
ATOM     11  C   UNL d   1       8.159   0.745 -16.760  0.00  0.00     0.025 A 
ATOM     12  C   UNL d   1       8.912   1.877 -16.369  0.00  0.00     0.015 A 
BRANCH  10  13
ATOM     13  O   UNL d   1       6.316  -0.751 -16.455  0.00  0.00    -0.253 OA
BRANCH  13  14
ATOM     14  C   UNL d   1       5.313  -1.279 -15.701  0.00  0.00     0.530 C 
ATOM     15  F   UNL d   1       4.859  -2.415 -16.281  0.00  0.00    -0.144 F 
ATOM     16  F   UNL d   1       5.733  -1.611 -14.454  0.00  0.00    -0.144 F 
ATOM     17  F   UNL d   1       4.261  -0.432 -15.599  0.00  0.00    -0.144 F 
ENDBRANCH  13  14
ENDBRANCH  10  13
ENDBRANCH   4   7
ENDBRANCH   3   4
ENDBRANCH   2   3
ENDBRANCH   1   2
BRANCH   1  18
ATOM     18  C   UNL d   1       9.653   5.507 -11.325  0.00  0.00     0.037 C 
BRANCH  18  19
ATOM     19  C   UNL d   1      10.271   6.758 -10.740  0.00  0.00     0.251 C 
BRANCH  19  20
ATOM     20  N   UNL d   1       9.784   6.992  -9.399  0.00  0.00     0.141 N 
ATOM     21  C   UNL d   1      10.717   6.397  -8.453  0.00  0.00     0.274 C 
ATOM     22  C   UNL d   1      10.271   6.610  -7.020  0.00  0.00     0.138 C 
ATOM     23  N   UNL d   1      10.070   8.033  -6.793  0.00  0.00    -0.328 N 
ATOM     24  C   UNL d   1       9.225   8.721  -7.767  0.00  0.00     0.138 C 
ATOM     25  C   UNL d   1       9.742   8.434  -9.178  0.00  0.00     0.274 C 
BRANCH  23  26
ATOM     26  C   UNL d   1      10.676   8.719  -5.725  0.00  0.00     0.169 A 
ATOM     27  C   UNL d   1      11.303   8.158  -4.577  0.00  0.00     0.061 A 
ATOM     28  C   UNL d   1      11.698   9.212  -3.740  0.00  0.00     0.128 A 
ATOM     29  C   UNL d   1      11.473   6.827  -4.114  0.00  0.00     0.005 A 
ATOM     30  O   UNL d   1      11.269  10.360  -4.380  0.00  0.00    -0.210 OA
ATOM     31  C   UNL d   1      12.327   9.014  -2.498  0.00  0.00     0.027 A 
ATOM     32  N   UNL d   1      10.664  10.036  -5.621  0.00  0.00    -0.109 NA
ATOM     33  C   UNL d   1      12.561   7.685  -2.083  0.00  0.00     0.002 A 
ATOM     34  C   UNL d   1      12.126   6.607  -2.883  0.00  0.00     0.000 A 
ENDBRANCH  23  26
ENDBRANCH  19  20
ENDBRANCH  18  19
ENDBRANCH   1  18
TORSDOF 10
