REMARK  10 active torsions:
REMARK  status: ('A' for Active; 'I' for Inactive)
REMARK    1  A    between atoms: C_2  and  C_3 
REMARK    2  A    between atoms: C_3  and  N_4 
REMARK    3  A    between atoms: N_4  and  C_5 
REMARK    4  A    between atoms: N_4  and  C_24 
REMARK    5  A    between atoms: C_5  and  C_6 
REMARK    6  A    between atoms: C_6  and  C_7 
REMARK    7  A    between atoms: C_7  and  C_8 
REMARK    8  A    between atoms: C_8  and  N_9 
REMARK       I    between atoms: N_9  and  C_10 
REMARK    9  A    between atoms: C_10  and  C_12 
REMARK   10  A    between atoms: C_15  and  C_16 
ROOT
ATOM      1  C   UNL d   1       9.217   4.954 -12.481  0.00  0.00     0.029 C 
ENDROOT
BRANCH   1   2
ATOM      2  C   UNL d   1       8.609   4.816 -13.884  0.00  0.00     0.037 C 
BRANCH   2   3
ATOM      3  C   UNL d   1       9.091   3.525 -14.559  0.00  0.00     0.250 C 
BRANCH   3   4
ATOM      4  N   UNL d   1      10.532   3.489 -14.874  0.00  0.00     0.135 N 
BRANCH   4   5
ATOM      5  C   UNL d   1      10.854   2.236 -15.563  0.00  0.00     0.250 C 
BRANCH   5   6
ATOM      6  C   UNL d   1      10.444   0.960 -14.816  0.00  0.00     0.035 C 
ATOM      7  C   UNL d   1      10.103  -0.152 -15.808  0.00  0.00     0.002 C 
ENDBRANCH   5   6
ENDBRANCH   4   5
BRANCH   4   8
ATOM      8  C   UNL d   1      11.011   4.674 -15.622  0.00  0.00     0.224 C 
ATOM      9  C   UNL d   1      10.239   4.908 -16.961  0.00  0.00     0.062 C 
ATOM     10  C   UNL d   1      10.893   5.975 -17.774  0.00  0.00     0.016 A 
ATOM     11  C   UNL d   1      12.201   6.475 -17.536  0.00  0.00     0.078 A 
ATOM     12  C   UNL d   1      10.463   6.650 -18.880  0.00  0.00     0.119 A 
ATOM     13  C   UNL d   1      13.087   6.037 -16.404  0.00  0.00     0.049 C 
ATOM     14  N   UNL d   1      12.577   7.377 -18.425  0.00  0.00    -0.153 NA
ATOM     15  C   UNL d   1      12.564   4.718 -15.781  0.00  0.00     0.040 C 
ATOM     16  N   UNL d   1      11.500   7.482 -19.240  0.00  0.00    -0.147 NA
ENDBRANCH   4   8
ENDBRANCH   3   4
ENDBRANCH   2   3
ENDBRANCH   1   2
BRANCH   1  17
ATOM     17  C   UNL d   1       9.345   6.419 -12.044  0.00  0.00     0.129 C 
BRANCH  17  18
ATOM     18  N   UNL d   1       9.897   6.561 -10.701  0.00  0.00    -0.234 NA
ATOM     19  C   UNL d   1       9.253   6.189  -9.579  0.00  0.00     0.275 C 
ATOM     20  O   UNL d   1       8.254   5.480  -9.549  0.00  0.00    -0.266 OA
BRANCH  19  21
ATOM     21  C   UNL d   1       9.829   6.724  -8.311  0.00  0.00     0.058 A 
ATOM     22  C   UNL d   1      10.804   5.987  -7.629  0.00  0.00     0.005 A 
ATOM     23  C   UNL d   1      11.361   6.460  -6.440  0.00  0.00     0.000 A 
ATOM     24  C   UNL d   1      10.882   7.658  -5.864  0.00  0.00     0.000 A 
ATOM     25  C   UNL d   1       9.854   8.366  -6.522  0.00  0.00     0.000 A 
ATOM     26  C   UNL d   1       9.347   7.914  -7.756  0.00  0.00     0.005 A 
BRANCH  24  27
ATOM     27  C   UNL d   1      11.409   8.135  -4.566  0.00  0.00     0.000 A 
ATOM     28  C   UNL d   1      11.872   7.218  -3.589  0.00  0.00     0.000 A 
ATOM     29  C   UNL d   1      12.320   7.676  -2.338  0.00  0.00     0.000 A 
ATOM     30  C   UNL d   1      12.290   9.046  -2.054  0.00  0.00     0.000 A 
ATOM     31  C   UNL d   1      11.833   9.959  -3.014  0.00  0.00     0.000 A 
ATOM     32  C   UNL d   1      11.380   9.510  -4.260  0.00  0.00     0.000 A 
ENDBRANCH  24  27
ENDBRANCH  19  21
ENDBRANCH  17  18
ENDBRANCH   1  17
TORSDOF 10
