REMARK  9 active torsions:
REMARK  status: ('A' for Active; 'I' for Inactive)
REMARK    1  A    between atoms: C_3  and  S_4 
REMARK    2  A    between atoms: S_4  and  C_5 
REMARK    3  A    between atoms: C_5  and  C_6 
REMARK    4  A    between atoms: C_6  and  C_7 
REMARK    5  A    between atoms: C_7  and  N_8 
REMARK    6  A    between atoms: C_12  and  C_13 
REMARK    7  A    between atoms: C_16  and  C_17 
REMARK    8  A    between atoms: C_27  and  C_28 
REMARK    9  A    between atoms: C_31  and  C_32 
ROOT
ATOM      1  C   UNL d   1       7.528   3.540 -13.550  0.00  0.00     0.047 C 
ENDROOT
BRANCH   1   2
ATOM      2  C   UNL d   1       8.868   4.253 -13.351  0.00  0.00     0.067 C 
BRANCH   2   3
ATOM      3  S   UNL d   1       8.600   5.962 -12.847  0.00  0.00    -0.075 SA
BRANCH   3   4
ATOM      4  C   UNL d   1       8.992   5.905 -11.114  0.00  0.00     0.193 A 
ATOM      5  N   UNL d   1       9.477   6.985 -10.452  0.00  0.00    -0.289 N 
ATOM      6  C   UNL d   1       9.702   8.312 -11.053  0.00  0.00     0.134 C 
ATOM      7  C   UNL d   1       9.639   6.473  -9.197  0.00  0.00     0.167 A 
ATOM      8  N   UNL d   1       9.342   5.151  -9.117  0.00  0.00    -0.128 NA
ATOM      9  N   UNL d   1       8.882   4.805 -10.363  0.00  0.00    -0.122 NA
BRANCH   7  10
ATOM     10  C   UNL d   1      10.106   7.197  -8.009  0.00  0.00     0.036 C 
ATOM     11  C   UNL d   1      10.851   6.498  -7.012  0.00  0.00     0.003 C 
ATOM     12  C   UNL d   1      11.312   7.147  -5.842  0.00  0.00     0.005 C 
ATOM     13  C   UNL d   1      11.153   8.542  -5.740  0.00  0.00     0.059 C 
ATOM     14  C   UNL d   1      10.446   9.231  -6.751  0.00  0.00     0.005 C 
ATOM     15  C   UNL d   1       9.840   8.562  -7.800  0.00  0.00     0.003 C 
BRANCH  13  16
ATOM     16  C   UNL d   1      11.594   9.320  -4.544  0.00  0.00     0.297 C 
ATOM     17  N   UNL d   1      12.660   8.827  -3.909  0.00  0.00    -0.102 N 
ATOM     18  O   UNL d   1      11.053  10.372  -4.223  0.00  0.00    -0.264 OA
ENDBRANCH  13  16
ENDBRANCH   7  10
ENDBRANCH   3   4
ENDBRANCH   2   3
ENDBRANCH   1   2
BRANCH   1  19
ATOM     19  C   UNL d   1       7.704   2.215 -14.310  0.00  0.00     0.251 C 
BRANCH  19  20
ATOM     20  N   UNL d   1       6.457   1.505 -14.583  0.00  0.00     0.143 N 
ATOM     21  C   UNL d   1       6.661   0.483 -15.598  0.00  0.00     0.284 C 
ATOM     22  C   UNL d   1       5.372  -0.298 -15.931  0.00  0.00     0.173 C 
ATOM     23  O   UNL d   1       4.834  -0.847 -14.725  0.00  0.00    -0.348 OA
ATOM     24  C   UNL d   1       4.587   0.117 -13.720  0.00  0.00     0.178 C 
ATOM     25  C   UNL d   1       5.882   0.885 -13.395  0.00  0.00     0.282 C 
BRANCH  22  26
ATOM     26  C   UNL d   1       5.590  -1.371 -16.994  0.00  0.00     0.034 A 
ATOM     27  C   UNL d   1       6.138  -1.047 -18.258  0.00  0.00     0.138 A 
ATOM     28  C   UNL d   1       6.399  -2.061 -19.197  0.00  0.00     0.033 A 
ATOM     29  F   UNL d   1       6.432   0.233 -18.595  0.00  0.00    -0.204 F 
ATOM     30  C   UNL d   1       6.099  -3.408 -18.904  0.00  0.00     0.074 A 
ATOM     31  C   UNL d   1       5.517  -3.728 -17.661  0.00  0.00     0.004 A 
ATOM     32  C   UNL d   1       5.261  -2.718 -16.719  0.00  0.00     0.000 A 
BRANCH  30  33
ATOM     33  C   UNL d   1       6.372  -4.494 -19.925  0.00  0.00     0.419 C 
ATOM     34  F   UNL d   1       6.781  -5.613 -19.328  0.00  0.00    -0.166 F 
ATOM     35  F   UNL d   1       5.253  -4.742 -20.602  0.00  0.00    -0.166 F 
ATOM     36  F   UNL d   1       7.318  -4.107 -20.779  0.00  0.00    -0.166 F 
ENDBRANCH  30  33
ENDBRANCH  22  26
ENDBRANCH  19  20
ENDBRANCH   1  19
TORSDOF 9
