REMARK  6 active torsions:
REMARK  status: ('A' for Active; 'I' for Inactive)
REMARK    1  A    between atoms: C_2  and  N_3 
REMARK    2  A    between atoms: C_7  and  C_8 
REMARK    3  A    between atoms: C_8  and  N_9 
REMARK       I    between atoms: N_9  and  C_10 
REMARK    4  A    between atoms: C_10  and  C_12 
REMARK    5  A    between atoms: C_13  and  O_14 
REMARK    6  A    between atoms: C_21  and  O_22 
ROOT
ATOM      1  C   UNL d   1       8.688   5.303 -12.763  0.00  0.00     0.104 A 
ATOM      2  C   UNL d   1       9.537   4.650 -13.699  0.00  0.00     0.126 A 
ATOM      3  C   UNL d   1       9.084   3.475 -14.357  0.00  0.00     0.154 A 
ATOM      4  O   UNL d   1       9.886   2.767 -15.209  0.00  0.00    -0.188 OA
ATOM      5  C   UNL d   1       7.783   2.992 -14.117  0.00  0.00     0.037 A 
ATOM      6  C   UNL d   1       6.934   3.654 -13.215  0.00  0.00     0.055 A 
ATOM      7  I   UNL d   1       5.057   2.831 -12.809  0.00  0.00    -0.041 I 
ATOM      8  C   UNL d   1       7.374   4.809 -12.539  0.00  0.00     0.106 A 
ENDROOT
BRANCH   1   9
ATOM      9  C   UNL d   1       9.182   6.501 -12.002  0.00  0.00     0.279 C 
ATOM     10  N   UNL d   1       9.835   6.253 -10.860  0.00  0.00    -0.232 NA
ATOM     11  O   UNL d   1       9.023   7.636 -12.435  0.00  0.00    -0.265 OA
BRANCH  10  12
ATOM     12  C   UNL d   1      10.398   7.300 -10.005  0.00  0.00     0.162 C 
BRANCH  12  13
ATOM     13  C   UNL d   1      10.306   6.914  -8.515  0.00  0.00     0.243 C 
ATOM     14  N   UNL d   1      10.475   8.072  -7.633  0.00  0.00     0.137 N 
ATOM     15  C   UNL d   1       9.992   7.581  -6.348  0.00  0.00     0.250 C 
ATOM     16  C   UNL d   1       8.724   6.824  -6.701  0.00  0.00     0.037 C 
ATOM     17  C   UNL d   1       8.943   6.351  -8.123  0.00  0.00     0.037 C 
BRANCH  14  18
ATOM     18  C   UNL d   1      11.861   8.514  -7.553  0.00  0.00     0.250 C 
ATOM     19  C   UNL d   1      12.021   9.684  -6.561  0.00  0.00     0.037 C 
ENDBRANCH  14  18
ENDBRANCH  12  13
ENDBRANCH  10  12
ENDBRANCH   1   9
BRANCH   8  20
ATOM     20  O   UNL d   1       6.535   5.407 -11.639  0.00  0.00    -0.328 OA
ATOM     21  C   UNL d   1       5.850   6.539 -12.152  0.00  0.00     0.181 C 
ENDBRANCH   8  20
BRANCH   2  22
ATOM     22  O   UNL d   1      10.799   5.184 -13.898  0.00  0.00    -0.326 OA
ATOM     23  C   UNL d   1      11.256   5.293 -15.241  0.00  0.00     0.181 C 
ENDBRANCH   2  22
TORSDOF 6
