REMARK  6 active torsions:
REMARK  status: ('A' for Active; 'I' for Inactive)
REMARK    1  A    between atoms: C_10  and  C_11 
REMARK    2  A    between atoms: C_11  and  C_12 
REMARK    3  A    between atoms: C_12  and  C_13 
REMARK    4  A    between atoms: C_13  and  C_14 
REMARK    5  A    between atoms: C_14  and  N_15 
REMARK    6  A    between atoms: N_18  and  C_19 
ROOT
ATOM      1  C   UNL d   1       9.817   6.678 -11.272  0.00  0.00     0.250 C 
ENDROOT
BRANCH   1   2
ATOM      2  C   UNL d   1       8.643   5.917 -11.922  0.00  0.00     0.035 C 
BRANCH   2   3
ATOM      3  C   UNL d   1       9.066   5.111 -13.164  0.00  0.00     0.003 C 
BRANCH   3   4
ATOM      4  C   UNL d   1       9.870   3.836 -12.810  0.00  0.00     0.014 C 
BRANCH   4   5
ATOM      5  C   UNL d   1      10.514   3.081 -13.990  0.00  0.00     0.105 A 
ATOM      6  C   UNL d   1      11.403   3.971 -14.882  0.00  0.00     0.259 A 
ATOM      7  O   UNL d   1      12.362   4.609 -14.451  0.00  0.00    -0.270 OA
ATOM      8  N   UNL d   1      10.967   3.959 -16.149  0.00  0.00    -0.212 NA
ATOM      9  C   UNL d   1       9.834   3.148 -16.267  0.00  0.00     0.081 A 
ATOM     10  C   UNL d   1       9.534   2.604 -15.025  0.00  0.00     0.004 A 
ATOM     11  C   UNL d   1       9.057   2.864 -17.403  0.00  0.00     0.019 A 
ATOM     12  C   UNL d   1       8.456   1.722 -14.850  0.00  0.00    -0.002 A 
ATOM     13  C   UNL d   1       7.665   1.414 -15.978  0.00  0.00    -0.000 A 
ATOM     14  C   UNL d   1       7.965   1.983 -17.244  0.00  0.00     0.002 A 
ENDBRANCH   4   5
ENDBRANCH   3   4
ENDBRANCH   2   3
ENDBRANCH   1   2
BRANCH   1  15
ATOM     15  N   UNL d   1       9.474   7.299 -10.001  0.00  0.00     0.141 N 
ATOM     16  C   UNL d   1       9.377   6.301  -8.928  0.00  0.00     0.274 C 
ATOM     17  C   UNL d   1       8.960   6.969  -7.602  0.00  0.00     0.137 C 
ATOM     18  N   UNL d   1       9.884   8.047  -7.276  0.00  0.00    -0.344 N 
ATOM     19  C   UNL d   1      10.084   9.017  -8.342  0.00  0.00     0.137 C 
ATOM     20  C   UNL d   1      10.487   8.295  -9.643  0.00  0.00     0.274 C 
BRANCH  18  21
ATOM     21  C   UNL d   1      10.562   8.123  -6.044  0.00  0.00     0.056 A 
ATOM     22  C   UNL d   1      10.893   6.952  -5.336  0.00  0.00     0.018 A 
ATOM     23  C   UNL d   1      11.531   7.008  -4.086  0.00  0.00     0.013 A 
ATOM     24  C   UNL d   1      11.863   8.260  -3.536  0.00  0.00     0.058 A 
ATOM     25  C   UNL d   1      11.553   9.438  -4.234  0.00  0.00     0.013 A 
ATOM     26 CL   UNL d   1      12.639   8.372  -2.008  0.00  0.00    -0.082 Cl
ATOM     27  C   UNL d   1      10.910   9.378  -5.487  0.00  0.00     0.018 A 
ENDBRANCH  18  21
ENDBRANCH   1  15
TORSDOF 6
