REMARK  7 active torsions:
REMARK  status: ('A' for Active; 'I' for Inactive)
REMARK       I    between atoms: C_2  and  N_3 
REMARK    1  A    between atoms: C_2  and  C_22 
REMARK    2  A    between atoms: N_3  and  C_4 
REMARK    3  A    between atoms: C_4  and  C_5 
REMARK    4  A    between atoms: C_5  and  C_6 
REMARK    5  A    between atoms: C_6  and  C_7 
REMARK    6  A    between atoms: C_7  and  N_8 
REMARK    7  A    between atoms: N_11  and  C_12 
ROOT
ATOM      1  C   UNL d   1       7.044   1.933 -15.692  0.00  0.00     0.037 C 
ENDROOT
BRANCH   1   2
ATOM      2  C   UNL d   1       6.458   0.633 -16.255  0.00  0.00     0.029 C 
BRANCH   2   3
ATOM      3  C   UNL d   1       6.672   0.480 -17.778  0.00  0.00     0.129 C 
BRANCH   3   4
ATOM      4  N   UNL d   1       8.072   0.508 -18.177  0.00  0.00    -0.234 NA
ATOM      5  C   UNL d   1       8.808   1.612 -18.361  0.00  0.00     0.281 C 
ATOM      6  O   UNL d   1       8.343   2.745 -18.224  0.00  0.00    -0.265 OA
BRANCH   5   7
ATOM      7  C   UNL d   1      10.225   1.381 -18.717  0.00  0.00     0.087 A 
ATOM      8  S   UNL d   1      11.312   2.729 -18.512  0.00  0.00    -0.082 SA
ATOM      9  C   UNL d   1      12.639   1.822 -19.209  0.00  0.00     0.030 A 
ATOM     10  C   UNL d   1      12.219   0.498 -19.556  0.00  0.00     0.007 A 
ATOM     11  C   UNL d   1      13.952   2.273 -19.444  0.00  0.00     0.007 A 
ATOM     12  C   UNL d   1      10.828   0.259 -19.251  0.00  0.00     0.012 A 
ATOM     13  C   UNL d   1      13.184  -0.344 -20.145  0.00  0.00     0.006 A 
ATOM     14  C   UNL d   1      14.498   0.098 -20.381  0.00  0.00     0.030 A 
ATOM     15  I   UNL d   1      15.889  -1.202 -21.240  0.00  0.00    -0.043 I 
ATOM     16  C   UNL d   1      14.883   1.405 -20.035  0.00  0.00     0.006 A 
ENDBRANCH   5   7
ENDBRANCH   3   4
ENDBRANCH   2   3
ENDBRANCH   1   2
BRANCH   1  17
ATOM     17  C   UNL d   1       6.697   2.172 -14.219  0.00  0.00     0.251 C 
BRANCH  17  18
ATOM     18  N   UNL d   1       7.156   3.508 -13.808  0.00  0.00     0.141 N 
ATOM     19  C   UNL d   1       6.441   3.894 -12.593  0.00  0.00     0.274 C 
ATOM     20  C   UNL d   1       6.861   5.304 -12.132  0.00  0.00     0.137 C 
ATOM     21  N   UNL d   1       8.299   5.359 -11.991  0.00  0.00    -0.344 N 
ATOM     22  C   UNL d   1       9.074   4.934 -13.136  0.00  0.00     0.137 C 
ATOM     23  C   UNL d   1       8.614   3.531 -13.598  0.00  0.00     0.274 C 
BRANCH  21  24
ATOM     24  C   UNL d   1       8.919   5.844 -10.807  0.00  0.00     0.068 A 
ATOM     25  C   UNL d   1       9.452   7.134 -10.771  0.00  0.00     0.084 A 
ATOM     26  C   UNL d   1      10.096   7.598  -9.584  0.00  0.00     0.070 A 
ATOM     27 CL   UNL d   1       9.285   8.215 -12.107  0.00  0.00    -0.080 Cl
ATOM     28  C   UNL d   1      10.150   6.765  -8.456  0.00  0.00     0.012 A 
ATOM     29 CL   UNL d   1      10.787   9.177  -9.492  0.00  0.00    -0.081 Cl
ATOM     30  C   UNL d   1       9.578   5.487  -8.497  0.00  0.00     0.002 A 
ATOM     31  C   UNL d   1       8.955   5.021  -9.689  0.00  0.00     0.018 A 
ENDBRANCH  21  24
ENDBRANCH  17  18
ENDBRANCH   1  17
TORSDOF 7
