REMARK  5 active torsions:
REMARK  status: ('A' for Active; 'I' for Inactive)
REMARK    1  A    between atoms: C_2  and  N_4 
REMARK    2  A    between atoms: N_7  and  C_8 
REMARK    3  A    between atoms: C_8  and  C_9 
REMARK    4  A    between atoms: C_9  and  N_10 
REMARK    5  A    between atoms: N_13  and  C_14 
ROOT
ATOM      1  C   UNL d   1       8.705   5.302 -10.898  0.00  0.00     0.065 A 
ATOM      2  C   UNL d   1       8.275   4.857  -9.633  0.00  0.00     0.017 A 
ATOM      3  C   UNL d   1       8.660   5.543  -8.461  0.00  0.00     0.002 A 
ATOM      4  C   UNL d   1       9.490   6.670  -8.537  0.00  0.00     0.010 A 
ATOM      5  C   UNL d   1       9.925   7.111  -9.802  0.00  0.00     0.070 A 
ATOM      6  C   UNL d   1      10.781   8.277  -9.904  0.00  0.00     0.101 C 
ATOM      7  N   UNL d   1      11.463   9.199  -9.976  0.00  0.00    -0.191 NA
ATOM      8  C   UNL d   1       9.522   6.448 -10.980  0.00  0.00     0.028 A 
ENDROOT
BRANCH   1   9
ATOM      9  N   UNL d   1       8.309   4.620 -12.069  0.00  0.00    -0.280 N 
ATOM     10  C   UNL d   1       6.937   4.201 -12.312  0.00  0.00     0.135 A 
ATOM     11  C   UNL d   1       7.027   3.466 -13.649  0.00  0.00     0.131 A 
ATOM     12  N   UNL d   1       8.446   3.525 -13.928  0.00  0.00    -0.298 N 
ATOM     13  C   UNL d   1       9.154   4.221 -13.030  0.00  0.00     0.328 A 
ATOM     14  O   UNL d   1      10.368   4.454 -13.091  0.00  0.00    -0.247 OA
BRANCH  12  15
ATOM     15  C   UNL d   1       9.010   2.978 -15.138  0.00  0.00     0.141 C 
BRANCH  15  16
ATOM     16  C   UNL d   1       9.938   1.776 -14.839  0.00  0.00     0.274 C 
BRANCH  16  17
ATOM     17  N   UNL d   1      10.574   1.187 -16.009  0.00  0.00     0.143 N 
ATOM     18  C   UNL d   1       9.675   0.327 -16.772  0.00  0.00     0.286 C 
ATOM     19  C   UNL d   1      10.405  -0.308 -17.970  0.00  0.00     0.285 C 
ATOM     20  N   UNL d   1      11.019   0.701 -18.849  0.00  0.00     0.139 N 
ATOM     21  C   UNL d   1      11.902   1.572 -18.061  0.00  0.00     0.285 C 
ATOM     22  C   UNL d   1      11.166   2.194 -16.888  0.00  0.00     0.286 C 
BRANCH  20  23
ATOM     23  C   UNL d   1      11.680   0.123 -20.031  0.00  0.00     0.220 C 
ATOM     24  C   UNL d   1      12.915  -0.744 -19.712  0.00  0.00     0.035 C 
ATOM     25  C   UNL d   1      12.050   1.157 -21.108  0.00  0.00     0.035 C 
ENDBRANCH  20  23
ENDBRANCH  16  17
ENDBRANCH  15  16
ENDBRANCH  12  15
ENDBRANCH   1   9
TORSDOF 5
