REMARK  7 active torsions:
REMARK  status: ('A' for Active; 'I' for Inactive)
REMARK    1  A    between atoms: O_2  and  C_3 
REMARK    2  A    between atoms: C_7  and  C_8 
REMARK       I    between atoms: C_8  and  N_10 
REMARK    3  A    between atoms: N_10  and  C_11 
REMARK    4  A    between atoms: C_11  and  C_12 
REMARK    5  A    between atoms: N_16  and  C_17 
REMARK    6  A    between atoms: C_17  and  C_18 
REMARK    7  A    between atoms: C_18  and  C_19 
ROOT
ATOM      1  C   UNL d   1       9.850   4.166 -13.357  0.00  0.00     0.277 C 
ATOM      2  O   UNL d   1      10.751   5.022 -13.415  0.00  0.00    -0.266 OA
ATOM      3  N   UNL d   1       9.015   4.113 -12.316  0.00  0.00    -0.232 NA
ENDROOT
BRANCH   3   4
ATOM      4  C   UNL d   1       9.221   4.808 -11.053  0.00  0.00     0.162 C 
BRANCH   4   5
ATOM      5  C   UNL d   1       8.800   6.287 -11.091  0.00  0.00     0.243 C 
ATOM      6  N   UNL d   1       9.880   7.152 -10.606  0.00  0.00     0.137 N 
ATOM      7  C   UNL d   1       9.487   8.492 -11.025  0.00  0.00     0.250 C 
ATOM      8  C   UNL d   1       8.916   8.296 -12.427  0.00  0.00     0.037 C 
ATOM      9  C   UNL d   1       8.440   6.842 -12.500  0.00  0.00     0.037 C 
BRANCH   6  10
ATOM     10  C   UNL d   1      10.109   7.055  -9.164  0.00  0.00     0.255 C 
BRANCH  10  11
ATOM     11  C   UNL d   1      10.824   8.289  -8.555  0.00  0.00     0.062 C 
BRANCH  11  12
ATOM     12  C   UNL d   1      11.131   8.167  -7.075  0.00  0.00    -0.020 A 
ATOM     13  C   UNL d   1      10.772   7.014  -6.342  0.00  0.00    -0.004 A 
ATOM     14  C   UNL d   1      11.074   6.923  -4.977  0.00  0.00    -0.000 A 
ATOM     15  C   UNL d   1      11.722   7.986  -4.325  0.00  0.00    -0.000 A 
ATOM     16  C   UNL d   1      12.065   9.149  -5.041  0.00  0.00    -0.000 A 
ATOM     17  C   UNL d   1      11.773   9.238  -6.415  0.00  0.00    -0.004 A 
ENDBRANCH  11  12
ENDBRANCH  10  11
ENDBRANCH   6  10
ENDBRANCH   4   5
ENDBRANCH   3   4
BRANCH   1  18
ATOM     18  C   UNL d   1       9.702   3.120 -14.398  0.00  0.00     0.081 A 
ATOM     19  C   UNL d   1       8.496   2.413 -14.588  0.00  0.00     0.095 A 
ATOM     20  C   UNL d   1       8.415   1.395 -15.515  0.00  0.00     0.005 A 
ATOM     21  O   UNL d   1       7.311   2.622 -13.937  0.00  0.00    -0.331 OA
ATOM     22  C   UNL d   1       9.502   1.043 -16.339  0.00  0.00     0.022 A 
ATOM     23  C   UNL d   1       7.053   0.791 -15.465  0.00  0.00     0.061 C 
ATOM     24  C   UNL d   1      10.716   1.775 -16.205  0.00  0.00     0.094 A 
ATOM     25  C   UNL d   1      10.797   2.795 -15.232  0.00  0.00     0.031 A 
ATOM     26  C   UNL d   1       6.430   1.543 -14.264  0.00  0.00     0.154 C 
BRANCH  24  27
ATOM     27  O   UNL d   1      11.850   1.549 -16.954  0.00  0.00    -0.328 OA
ATOM     28  C   UNL d   1      11.748   0.637 -18.027  0.00  0.00     0.181 C 
ENDBRANCH  24  27
ENDBRANCH   1  18
TORSDOF 7
