REMARK  7 active torsions:
REMARK  status: ('A' for Active; 'I' for Inactive)
REMARK       I    between atoms: C_2  and  N_3 
REMARK    1  A    between atoms: C_2  and  C_22 
REMARK    2  A    between atoms: N_3  and  C_4 
REMARK    3  A    between atoms: C_4  and  C_5 
REMARK    4  A    between atoms: C_5  and  C_6 
REMARK    5  A    between atoms: C_6  and  C_7 
REMARK    6  A    between atoms: C_7  and  N_8 
REMARK    7  A    between atoms: N_11  and  C_12 
ROOT
ATOM      1  C   UNL d   1       8.252   5.937 -13.177  0.00  0.00     0.037 C 
ENDROOT
BRANCH   1   2
ATOM      2  C   UNL d   1       9.307   6.093 -12.088  0.00  0.00     0.029 C 
BRANCH   2   3
ATOM      3  C   UNL d   1       9.406   7.548 -11.588  0.00  0.00     0.129 C 
BRANCH   3   4
ATOM      4  N   UNL d   1       9.933   7.669 -10.246  0.00  0.00    -0.233 NA
ATOM      5  C   UNL d   1       9.623   6.901  -9.199  0.00  0.00     0.298 C 
ATOM      6  O   UNL d   1       8.870   5.929  -9.230  0.00  0.00    -0.263 OA
BRANCH   5   7
ATOM      7  C   UNL d   1      10.267   7.262  -7.941  0.00  0.00     0.157 A 
ATOM      8  O   UNL d   1      11.024   8.410  -7.822  0.00  0.00    -0.302 OA
ATOM      9  C   UNL d   1      11.460   8.456  -6.513  0.00  0.00     0.100 A 
ATOM     10  C   UNL d   1      11.019   7.309  -5.820  0.00  0.00     0.025 A 
ATOM     11  C   UNL d   1      12.265   9.451  -5.916  0.00  0.00     0.025 A 
ATOM     12  C   UNL d   1      10.246   6.572  -6.761  0.00  0.00     0.032 A 
ATOM     13  C   UNL d   1      11.396   7.162  -4.463  0.00  0.00     0.009 A 
ATOM     14  C   UNL d   1      12.178   8.161  -3.850  0.00  0.00     0.035 A 
ATOM     15 BR   UNL d   1      12.607   8.034  -2.018  0.00  0.00    -0.049 Br
ATOM     16  C   UNL d   1      12.636   9.277  -4.573  0.00  0.00     0.009 A 
ENDBRANCH   5   7
ENDBRANCH   3   4
ENDBRANCH   2   3
ENDBRANCH   1   2
BRANCH   1  17
ATOM     17  C   UNL d   1       8.614   4.788 -14.136  0.00  0.00     0.251 C 
BRANCH  17  18
ATOM     18  N   UNL d   1       7.994   3.522 -13.750  0.00  0.00     0.141 N 
ATOM     19  C   UNL d   1       6.521   3.594 -13.792  0.00  0.00     0.274 C 
ATOM     20  C   UNL d   1       5.903   2.251 -13.362  0.00  0.00     0.137 C 
ATOM     21  N   UNL d   1       6.439   1.171 -14.188  0.00  0.00    -0.344 N 
ATOM     22  C   UNL d   1       7.888   1.090 -14.285  0.00  0.00     0.137 C 
ATOM     23  C   UNL d   1       8.460   2.473 -14.673  0.00  0.00     0.274 C 
BRANCH  21  24
ATOM     24  C   UNL d   1       5.598   0.316 -14.933  0.00  0.00     0.068 A 
ATOM     25  C   UNL d   1       5.768   0.080 -16.325  0.00  0.00     0.084 A 
ATOM     26  C   UNL d   1       4.902  -0.810 -17.000  0.00  0.00     0.070 A 
ATOM     27 CL   UNL d   1       6.959   0.921 -17.268  0.00  0.00    -0.080 Cl
ATOM     28  C   UNL d   1       3.862  -1.444 -16.300  0.00  0.00     0.012 A 
ATOM     29 CL   UNL d   1       5.074  -1.090 -18.694  0.00  0.00    -0.081 Cl
ATOM     30  C   UNL d   1       3.668  -1.185 -14.937  0.00  0.00     0.002 A 
ATOM     31  C   UNL d   1       4.530  -0.306 -14.256  0.00  0.00     0.018 A 
ENDBRANCH  21  24
ENDBRANCH  17  18
ENDBRANCH   1  17
TORSDOF 7
