REMARK  3 active torsions:
REMARK  status: ('A' for Active; 'I' for Inactive)
REMARK    1  A    between atoms: C_2  and  C_3 
REMARK    2  A    between atoms: N_14  and  C_15 
REMARK    3  A    between atoms: C_15  and  C_16 
ROOT
ATOM      1  C   UNL d   1      10.342   7.856  -9.281  0.00  0.00     0.005 C 
ATOM      2  C   UNL d   1      10.365   7.500  -7.984  0.00  0.00    -0.021 C 
ATOM      3  C   UNL d   1       9.708   6.200  -7.591  0.00  0.00     0.061 C 
ATOM      4  C   UNL d   1       8.764   5.636  -8.653  0.00  0.00     0.256 C 
ATOM      5  N   UNL d   1       9.432   5.626  -9.950  0.00  0.00     0.148 N 
ATOM      6  C   UNL d   1       9.719   7.007 -10.364  0.00  0.00     0.277 C 
ENDROOT
BRANCH   2   7
ATOM      7  C   UNL d   1      11.003   8.339  -6.958  0.00  0.00     0.016 A 
ATOM      8  C   UNL d   1      11.316   7.993  -5.596  0.00  0.00     0.019 A 
ATOM      9  C   UNL d   1      11.958   9.133  -5.019  0.00  0.00     0.081 A 
ATOM     10  C   UNL d   1      11.164   6.859  -4.763  0.00  0.00     0.002 A 
ATOM     11  N   UNL d   1      12.012  10.086  -6.018  0.00  0.00    -0.244 NA
ATOM     12  C   UNL d   1      12.418   9.134  -3.690  0.00  0.00     0.019 A 
ATOM     13  C   UNL d   1      11.460   9.599  -7.188  0.00  0.00     0.099 A 
ATOM     14  C   UNL d   1      12.246   7.990  -2.890  0.00  0.00     0.002 A 
ATOM     15  C   UNL d   1      11.615   6.856  -3.429  0.00  0.00     0.000 A 
ENDBRANCH   2   7
BRANCH   5  16
ATOM     16  C   UNL d   1       8.573   4.986 -10.938  0.00  0.00     0.302 C 
BRANCH  16  17
ATOM     17  C   UNL d   1       9.253   4.752 -12.250  0.00  0.00     0.111 A 
ATOM     18  O   UNL d   1       9.573   3.465 -12.558  0.00  0.00    -0.307 OA
ATOM     19  C   UNL d   1      10.189   3.483 -13.770  0.00  0.00     0.122 A 
ATOM     20  C   UNL d   1      10.285   4.764 -14.238  0.00  0.00     0.029 A 
ATOM     21  C   UNL d   1       9.673   5.584 -13.246  0.00  0.00     0.024 A 
ENDBRANCH  16  17
ENDBRANCH   5  16
TORSDOF 3
