REMARK  12 active torsions:
REMARK  status: ('A' for Active; 'I' for Inactive)
REMARK    1  A    between atoms: C_14  and  N_15 
REMARK    2  A    between atoms: N_15  and  C_16 
REMARK    3  A    between atoms: C_16  and  C_17 
REMARK    4  A    between atoms: C_17  and  N_18 
REMARK    5  A    between atoms: N_18  and  C_19 
REMARK    6  A    between atoms: C_19  and  C_20 
REMARK    7  A    between atoms: C_24  and  N_25 
REMARK    8  A    between atoms: N_25  and  C_26 
REMARK    9  A    between atoms: C_26  and  C_27 
REMARK   10  A    between atoms: C_27  and  N_28 
REMARK   11  A    between atoms: N_28  and  C_29 
REMARK   12  A    between atoms: C_29  and  C_30 
ROOT
ATOM      1  O   UNL d   1      10.732   4.783 -13.591  0.00  0.00    -0.286 OA
ATOM      2  C   UNL d   1      10.220   3.918 -14.300  0.00  0.00     0.199 C 
ATOM      3  C   UNL d   1      10.940   3.311 -15.463  0.00  0.00     0.069 A 
ATOM      4  C   UNL d   1      11.931   4.037 -16.184  0.00  0.00     0.134 A 
ATOM      5  O   UNL d   1      12.272   5.327 -15.876  0.00  0.00    -0.190 OA
ATOM      6  C   UNL d   1      12.586   3.433 -17.274  0.00  0.00     0.030 A 
ATOM      7  C   UNL d   1      12.264   2.123 -17.662  0.00  0.00     0.030 A 
ATOM      8  C   UNL d   1      11.283   1.397 -16.965  0.00  0.00     0.134 A 
ATOM      9  O   UNL d   1      10.987   0.139 -17.414  0.00  0.00    -0.190 OA
ATOM     10  C   UNL d   1      10.614   1.986 -15.860  0.00  0.00     0.069 A 
ATOM     11  C   UNL d   1       9.578   1.223 -15.109  0.00  0.00     0.199 C 
ATOM     12  O   UNL d   1       9.622  -0.005 -15.025  0.00  0.00    -0.286 OA
ATOM     13  C   UNL d   1       8.503   2.073 -14.491  0.00  0.00     0.061 A 
ATOM     14  C   UNL d   1       7.186   1.564 -14.284  0.00  0.00     0.079 A 
ATOM     15  C   UNL d   1       6.218   2.381 -13.673  0.00  0.00     0.020 A 
ATOM     16  C   UNL d   1       6.524   3.689 -13.277  0.00  0.00     0.020 A 
ATOM     17  C   UNL d   1       7.829   4.211 -13.437  0.00  0.00     0.079 A 
ATOM     18  C   UNL d   1       8.824   3.404 -14.073  0.00  0.00     0.061 A 
ENDROOT
BRANCH  14  19
ATOM     19  N   UNL d   1       6.803   0.252 -14.601  0.00  0.00    -0.268 NA
BRANCH  19  20
ATOM     20  C   UNL d   1       6.463  -0.033 -15.989  0.00  0.00     0.164 C 
BRANCH  20  21
ATOM     21  C   UNL d   1       5.396  -1.128 -16.092  0.00  0.00     0.316 C 
BRANCH  21  22
ATOM     22  N   UNL d   1       5.088  -1.428 -17.490  0.00  0.00     0.344 N 
BRANCH  22  23
ATOM     23  C   UNL d   1       4.137  -2.528 -17.640  0.00  0.00     0.326 C 
BRANCH  23  24
ATOM     24  C   UNL d   1       3.844  -2.819 -19.113  0.00  0.00     0.221 C 
ATOM     25  O   UNL d   1       2.916  -3.879 -19.207  0.00  0.00    -0.218 OA
ENDBRANCH  23  24
ENDBRANCH  22  23
ENDBRANCH  21  22
ENDBRANCH  20  21
ENDBRANCH  19  20
ENDBRANCH  14  19
BRANCH  17  26
ATOM     26  N   UNL d   1       8.091   5.528 -13.010  0.00  0.00    -0.268 NA
BRANCH  26  27
ATOM     27  C   UNL d   1       7.615   5.955 -11.697  0.00  0.00     0.164 C 
BRANCH  27  28
ATOM     28  C   UNL d   1       8.751   5.915 -10.670  0.00  0.00     0.316 C 
BRANCH  28  29
ATOM     29  N   UNL d   1       9.463   7.182 -10.659  0.00  0.00     0.344 N 
BRANCH  29  30
ATOM     30  C   UNL d   1      10.569   7.219  -9.709  0.00  0.00     0.326 C 
BRANCH  30  31
ATOM     31  C   UNL d   1      11.348   8.539  -9.805  0.00  0.00     0.221 C 
ATOM     32  O   UNL d   1      12.520   8.443  -9.023  0.00  0.00    -0.218 OA
ENDBRANCH  30  31
ENDBRANCH  29  30
ENDBRANCH  28  29
ENDBRANCH  27  28
ENDBRANCH  26  27
ENDBRANCH  17  26
TORSDOF 12
