REMARK  4 active torsions:
REMARK  status: ('A' for Active; 'I' for Inactive)
REMARK    1  A    between atoms: C_4  and  O_5 
REMARK    2  A    between atoms: O_5  and  C_6 
REMARK    3  A    between atoms: C_6  and  C_8 
REMARK    4  A    between atoms: C_8  and  C_10 
ROOT
ATOM      1  O   UNL d   1       9.152   6.288  -8.282  0.00  0.00    -0.302 OA
ENDROOT
BRANCH   1   2
ATOM      2  C   UNL d   1       8.948   7.591  -7.770  0.00  0.00     0.124 C 
ATOM      3  C   UNL d   1       9.455   8.726  -8.657  0.00  0.00     0.030 C 
ATOM      4  C   UNL d   1      10.966   8.699  -8.701  0.00  0.00     0.002 C 
ATOM      5  C   UNL d   1      11.416   9.728  -9.654  0.00  0.00     0.000 C 
ATOM      6  C   UNL d   1      11.559   8.876  -7.299  0.00  0.00     0.000 C 
ATOM      7  C   UNL d   1      11.056   7.781  -6.339  0.00  0.00     0.002 C 
ATOM      8  C   UNL d   1       9.517   7.744  -6.356  0.00  0.00     0.030 C 
ATOM      9  C   UNL d   1      11.555   8.058  -4.914  0.00  0.00     0.000 C 
ATOM     10  C   UNL d   1      11.604   6.408  -6.761  0.00  0.00     0.000 C 
ENDBRANCH   1   2
BRANCH   1  11
ATOM     11  C   UNL d   1       9.284   5.981  -9.601  0.00  0.00     0.307 C 
ATOM     12  O   UNL d   1       9.548   6.705 -10.561  0.00  0.00    -0.261 OA
BRANCH  11  13
ATOM     13  C   UNL d   1       9.073   4.532  -9.855  0.00  0.00     0.260 C 
ATOM     14  O   UNL d   1       8.237   3.984  -8.829  0.00  0.00    -0.208 OA
BRANCH  13  15
ATOM     15  C   UNL d   1       8.518   4.396 -11.269  0.00  0.00     0.018 A 
ATOM     16  C   UNL d   1       9.302   3.735 -12.247  0.00  0.00    -0.001 A 
ATOM     17  C   UNL d   1       8.780   3.494 -13.525  0.00  0.00    -0.000 A 
ATOM     18  C   UNL d   1       7.479   3.926 -13.838  0.00  0.00    -0.000 A 
ATOM     19  C   UNL d   1       6.697   4.598 -12.878  0.00  0.00    -0.000 A 
ATOM     20  C   UNL d   1       7.215   4.820 -11.597  0.00  0.00    -0.001 A 
ENDBRANCH  13  15
ENDBRANCH  11  13
ENDBRANCH   1  11
TORSDOF 4
