REMARK  7 active torsions:
REMARK  status: ('A' for Active; 'I' for Inactive)
REMARK    1  A    between atoms: C_2  and  C_3 
REMARK    2  A    between atoms: C_3  and  N_4 
REMARK    3  A    between atoms: N_4  and  C_5 
REMARK    4  A    between atoms: N_4  and  C_8 
REMARK    5  A    between atoms: C_5  and  C_6 
REMARK    6  A    between atoms: C_16  and  C_17 
REMARK    7  A    between atoms: C_20  and  O_21 
ROOT
ATOM      1  C   UNL d   1       7.753   4.429 -13.384  0.00  0.00     0.253 C 
ATOM      2  C   UNL d   1       8.980   3.627 -13.909  0.00  0.00     0.182 C 
ATOM      3  O   UNL d   1       8.581   2.829 -15.015  0.00  0.00    -0.329 OA
ATOM      4  C   UNL d   1       7.523   1.974 -14.790  0.00  0.00     0.090 A 
ATOM      5  C   UNL d   1       6.528   2.255 -13.820  0.00  0.00     0.002 A 
ATOM      6  C   UNL d   1       5.466   1.364 -13.609  0.00  0.00    -0.002 A 
ATOM      7  C   UNL d   1       5.331   0.216 -14.417  0.00  0.00    -0.000 A 
ATOM      8  C   UNL d   1       6.312  -0.066 -15.385  0.00  0.00     0.002 A 
ATOM      9  C   UNL d   1       7.421   0.787 -15.564  0.00  0.00     0.022 A 
ATOM     10  C   UNL d   1       6.593   3.498 -12.966  0.00  0.00     0.064 C 
ENDROOT
BRANCH   9  11
ATOM     11  C   UNL d   1       8.460   0.441 -16.548  0.00  0.00     0.002 A 
ATOM     12  C   UNL d   1       8.143   0.104 -17.884  0.00  0.00     0.002 A 
ATOM     13  C   UNL d   1       9.171  -0.203 -18.805  0.00  0.00     0.024 A 
ATOM     14  C   UNL d   1      10.526  -0.174 -18.397  0.00  0.00     0.094 A 
ATOM     15  C   UNL d   1      10.826   0.170 -17.067  0.00  0.00     0.024 A 
ATOM     16  C   UNL d   1       9.808   0.448 -16.152  0.00  0.00     0.002 A 
BRANCH  14  17
ATOM     17  O   UNL d   1      11.454  -0.484 -19.369  0.00  0.00    -0.328 OA
ATOM     18  C   UNL d   1      12.827  -0.495 -18.950  0.00  0.00     0.181 C 
ENDBRANCH  14  17
ENDBRANCH   9  11
BRANCH   1  19
ATOM     19  N   UNL d   1       8.093   5.435 -12.363  0.00  0.00     0.138 N 
BRANCH  19  20
ATOM     20  C   UNL d   1       8.671   4.868 -11.137  0.00  0.00     0.250 C 
BRANCH  20  21
ATOM     21  C   UNL d   1       9.340   5.913 -10.242  0.00  0.00     0.035 C 
ATOM     22  C   UNL d   1       9.655   5.329  -8.871  0.00  0.00     0.002 C 
ENDBRANCH  20  21
ENDBRANCH  19  20
BRANCH  19  23
ATOM     23  C   UNL d   1       6.964   6.332 -12.053  0.00  0.00     0.250 C 
BRANCH  23  24
ATOM     24  C   UNL d   1       7.141   7.774 -12.582  0.00  0.00     0.035 C 
ATOM     25  C   UNL d   1       8.518   8.447 -12.356  0.00  0.00     0.002 C 
ENDBRANCH  23  24
ENDBRANCH  19  23
ENDBRANCH   1  19
TORSDOF 7
