REMARK  1 active torsions:
REMARK  status: ('A' for Active; 'I' for Inactive)
REMARK    1  A    between atoms: O_2  and  C_3 
ROOT
ATOM      1  C   UNL d   1       8.400   5.565 -12.701  0.00  0.00     0.117 A 
ATOM      2  C   UNL d   1       7.044   5.253 -12.443  0.00  0.00     0.153 A 
ATOM      3  O   UNL d   1       6.246   6.008 -11.644  0.00  0.00    -0.188 OA
ATOM      4  C   UNL d   1       6.431   4.152 -13.075  0.00  0.00     0.029 A 
ATOM      5  C   UNL d   1       7.143   3.383 -13.994  0.00  0.00    -0.002 A 
ATOM      6  C   UNL d   1       8.470   3.724 -14.316  0.00  0.00    -0.020 A 
ATOM      7  C   UNL d   1       9.095   4.818 -13.678  0.00  0.00     0.031 A 
ATOM      8  C   UNL d   1      10.534   5.151 -14.031  0.00  0.00     0.279 C 
ATOM      9  N   UNL d   1      10.982   4.630 -15.322  0.00  0.00     0.144 N 
ATOM     10  C   UNL d   1      12.397   4.943 -15.494  0.00  0.00     0.256 C 
ATOM     11  C   UNL d   1      12.803   4.585 -16.927  0.00  0.00     0.061 C 
ATOM     12  C   UNL d   1      12.436   3.157 -17.280  0.00  0.00    -0.022 A 
ATOM     13  C   UNL d   1      13.095   2.516 -18.351  0.00  0.00    -0.007 A 
ATOM     14  C   UNL d   1      12.747   1.187 -18.634  0.00  0.00     0.002 A 
ATOM     15  C   UNL d   1      11.795   0.504 -17.900  0.00  0.00     0.090 A 
ATOM     16  C   UNL d   1      11.127   1.127 -16.834  0.00  0.00     0.021 A 
ATOM     17  C   UNL d   1      11.438   2.476 -16.530  0.00  0.00     0.007 A 
ATOM     18  C   UNL d   1      10.747   3.180 -15.357  0.00  0.00     0.246 C 
ATOM     19  C   UNL d   1       9.212   2.964 -15.398  0.00  0.00     0.064 C 
ATOM     20  O   UNL d   1      11.647  -0.793 -18.306  0.00  0.00    -0.331 OA
ATOM     21  C   UNL d   1      12.493  -0.990 -19.452  0.00  0.00     0.154 A 
ATOM     22  C   UNL d   1      13.342   0.280 -19.649  0.00  0.00     0.061 A 
ENDROOT
BRANCH   1  23
ATOM     23  O   UNL d   1       9.035   6.605 -12.064  0.00  0.00    -0.326 OA
ATOM     24  C   UNL d   1       9.265   6.409 -10.673  0.00  0.00     0.181 C 
ENDBRANCH   1  23
TORSDOF 1
