REMARK  5 active torsions:
REMARK  status: ('A' for Active; 'I' for Inactive)
REMARK    1  A    between atoms: C_2  and  C_3 
REMARK    2  A    between atoms: C_7  and  N_8 
REMARK       I    between atoms: N_8  and  C_9 
REMARK    3  A    between atoms: C_9  and  C_11 
REMARK    4  A    between atoms: C_11  and  N_12 
REMARK    5  A    between atoms: N_15  and  C_16 
ROOT
ATOM      1  N   UNL d   1       9.466   6.340 -10.375  0.00  0.00     0.151 N 
ATOM      2  C   UNL d   1      10.007   7.706 -10.321  0.00  0.00     0.275 C 
ATOM      3  C   UNL d   1      11.239   7.776  -9.400  0.00  0.00     0.138 C 
ATOM      4  N   UNL d   1      10.896   7.269  -8.072  0.00  0.00    -0.330 N 
ATOM      5  C   UNL d   1      10.261   5.955  -8.057  0.00  0.00     0.138 C 
ATOM      6  C   UNL d   1       9.062   5.931  -9.022  0.00  0.00     0.275 C 
ENDROOT
BRANCH   1   7
ATOM      7  C   UNL d   1       8.310   6.290 -11.307  0.00  0.00     0.339 C 
BRANCH   7   8
ATOM      8  C   UNL d   1       8.569   5.369 -12.498  0.00  0.00     0.290 C 
ATOM      9  N   UNL d   1       7.558   4.529 -12.786  0.00  0.00    -0.210 NA
ATOM     10  O   UNL d   1       9.630   5.456 -13.120  0.00  0.00    -0.268 OA
BRANCH   9  11
ATOM     11  C   UNL d   1       7.524   3.420 -13.672  0.00  0.00     0.084 A 
ATOM     12  C   UNL d   1       6.343   2.646 -13.681  0.00  0.00     0.019 A 
ATOM     13  C   UNL d   1       6.260   1.488 -14.479  0.00  0.00     0.001 A 
ATOM     14  C   UNL d   1       7.333   1.109 -15.303  0.00  0.00    -0.004 A 
ATOM     15  C   UNL d   1       8.512   1.877 -15.310  0.00  0.00    -0.021 A 
ATOM     16  C   UNL d   1       8.611   3.019 -14.489  0.00  0.00     0.015 A 
BRANCH  15  17
ATOM     17  C   UNL d   1       9.677   1.468 -16.189  0.00  0.00     0.026 C 
ATOM     18  C   UNL d   1      10.575   0.423 -15.520  0.00  0.00     0.005 C 
ENDBRANCH  15  17
ENDBRANCH   9  11
ENDBRANCH   7   8
ENDBRANCH   1   7
BRANCH   4  19
ATOM     19  C   UNL d   1      11.098   8.007  -6.888  0.00  0.00     0.140 A 
ATOM     20  N   UNL d   1      11.227   7.309  -5.736  0.00  0.00    -0.227 NA
ATOM     21  C   UNL d   1      11.463   7.973  -4.587  0.00  0.00     0.101 A 
ATOM     22  C   UNL d   1      11.548   9.375  -4.512  0.00  0.00     0.021 A 
ATOM     23  C   UNL d   1      11.408  10.109  -5.699  0.00  0.00     0.005 A 
ATOM     24  C   UNL d   1      11.177   9.418  -6.904  0.00  0.00     0.037 A 
ENDBRANCH   4  19
TORSDOF 5
