REMARK  1 active torsions:
REMARK  status: ('A' for Active; 'I' for Inactive)
REMARK    1  A    between atoms: C_6  and  C_7 
ROOT
ATOM      1  O   UNL d   1      11.428   9.188  -9.765  0.00  0.00    -0.264 OA
ATOM      2  C   UNL d   1      10.937   8.495  -8.891  0.00  0.00     0.272 C 
ATOM      3  C   UNL d   1      10.157   7.225  -9.272  0.00  0.00     0.096 C 
ATOM      4  C   UNL d   1       9.174   6.729  -8.211  0.00  0.00     0.013 C 
ATOM      5  C   UNL d   1       9.864   6.740  -6.860  0.00  0.00     0.035 C 
ATOM      6  C   UNL d   1      10.337   8.159  -6.524  0.00  0.00     0.146 C 
ATOM      7  O   UNL d   1      11.128   8.740  -7.558  0.00  0.00    -0.300 OA
ENDROOT
BRANCH   6   8
ATOM      8  C   UNL d   1      11.068   8.236  -5.179  0.00  0.00     0.005 A 
ATOM      9  C   UNL d   1      11.234   9.494  -4.558  0.00  0.00    -0.002 A 
ATOM     10  C   UNL d   1      11.865   9.587  -3.304  0.00  0.00    -0.000 A 
ATOM     11  C   UNL d   1      12.351   8.435  -2.651  0.00  0.00    -0.000 A 
ATOM     12  C   UNL d   1      12.184   7.179  -3.260  0.00  0.00    -0.000 A 
ATOM     13  C   UNL d   1      11.540   7.079  -4.514  0.00  0.00    -0.002 A 
ENDBRANCH   6   8
TORSDOF 1
