REMARK  9 active torsions:
REMARK  status: ('A' for Active; 'I' for Inactive)
REMARK    1  A    between atoms: S_2  and  N_4 
REMARK    2  A    between atoms: S_2  and  C_23 
REMARK    3  A    between atoms: N_4  and  C_5 
REMARK    4  A    between atoms: C_5  and  C_6 
REMARK    5  A    between atoms: C_6  and  C_7 
REMARK    6  A    between atoms: C_7  and  N_8 
REMARK    7  A    between atoms: N_11  and  C_12 
REMARK    8  A    between atoms: C_26  and  O_27 
REMARK    9  A    between atoms: O_27  and  C_28 
ROOT
ATOM      1  C   UNL d   1       9.200   4.348 -11.684  0.00  0.00     0.062 C 
ENDROOT
BRANCH   1   2
ATOM      2  C   UNL d   1       8.850   4.007 -13.146  0.00  0.00     0.141 C 
BRANCH   2   3
ATOM      3  N   UNL d   1       9.507   2.780 -13.589  0.00  0.00    -0.185 NA
BRANCH   3   4
ATOM      4  S   UNL d   1       8.750   1.707 -14.715  0.00  0.00     0.281 S 
ATOM      5  O   UNL d   1       8.573   0.411 -14.038  0.00  0.00    -0.199 OA
ATOM      6  O   UNL d   1       7.604   2.380 -15.333  0.00  0.00    -0.199 OA
BRANCH   4   7
ATOM      7  C   UNL d   1      10.001   1.508 -15.971  0.00  0.00     0.105 A 
ATOM      8  C   UNL d   1      10.827   2.593 -16.320  0.00  0.00     0.015 A 
ATOM      9  C   UNL d   1      11.775   2.443 -17.348  0.00  0.00     0.025 A 
ATOM     10  C   UNL d   1      11.916   1.205 -18.025  0.00  0.00     0.102 A 
ATOM     11  C   UNL d   1      11.093   0.122 -17.642  0.00  0.00     0.025 A 
ATOM     12  C   UNL d   1      10.140   0.265 -16.614  0.00  0.00     0.015 A 
BRANCH  10  13
ATOM     13  O   UNL d   1      12.829   0.972 -19.033  0.00  0.00    -0.253 OA
BRANCH  13  14
ATOM     14  C   UNL d   1      13.454   1.999 -19.673  0.00  0.00     0.530 C 
ATOM     15  F   UNL d   1      14.227   1.505 -20.671  0.00  0.00    -0.144 F 
ATOM     16  F   UNL d   1      12.566   2.849 -20.248  0.00  0.00    -0.144 F 
ATOM     17  F   UNL d   1      14.276   2.695 -18.849  0.00  0.00    -0.144 F 
ENDBRANCH  13  14
ENDBRANCH  10  13
ENDBRANCH   4   7
ENDBRANCH   3   4
ENDBRANCH   2   3
ENDBRANCH   1   2
BRANCH   1  18
ATOM     18  C   UNL d   1       9.562   5.829 -11.511  0.00  0.00     0.253 C 
BRANCH  18  19
ATOM     19  N   UNL d   1       9.375   6.279 -10.139  0.00  0.00     0.141 N 
ATOM     20  C   UNL d   1       9.502   7.739 -10.112  0.00  0.00     0.274 C 
ATOM     21  C   UNL d   1       9.258   8.238  -8.671  0.00  0.00     0.138 C 
ATOM     22  N   UNL d   1      10.199   7.624  -7.758  0.00  0.00    -0.329 N 
ATOM     23  C   UNL d   1      10.212   6.177  -7.815  0.00  0.00     0.138 C 
ATOM     24  C   UNL d   1      10.411   5.750  -9.265  0.00  0.00     0.274 C 
BRANCH  22  25
ATOM     25  C   UNL d   1      10.940   8.390  -6.858  0.00  0.00     0.148 A 
ATOM     26  C   UNL d   1      11.312   7.955  -5.521  0.00  0.00     0.042 A 
ATOM     27  C   UNL d   1      12.080   8.986  -4.901  0.00  0.00     0.050 A 
ATOM     28  C   UNL d   1      11.085   6.794  -4.754  0.00  0.00     0.004 A 
ATOM     29  S   UNL d   1      12.164  10.313  -6.033  0.00  0.00     0.015 SA
ATOM     30  C   UNL d   1      12.632   8.842  -3.621  0.00  0.00     0.008 A 
ATOM     31  N   UNL d   1      11.306   9.592  -7.231  0.00  0.00    -0.192 NA
ATOM     32  C   UNL d   1      12.407   7.663  -2.893  0.00  0.00     0.001 A 
ATOM     33  C   UNL d   1      11.633   6.644  -3.468  0.00  0.00     0.000 A 
ENDBRANCH  22  25
ENDBRANCH  18  19
ENDBRANCH   1  18
TORSDOF 9
