REMARK  8 active torsions:
REMARK  status: ('A' for Active; 'I' for Inactive)
REMARK    1  A    between atoms: C_4  and  C_5 
REMARK    2  A    between atoms: C_11  and  C_12 
REMARK    3  A    between atoms: N_16  and  C_17 
REMARK    4  A    between atoms: C_17  and  C_18 
REMARK    5  A    between atoms: C_18  and  C_19 
REMARK    6  A    between atoms: C_19  and  S_20 
REMARK    7  A    between atoms: S_20  and  C_21 
REMARK    8  A    between atoms: C_24  and  C_25 
ROOT
ATOM      1  C   UNL d   1      10.489   0.674 -17.366  0.00  0.00     0.052 A 
ATOM      2  C   UNL d   1       9.958  -0.691 -16.961  0.00  0.00     0.008 A 
ATOM      3  C   UNL d   1      10.627   0.202 -15.951  0.00  0.00     0.039 A 
ATOM      4  C   UNL d   1       9.866   1.145 -15.081  0.00  0.00     0.251 C 
ATOM      5  N   UNL d   1       9.756   2.336 -15.911  0.00  0.00     0.137 N 
ATOM      6  C   UNL d   1       9.574   1.892 -17.297  0.00  0.00     0.254 C 
ENDROOT
BRANCH   5   7
ATOM      7  C   UNL d   1       8.745   3.258 -15.443  0.00  0.00     0.251 C 
BRANCH   7   8
ATOM      8  C   UNL d   1       9.024   3.803 -14.025  0.00  0.00     0.047 C 
BRANCH   8   9
ATOM      9  C   UNL d   1       7.895   4.740 -13.550  0.00  0.00     0.067 C 
BRANCH   9  10
ATOM     10  S   UNL d   1       7.526   4.543 -11.771  0.00  0.00    -0.075 SA
BRANCH  10  11
ATOM     11  C   UNL d   1       8.623   5.692 -11.008  0.00  0.00     0.193 A 
ATOM     12  N   UNL d   1       8.909   5.686  -9.687  0.00  0.00    -0.287 N 
ATOM     13  C   UNL d   1       9.678   6.788  -9.572  0.00  0.00     0.191 A 
ATOM     14  C   UNL d   1       8.498   4.762  -8.640  0.00  0.00     0.134 C 
ATOM     15  N   UNL d   1       9.893   7.401 -10.737  0.00  0.00    -0.126 NA
ATOM     16  N   UNL d   1       9.227   6.670 -11.679  0.00  0.00    -0.122 NA
BRANCH  13  17
ATOM     17  C   UNL d   1      10.272   7.290  -8.344  0.00  0.00     0.151 A 
ATOM     18  C   UNL d   1      11.385   8.059  -8.126  0.00  0.00     0.087 A 
ATOM     19  N   UNL d   1      11.473   8.315  -6.766  0.00  0.00    -0.221 NA
ATOM     20  C   UNL d   1      12.402   8.579  -9.095  0.00  0.00     0.054 C 
ATOM     21  C   UNL d   1      10.456   7.646  -6.236  0.00  0.00     0.225 A 
ATOM     22  O   UNL d   1       9.686   6.994  -7.143  0.00  0.00    -0.282 OA
ENDBRANCH  13  17
ENDBRANCH  10  11
ENDBRANCH   9  10
ENDBRANCH   8   9
ENDBRANCH   7   8
ENDBRANCH   5   7
BRANCH   1  23
ATOM     23  C   UNL d   1      11.726   0.831 -18.238  0.00  0.00    -0.025 A 
ATOM     24  C   UNL d   1      12.700   1.863 -18.063  0.00  0.00    -0.026 A 
ATOM     25  C   UNL d   1      12.628   2.933 -16.988  0.00  0.00     0.031 C 
ATOM     26  C   UNL d   1      13.841   1.894 -18.886  0.00  0.00    -0.001 A 
ATOM     27  C   UNL d   1      14.062   0.919 -19.876  0.00  0.00     0.071 A 
ATOM     28  C   UNL d   1      13.122  -0.110 -20.042  0.00  0.00     0.004 A 
ATOM     29  C   UNL d   1      11.959  -0.140 -19.238  0.00  0.00    -0.005 A 
BRANCH  27  30
ATOM     30  C   UNL d   1      15.331   0.984 -20.714  0.00  0.00     0.419 C 
ATOM     31  F   UNL d   1      15.217   0.260 -21.830  0.00  0.00    -0.166 F 
ATOM     32  F   UNL d   1      15.588   2.250 -21.056  0.00  0.00    -0.166 F 
ATOM     33  F   UNL d   1      16.360   0.522 -20.002  0.00  0.00    -0.166 F 
ENDBRANCH  27  30
ENDBRANCH   1  23
TORSDOF 8
