REMARK  12 active torsions:
REMARK  status: ('A' for Active; 'I' for Inactive)
REMARK    1  A    between atoms: O_2  and  C_3 
REMARK    2  A    between atoms: C_5  and  C_6 
REMARK    3  A    between atoms: C_6  and  C_7 
REMARK    4  A    between atoms: C_7  and  N_8 
REMARK    5  A    between atoms: C_11  and  C_13 
REMARK    6  A    between atoms: C_24  and  O_25 
REMARK    7  A    between atoms: O_25  and  C_26 
REMARK    8  A    between atoms: C_26  and  C_27 
REMARK    9  A    between atoms: C_27  and  S_28 
REMARK   10  A    between atoms: S_28  and  S_29 
REMARK   11  A    between atoms: S_29  and  C_30 
REMARK   12  A    between atoms: C_30  and  C_31 
ROOT
ATOM      1  C   UNL d   1      10.246   3.589 -14.760  0.00  0.00     0.116 A 
ATOM      2  C   UNL d   1      10.276   4.011 -13.407  0.00  0.00     0.022 A 
ATOM      3  C   UNL d   1       9.105   4.048 -12.637  0.00  0.00    -0.018 A 
ATOM      4  C   UNL d   1       7.879   3.655 -13.197  0.00  0.00    -0.002 A 
ATOM      5  C   UNL d   1       7.844   3.184 -14.520  0.00  0.00     0.026 A 
ATOM      6  C   UNL d   1       9.018   3.174 -15.318  0.00  0.00     0.116 A 
ENDROOT
BRANCH   3   7
ATOM      7  C   UNL d   1       9.159   4.474 -11.184  0.00  0.00     0.062 C 
BRANCH   7   8
ATOM      8  C   UNL d   1       9.492   5.959 -11.038  0.00  0.00     0.255 C 
BRANCH   8   9
ATOM      9  N   UNL d   1       9.994   6.268  -9.702  0.00  0.00     0.138 N 
ATOM     10  C   UNL d   1      10.505   7.637  -9.711  0.00  0.00     0.253 C 
ATOM     11  C   UNL d   1      11.103   8.001  -8.337  0.00  0.00     0.070 C 
ATOM     12  C   UNL d   1      10.088   7.814  -7.205  0.00  0.00     0.149 C 
ATOM     13  C   UNL d   1       9.451   6.409  -7.329  0.00  0.00     0.070 C 
ATOM     14  O   UNL d   1       9.067   8.769  -7.436  0.00  0.00    -0.221 OA
ATOM     15  C   UNL d   1       8.923   6.120  -8.729  0.00  0.00     0.253 C 
BRANCH  12  16
ATOM     16  C   UNL d   1      10.774   8.052  -5.842  0.00  0.00     0.005 A 
ATOM     17  C   UNL d   1      11.309   6.983  -5.086  0.00  0.00    -0.001 A 
ATOM     18  C   UNL d   1      11.883   7.208  -3.826  0.00  0.00     0.011 A 
ATOM     19  C   UNL d   1      11.960   8.513  -3.304  0.00  0.00     0.058 A 
ATOM     20  C   UNL d   1      11.455   9.591  -4.059  0.00  0.00     0.011 A 
ATOM     21 CL   UNL d   1      12.640   8.786  -1.737  0.00  0.00    -0.082 Cl
ATOM     22  C   UNL d   1      10.879   9.365  -5.324  0.00  0.00    -0.001 A 
ENDBRANCH  12  16
ENDBRANCH   8   9
ENDBRANCH   7   8
ENDBRANCH   3   7
BRANCH   1  23
ATOM     23  O   UNL d   1      11.349   3.537 -15.580  0.00  0.00    -0.326 OA
ATOM     24  C   UNL d   1      12.550   4.127 -15.116  0.00  0.00     0.181 C 
ENDBRANCH   1  23
BRANCH   6  25
ATOM     25  O   UNL d   1       9.041   2.766 -16.635  0.00  0.00    -0.328 OA
BRANCH  25  26
ATOM     26  C   UNL d   1       7.889   2.123 -17.167  0.00  0.00     0.161 C 
BRANCH  26  27
ATOM     27  C   UNL d   1       7.649   0.742 -16.532  0.00  0.00     0.101 C 
BRANCH  27  28
ATOM     28  S   UNL d   1       5.899   0.354 -16.649  0.00  0.00    -0.079 SA
BRANCH  28  29
ATOM     29  S   UNL d   1       5.553   0.021 -18.637  0.00  0.00    -0.080 SA
BRANCH  29  30
ATOM     30  C   UNL d   1       5.809  -1.764 -18.864  0.00  0.00     0.110 C 
BRANCH  30  31
ATOM     31  C   UNL d   1       4.680  -2.621 -18.269  0.00  0.00     0.351 C 
ATOM     32  N   UNL d   1       4.665  -2.542 -16.817  0.00  0.00     0.619 N 
ENDBRANCH  30  31
ENDBRANCH  29  30
ENDBRANCH  28  29
ENDBRANCH  27  28
ENDBRANCH  26  27
ENDBRANCH  25  26
ENDBRANCH   6  25
TORSDOF 12
