REMARK  3 active torsions:
REMARK  status: ('A' for Active; 'I' for Inactive)
REMARK    1  A    between atoms: C_2  and  C_3 
REMARK    2  A    between atoms: C_3  and  N_4 
REMARK    3  A    between atoms: C_12  and  O_13 
ROOT
ATOM      1  N   UNL d   1       9.426   1.157 -16.843  0.00  0.00     0.140 N 
ATOM      2  C   UNL d   1       8.151   0.669 -17.359  0.00  0.00     0.251 C 
ATOM      3  C   UNL d   1       7.106   1.349 -16.475  0.00  0.00     0.042 C 
ATOM      4  C   UNL d   1       7.747   1.305 -15.096  0.00  0.00     0.055 C 
ATOM      5  C   UNL d   1       7.353   2.511 -14.246  0.00  0.00    -0.023 A 
ATOM      6  C   UNL d   1       6.075   2.545 -13.642  0.00  0.00    -0.004 A 
ATOM      7  C   UNL d   1       5.694   3.643 -12.854  0.00  0.00     0.002 A 
ATOM      8  C   UNL d   1       6.578   4.727 -12.661  0.00  0.00     0.024 A 
ATOM      9  C   UNL d   1       7.862   4.709 -13.259  0.00  0.00     0.090 A 
ATOM     10  C   UNL d   1       8.238   3.593 -14.044  0.00  0.00    -0.004 A 
ATOM     11  C   UNL d   1       9.617   3.537 -14.664  0.00  0.00     0.030 C 
ATOM     12  C   UNL d   1      10.181   2.119 -14.653  0.00  0.00     0.038 C 
ATOM     13  C   UNL d   1       9.266   1.115 -15.385  0.00  0.00     0.224 C 
ENDROOT
BRANCH   1  14
ATOM     14  C   UNL d   1      10.547   0.378 -17.380  0.00  0.00     0.276 C 
BRANCH  14  15
ATOM     15  C   UNL d   1      11.909   1.053 -17.268  0.00  0.00     0.009 C 
ATOM     16  C   UNL d   1      12.694   1.376 -18.316  0.00  0.00    -0.003 C 
ENDBRANCH  14  15
ENDBRANCH   1  14
BRANCH   9  17
ATOM     17  O   UNL d   1       8.779   5.729 -13.117  0.00  0.00    -0.328 OA
ATOM     18  C   UNL d   1       8.436   6.850 -12.314  0.00  0.00     0.181 C 
ENDBRANCH   9  17
TORSDOF 3
