REMARK  4 active torsions:
REMARK  status: ('A' for Active; 'I' for Inactive)
REMARK    1  A    between atoms: C_3  and  N_4 
REMARK    2  A    between atoms: C_11  and  C_12 
REMARK    3  A    between atoms: C_12  and  N_13 
REMARK    4  A    between atoms: N_16  and  C_17 
ROOT
ATOM      1  C   UNL d   1       8.341   1.148 -16.591  0.00  0.00     0.153 C 
ATOM      2  N   UNL d   1       8.471   2.209 -15.530  0.00  0.00    -0.125 N 
ATOM      3  C   UNL d   1       9.656   3.029 -15.410  0.00  0.00     0.711 A 
ATOM      4  N   UNL d   1       9.793   3.994 -14.517  0.00  0.00    -0.061 NA
ATOM      5  C   UNL d   1       8.714   4.207 -13.642  0.00  0.00     0.121 A 
ATOM      6  C   UNL d   1       8.550   5.153 -12.581  0.00  0.00     0.050 A 
ATOM      7  C   UNL d   1       7.286   4.933 -12.070  0.00  0.00     0.098 A 
ATOM      8  N   UNL d   1       6.700   3.904 -12.787  0.00  0.00    -0.238 NA
ATOM      9  C   UNL d   1       7.592   3.468 -13.723  0.00  0.00     0.156 A 
ATOM     10  C   UNL d   1       7.423   2.378 -14.684  0.00  0.00     0.294 A 
ATOM     11  O   UNL d   1       6.394   1.707 -14.672  0.00  0.00    -0.265 OA
ENDROOT
BRANCH   6  12
ATOM     12  C   UNL d   1       9.552   6.182 -12.140  0.00  0.00     0.280 C 
BRANCH  12  13
ATOM     13  N   UNL d   1       9.225   6.830 -10.877  0.00  0.00     0.146 N 
ATOM     14  C   UNL d   1       9.455   5.923  -9.747  0.00  0.00     0.275 C 
ATOM     15  C   UNL d   1       9.048   6.597  -8.426  0.00  0.00     0.137 C 
ATOM     16  N   UNL d   1       9.794   7.856  -8.268  0.00  0.00    -0.344 N 
ATOM     17  C   UNL d   1       9.688   8.783  -9.404  0.00  0.00     0.137 C 
ATOM     18  C   UNL d   1      10.051   8.029 -10.704  0.00  0.00     0.275 C 
BRANCH  16  19
ATOM     19  C   UNL d   1      10.527   8.173  -7.090  0.00  0.00     0.057 A 
ATOM     20  C   UNL d   1      10.630   7.245  -6.018  0.00  0.00     0.029 A 
ATOM     21  C   UNL d   1      11.371   7.571  -4.877  0.00  0.00     0.070 A 
ATOM     22  C   UNL d   1      11.969   8.832  -4.730  0.00  0.00     0.068 A 
ATOM     23 CL   UNL d   1      11.565   6.457  -3.566  0.00  0.00    -0.081 Cl
ATOM     24  C   UNL d   1      11.925   9.750  -5.808  0.00  0.00     0.014 A 
ATOM     25 CL   UNL d   1      12.618   9.198  -3.183  0.00  0.00    -0.082 Cl
ATOM     26  C   UNL d   1      11.196   9.428  -6.957  0.00  0.00     0.018 A 
ENDBRANCH  16  19
ENDBRANCH  12  13
ENDBRANCH   6  12
BRANCH   3  27
ATOM     27  N   UNL d   1      10.672   2.701 -16.316  0.00  0.00    -0.184 N 
ATOM     28  C   UNL d   1      11.574   1.582 -16.063  0.00  0.00     0.120 C 
ATOM     29  C   UNL d   1      12.122   1.222 -17.445  0.00  0.00     0.027 C 
ATOM     30  C   UNL d   1      11.146   1.835 -18.464  0.00  0.00     0.027 C 
ATOM     31  C   UNL d   1      10.637   3.088 -17.730  0.00  0.00     0.120 C 
ENDBRANCH   3  27
TORSDOF 4
