REMARK  0 active torsions:
REMARK  status: ('A' for Active; 'I' for Inactive)
ROOT
ATOM      1  C   UNL d   1       7.781  -0.287 -19.825  0.00  0.00     0.004 C 
ATOM      2  C   UNL d   1       6.621   0.514 -19.225  0.00  0.00     0.035 C 
ATOM      3  C   UNL d   1       6.585   0.351 -17.697  0.00  0.00     0.250 C 
ATOM      4  N   UNL d   1       7.844   0.798 -17.096  0.00  0.00     0.135 N 
ATOM      5  C   UNL d   1       7.719   0.682 -15.634  0.00  0.00     0.252 C 
ATOM      6  C   UNL d   1       9.034   1.043 -14.905  0.00  0.00     0.065 C 
ATOM      7  C   UNL d   1      10.139   0.104 -15.402  0.00  0.00     0.008 C 
ATOM      8  C   UNL d   1      10.295   0.436 -16.889  0.00  0.00     0.065 C 
ATOM      9  C   UNL d   1      10.650   1.941 -17.096  0.00  0.00     0.252 C 
ATOM     10  N   UNL d   1      10.680   2.697 -15.838  0.00  0.00     0.135 N 
ATOM     11  C   UNL d   1      10.961   4.105 -16.122  0.00  0.00     0.250 C 
ATOM     12  C   UNL d   1      11.130   4.883 -14.808  0.00  0.00     0.035 C 
ATOM     13  C   UNL d   1       9.877   4.759 -13.936  0.00  0.00     0.004 C 
ATOM     14  C   UNL d   1       9.533   3.278 -13.742  0.00  0.00     0.033 C 
ATOM     15  C   UNL d   1       9.412   2.546 -15.095  0.00  0.00     0.221 C 
ATOM     16  C   UNL d   1       8.987   0.015 -17.611  0.00  0.00     0.221 C 
ATOM     17  C   UNL d   1       9.088   0.139 -19.150  0.00  0.00     0.033 C 
ENDROOT
TORSDOF 0
