REMARK  10 active torsions:
REMARK  status: ('A' for Active; 'I' for Inactive)
REMARK       I    between atoms: C_2  and  N_3 
REMARK    1  A    between atoms: C_2  and  C_33 
REMARK    2  A    between atoms: N_3  and  C_4 
REMARK    3  A    between atoms: C_4  and  C_5 
REMARK    4  A    between atoms: C_5  and  N_6 
REMARK    5  A    between atoms: N_6  and  C_7 
REMARK    6  A    between atoms: N_6  and  C_22 
REMARK    7  A    between atoms: C_7  and  C_8 
REMARK    8  A    between atoms: C_8  and  C_9 
REMARK    9  A    between atoms: C_9  and  N_10 
REMARK   10  A    between atoms: N_13  and  C_14 
ROOT
ATOM      1  N   UNL d   1       8.800   3.499 -13.396  0.00  0.00     0.138 N 
ENDROOT
BRANCH   1   2
ATOM      2  C   UNL d   1       7.656   2.837 -14.055  0.00  0.00     0.276 C 
BRANCH   2   3
ATOM      3  C   UNL d   1       8.064   1.514 -14.741  0.00  0.00     0.164 C 
BRANCH   3   4
ATOM      4  N   UNL d   1       6.954   0.954 -15.497  0.00  0.00    -0.232 NA
ATOM      5  C   UNL d   1       6.813   1.127 -16.827  0.00  0.00     0.275 C 
ATOM      6  O   UNL d   1       7.460   1.945 -17.495  0.00  0.00    -0.266 OA
BRANCH   5   7
ATOM      7  C   UNL d   1       5.795   0.248 -17.485  0.00  0.00     0.058 A 
ATOM      8  C   UNL d   1       5.190  -0.814 -16.773  0.00  0.00     0.005 A 
ATOM      9  C   UNL d   1       4.218  -1.617 -17.389  0.00  0.00     0.000 A 
ATOM     10  C   UNL d   1       3.857  -1.381 -18.725  0.00  0.00     0.000 A 
ATOM     11  C   UNL d   1       4.466  -0.345 -19.452  0.00  0.00     0.000 A 
ATOM     12  C   UNL d   1       5.441   0.466 -18.839  0.00  0.00     0.005 A 
ENDBRANCH   5   7
ENDBRANCH   3   4
ENDBRANCH   2   3
ENDBRANCH   1   2
BRANCH   1  13
ATOM     13  C   UNL d   1       8.354   4.593 -12.515  0.00  0.00     0.252 C 
BRANCH  13  14
ATOM     14  C   UNL d   1       9.488   5.097 -11.596  0.00  0.00     0.071 C 
BRANCH  14  15
ATOM     15  C   UNL d   1       9.038   6.068 -10.499  0.00  0.00     0.253 C 
BRANCH  15  16
ATOM     16  N   UNL d   1      10.147   6.331  -9.567  0.00  0.00     0.141 N 
ATOM     17  C   UNL d   1       9.752   5.883  -8.231  0.00  0.00     0.274 C 
ATOM     18  C   UNL d   1      10.882   6.126  -7.213  0.00  0.00     0.137 C 
ATOM     19  N   UNL d   1      11.285   7.520  -7.227  0.00  0.00    -0.344 N 
ATOM     20  C   UNL d   1      11.604   8.060  -8.543  0.00  0.00     0.137 C 
ATOM     21  C   UNL d   1      10.453   7.765  -9.528  0.00  0.00     0.274 C 
BRANCH  19  22
ATOM     22  C   UNL d   1      11.337   8.269  -6.042  0.00  0.00     0.056 A 
ATOM     23  C   UNL d   1      11.731   7.660  -4.827  0.00  0.00     0.017 A 
ATOM     24  C   UNL d   1      11.815   8.402  -3.635  0.00  0.00     0.002 A 
ATOM     25  C   UNL d   1      11.454   9.764  -3.638  0.00  0.00     0.000 A 
ATOM     26  C   UNL d   1      11.038  10.373  -4.845  0.00  0.00     0.002 A 
ATOM     27  C   UNL d   1      10.995   9.634  -6.034  0.00  0.00     0.017 A 
ENDBRANCH  19  22
ENDBRANCH  15  16
ENDBRANCH  14  15
ENDBRANCH  13  14
ENDBRANCH   1  13
BRANCH   1  28
ATOM     28  C   UNL d   1       9.921   3.878 -14.277  0.00  0.00     0.224 C 
ATOM     29  C   UNL d   1       9.480   4.621 -15.552  0.00  0.00     0.059 C 
ATOM     30  C   UNL d   1      10.626   4.906 -16.500  0.00  0.00    -0.022 A 
ATOM     31  C   UNL d   1      11.871   4.238 -16.369  0.00  0.00    -0.026 A 
ATOM     32  C   UNL d   1      10.423   5.830 -17.547  0.00  0.00     0.023 A 
ATOM     33  C   UNL d   1      12.155   3.254 -15.232  0.00  0.00     0.028 C 
ATOM     34  C   UNL d   1      12.893   4.500 -17.304  0.00  0.00    -0.003 A 
ATOM     35  C   UNL d   1      10.892   2.716 -14.568  0.00  0.00     0.038 C 
ATOM     36  C   UNL d   1      12.691   5.428 -18.342  0.00  0.00     0.027 A 
ATOM     37  C   UNL d   1      11.458   6.097 -18.460  0.00  0.00     0.131 A 
ATOM     38  O   UNL d   1      11.263   7.005 -19.456  0.00  0.00    -0.190 OA
ENDBRANCH   1  28
TORSDOF 10
