REMARK  3 active torsions:
REMARK  status: ('A' for Active; 'I' for Inactive)
REMARK    1  A    between atoms: C_8  and  C_9 
REMARK    2  A    between atoms: N_13  and  C_14 
REMARK    3  A    between atoms: C_14  and  C_15 
ROOT
ATOM      1  C   UNL d   1       9.652   6.690 -10.027  0.00  0.00     0.075 C 
ATOM      2  C   UNL d   1       9.640   7.921 -10.954  0.00  0.00     0.010 C 
ATOM      3  C   UNL d   1       9.367   7.476 -12.389  0.00  0.00     0.036 C 
ATOM      4  C   UNL d   1       8.118   6.599 -12.510  0.00  0.00     0.251 C 
ATOM      5  N   UNL d   1       8.303   5.401 -11.702  0.00  0.00     0.142 N 
ATOM      6  C   UNL d   1       8.432   5.764 -10.287  0.00  0.00     0.257 C 
ENDROOT
BRANCH   1   7
ATOM      7  C   UNL d   1       9.779   7.073  -8.583  0.00  0.00     0.084 A 
ATOM      8  C   UNL d   1      10.850   7.129  -7.739  0.00  0.00     0.037 A 
ATOM      9  C   UNL d   1      10.322   7.649  -6.529  0.00  0.00     0.104 A 
ATOM     10  C   UNL d   1      11.004   7.889  -5.279  0.00  0.00     0.019 A 
ATOM     11  N   UNL d   1       9.037   7.918  -6.603  0.00  0.00    -0.148 NA
ATOM     12  C   UNL d   1      11.468   6.790  -4.530  0.00  0.00     0.002 A 
ATOM     13  C   UNL d   1      11.136   9.203  -4.788  0.00  0.00     0.002 A 
ATOM     14  C   UNL d   1      12.099   6.996  -3.289  0.00  0.00     0.011 A 
ATOM     15  C   UNL d   1      12.251   8.313  -2.825  0.00  0.00     0.058 A 
ATOM     16 CL   UNL d   1      13.021   8.617  -1.333  0.00  0.00    -0.082 Cl
ATOM     17  C   UNL d   1      11.765   9.409  -3.549  0.00  0.00     0.011 A 
ATOM     18  N   UNL d   1       8.711   7.506  -7.840  0.00  0.00    -0.152 NA
ENDBRANCH   1   7
BRANCH   5  19
ATOM     19  C   UNL d   1       7.146   4.534 -11.895  0.00  0.00     0.277 C 
BRANCH  19  20
ATOM     20  C   UNL d   1       7.238   3.646 -13.132  0.00  0.00     0.011 A 
ATOM     21  C   UNL d   1       6.202   2.723 -13.382  0.00  0.00    -0.002 A 
ATOM     22  C   UNL d   1       6.314   1.809 -14.450  0.00  0.00    -0.000 A 
ATOM     23  C   UNL d   1       7.438   1.842 -15.298  0.00  0.00    -0.000 A 
ATOM     24  C   UNL d   1       8.477   2.755 -15.049  0.00  0.00    -0.000 A 
ATOM     25  C   UNL d   1       8.385   3.641 -13.966  0.00  0.00    -0.002 A 
ENDBRANCH  19  20
ENDBRANCH   5  19
TORSDOF 3
