REMARK  8 active torsions:
REMARK  status: ('A' for Active; 'I' for Inactive)
REMARK    1  A    between atoms: O_2  and  C_3 
REMARK    2  A    between atoms: C_3  and  C_4 
REMARK    3  A    between atoms: C_4  and  C_5 
REMARK       I    between atoms: C_5  and  N_7 
REMARK    4  A    between atoms: N_7  and  C_8 
REMARK    5  A    between atoms: C_11  and  C_12 
REMARK    6  A    between atoms: C_12  and  C_13 
REMARK    7  A    between atoms: C_13  and  N_14 
REMARK    8  A    between atoms: C_17  and  C_18 
ROOT
ATOM      1  N   UNL d   1       7.634   5.059 -12.886  0.00  0.00     0.137 N 
ATOM      2  C   UNL d   1       6.321   4.430 -12.739  0.00  0.00     0.251 C 
ATOM      3  C   UNL d   1       6.024   3.496 -13.928  0.00  0.00     0.040 C 
ATOM      4  C   UNL d   1       7.122   2.439 -14.123  0.00  0.00     0.026 C 
ATOM      5  C   UNL d   1       8.502   3.112 -14.073  0.00  0.00     0.040 C 
ATOM      6  C   UNL d   1       8.671   4.027 -12.878  0.00  0.00     0.251 C 
ENDROOT
BRANCH   1   7
ATOM      7  C   UNL d   1       7.800   6.012 -11.789  0.00  0.00     0.250 C 
BRANCH   7   8
ATOM      8  C   UNL d   1       9.262   6.467 -11.594  0.00  0.00     0.035 C 
BRANCH   8   9
ATOM      9  C   UNL d   1       9.483   7.381 -10.393  0.00  0.00     0.002 C 
ATOM     10  C   UNL d   1       9.171   6.641  -9.071  0.00  0.00     0.002 C 
ATOM     11  C   UNL d   1       9.440   7.520  -7.854  0.00  0.00     0.024 C 
ATOM     12  C   UNL d   1      10.889   8.040  -7.857  0.00  0.00     0.106 C 
ATOM     13  C   UNL d   1      11.209   8.777  -9.160  0.00  0.00     0.024 C 
ATOM     14  C   UNL d   1      10.918   7.894 -10.365  0.00  0.00     0.002 C 
BRANCH  12  15
ATOM     15  N   UNL d   1      11.129   8.936  -6.737  0.00  0.00    -0.240 NA
ATOM     16  C   UNL d   1      11.297   8.514  -5.479  0.00  0.00     0.254 C 
ATOM     17  O   UNL d   1      11.100   7.346  -5.143  0.00  0.00    -0.271 OA
BRANCH  16  18
ATOM     18  C   UNL d   1      11.812   9.558  -4.484  0.00  0.00     0.122 C 
BRANCH  18  19
ATOM     19  C   UNL d   1      11.888   9.057  -3.037  0.00  0.00     0.152 C 
BRANCH  19  20
ATOM     20  O   UNL d   1      12.740   7.928  -2.936  0.00  0.00    -0.351 OA
ATOM     21  C   UNL d   1      12.488   7.171  -1.767  0.00  0.00     0.174 C 
ENDBRANCH  19  20
ENDBRANCH  18  19
ENDBRANCH  16  18
ENDBRANCH  12  15
ENDBRANCH   8   9
ENDBRANCH   7   8
ENDBRANCH   1   7
BRANCH   4  22
ATOM     22  C   UNL d   1       6.928   1.616 -15.404  0.00  0.00    -0.024 A 
ATOM     23  C   UNL d   1       6.088   0.481 -15.415  0.00  0.00    -0.001 A 
ATOM     24  C   UNL d   1       5.867  -0.247 -16.573  0.00  0.00     0.090 A 
ATOM     25  C   UNL d   1       5.271  -0.103 -14.302  0.00  0.00     0.061 A 
ATOM     26  C   UNL d   1       6.491   0.103 -17.784  0.00  0.00     0.024 A 
ATOM     27  O   UNL d   1       4.990  -1.282 -16.389  0.00  0.00    -0.331 OA
ATOM     28  C   UNL d   1       7.351   1.225 -17.788  0.00  0.00     0.002 A 
ATOM     29  C   UNL d   1       7.571   1.966 -16.620  0.00  0.00    -0.004 A 
ATOM     30  C   UNL d   1       4.655  -1.339 -14.995  0.00  0.00     0.154 A 
ENDBRANCH   4  22
TORSDOF 8
