REMARK  2 active torsions:
REMARK  status: ('A' for Active; 'I' for Inactive)
REMARK    1  A    between atoms: N_5  and  C_6 
REMARK    2  A    between atoms: C_18  and  C_19 
ROOT
ATOM      1  C   UNL d   1       9.156   3.667 -14.444  0.00  0.00     0.246 C 
ATOM      2  C   UNL d   1       8.385   2.524 -15.148  0.00  0.00     0.065 C 
ATOM      3  C   UNL d   1       7.522   1.670 -14.334  0.00  0.00    -0.014 A 
ATOM      4  C   UNL d   1       7.898   0.323 -14.139  0.00  0.00    -0.004 A 
ATOM      5  C   UNL d   1       7.052  -0.473 -13.396  0.00  0.00    -0.000 A 
ATOM      6  C   UNL d   1       5.891   0.087 -12.839  0.00  0.00     0.001 A 
ATOM      7  C   UNL d   1       5.483   1.383 -13.061  0.00  0.00     0.006 A 
ATOM      8  C   UNL d   1       6.307   2.163 -13.832  0.00  0.00     0.025 A 
ATOM      9  S   UNL d   1       5.853   3.820 -14.050  0.00  0.00    -0.087 SA
ATOM     10  C   UNL d   1       7.077   4.545 -13.048  0.00  0.00     0.027 C 
ATOM     11  C   UNL d   1       6.556   5.263 -11.998  0.00  0.00     0.006 C 
ATOM     12  C   UNL d   1       7.443   5.860 -11.109  0.00  0.00     0.004 C 
ATOM     13  C   UNL d   1       8.828   5.801 -11.253  0.00  0.00     0.037 C 
ATOM     14  C   UNL d   1       9.320   4.990 -12.277  0.00  0.00     0.001 C 
ATOM     15  C   UNL d   1       8.470   4.383 -13.243  0.00  0.00     0.015 C 
ENDROOT
BRANCH   1  16
ATOM     16  N   UNL d   1       9.704   4.636 -15.423  0.00  0.00     0.144 N 
ATOM     17  C   UNL d   1      10.911   5.310 -14.930  0.00  0.00     0.286 C 
ATOM     18  C   UNL d   1      11.511   6.292 -15.927  0.00  0.00     0.286 C 
ATOM     19  N   UNL d   1      11.806   5.697 -17.201  0.00  0.00     0.143 N 
ATOM     20  C   UNL d   1      12.256   6.729 -18.106  0.00  0.00     0.285 C 
ATOM     21  C   UNL d   1      10.578   5.081 -17.693  0.00  0.00     0.286 C 
ATOM     22  C   UNL d   1      10.055   4.041 -16.713  0.00  0.00     0.286 C 
ENDBRANCH   1  16
BRANCH  13  23
ATOM     23  C   UNL d   1       9.689   6.562 -10.333  0.00  0.00     0.183 A 
ATOM     24  N   UNL d   1      10.041   6.042  -9.167  0.00  0.00    -0.148 NA
ATOM     25  N   UNL d   1      10.901   6.978  -8.690  0.00  0.00    -0.228 N 
ATOM     26  C   UNL d   1      11.015   7.944  -9.611  0.00  0.00     0.197 A 
ATOM     27  C   UNL d   1      11.504   6.843  -7.368  0.00  0.00     0.156 C 
ATOM     28  N   UNL d   1      10.225   7.775 -10.668  0.00  0.00    -0.204 NA
ENDBRANCH  13  23
TORSDOF 2
