REMARK  7 active torsions:
REMARK  status: ('A' for Active; 'I' for Inactive)
REMARK    1  A    between atoms: C_8  and  N_9 
REMARK    2  A    between atoms: N_12  and  C_13 
REMARK    3  A    between atoms: C_13  and  C_14 
REMARK    4  A    between atoms: C_14  and  C_15 
REMARK    5  A    between atoms: C_15  and  C_16 
REMARK    6  A    between atoms: C_16  and  O_17 
REMARK    7  A    between atoms: O_17  and  C_18 
ROOT
ATOM      1  N   UNL d   1      10.071   1.291 -16.560  0.00  0.00    -0.191 NA
ATOM      2  C   UNL d   1       9.082   1.222 -15.969  0.00  0.00     0.104 C 
ATOM      3  C   UNL d   1       7.837   1.145 -15.220  0.00  0.00     0.102 A 
ATOM      4  C   UNL d   1       6.997   0.033 -15.403  0.00  0.00     0.015 A 
ATOM      5  C   UNL d   1       5.795  -0.062 -14.678  0.00  0.00     0.021 A 
ATOM      6  C   UNL d   1       5.470   0.994 -13.808  0.00  0.00     0.101 A 
ATOM      7  N   UNL d   1       6.224   2.102 -13.686  0.00  0.00    -0.227 NA
ATOM      8  C   UNL d   1       7.403   2.181 -14.341  0.00  0.00     0.150 A 
ENDROOT
BRANCH   8   9
ATOM      9  N   UNL d   1       8.169   3.304 -14.049  0.00  0.00    -0.329 N 
ATOM     10  C   UNL d   1       7.576   4.625 -14.007  0.00  0.00     0.138 C 
ATOM     11  C   UNL d   1       7.925   5.344 -12.722  0.00  0.00     0.274 C 
ATOM     12  N   UNL d   1       9.382   5.420 -12.562  0.00  0.00     0.141 N 
ATOM     13  C   UNL d   1       9.869   4.040 -12.461  0.00  0.00     0.274 C 
ATOM     14  C   UNL d   1       9.587   3.268 -13.742  0.00  0.00     0.138 C 
BRANCH  12  15
ATOM     15  C   UNL d   1       9.665   6.159 -11.323  0.00  0.00     0.251 C 
BRANCH  15  16
ATOM     16  C   UNL d   1       9.318   7.673 -11.471  0.00  0.00     0.038 C 
BRANCH  16  17
ATOM     17  C   UNL d   1       9.466   8.435 -10.165  0.00  0.00     0.035 C 
BRANCH  17  18
ATOM     18  C   UNL d   1      10.904   8.781  -9.797  0.00  0.00     0.149 C 
BRANCH  18  19
ATOM     19  O   UNL d   1      11.059   9.449  -8.558  0.00  0.00    -0.331 OA
BRANCH  19  20
ATOM     20  C   UNL d   1      11.021   8.723  -7.393  0.00  0.00     0.096 A 
ATOM     21  C   UNL d   1      11.824   9.209  -6.328  0.00  0.00     0.043 A 
ATOM     22  C   UNL d   1      11.851   8.510  -5.100  0.00  0.00     0.082 A 
ATOM     23  C   UNL d   1      11.106   7.314  -4.929  0.00  0.00    -0.004 A 
ATOM     24  N   UNL d   1      12.662   8.940  -4.058  0.00  0.00    -0.212 NA
ATOM     25  C   UNL d   1      10.285   6.864  -5.960  0.00  0.00    -0.001 A 
ATOM     26  C   UNL d   1      11.211   6.505  -3.665  0.00  0.00     0.038 C 
ATOM     27  C   UNL d   1      10.240   7.544  -7.167  0.00  0.00     0.024 A 
ATOM     28  C   UNL d   1      11.541   7.409  -2.483  0.00  0.00     0.095 C 
ATOM     29  C   UNL d   1      12.594   8.433  -2.817  0.00  0.00     0.256 C 
ATOM     30  O   UNL d   1      13.333   8.768  -1.912  0.00  0.00    -0.270 OA
ENDBRANCH  19  20
ENDBRANCH  18  19
ENDBRANCH  17  18
ENDBRANCH  16  17
ENDBRANCH  15  16
ENDBRANCH  12  15
ENDBRANCH   8   9
TORSDOF 7
