REMARK  3 active torsions:
REMARK  status: ('A' for Active; 'I' for Inactive)
REMARK    1  A    between atoms: C_2  and  C_3 
REMARK       I    between atoms: C_2  and  N_10 
REMARK    2  A    between atoms: C_13  and  C_14 
REMARK    3  A    between atoms: C_14  and  C_15 
ROOT
ATOM      1  O   UNL d   1      10.732  10.073  -5.921  0.00  0.00    -0.267 OA
ATOM      2  C   UNL d   1      11.142   8.934  -5.919  0.00  0.00     0.259 C 
ATOM      3  N   UNL d   1      11.233   8.160  -7.020  0.00  0.00    -0.317 N 
ATOM      4  C   UNL d   1      11.871   6.845  -7.098  0.00  0.00     0.104 C 
ATOM      5  C   UNL d   1      10.880   5.830  -7.658  0.00  0.00     0.025 C 
ATOM      6  C   UNL d   1      10.297   6.228  -9.025  0.00  0.00     0.008 C 
ATOM      7  C   UNL d   1       9.748   7.665  -8.930  0.00  0.00     0.025 C 
ATOM      8  C   UNL d   1      10.771   8.631  -8.335  0.00  0.00     0.104 C 
ENDROOT
BRANCH   2   9
ATOM      9  C   UNL d   1      11.648   8.343  -4.632  0.00  0.00     0.083 A 
ATOM     10  C   UNL d   1      11.232   7.094  -4.143  0.00  0.00     0.145 A 
ATOM     11  C   UNL d   1      11.728   6.616  -2.930  0.00  0.00     0.030 A 
ATOM     12  F   UNL d   1      10.266   6.398  -4.805  0.00  0.00    -0.204 F 
ATOM     13  C   UNL d   1      12.592   7.382  -2.143  0.00  0.00     0.002 A 
ATOM     14  C   UNL d   1      12.986   8.642  -2.596  0.00  0.00     0.000 A 
ATOM     15  C   UNL d   1      12.555   9.104  -3.852  0.00  0.00     0.007 A 
ENDBRANCH   2   9
BRANCH   6  16
ATOM     16  C   UNL d   1       9.246   5.194  -9.505  0.00  0.00     0.026 C 
BRANCH  16  17
ATOM     17  C   UNL d   1       9.061   5.169 -11.019  0.00  0.00    -0.022 A 
ATOM     18  C   UNL d   1       8.496   6.272 -11.684  0.00  0.00    -0.004 A 
ATOM     19  C   UNL d   1       8.301   6.239 -13.070  0.00  0.00    -0.000 A 
ATOM     20  C   UNL d   1       8.700   5.122 -13.830  0.00  0.00    -0.000 A 
ATOM     21  C   UNL d   1       9.275   4.015 -13.181  0.00  0.00    -0.000 A 
ATOM     22  C   UNL d   1       9.462   4.040 -11.780  0.00  0.00    -0.004 A 
ENDBRANCH  16  17
ENDBRANCH   6  16
TORSDOF 3
