REMARK  7 active torsions:
REMARK  status: ('A' for Active; 'I' for Inactive)
REMARK    1  A    between atoms: C_4  and  N_5 
REMARK    2  A    between atoms: N_8  and  C_9 
REMARK    3  A    between atoms: C_9  and  C_10 
REMARK    4  A    between atoms: C_10  and  C_11 
REMARK    5  A    between atoms: C_11  and  C_12 
REMARK    6  A    between atoms: C_12  and  N_13 
REMARK    7  A    between atoms: N_13  and  C_14 
ROOT
ATOM      1  C   UNL d   1       9.062   5.970 -12.791  0.00  0.00     0.037 C 
ENDROOT
BRANCH   1   2
ATOM      2  C   UNL d   1       8.565   6.560 -11.466  0.00  0.00     0.251 C 
BRANCH   2   3
ATOM      3  N   UNL d   1       9.633   6.530 -10.468  0.00  0.00     0.141 N 
ATOM      4  C   UNL d   1       9.090   6.106  -9.173  0.00  0.00     0.274 C 
ATOM      5  C   UNL d   1      10.214   6.015  -8.130  0.00  0.00     0.137 C 
ATOM      6  N   UNL d   1      10.930   7.283  -8.037  0.00  0.00    -0.344 N 
ATOM      7  C   UNL d   1      11.386   7.834  -9.310  0.00  0.00     0.137 C 
ATOM      8  C   UNL d   1      10.224   7.867 -10.320  0.00  0.00     0.274 C 
BRANCH   6   9
ATOM      9  C   UNL d   1      11.110   7.934  -6.802  0.00  0.00     0.056 A 
ATOM     10  C   UNL d   1      11.137   9.346  -6.713  0.00  0.00     0.017 A 
ATOM     11  C   UNL d   1      11.312   9.984  -5.467  0.00  0.00     0.002 A 
ATOM     12  C   UNL d   1      11.478   9.221  -4.299  0.00  0.00     0.000 A 
ATOM     13  C   UNL d   1      11.470   7.819  -4.380  0.00  0.00     0.002 A 
ATOM     14  C   UNL d   1      11.277   7.180  -5.617  0.00  0.00     0.017 A 
ENDBRANCH   6   9
ENDBRANCH   2   3
ENDBRANCH   1   2
BRANCH   1  15
ATOM     15  C   UNL d   1       9.466   4.488 -12.702  0.00  0.00     0.028 C 
BRANCH  15  16
ATOM     16  C   UNL d   1      10.163   3.989 -13.973  0.00  0.00     0.127 C 
BRANCH  16  17
ATOM     17  N   UNL d   1      10.177   2.540 -14.037  0.00  0.00    -0.255 NA
BRANCH  17  18
ATOM     18  C   UNL d   1      10.505   1.813 -15.172  0.00  0.00     0.165 C 
ATOM     19  C   UNL d   1      10.226   0.320 -15.008  0.00  0.00     0.214 C 
ATOM     20  O   UNL d   1      10.043  -0.389 -16.237  0.00  0.00    -0.321 OA
ATOM     21  C   UNL d   1      10.788   0.060 -17.300  0.00  0.00     0.112 A 
ATOM     22  C   UNL d   1      11.292   1.386 -17.305  0.00  0.00     0.105 A 
ATOM     23  C   UNL d   1      11.041  -0.804 -18.382  0.00  0.00     0.026 A 
ATOM     24  N   UNL d   1      11.024   2.284 -16.263  0.00  0.00    -0.227 NA
ATOM     25  C   UNL d   1      12.072   1.817 -18.401  0.00  0.00     0.021 A 
ATOM     26  C   UNL d   1      12.345   0.942 -19.471  0.00  0.00     0.002 A 
ATOM     27  C   UNL d   1      11.828  -0.367 -19.465  0.00  0.00     0.002 A 
ENDBRANCH  17  18
ENDBRANCH  16  17
ENDBRANCH  15  16
ENDBRANCH   1  15
TORSDOF 7
