REMARK  4 active torsions:
REMARK  status: ('A' for Active; 'I' for Inactive)
REMARK    1  A    between atoms: C_4  and  C_5 
REMARK    2  A    between atoms: C_7  and  C_8 
REMARK    3  A    between atoms: C_8  and  N_9 
REMARK    4  A    between atoms: N_12  and  C_13 
ROOT
ATOM      1  N   UNL d   1       9.190   6.216 -10.841  0.00  0.00     0.147 N 
ATOM      2  C   UNL d   1       8.771   5.766  -9.507  0.00  0.00     0.275 C 
ATOM      3  C   UNL d   1       9.955   5.725  -8.524  0.00  0.00     0.137 C 
ATOM      4  N   UNL d   1      10.655   7.016  -8.501  0.00  0.00    -0.344 N 
ATOM      5  C   UNL d   1      11.020   7.525  -9.818  0.00  0.00     0.137 C 
ATOM      6  C   UNL d   1       9.785   7.556 -10.729  0.00  0.00     0.275 C 
ENDROOT
BRANCH   1   7
ATOM      7  C   UNL d   1       8.018   6.256 -11.719  0.00  0.00     0.297 C 
BRANCH   7   8
ATOM      8  C   UNL d   1       7.871   5.025 -12.539  0.00  0.00     0.113 A 
ATOM      9  N   UNL d   1       8.920   4.464 -13.239  0.00  0.00    -0.228 NA
ATOM     10  C   UNL d   1       8.472   3.392 -13.902  0.00  0.00     0.162 A 
ATOM     11  N   UNL d   1       7.160   3.229 -13.699  0.00  0.00    -0.224 NA
ATOM     12  C   UNL d   1       6.776   4.249 -12.827  0.00  0.00     0.117 A 
BRANCH  10  13
ATOM     13  C   UNL d   1       9.301   2.519 -14.727  0.00  0.00     0.036 A 
ATOM     14  C   UNL d   1      10.570   2.946 -15.180  0.00  0.00     0.003 A 
ATOM     15  C   UNL d   1      11.363   2.100 -15.980  0.00  0.00     0.000 A 
ATOM     16  C   UNL d   1      10.901   0.815 -16.319  0.00  0.00     0.000 A 
ATOM     17  C   UNL d   1       9.648   0.374 -15.852  0.00  0.00     0.000 A 
ATOM     18  C   UNL d   1       8.853   1.221 -15.056  0.00  0.00     0.003 A 
ENDBRANCH  10  13
ENDBRANCH   7   8
ENDBRANCH   1   7
BRANCH   4  19
ATOM     19  C   UNL d   1      10.941   7.718  -7.308  0.00  0.00     0.059 A 
ATOM     20  C   UNL d   1      11.123   9.123  -7.289  0.00  0.00     0.038 A 
ATOM     21  C   UNL d   1      11.432   9.760  -6.071  0.00  0.00     0.100 A 
ATOM     22  N   UNL d   1      11.554   9.109  -4.897  0.00  0.00    -0.242 NA
ATOM     23  C   UNL d   1      11.375   7.771  -4.909  0.00  0.00     0.100 A 
ATOM     24  C   UNL d   1      11.063   7.044  -6.073  0.00  0.00     0.038 A 
ENDBRANCH   4  19
TORSDOF 4
