REMARK  4 active torsions:
REMARK  status: ('A' for Active; 'I' for Inactive)
REMARK    1  A    between atoms: C_2  and  C_3 
REMARK    2  A    between atoms: C_7  and  C_8 
REMARK    3  A    between atoms: N_15  and  C_16 
REMARK    4  A    between atoms: C_16  and  C_17 
ROOT
ATOM      1  O   UNL d   1       9.145   8.817 -10.579  0.00  0.00    -0.221 OA
ATOM      2  C   UNL d   1       9.586   7.629  -9.934  0.00  0.00     0.149 C 
ATOM      3  C   UNL d   1      11.107   7.694  -9.897  0.00  0.00     0.070 C 
ATOM      4  C   UNL d   1      11.681   8.785  -9.014  0.00  0.00     0.254 C 
ATOM      5  N   UNL d   1      11.245   8.556  -7.657  0.00  0.00     0.142 N 
ATOM      6  C   UNL d   1       9.796   8.662  -7.599  0.00  0.00     0.254 C 
ATOM      7  C   UNL d   1       9.228   7.529  -8.435  0.00  0.00     0.070 C 
ENDROOT
BRANCH   2   8
ATOM      8  C   UNL d   1       9.096   6.399 -10.732  0.00  0.00     0.005 A 
ATOM      9  C   UNL d   1       9.493   6.207 -12.070  0.00  0.00     0.002 A 
ATOM     10  C   UNL d   1       9.093   5.074 -12.817  0.00  0.00     0.071 A 
ATOM     11  C   UNL d   1       8.146   4.200 -12.271  0.00  0.00     0.004 A 
ATOM     12  C   UNL d   1       7.706   4.398 -10.965  0.00  0.00    -0.000 A 
ATOM     13  C   UNL d   1       8.202   5.473 -10.182  0.00  0.00    -0.002 A 
BRANCH  10  14
ATOM     14  C   UNL d   1       9.643   4.817 -14.201  0.00  0.00     0.419 C 
ATOM     15  F   UNL d   1       8.690   5.182 -15.052  0.00  0.00    -0.166 F 
ATOM     16  F   UNL d   1      10.744   5.523 -14.450  0.00  0.00    -0.166 F 
ATOM     17  F   UNL d   1       9.922   3.523 -14.374  0.00  0.00    -0.166 F 
ENDBRANCH  10  14
ENDBRANCH   2   8
BRANCH   5  18
ATOM     18  C   UNL d   1      11.817   9.588  -6.832  0.00  0.00     0.278 C 
BRANCH  18  19
ATOM     19  C   UNL d   1      11.564   9.475  -5.381  0.00  0.00     0.032 C 
ATOM     20  C   UNL d   1      11.700   8.361  -4.489  0.00  0.00     0.017 C 
ATOM     21  C   UNL d   1      11.550   8.805  -3.158  0.00  0.00     0.081 C 
ATOM     22  C   UNL d   1      12.035   7.018  -4.640  0.00  0.00     0.001 C 
ATOM     23  N   UNL d   1      11.123  10.090  -3.289  0.00  0.00    -0.244 NA
ATOM     24  C   UNL d   1      11.760   8.004  -2.033  0.00  0.00     0.019 C 
ATOM     25  C   UNL d   1      11.060  10.472  -4.609  0.00  0.00     0.097 C 
ATOM     26  C   UNL d   1      12.035   6.657  -2.212  0.00  0.00     0.002 C 
ATOM     27  C   UNL d   1      12.246   6.209  -3.511  0.00  0.00     0.000 C 
ENDBRANCH  18  19
ENDBRANCH   5  18
TORSDOF 4
