REMARK  8 active torsions:
REMARK  status: ('A' for Active; 'I' for Inactive)
REMARK    1  A    between atoms: C_6  and  C_7 
REMARK    2  A    between atoms: C_10  and  S_11 
REMARK    3  A    between atoms: S_11  and  C_12 
REMARK    4  A    between atoms: C_12  and  C_13 
REMARK    5  A    between atoms: C_13  and  C_14 
REMARK    6  A    between atoms: C_14  and  N_15 
REMARK    7  A    between atoms: C_19  and  C_20 
REMARK    8  A    between atoms: C_23  and  C_24 
ROOT
ATOM      1  N   UNL d   1      10.223   5.189 -13.267  0.00  0.00     0.137 N 
ATOM      2  C   UNL d   1       9.397   4.045 -12.870  0.00  0.00     0.251 C 
ATOM      3  C   UNL d   1       8.832   4.458 -11.555  0.00  0.00     0.039 A 
ATOM      4  C   UNL d   1       7.558   5.262 -11.401  0.00  0.00     0.008 A 
ATOM      5  C   UNL d   1       8.903   5.957 -11.502  0.00  0.00     0.052 A 
ATOM      6  C   UNL d   1       9.459   6.363 -12.848  0.00  0.00     0.254 C 
ENDROOT
BRANCH   1   7
ATOM      7  C   UNL d   1      10.536   5.236 -14.693  0.00  0.00     0.251 C 
BRANCH   7   8
ATOM      8  C   UNL d   1      11.244   3.949 -15.148  0.00  0.00     0.047 C 
BRANCH   8   9
ATOM      9  C   UNL d   1      11.541   3.922 -16.662  0.00  0.00     0.067 C 
BRANCH   9  10
ATOM     10  S   UNL d   1      11.734   2.204 -17.242  0.00  0.00    -0.075 SA
BRANCH  10  11
ATOM     11  C   UNL d   1      10.061   1.643 -17.096  0.00  0.00     0.193 A 
ATOM     12  N   UNL d   1       9.172   1.720 -18.082  0.00  0.00    -0.122 NA
ATOM     13  N   UNL d   1       7.991   1.239 -17.561  0.00  0.00    -0.126 NA
ATOM     14  C   UNL d   1       8.258   0.899 -16.297  0.00  0.00     0.191 A 
ATOM     15  N   UNL d   1       9.551   1.114 -15.958  0.00  0.00    -0.287 N 
ATOM     16  C   UNL d   1      10.201   0.894 -14.679  0.00  0.00     0.134 C 
BRANCH  14  17
ATOM     17  C   UNL d   1       7.219   0.381 -15.400  0.00  0.00     0.151 A 
ATOM     18  C   UNL d   1       5.945  -0.081 -15.627  0.00  0.00     0.087 A 
ATOM     19  C   UNL d   1       5.192  -0.205 -16.911  0.00  0.00     0.054 C 
ATOM     20  N   UNL d   1       5.395  -0.470 -14.414  0.00  0.00    -0.221 NA
ATOM     21  C   UNL d   1       6.357  -0.245 -13.528  0.00  0.00     0.225 A 
ATOM     22  O   UNL d   1       7.486   0.283 -14.061  0.00  0.00    -0.282 OA
ENDBRANCH  14  17
ENDBRANCH  10  11
ENDBRANCH   9  10
ENDBRANCH   8   9
ENDBRANCH   7   8
ENDBRANCH   1   7
BRANCH   5  23
ATOM     23  C   UNL d   1       9.486   6.663 -10.288  0.00  0.00    -0.021 A 
ATOM     24  C   UNL d   1      10.007   7.982 -10.370  0.00  0.00    -0.004 A 
ATOM     25  C   UNL d   1      10.577   8.605  -9.245  0.00  0.00     0.004 A 
ATOM     26  C   UNL d   1      10.612   7.937  -8.003  0.00  0.00     0.071 A 
ATOM     27  C   UNL d   1      10.056   6.646  -7.900  0.00  0.00     0.004 A 
ATOM     28  C   UNL d   1       9.499   6.022  -9.023  0.00  0.00    -0.004 A 
BRANCH  26  29
ATOM     29  C   UNL d   1      11.226   8.610  -6.789  0.00  0.00     0.419 C 
ATOM     30  F   UNL d   1      10.399   9.548  -6.335  0.00  0.00    -0.166 F 
ATOM     31  F   UNL d   1      11.459   7.736  -5.806  0.00  0.00    -0.166 F 
ATOM     32  F   UNL d   1      12.372   9.189  -7.146  0.00  0.00    -0.166 F 
ENDBRANCH  26  29
ENDBRANCH   5  23
TORSDOF 8
