REMARK  8 active torsions:
REMARK  status: ('A' for Active; 'I' for Inactive)
REMARK    1  A    between atoms: C_4  and  C_5 
REMARK    2  A    between atoms: C_8  and  C_9 
REMARK    3  A    between atoms: C_13  and  O_14 
REMARK    4  A    between atoms: O_14  and  C_15 
REMARK       I    between atoms: C_15  and  N_17 
REMARK    5  A    between atoms: N_17  and  C_18 
REMARK    6  A    between atoms: C_18  and  C_19 
REMARK    7  A    between atoms: C_19  and  N_20 
REMARK    8  A    between atoms: N_23  and  C_24 
ROOT
ATOM      1  C   UNL d   1       9.455   4.806 -13.395  0.00  0.00     0.388 C 
ATOM      2  O   UNL d   1      10.681   4.785 -13.274  0.00  0.00    -0.236 OA
ATOM      3  N   UNL d   1       8.588   5.680 -12.776  0.00  0.00    -0.210 NA
ENDROOT
BRANCH   1   4
ATOM      4  O   UNL d   1       8.729   3.970 -14.153  0.00  0.00    -0.258 OA
BRANCH   4   5
ATOM      5  C   UNL d   1       9.335   2.933 -14.834  0.00  0.00     0.105 A 
ATOM      6  C   UNL d   1       8.878   1.625 -14.587  0.00  0.00     0.025 A 
ATOM      7  C   UNL d   1       9.534   0.529 -15.189  0.00  0.00     0.002 A 
ATOM      8  C   UNL d   1      10.638   0.718 -16.048  0.00  0.00     0.002 A 
ATOM      9  C   UNL d   1      11.052   2.033 -16.378  0.00  0.00     0.025 A 
ATOM     10  C   UNL d   1      10.390   3.136 -15.762  0.00  0.00     0.027 A 
BRANCH   9  11
ATOM     11  C   UNL d   1      12.115   2.278 -17.362  0.00  0.00     0.104 A 
ATOM     12  C   UNL d   1      12.641   1.603 -18.453  0.00  0.00     0.084 A 
ATOM     13  C   UNL d   1      13.694   2.424 -18.956  0.00  0.00     0.027 A 
ATOM     14  C   UNL d   1      13.713   3.556 -18.195  0.00  0.00     0.078 A 
ATOM     15  C   UNL d   1      14.532   4.805 -18.211  0.00  0.00     0.058 C 
ATOM     16  O   UNL d   1      12.753   3.477 -17.236  0.00  0.00    -0.311 OA
BRANCH  12  17
ATOM     17  C   UNL d   1      12.243   0.245 -18.881  0.00  0.00     0.299 C 
ATOM     18  N   UNL d   1      10.979  -0.117 -18.684  0.00  0.00    -0.102 N 
ATOM     19  O   UNL d   1      13.046  -0.530 -19.408  0.00  0.00    -0.264 OA
ENDBRANCH  12  17
ENDBRANCH   9  11
ENDBRANCH   4   5
ENDBRANCH   1   4
BRANCH   3  20
ATOM     20  C   UNL d   1       9.018   6.652 -11.782  0.00  0.00     0.166 C 
BRANCH  20  21
ATOM     21  C   UNL d   1       9.330   5.962 -10.440  0.00  0.00     0.277 C 
BRANCH  21  22
ATOM     22  N   UNL d   1       9.459   6.952  -9.367  0.00  0.00     0.143 N 
ATOM     23  C   UNL d   1      10.839   7.410  -9.218  0.00  0.00     0.274 C 
ATOM     24  C   UNL d   1      10.948   8.473  -8.096  0.00  0.00     0.137 C 
ATOM     25  N   UNL d   1      10.385   7.947  -6.855  0.00  0.00    -0.344 N 
ATOM     26  C   UNL d   1       9.037   7.404  -6.972  0.00  0.00     0.137 C 
ATOM     27  C   UNL d   1       8.983   6.367  -8.106  0.00  0.00     0.274 C 
BRANCH  25  28
ATOM     28  C   UNL d   1      11.084   7.976  -5.647  0.00  0.00     0.056 A 
ATOM     29  C   UNL d   1      11.861   9.110  -5.311  0.00  0.00     0.017 A 
ATOM     30  C   UNL d   1      12.606   9.137  -4.113  0.00  0.00     0.002 A 
ATOM     31  C   UNL d   1      12.574   8.041  -3.237  0.00  0.00     0.000 A 
ATOM     32  C   UNL d   1      11.811   6.903  -3.559  0.00  0.00     0.002 A 
ATOM     33  C   UNL d   1      11.066   6.877  -4.760  0.00  0.00     0.017 A 
ENDBRANCH  25  28
ENDBRANCH  21  22
ENDBRANCH  20  21
ENDBRANCH   3  20
TORSDOF 8
