REMARK  2 active torsions:
REMARK  status: ('A' for Active; 'I' for Inactive)
REMARK    1  A    between atoms: N_14  and  C_15 
REMARK    2  A    between atoms: C_15  and  C_16 
ROOT
ATOM      1  C   UNL d   1       5.210   3.805 -12.495  0.00  0.00     0.031 C 
ATOM      2  C   UNL d   1       6.564   3.781 -13.172  0.00  0.00    -0.020 A 
ATOM      3  C   UNL d   1       7.496   4.804 -12.923  0.00  0.00    -0.004 A 
ATOM      4  C   UNL d   1       8.759   4.774 -13.543  0.00  0.00     0.001 A 
ATOM      5  C   UNL d   1       9.104   3.705 -14.405  0.00  0.00     0.019 A 
ATOM      6  C   UNL d   1      10.397   3.603 -15.090  0.00  0.00    -0.015 A 
ATOM      7  C   UNL d   1      10.645   2.591 -15.948  0.00  0.00     0.071 A 
ATOM      8  C   UNL d   1       9.639   1.520 -16.191  0.00  0.00     0.298 A 
ATOM      9  O   UNL d   1       9.849   0.570 -16.946  0.00  0.00    -0.259 OA
ATOM     10  O   UNL d   1       8.451   1.638 -15.516  0.00  0.00    -0.273 OA
ATOM     11  C   UNL d   1       8.166   2.682 -14.660  0.00  0.00     0.103 A 
ATOM     12  C   UNL d   1       6.898   2.727 -14.045  0.00  0.00     0.021 A 
ATOM     13  C   UNL d   1      11.954   2.490 -16.735  0.00  0.00     0.282 C 
ATOM     14  N   UNL d   1      12.717   3.743 -16.794  0.00  0.00     0.146 N 
ATOM     15  C   UNL d   1      12.811   4.318 -15.449  0.00  0.00     0.256 C 
ATOM     16  C   UNL d   1      11.437   4.679 -14.846  0.00  0.00     0.062 C 
ENDROOT
BRANCH  14  17
ATOM     17  C   UNL d   1      12.163   4.670 -17.788  0.00  0.00     0.277 C 
BRANCH  17  18
ATOM     18  C   UNL d   1      12.986   5.935 -17.986  0.00  0.00     0.011 A 
ATOM     19  C   UNL d   1      14.045   5.956 -18.920  0.00  0.00    -0.000 A 
ATOM     20  C   UNL d   1      14.808   7.131 -19.101  0.00  0.00     0.029 A 
ATOM     21  C   UNL d   1      14.524   8.283 -18.340  0.00  0.00     0.140 A 
ATOM     22  C   UNL d   1      13.473   8.262 -17.403  0.00  0.00     0.029 A 
ATOM     23  F   UNL d   1      15.258   9.409 -18.507  0.00  0.00    -0.204 F 
ATOM     24  C   UNL d   1      12.696   7.101 -17.239  0.00  0.00    -0.000 A 
ENDBRANCH  17  18
ENDBRANCH  14  17
TORSDOF 2
