REMARK  3 active torsions:
REMARK  status: ('A' for Active; 'I' for Inactive)
REMARK    1  A    between atoms: C_6  and  C_7 
REMARK    2  A    between atoms: C_7  and  N_8 
REMARK    3  A    between atoms: C_11  and  C_12 
ROOT
ATOM      1  N   UNL d   1       9.302   5.951 -11.652  0.00  0.00     0.146 N 
ATOM      2  C   UNL d   1       9.383   7.404 -11.501  0.00  0.00     0.277 C 
ATOM      3  C   UNL d   1       9.865   7.826 -10.123  0.00  0.00     0.007 C 
ATOM      4  C   UNL d   1       9.894   7.007  -9.055  0.00  0.00     0.001 C 
ATOM      5  C   UNL d   1       9.406   5.576  -9.229  0.00  0.00     0.064 C 
ATOM      6  C   UNL d   1       8.590   5.377 -10.519  0.00  0.00     0.256 C 
ENDROOT
BRANCH   4   7
ATOM      7  C   UNL d   1      10.347   7.478  -7.745  0.00  0.00     0.107 A 
ATOM      8  S   UNL d   1      10.536   9.186  -7.371  0.00  0.00    -0.067 SA
ATOM      9  C   UNL d   1      11.068   8.745  -5.759  0.00  0.00     0.049 A 
ATOM     10  C   UNL d   1      11.072   7.327  -5.644  0.00  0.00     0.088 A 
ATOM     11  C   UNL d   1      11.466   9.575  -4.700  0.00  0.00     0.008 A 
ATOM     12  N   UNL d   1      10.676   6.623  -6.772  0.00  0.00    -0.239 NA
ATOM     13  C   UNL d   1      11.505   6.783  -4.417  0.00  0.00     0.020 A 
ATOM     14  C   UNL d   1      11.919   7.601  -3.348  0.00  0.00     0.002 A 
ATOM     15  C   UNL d   1      11.900   9.003  -3.487  0.00  0.00     0.001 A 
ENDBRANCH   4   7
BRANCH   1  16
ATOM     16  C   UNL d   1       8.621   5.626 -12.896  0.00  0.00     0.277 C 
BRANCH  16  17
ATOM     17  C   UNL d   1       9.038   4.288 -13.478  0.00  0.00     0.012 A 
ATOM     18  C   UNL d   1      10.407   3.984 -13.645  0.00  0.00    -0.002 A 
ATOM     19  C   UNL d   1      10.803   2.758 -14.213  0.00  0.00     0.001 A 
ATOM     20  C   UNL d   1       9.832   1.822 -14.611  0.00  0.00     0.011 A 
ATOM     21  C   UNL d   1       8.464   2.119 -14.449  0.00  0.00     0.058 A 
ATOM     22 CL   UNL d   1       7.271   0.965 -14.918  0.00  0.00    -0.082 Cl
ATOM     23  C   UNL d   1       8.067   3.354 -13.895  0.00  0.00     0.009 A 
ENDBRANCH  16  17
ENDBRANCH   1  16
TORSDOF 3
