REMARK  3 active torsions:
REMARK  status: ('A' for Active; 'I' for Inactive)
REMARK    1  A    between atoms: C_5  and  N_6 
REMARK    2  A    between atoms: N_9  and  C_10 
REMARK    3  A    between atoms: C_10  and  C_11 
ROOT
ATOM      1  N   UNL d   1      10.134   8.220  -6.772  0.00  0.00    -0.344 N 
ATOM      2  C   UNL d   1      10.163   9.270  -7.763  0.00  0.00     0.137 C 
ATOM      3  C   UNL d   1      10.687   8.746  -9.098  0.00  0.00     0.275 C 
ATOM      4  N   UNL d   1       9.856   7.620  -9.518  0.00  0.00     0.149 N 
ATOM      5  C   UNL d   1       9.947   6.539  -8.530  0.00  0.00     0.275 C 
ATOM      6  C   UNL d   1       9.418   7.020  -7.169  0.00  0.00     0.137 C 
ENDROOT
BRANCH   4   7
ATOM      7  C   UNL d   1      10.309   7.157 -10.822  0.00  0.00     0.315 C 
BRANCH   7   8
ATOM      8  C   UNL d   1       9.379   6.234 -11.536  0.00  0.00     0.173 A 
ATOM      9  N   UNL d   1       8.054   6.361 -11.394  0.00  0.00    -0.227 NA
ATOM     10  C   UNL d   1       7.461   5.377 -12.162  0.00  0.00     0.100 A 
ATOM     11  C   UNL d   1       8.560   4.714 -12.777  0.00  0.00     0.100 A 
ATOM     12  C   UNL d   1       6.135   4.986 -12.390  0.00  0.00     0.021 A 
ATOM     13  N   UNL d   1       9.768   5.271 -12.382  0.00  0.00    -0.227 NA
ATOM     14  C   UNL d   1       8.281   3.632 -13.645  0.00  0.00     0.021 A 
ATOM     15  C   UNL d   1       6.946   3.234 -13.889  0.00  0.00     0.002 A 
ATOM     16  C   UNL d   1       5.879   3.910 -13.257  0.00  0.00     0.002 A 
ENDBRANCH   7   8
ENDBRANCH   4   7
BRANCH   1  17
ATOM     17  C   UNL d   1      10.784   8.390  -5.537  0.00  0.00     0.056 A 
ATOM     18  C   UNL d   1      10.819   9.659  -4.909  0.00  0.00     0.017 A 
ATOM     19  C   UNL d   1      11.437   9.826  -3.657  0.00  0.00    -0.003 A 
ATOM     20  C   UNL d   1      12.021   8.730  -3.003  0.00  0.00    -0.026 A 
ATOM     21  C   UNL d   1      12.646   8.946  -1.640  0.00  0.00     0.031 C 
ATOM     22  C   UNL d   1      11.998   7.460  -3.617  0.00  0.00    -0.024 A 
ATOM     23  C   UNL d   1      11.387   7.296  -4.883  0.00  0.00     0.012 A 
ATOM     24  C   UNL d   1      12.654   6.279  -2.961  0.00  0.00     0.031 C 
ENDBRANCH   1  17
TORSDOF 3
