REMARK  3 active torsions:
REMARK  status: ('A' for Active; 'I' for Inactive)
REMARK    1  A    between atoms: C_7  and  N_8 
REMARK    2  A    between atoms: C_14  and  C_15 
REMARK    3  A    between atoms: C_15  and  N_16 
ROOT
ATOM      1  O   UNL d   1      11.088   4.845 -14.113  0.00  0.00    -0.259 OA
ATOM      2  C   UNL d   1      10.020   4.234 -14.077  0.00  0.00     0.298 A 
ATOM      3  O   UNL d   1       9.853   3.071 -14.790  0.00  0.00    -0.273 OA
ATOM      4  C   UNL d   1       8.682   2.346 -14.795  0.00  0.00     0.103 A 
ATOM      5  C   UNL d   1       8.616   1.152 -15.540  0.00  0.00     0.026 A 
ATOM      6  C   UNL d   1       7.434   0.389 -15.545  0.00  0.00     0.026 A 
ATOM      7  C   UNL d   1       6.313   0.795 -14.787  0.00  0.00     0.127 A 
ATOM      8  C   UNL d   1       6.382   1.990 -14.040  0.00  0.00     0.025 A 
ATOM      9  C   UNL d   1       7.560   2.767 -14.054  0.00  0.00     0.025 A 
ATOM     10  C   UNL d   1       7.695   4.004 -13.295  0.00  0.00     0.005 A 
ATOM     11  C   UNL d   1       8.848   4.699 -13.278  0.00  0.00     0.074 A 
ENDROOT
BRANCH  11  12
ATOM     12  C   UNL d   1       9.022   5.999 -12.503  0.00  0.00     0.282 C 
BRANCH  12  13
ATOM     13  N   UNL d   1       9.375   5.753 -11.108  0.00  0.00     0.142 N 
ATOM     14  C   UNL d   1       8.243   5.281 -10.318  0.00  0.00     0.251 C 
ATOM     15  C   UNL d   1       8.700   5.459  -8.874  0.00  0.00     0.037 C 
ATOM     16  C   UNL d   1       9.718   6.592  -8.946  0.00  0.00     0.037 C 
ATOM     17  C   UNL d   1       9.767   6.979 -10.425  0.00  0.00     0.251 C 
ENDBRANCH  12  13
ENDBRANCH  11  12
BRANCH   7  18
ATOM     18  N   UNL d   1       5.088  -0.021 -14.783  0.00  0.00    -0.114 N 
ATOM     19  O   UNL d   1       4.397  -0.011 -13.771  0.00  0.00    -0.532 OA
ATOM     20  O   UNL d   1       4.825  -0.661 -15.796  0.00  0.00    -0.532 OA
ENDBRANCH   7  18
TORSDOF 3
