REMARK  7 active torsions:
REMARK  status: ('A' for Active; 'I' for Inactive)
REMARK    1  A    between atoms: C_2  and  C_3 
REMARK    2  A    between atoms: C_2  and  C_21 
REMARK    3  A    between atoms: C_3  and  C_4 
REMARK    4  A    between atoms: C_4  and  C_5 
REMARK    5  A    between atoms: C_5  and  C_6 
REMARK    6  A    between atoms: C_6  and  N_7 
REMARK    7  A    between atoms: N_11  and  C_12 
ROOT
ATOM      1  C   UNL d   1      10.772   3.721 -14.776  0.00  0.00     0.250 C 
ENDROOT
BRANCH   1   2
ATOM      2  C   UNL d   1      10.296   2.846 -15.940  0.00  0.00     0.036 C 
BRANCH   2   3
ATOM      3  C   UNL d   1      11.414   1.949 -16.506  0.00  0.00     0.010 C 
BRANCH   3   4
ATOM      4  C   UNL d   1      10.933   0.984 -17.614  0.00  0.00     0.071 C 
BRANCH   4   5
ATOM      5  C   UNL d   1       9.772   0.089 -17.160  0.00  0.00     0.197 C 
ATOM      6  O   UNL d   1       9.890  -0.619 -16.161  0.00  0.00    -0.289 OA
BRANCH   5   7
ATOM      7  C   UNL d   1       8.484   0.197 -17.896  0.00  0.00     0.145 A 
ATOM      8  S   UNL d   1       6.990  -0.218 -17.042  0.00  0.00    -0.064 SA
ATOM      9  C   UNL d   1       6.102   0.109 -18.521  0.00  0.00     0.049 A 
ATOM     10  C   UNL d   1       7.003   0.556 -19.530  0.00  0.00     0.088 A 
ATOM     11  C   UNL d   1       4.724  -0.010 -18.768  0.00  0.00     0.008 A 
ATOM     12  N   UNL d   1       8.343   0.624 -19.157  0.00  0.00    -0.236 NA
ATOM     13  C   UNL d   1       6.469   0.896 -20.790  0.00  0.00     0.020 A 
ATOM     14  C   UNL d   1       5.089   0.788 -21.045  0.00  0.00     0.002 A 
ATOM     15  C   UNL d   1       4.223   0.353 -20.029  0.00  0.00     0.001 A 
ENDBRANCH   5   7
ENDBRANCH   4   5
ENDBRANCH   3   4
ENDBRANCH   2   3
ENDBRANCH   1   2
BRANCH   1  16
ATOM     16  N   UNL d   1       9.630   4.393 -14.155  0.00  0.00     0.139 N 
ATOM     17  C   UNL d   1      10.140   5.534 -13.406  0.00  0.00     0.274 C 
ATOM     18  C   UNL d   1       9.053   6.441 -12.810  0.00  0.00     0.137 C 
ATOM     19  N   UNL d   1       8.618   5.919 -11.514  0.00  0.00    -0.346 N 
ATOM     20  C   UNL d   1       7.595   4.863 -11.521  0.00  0.00     0.103 C 
ATOM     21  C   UNL d   1       7.553   4.037 -12.816  0.00  0.00     0.059 C 
ATOM     22  C   UNL d   1       8.923   3.482 -13.244  0.00  0.00     0.252 C 
BRANCH  19  23
ATOM     23  C   UNL d   1       9.176   6.369 -10.294  0.00  0.00     0.056 A 
ATOM     24  C   UNL d   1       8.700   5.908  -9.029  0.00  0.00     0.018 A 
ATOM     25  C   UNL d   1       9.227   6.380  -7.815  0.00  0.00     0.013 A 
ATOM     26  C   UNL d   1      10.265   7.328  -7.812  0.00  0.00     0.058 A 
ATOM     27  C   UNL d   1      10.764   7.803  -9.033  0.00  0.00     0.013 A 
ATOM     28 CL   UNL d   1      10.922   7.896  -6.322  0.00  0.00    -0.082 Cl
ATOM     29  C   UNL d   1      10.235   7.334 -10.246  0.00  0.00     0.018 A 
ENDBRANCH  19  23
ENDBRANCH   1  16
TORSDOF 7
