REMARK  11 active torsions:
REMARK  status: ('A' for Active; 'I' for Inactive)
REMARK    1  A    between atoms: S_2  and  C_3 
REMARK    2  A    between atoms: S_2  and  C_22 
REMARK    3  A    between atoms: C_3  and  C_4 
REMARK    4  A    between atoms: C_4  and  N_5 
REMARK    5  A    between atoms: N_5  and  C_6 
REMARK    6  A    between atoms: N_9  and  C_10 
REMARK    7  A    between atoms: C_10  and  C_11 
REMARK    8  A    between atoms: C_11  and  C_13 
REMARK    9  A    between atoms: C_13  and  C_14 
REMARK   10  A    between atoms: C_22  and  C_23 
REMARK   11  A    between atoms: C_22  and  C_30 
ROOT
ATOM      1  C   UNL d   1       9.471   3.612 -13.687  0.00  0.00     0.131 C 
ENDROOT
BRANCH   1   2
ATOM      2  S   UNL d   1      10.641   4.766 -14.557  0.00  0.00     0.051 S 
ATOM      3  O   UNL d   1      12.057   4.237 -14.326  0.00  0.00    -0.256 OA
BRANCH   2   4
ATOM      4  C   UNL d   1      10.130   4.390 -16.308  0.00  0.00     0.124 C 
BRANCH   4   5
ATOM      5  C   UNL d   1      10.168   2.884 -16.580  0.00  0.00    -0.006 A 
ATOM      6  C   UNL d   1       8.963   2.139 -16.596  0.00  0.00    -0.001 A 
ATOM      7  C   UNL d   1       8.987   0.748 -16.833  0.00  0.00     0.029 A 
ATOM      8  C   UNL d   1      10.208   0.091 -17.074  0.00  0.00     0.140 A 
ATOM      9  C   UNL d   1      11.407   0.826 -17.066  0.00  0.00     0.029 A 
ATOM     10  F   UNL d   1      10.239  -1.244 -17.306  0.00  0.00    -0.204 F 
ATOM     11  C   UNL d   1      11.392   2.203 -16.802  0.00  0.00    -0.001 A 
ENDBRANCH   4   5
BRANCH   4  12
ATOM     12  C   UNL d   1      10.910   5.240 -17.317  0.00  0.00    -0.006 A 
ATOM     13  C   UNL d   1      10.212   5.997 -18.285  0.00  0.00    -0.001 A 
ATOM     14  C   UNL d   1      10.922   6.747 -19.250  0.00  0.00     0.029 A 
ATOM     15  C   UNL d   1      12.328   6.723 -19.274  0.00  0.00     0.140 A 
ATOM     16  C   UNL d   1      13.029   5.968 -18.315  0.00  0.00     0.029 A 
ATOM     17  F   UNL d   1      13.011   7.427 -20.208  0.00  0.00    -0.204 F 
ATOM     18  C   UNL d   1      12.328   5.264 -17.325  0.00  0.00    -0.001 A 
ENDBRANCH   4  12
ENDBRANCH   2   4
ENDBRANCH   1   2
BRANCH   1  19
ATOM     19  C   UNL d   1       9.438   4.037 -12.222  0.00  0.00     0.304 C 
BRANCH  19  20
ATOM     20  N   UNL d   1       8.200   4.771 -11.921  0.00  0.00     0.338 N 
BRANCH  20  21
ATOM     21  C   UNL d   1       8.385   5.925 -11.051  0.00  0.00     0.261 C 
ATOM     22  C   UNL d   1       8.918   5.492  -9.673  0.00  0.00     0.071 C 
ATOM     23  C   UNL d   1       9.239   6.700  -8.813  0.00  0.00     0.252 C 
ATOM     24  N   UNL d   1      10.185   7.627  -9.471  0.00  0.00     0.140 N 
ATOM     25  C   UNL d   1       9.627   8.139 -10.738  0.00  0.00     0.252 C 
ATOM     26  C   UNL d   1       9.266   7.013 -11.706  0.00  0.00     0.071 C 
BRANCH  24  27
ATOM     27  C   UNL d   1      10.544   8.734  -8.610  0.00  0.00     0.283 C 
BRANCH  27  28
ATOM     28  C   UNL d   1      11.379   8.397  -7.360  0.00  0.00     0.190 C 
ATOM     29  O   UNL d   1      11.921   9.645  -7.023  0.00  0.00    -0.221 OA
BRANCH  28  30
ATOM     30  C   UNL d   1      10.545   7.859  -6.165  0.00  0.00     0.061 C 
BRANCH  30  31
ATOM     31  C   UNL d   1      11.223   7.936  -4.819  0.00  0.00    -0.020 A 
ATOM     32  C   UNL d   1      11.537   6.763  -4.119  0.00  0.00    -0.004 A 
ATOM     33  C   UNL d   1      12.114   6.805  -2.830  0.00  0.00    -0.000 A 
ATOM     34  C   UNL d   1      12.388   8.051  -2.244  0.00  0.00    -0.000 A 
ATOM     35  C   UNL d   1      12.057   9.242  -2.939  0.00  0.00    -0.000 A 
ATOM     36  C   UNL d   1      11.462   9.194  -4.186  0.00  0.00    -0.004 A 
ENDBRANCH  30  31
ENDBRANCH  28  30
ENDBRANCH  27  28
ENDBRANCH  24  27
ENDBRANCH  20  21
ENDBRANCH  19  20
ENDBRANCH   1  19
TORSDOF 11
