REMARK  7 active torsions:
REMARK  status: ('A' for Active; 'I' for Inactive)
REMARK    1  A    between atoms: C_6  and  N_7 
REMARK    2  A    between atoms: N_10  and  C_11 
REMARK    3  A    between atoms: C_11  and  C_12 
REMARK    4  A    between atoms: C_12  and  C_13 
REMARK    5  A    between atoms: C_13  and  C_14 
REMARK    6  A    between atoms: C_14  and  N_15 
REMARK    7  A    between atoms: N_15  and  C_16 
ROOT
ATOM      1  N   UNL d   1       8.636   4.576 -12.797  0.00  0.00    -0.344 N 
ATOM      2  C   UNL d   1       8.349   5.970 -13.028  0.00  0.00     0.137 C 
ATOM      3  C   UNL d   1       8.242   6.696 -11.662  0.00  0.00     0.274 C 
ATOM      4  N   UNL d   1       9.467   6.501 -10.891  0.00  0.00     0.141 N 
ATOM      5  C   UNL d   1       9.578   5.071 -10.628  0.00  0.00     0.274 C 
ATOM      6  C   UNL d   1       9.774   4.301 -11.963  0.00  0.00     0.137 C 
ENDROOT
BRANCH   4   7
ATOM      7  C   UNL d   1       9.336   7.219  -9.625  0.00  0.00     0.251 C 
BRANCH   7   8
ATOM      8  C   UNL d   1      10.616   7.366  -8.799  0.00  0.00     0.037 C 
BRANCH   8   9
ATOM      9  C   UNL d   1      10.342   8.189  -7.531  0.00  0.00     0.028 C 
BRANCH   9  10
ATOM     10  C   UNL d   1      11.619   8.882  -7.068  0.00  0.00     0.127 C 
BRANCH  10  11
ATOM     11  N   UNL d   1      11.460   9.492  -5.762  0.00  0.00    -0.253 NA
BRANCH  11  12
ATOM     12  C   UNL d   1      11.742   8.766  -4.593  0.00  0.00     0.158 A 
ATOM     13  N   UNL d   1      11.887   9.530  -3.503  0.00  0.00    -0.226 NA
ATOM     14  C   UNL d   1      12.227   8.950  -2.337  0.00  0.00     0.101 A 
ATOM     15  C   UNL d   1      12.316   7.564  -2.183  0.00  0.00     0.021 A 
ATOM     16  C   UNL d   1      12.122   6.751  -3.306  0.00  0.00     0.005 A 
ATOM     17  C   UNL d   1      11.835   7.363  -4.544  0.00  0.00     0.038 A 
ENDBRANCH  11  12
ENDBRANCH  10  11
ENDBRANCH   9  10
ENDBRANCH   8   9
ENDBRANCH   7   8
ENDBRANCH   4   7
BRANCH   1  18
ATOM     18  C   UNL d   1       7.962   3.582 -13.497  0.00  0.00     0.068 C 
ATOM     19  C   UNL d   1       6.603   3.433 -13.198  0.00  0.00     0.018 C 
ATOM     20  C   UNL d   1       5.895   2.299 -13.632  0.00  0.00     0.002 C 
ATOM     21  C   UNL d   1       6.521   1.392 -14.518  0.00  0.00     0.012 C 
ATOM     22  C   UNL d   1       7.875   1.552 -14.865  0.00  0.00     0.070 C 
ATOM     23 CL   UNL d   1       8.626   0.390 -15.899  0.00  0.00    -0.081 Cl
ATOM     24  C   UNL d   1       8.619   2.636 -14.332  0.00  0.00     0.084 C 
ATOM     25 CL   UNL d   1      10.311   2.760 -14.704  0.00  0.00    -0.080 Cl
ENDBRANCH   1  18
TORSDOF 7
