REMARK  4 active torsions:
REMARK  status: ('A' for Active; 'I' for Inactive)
REMARK    1  A    between atoms: C_8  and  C_9 
REMARK    2  A    between atoms: C_9  and  C_10 
REMARK    3  A    between atoms: C_10  and  N_11 
REMARK    4  A    between atoms: C_14  and  C_15 
ROOT
ATOM      1  N   UNL d   1       9.153   6.086  -9.194  0.00  0.00     0.137 N 
ATOM      2  C   UNL d   1      10.604   6.201  -9.132  0.00  0.00     0.251 C 
ATOM      3  C   UNL d   1      11.045   7.232  -8.102  0.00  0.00     0.040 C 
ATOM      4  C   UNL d   1      10.515   6.864  -6.710  0.00  0.00     0.026 C 
ATOM      5  C   UNL d   1       9.001   6.599  -6.789  0.00  0.00     0.040 C 
ATOM      6  C   UNL d   1       8.656   5.604  -7.908  0.00  0.00     0.251 C 
ENDROOT
BRANCH   1   7
ATOM      7  C   UNL d   1       8.792   5.129 -10.230  0.00  0.00     0.255 C 
BRANCH   7   8
ATOM      8  C   UNL d   1       8.848   5.760 -11.634  0.00  0.00     0.068 C 
BRANCH   8   9
ATOM      9  C   UNL d   1       8.680   4.712 -12.736  0.00  0.00     0.050 A 
ATOM     10  C   UNL d   1       7.476   4.170 -13.057  0.00  0.00     0.061 A 
ATOM     11  C   UNL d   1       6.178   4.551 -12.370  0.00  0.00     0.052 C 
ATOM     12  N   UNL d   1       7.367   3.186 -14.042  0.00  0.00    -0.234 NA
ATOM     13  C   UNL d   1       8.418   2.779 -14.678  0.00  0.00     0.153 A 
ATOM     14  C   UNL d   1       8.304   1.680 -15.750  0.00  0.00     0.208 C 
ATOM     15  N   UNL d   1       9.713   3.294 -14.401  0.00  0.00    -0.283 N 
ATOM     16  C   UNL d   1       9.490   1.562 -16.708  0.00  0.00     0.043 C 
ATOM     17  O   UNL d   1       7.154   1.878 -16.555  0.00  0.00    -0.215 OA
ATOM     18  C   UNL d   1      10.780   1.541 -15.910  0.00  0.00     0.028 C 
ATOM     19  C   UNL d   1      10.913   2.868 -15.167  0.00  0.00     0.111 C 
ATOM     20  C   UNL d   1       9.887   4.282 -13.474  0.00  0.00     0.259 A 
ATOM     21  O   UNL d   1      10.993   4.786 -13.291  0.00  0.00    -0.267 OA
ENDBRANCH   8   9
ENDBRANCH   7   8
ENDBRANCH   1   7
BRANCH   4  22
ATOM     22  C   UNL d   1      10.845   7.940  -5.683  0.00  0.00    -0.022 A 
ATOM     23  C   UNL d   1      11.511   7.649  -4.465  0.00  0.00     0.003 A 
ATOM     24  C   UNL d   1      11.765   8.718  -3.562  0.00  0.00     0.029 A 
ATOM     25  C   UNL d   1      12.012   6.420  -3.915  0.00  0.00     0.007 A 
ATOM     26  C   UNL d   1      11.339  10.002  -3.851  0.00  0.00     0.006 A 
ATOM     27  S   UNL d   1      12.579   8.223  -2.107  0.00  0.00    -0.086 SA
ATOM     28  C   UNL d   1      10.675  10.267  -5.051  0.00  0.00     0.000 A 
ATOM     29  C   UNL d   1      10.430   9.247  -5.973  0.00  0.00    -0.004 A 
ATOM     30  C   UNL d   1      12.585   6.589  -2.681  0.00  0.00     0.035 A 
ENDBRANCH   4  22
TORSDOF 4
