REMARK  8 active torsions:
REMARK  status: ('A' for Active; 'I' for Inactive)
REMARK    1  A    between atoms: C_2  and  C_3 
REMARK    2  A    between atoms: C_7  and  N_8 
REMARK    3  A    between atoms: N_11  and  C_12 
REMARK    4  A    between atoms: C_12  and  C_13 
REMARK    5  A    between atoms: C_13  and  C_15 
REMARK    6  A    between atoms: C_15  and  C_16 
REMARK    7  A    between atoms: C_16  and  N_17 
REMARK       I    between atoms: N_17  and  C_18 
REMARK    8  A    between atoms: C_18  and  C_20 
ROOT
ATOM      1  C   UNL d   1       8.489   2.785 -15.639  0.00  0.00     0.285 C 
ENDROOT
BRANCH   1   2
ATOM      2  N   UNL d   1       9.666   2.040 -16.052  0.00  0.00     0.144 N 
ATOM      3  C   UNL d   1       9.554   1.754 -17.491  0.00  0.00     0.274 C 
ATOM      4  C   UNL d   1      10.754   0.930 -17.966  0.00  0.00     0.137 C 
ATOM      5  N   UNL d   1      11.978   1.642 -17.650  0.00  0.00    -0.344 N 
ATOM      6  C   UNL d   1      12.131   2.073 -16.274  0.00  0.00     0.137 C 
ATOM      7  C   UNL d   1      10.883   2.842 -15.824  0.00  0.00     0.274 C 
BRANCH   5   8
ATOM      8  C   UNL d   1      12.987   1.865 -18.612  0.00  0.00     0.067 A 
ATOM      9  C   UNL d   1      13.509   3.173 -18.753  0.00  0.00     0.018 A 
ATOM     10  C   UNL d   1      14.512   3.449 -19.695  0.00  0.00     0.001 A 
ATOM     11  C   UNL d   1      15.020   2.417 -20.501  0.00  0.00    -0.003 A 
ATOM     12  C   UNL d   1      14.526   1.105 -20.371  0.00  0.00    -0.010 A 
ATOM     13  C   UNL d   1      13.511   0.826 -19.432  0.00  0.00     0.069 A 
ATOM     14 CL   UNL d   1      12.975  -0.814 -19.236  0.00  0.00    -0.081 Cl
BRANCH  12  15
ATOM     15  C   UNL d   1      15.105   0.002 -21.242  0.00  0.00     0.027 C 
ATOM     16  C   UNL d   1      16.258  -0.737 -20.554  0.00  0.00     0.005 C 
ENDBRANCH  12  15
ENDBRANCH   5   8
ENDBRANCH   1   2
BRANCH   1  17
ATOM     17  C   UNL d   1       8.111   2.487 -14.177  0.00  0.00     0.196 C 
ATOM     18  F   UNL d   1       6.775   2.393 -14.135  0.00  0.00    -0.235 F 
BRANCH  17  19
ATOM     19  C   UNL d   1       8.585   3.570 -13.202  0.00  0.00     0.064 C 
BRANCH  19  20
ATOM     20  C   UNL d   1       7.492   4.322 -12.387  0.00  0.00     0.132 C 
BRANCH  20  21
ATOM     21  N   UNL d   1       8.009   5.131 -11.286  0.00  0.00    -0.233 NA
ATOM     22  C   UNL d   1       9.130   5.867 -11.296  0.00  0.00     0.293 C 
ATOM     23  O   UNL d   1       9.809   6.040 -12.293  0.00  0.00    -0.264 OA
BRANCH  22  24
ATOM     24  C   UNL d   1       9.524   6.472 -10.022  0.00  0.00     0.139 A 
ATOM     25  N   UNL d   1      10.611   7.334 -10.021  0.00  0.00    -0.241 NA
ATOM     26  C   UNL d   1      10.838   7.825  -8.752  0.00  0.00     0.082 A 
ATOM     27  C   UNL d   1       9.860   7.197  -7.923  0.00  0.00     0.019 A 
ATOM     28  C   UNL d   1      11.780   8.733  -8.247  0.00  0.00     0.019 A 
ATOM     29  C   UNL d   1       9.064   6.330  -8.740  0.00  0.00     0.025 A 
ATOM     30  C   UNL d   1       9.870   7.531  -6.550  0.00  0.00     0.002 A 
ATOM     31  C   UNL d   1      10.807   8.446  -6.031  0.00  0.00     0.000 A 
ATOM     32  C   UNL d   1      11.761   9.049  -6.875  0.00  0.00     0.002 A 
ENDBRANCH  22  24
ENDBRANCH  20  21
ENDBRANCH  19  20
ENDBRANCH  17  19
ENDBRANCH   1  17
TORSDOF 8
