REMARK  4 active torsions:
REMARK  status: ('A' for Active; 'I' for Inactive)
REMARK    1  A    between atoms: C_11  and  C_12 
REMARK    2  A    between atoms: C_12  and  C_13 
REMARK    3  A    between atoms: C_13  and  N_14 
REMARK    4  A    between atoms: N_17  and  C_18 
ROOT
ATOM      1  C   UNL d   1       8.939   6.117  -9.292  0.00  0.00     0.251 C 
ENDROOT
BRANCH   1   2
ATOM      2  C   UNL d   1       9.178   6.164 -10.818  0.00  0.00     0.038 C 
BRANCH   2   3
ATOM      3  C   UNL d   1       8.920   4.800 -11.514  0.00  0.00     0.041 C 
ATOM      4  C   UNL d   1       7.455   4.436 -11.929  0.00  0.00     0.174 C 
ATOM      5  O   UNL d   1       6.617   5.574 -12.069  0.00  0.00    -0.219 OA
ATOM      6  C   UNL d   1       7.644   3.704 -13.245  0.00  0.00     0.004 A 
ATOM      7  C   UNL d   1       8.958   3.757 -13.678  0.00  0.00    -0.021 A 
ATOM      8  C   UNL d   1       6.674   2.983 -13.963  0.00  0.00     0.000 A 
ATOM      9  C   UNL d   1       9.375   3.110 -14.856  0.00  0.00     0.025 A 
ATOM     10  C   UNL d   1       9.820   4.544 -12.741  0.00  0.00     0.029 C 
ATOM     11  C   UNL d   1       8.408   2.394 -15.595  0.00  0.00     0.140 A 
ATOM     12  C   UNL d   1       7.066   2.319 -15.144  0.00  0.00     0.029 A 
ATOM     13  F   UNL d   1       8.758   1.820 -16.768  0.00  0.00    -0.204 F 
ENDBRANCH   2   3
ENDBRANCH   1   2
BRANCH   1  14
ATOM     14  N   UNL d   1      10.027   6.830  -8.624  0.00  0.00     0.141 N 
ATOM     15  C   UNL d   1      10.625   5.946  -7.636  0.00  0.00     0.274 C 
ATOM     16  C   UNL d   1      11.808   6.613  -6.930  0.00  0.00     0.138 C 
ATOM     17  N   UNL d   1      11.363   7.857  -6.315  0.00  0.00    -0.330 N 
ATOM     18  C   UNL d   1      10.678   8.768  -7.232  0.00  0.00     0.138 C 
ATOM     19  C   UNL d   1       9.528   8.030  -7.947  0.00  0.00     0.274 C 
BRANCH  17  20
ATOM     20  C   UNL d   1      11.591   8.141  -4.959  0.00  0.00     0.140 A 
ATOM     21  N   UNL d   1      11.849   7.090  -4.136  0.00  0.00    -0.227 NA
ATOM     22  C   UNL d   1      12.104   7.324  -2.838  0.00  0.00     0.101 A 
ATOM     23  C   UNL d   1      12.127   8.612  -2.284  0.00  0.00     0.021 A 
ATOM     24  C   UNL d   1      11.860   9.700  -3.124  0.00  0.00     0.005 A 
ATOM     25  C   UNL d   1      11.601   9.472  -4.489  0.00  0.00     0.037 A 
ENDBRANCH  17  20
ENDBRANCH   1  14
TORSDOF 4
