REMARK  6 active torsions:
REMARK  status: ('A' for Active; 'I' for Inactive)
REMARK       I    between atoms: C_2  and  N_3 
REMARK    1  A    between atoms: C_2  and  C_27 
REMARK    2  A    between atoms: N_3  and  C_4 
REMARK    3  A    between atoms: C_7  and  C_8 
REMARK    4  A    between atoms: C_8  and  C_9 
REMARK    5  A    between atoms: C_9  and  N_10 
REMARK    6  A    between atoms: N_13  and  C_14 
ROOT
ATOM      1  C   UNL d   1       8.359   3.987 -14.293  0.00  0.00     0.250 C 
ENDROOT
BRANCH   1   2
ATOM      2  C   UNL d   1       8.398   3.765 -12.761  0.00  0.00     0.035 C 
BRANCH   2   3
ATOM      3  C   UNL d   1       8.378   5.060 -11.886  0.00  0.00     0.002 C 
ATOM      4  C   UNL d   1       8.748   4.705 -10.434  0.00  0.00     0.002 C 
ATOM      5  C   UNL d   1       8.876   5.938  -9.543  0.00  0.00     0.024 C 
ATOM      6  C   UNL d   1       9.877   6.963 -10.121  0.00  0.00     0.106 C 
ATOM      7  C   UNL d   1       9.473   7.360 -11.532  0.00  0.00     0.024 C 
ATOM      8  C   UNL d   1       9.367   6.115 -12.380  0.00  0.00     0.002 C 
BRANCH   6   9
ATOM      9  N   UNL d   1       9.894   8.163  -9.311  0.00  0.00    -0.240 NA
ATOM     10  C   UNL d   1      10.872   8.435  -8.446  0.00  0.00     0.251 C 
ATOM     11  O   UNL d   1      11.999   7.922  -8.505  0.00  0.00    -0.271 OA
BRANCH  10  12
ATOM     12  C   UNL d   1      10.475   9.347  -7.288  0.00  0.00     0.083 C 
ATOM     13  C   UNL d   1      10.285   8.550  -5.984  0.00  0.00     0.026 C 
ATOM     14  C   UNL d   1      11.089   9.618  -5.243  0.00  0.00     0.081 C 
ATOM     15  C   UNL d   1      11.631  10.092  -6.591  0.00  0.00     0.026 C 
ATOM     16 CL   UNL d   1      12.219   9.158  -3.895  0.00  0.00    -0.115 Cl
ENDBRANCH  10  12
ENDBRANCH   6   9
ENDBRANCH   2   3
ENDBRANCH   1   2
BRANCH   1  17
ATOM     17  N   UNL d   1       9.403   3.240 -15.030  0.00  0.00     0.141 N 
ATOM     18  C   UNL d   1      10.799   3.558 -14.654  0.00  0.00     0.274 C 
ATOM     19  C   UNL d   1      11.112   5.068 -14.951  0.00  0.00     0.137 C 
ATOM     20  N   UNL d   1      10.880   5.260 -16.369  0.00  0.00    -0.343 N 
ATOM     21  C   UNL d   1       9.545   4.945 -16.870  0.00  0.00     0.137 C 
ATOM     22  C   UNL d   1       9.259   3.470 -16.482  0.00  0.00     0.274 C 
BRANCH  20  23
ATOM     23  C   UNL d   1      11.797   6.034 -17.136  0.00  0.00     0.081 A 
ATOM     24  C   UNL d   1      11.899   5.828 -18.519  0.00  0.00     0.135 A 
ATOM     25  C   UNL d   1      12.823   6.485 -19.273  0.00  0.00     0.121 A 
ATOM     26  O   UNL d   1      11.201   4.955 -19.297  0.00  0.00    -0.298 OA
ATOM     27  C   UNL d   1      13.722   7.414 -18.701  0.00  0.00     0.026 A 
ATOM     28  O   UNL d   1      12.738   6.067 -20.567  0.00  0.00    -0.299 OA
ATOM     29  C   UNL d   1      13.622   7.660 -17.306  0.00  0.00     0.004 A 
ATOM     30  C   UNL d   1      12.650   6.981 -16.537  0.00  0.00     0.019 A 
ATOM     31  C   UNL d   1      11.698   5.121 -20.586  0.00  0.00     0.304 A 
ENDBRANCH  20  23
ENDBRANCH   1  17
TORSDOF 6
