REMARK  4 active torsions:
REMARK  status: ('A' for Active; 'I' for Inactive)
REMARK       I    between atoms: C_2  and  N_4 
REMARK    1  A    between atoms: N_4  and  C_5 
REMARK    2  A    between atoms: C_9  and  C_10 
REMARK    3  A    between atoms: N_13  and  S_14 
REMARK    4  A    between atoms: S_14  and  C_17 
ROOT
ATOM      1  C   UNL d   1       7.566   2.643 -14.824  0.00  0.00     0.034 A 
ATOM      2  C   UNL d   1       7.238   3.637 -13.928  0.00  0.00     0.054 A 
ATOM      3  C   UNL d   1       5.937   3.900 -13.193  0.00  0.00     0.051 C 
ATOM      4  N   UNL d   1       8.342   4.490 -13.787  0.00  0.00    -0.236 N 
ATOM      5  C   UNL d   1       9.395   4.060 -14.600  0.00  0.00     0.074 A 
ATOM      6  C   UNL d   1      10.709   4.537 -14.841  0.00  0.00     0.018 A 
ATOM      7  C   UNL d   1      11.553   3.867 -15.742  0.00  0.00     0.002 A 
ATOM      8  C   UNL d   1      11.077   2.743 -16.437  0.00  0.00     0.000 A 
ATOM      9  C   UNL d   1       9.771   2.275 -16.207  0.00  0.00     0.002 A 
ATOM     10  C   UNL d   1       8.911   2.900 -15.271  0.00  0.00     0.019 A 
ENDROOT
BRANCH   1  11
ATOM     11  C   UNL d   1       6.761   1.522 -15.301  0.00  0.00     0.115 A 
ATOM     12  C   UNL d   1       5.980   0.605 -14.613  0.00  0.00     0.096 A 
ATOM     13  N   UNL d   1       5.422  -0.202 -15.600  0.00  0.00    -0.062 NA
ATOM     14  C   UNL d   1       5.694   0.380 -13.150  0.00  0.00     0.054 C 
ATOM     15  C   UNL d   1       5.872   0.221 -16.785  0.00  0.00     0.752 A 
ATOM     16  N   UNL d   1       6.693   1.259 -16.679  0.00  0.00    -0.058 NA
BRANCH  15  17
ATOM     17  N   UNL d   1       5.469  -0.444 -17.974  0.00  0.00    -0.023 NA
ATOM     18  C   UNL d   1       5.632  -0.031 -19.243  0.00  0.00     0.273 C 
ATOM     19  C   UNL d   1       5.079  -0.966 -20.313  0.00  0.00     0.101 C 
ATOM     20  O   UNL d   1       6.172   1.025 -19.573  0.00  0.00    -0.270 OA
ENDBRANCH  15  17
ENDBRANCH   1  11
BRANCH   4  21
ATOM     21  S   UNL d   1       8.334   5.862 -12.715  0.00  0.00     0.271 S 
ATOM     22  O   UNL d   1       9.620   6.578 -12.876  0.00  0.00    -0.200 OA
ATOM     23  O   UNL d   1       7.043   6.536 -12.758  0.00  0.00    -0.200 OA
BRANCH  21  24
ATOM     24  C   UNL d   1       8.582   5.174 -11.143  0.00  0.00     0.104 C 
ATOM     25  C   UNL d   1       7.919   5.674 -10.053  0.00  0.00     0.013 C 
ATOM     26  C   UNL d   1       8.223   5.281  -8.739  0.00  0.00     0.001 C 
ATOM     27  C   UNL d   1       9.121   4.272  -8.565  0.00  0.00     0.000 C 
ATOM     28  C   UNL d   1       9.852   3.941  -9.625  0.00  0.00     0.001 C 
ATOM     29  C   UNL d   1       9.671   4.377 -10.938  0.00  0.00     0.013 C 
ENDBRANCH  21  24
ENDBRANCH   4  21
TORSDOF 4
