REMARK  6 active torsions:
REMARK  status: ('A' for Active; 'I' for Inactive)
REMARK    1  A    between atoms: N_5  and  C_6 
REMARK    2  A    between atoms: C_10  and  N_11 
REMARK    3  A    between atoms: N_11  and  C_12 
REMARK    4  A    between atoms: N_11  and  S_16 
REMARK    5  A    between atoms: C_12  and  C_13 
REMARK    6  A    between atoms: S_16  and  C_19 
ROOT
ATOM      1  N   UNL d   1       9.441   4.051 -13.773  0.00  0.00    -0.254 N 
ENDROOT
BRANCH   1   2
ATOM      2  C   UNL d   1       8.113   3.559 -13.626  0.00  0.00     0.072 A 
ATOM      3  C   UNL d   1       7.079   4.232 -13.005  0.00  0.00     0.018 A 
ATOM      4  C   UNL d   1       5.830   3.834 -12.749  0.00  0.00     0.003 A 
ATOM      5  C   UNL d   1       5.460   2.605 -13.240  0.00  0.00     0.017 A 
ATOM      6  C   UNL d   1       6.394   1.820 -13.980  0.00  0.00     0.058 A 
ATOM      7  C   UNL d   1       7.715   2.315 -14.152  0.00  0.00     0.035 A 
BRANCH   6   8
ATOM      8  N   UNL d   1       6.039   0.585 -14.488  0.00  0.00    -0.344 N 
ATOM      9  C   UNL d   1       5.018  -0.200 -13.852  0.00  0.00     0.137 C 
ATOM     10  C   UNL d   1       3.969  -0.601 -14.898  0.00  0.00     0.274 C 
ATOM     11  N   UNL d   1       4.618  -1.270 -16.030  0.00  0.00     0.143 N 
ATOM     12  C   UNL d   1       3.613  -1.664 -17.000  0.00  0.00     0.286 C 
ATOM     13  C   UNL d   1       5.572  -0.359 -16.668  0.00  0.00     0.274 C 
ATOM     14  C   UNL d   1       6.660   0.059 -15.675  0.00  0.00     0.137 C 
ENDBRANCH   6   8
ENDBRANCH   1   2
BRANCH   1  15
ATOM     15  C   UNL d   1       9.874   5.085 -12.804  0.00  0.00     0.118 C 
BRANCH  15  16
ATOM     16  C   UNL d   1       8.904   6.241 -12.563  0.00  0.00     0.024 A 
ATOM     17  C   UNL d   1       8.079   6.241 -11.219  0.00  0.00     0.002 A 
ATOM     18  C   UNL d   1       9.039   7.314 -11.541  0.00  0.00     0.002 A 
ENDBRANCH  15  16
ENDBRANCH   1  15
BRANCH   1  19
ATOM     19  S   UNL d   1      10.699   3.373 -14.840  0.00  0.00     0.268 S 
ATOM     20  O   UNL d   1      11.963   4.050 -14.526  0.00  0.00    -0.200 OA
ATOM     21  O   UNL d   1      10.613   1.906 -14.738  0.00  0.00    -0.200 OA
BRANCH  19  22
ATOM     22  C   UNL d   1      10.141   3.878 -16.470  0.00  0.00     0.104 A 
ATOM     23  C   UNL d   1       9.605   2.938 -17.375  0.00  0.00     0.013 A 
ATOM     24  C   UNL d   1       9.205   3.354 -18.663  0.00  0.00     0.001 A 
ATOM     25  C   UNL d   1       9.332   4.717 -19.040  0.00  0.00     0.000 A 
ATOM     26  C   UNL d   1       8.681   2.420 -19.584  0.00  0.00     0.000 A 
ATOM     27  C   UNL d   1       9.855   5.652 -18.120  0.00  0.00     0.001 A 
ATOM     28  C   UNL d   1       8.933   5.132 -20.326  0.00  0.00     0.000 A 
ATOM     29  C   UNL d   1      10.259   5.233 -16.838  0.00  0.00     0.013 A 
ATOM     30  C   UNL d   1       8.411   4.194 -21.234  0.00  0.00     0.000 A 
ATOM     31  C   UNL d   1       8.286   2.840 -20.869  0.00  0.00     0.000 A 
ENDBRANCH  19  22
ENDBRANCH   1  19
TORSDOF 6
