REMARK  6 active torsions:
REMARK  status: ('A' for Active; 'I' for Inactive)
REMARK       I    between atoms: C_2  and  N_3 
REMARK    1  A    between atoms: C_2  and  C_27 
REMARK    2  A    between atoms: N_3  and  C_4 
REMARK    3  A    between atoms: C_7  and  C_8 
REMARK    4  A    between atoms: C_8  and  C_9 
REMARK    5  A    between atoms: C_9  and  N_10 
REMARK    6  A    between atoms: N_13  and  C_14 
ROOT
ATOM      1  C   UNL d   1       9.132   6.707  -9.835  0.00  0.00     0.107 C 
ATOM      2  C   UNL d   1       9.217   7.398 -11.220  0.00  0.00     0.024 C 
ATOM      3  C   UNL d   1       8.672   6.472 -12.305  0.00  0.00     0.002 C 
ATOM      4  C   UNL d   1       9.451   5.149 -12.360  0.00  0.00     0.002 C 
ATOM      5  C   UNL d   1       9.398   4.471 -10.986  0.00  0.00     0.002 C 
ATOM      6  C   UNL d   1       9.884   5.388  -9.864  0.00  0.00     0.024 C 
ENDROOT
BRANCH   4   7
ATOM      7  C   UNL d   1       8.924   4.218 -13.461  0.00  0.00     0.035 C 
BRANCH   7   8
ATOM      8  C   UNL d   1       9.833   2.990 -13.674  0.00  0.00     0.250 C 
BRANCH   8   9
ATOM      9  N   UNL d   1       9.817   2.512 -15.050  0.00  0.00     0.141 N 
ATOM     10  C   UNL d   1      10.645   3.395 -15.887  0.00  0.00     0.274 C 
ATOM     11  C   UNL d   1      10.608   2.925 -17.345  0.00  0.00     0.137 C 
ATOM     12  N   UNL d   1      11.070   1.543 -17.427  0.00  0.00    -0.343 N 
ATOM     13  C   UNL d   1      10.370   0.621 -16.537  0.00  0.00     0.137 C 
ATOM     14  C   UNL d   1      10.396   1.159 -15.097  0.00  0.00     0.274 C 
BRANCH  12  15
ATOM     15  C   UNL d   1      12.082   1.116 -18.306  0.00  0.00     0.081 A 
ATOM     16  C   UNL d   1      13.156   1.953 -18.707  0.00  0.00     0.135 A 
ATOM     17  C   UNL d   1      14.161   1.500 -19.545  0.00  0.00     0.121 A 
ATOM     18  O   UNL d   1      13.441   3.233 -18.333  0.00  0.00    -0.298 OA
ATOM     19  C   UNL d   1      14.173   0.193 -20.055  0.00  0.00     0.026 A 
ATOM     20  O   UNL d   1      15.082   2.482 -19.731  0.00  0.00    -0.299 OA
ATOM     21  C   UNL d   1      13.117  -0.659 -19.685  0.00  0.00     0.004 A 
ATOM     22  C   UNL d   1      12.085  -0.207 -18.833  0.00  0.00     0.019 A 
ATOM     23  C   UNL d   1      14.631   3.582 -18.988  0.00  0.00     0.304 A 
ENDBRANCH  12  15
ENDBRANCH   8   9
ENDBRANCH   7   8
ENDBRANCH   4   7
BRANCH   1  24
ATOM     24  N   UNL d   1       9.755   7.562  -8.833  0.00  0.00    -0.236 NA
ATOM     25  C   UNL d   1       9.748   7.329  -7.521  0.00  0.00     0.275 C 
ATOM     26  O   UNL d   1       9.098   6.407  -7.028  0.00  0.00    -0.266 OA
BRANCH  25  27
ATOM     27  C   UNL d   1      10.563   8.288  -6.701  0.00  0.00     0.060 A 
ATOM     28  C   UNL d   1      11.099   8.025  -5.406  0.00  0.00     0.022 A 
ATOM     29  C   UNL d   1      11.733   9.079  -4.701  0.00  0.00     0.082 A 
ATOM     30  C   UNL d   1      11.056   6.776  -4.767  0.00  0.00     0.002 A 
ATOM     31  N   UNL d   1      11.851  10.288  -5.242  0.00  0.00    -0.244 NA
ATOM     32  C   UNL d   1      12.249   8.902  -3.397  0.00  0.00     0.019 A 
ATOM     33  C   UNL d   1      11.410  10.530  -6.465  0.00  0.00     0.099 A 
ATOM     34  C   UNL d   1      10.759   9.575  -7.227  0.00  0.00     0.025 A 
ATOM     35  C   UNL d   1      12.201   7.640  -2.777  0.00  0.00     0.002 A 
ATOM     36  C   UNL d   1      11.605   6.586  -3.485  0.00  0.00     0.000 A 
ENDBRANCH  25  27
ENDBRANCH   1  24
TORSDOF 6
