REMARK  7 active torsions:
REMARK  status: ('A' for Active; 'I' for Inactive)
REMARK    1  A    between atoms: C_6  and  C_7 
REMARK    2  A    between atoms: C_10  and  S_11 
REMARK    3  A    between atoms: S_11  and  C_12 
REMARK    4  A    between atoms: C_12  and  C_13 
REMARK    5  A    between atoms: C_13  and  C_14 
REMARK    6  A    between atoms: C_14  and  N_16 
REMARK    7  A    between atoms: C_23  and  C_24 
ROOT
ATOM      1  C   UNL d   1      12.666   1.239 -20.918  0.00  0.00     0.220 C 
ATOM      2  C   UNL d   1      12.787   0.499 -22.269  0.00  0.00     0.035 C 
ENDROOT
BRANCH   1   3
ATOM      3  C   UNL d   1      11.680   0.484 -19.993  0.00  0.00     0.045 C 
BRANCH   3   4
ATOM      4  C   UNL d   1      10.215   0.418 -20.483  0.00  0.00     0.067 C 
BRANCH   4   5
ATOM      5  S   UNL d   1       9.179  -0.631 -19.414  0.00  0.00    -0.075 SA
BRANCH   5   6
ATOM      6  C   UNL d   1       9.627  -0.037 -17.811  0.00  0.00     0.193 A 
ATOM      7  N   UNL d   1      10.230  -0.800 -16.899  0.00  0.00    -0.122 NA
ATOM      8  N   UNL d   1      10.439   0.015 -15.813  0.00  0.00    -0.128 NA
ATOM      9  C   UNL d   1       9.947   1.208 -16.153  0.00  0.00     0.167 A 
ATOM     10  N   UNL d   1       9.422   1.231 -17.396  0.00  0.00    -0.289 N 
ATOM     11  C   UNL d   1       8.806   2.345 -18.094  0.00  0.00     0.134 C 
BRANCH   9  12
ATOM     12  C   UNL d   1       9.985   2.353 -15.258  0.00  0.00     0.037 A 
ATOM     13  C   UNL d   1       8.825   2.801 -14.578  0.00  0.00     0.021 A 
ATOM     14  C   UNL d   1       7.577   2.155 -14.733  0.00  0.00     0.003 A 
ATOM     15  C   UNL d   1       8.894   3.930 -13.714  0.00  0.00     0.081 A 
ATOM     16  C   UNL d   1       6.461   2.646 -14.040  0.00  0.00     0.015 A 
ATOM     17  C   UNL d   1       6.627   3.771 -13.211  0.00  0.00     0.059 A 
ATOM     18  C   UNL d   1       5.463   4.333 -12.425  0.00  0.00     0.052 C 
ATOM     19  N   UNL d   1       7.811   4.396 -13.057  0.00  0.00    -0.250 NA
ATOM     20  C   UNL d   1      10.130   4.585 -13.555  0.00  0.00     0.019 A 
ATOM     21  C   UNL d   1      11.284   4.146 -14.232  0.00  0.00     0.002 A 
ATOM     22  C   UNL d   1      11.211   3.027 -15.082  0.00  0.00     0.003 A 
ENDBRANCH   9  12
ENDBRANCH   5   6
ENDBRANCH   4   5
ENDBRANCH   3   4
ENDBRANCH   1   3
BRANCH   1  23
ATOM     23  N   UNL d   1      13.992   1.382 -20.264  0.00  0.00     0.136 N 
ATOM     24  C   UNL d   1      14.022   2.079 -18.971  0.00  0.00     0.255 C 
ATOM     25  C   UNL d   1      13.586   3.557 -19.009  0.00  0.00     0.061 C 
ATOM     26  C   UNL d   1      14.709   4.508 -19.420  0.00  0.00    -0.026 A 
ATOM     27  C   UNL d   1      15.330   4.366 -20.694  0.00  0.00    -0.023 A 
ATOM     28  C   UNL d   1      15.152   5.537 -18.541  0.00  0.00    -0.002 A 
ATOM     29  C   UNL d   1      14.908   3.277 -21.670  0.00  0.00     0.061 C 
ATOM     30  C   UNL d   1      16.374   5.237 -21.087  0.00  0.00     0.017 A 
ATOM     31  C   UNL d   1      15.090   1.848 -21.119  0.00  0.00     0.255 C 
ATOM     32  C   UNL d   1      16.817   6.260 -20.227  0.00  0.00     0.105 A 
ATOM     33  C   UNL d   1      16.194   6.383 -18.971  0.00  0.00     0.115 A 
ATOM     34  N   UNL d   1      17.802   7.219 -20.353  0.00  0.00    -0.217 NA
ATOM     35  O   UNL d   1      16.792   7.436 -18.302  0.00  0.00    -0.285 OA
ATOM     36  C   UNL d   1      17.730   7.890 -19.193  0.00  0.00     0.256 A 
ATOM     37  C   UNL d   1      14.544   5.753 -17.164  0.00  0.00     0.033 C 
BRANCH  36  38
ATOM     38  C   UNL d   1      18.593   9.052 -18.798  0.00  0.00     0.458 C 
ATOM     39  F   UNL d   1      18.198   9.583 -17.640  0.00  0.00    -0.163 F 
ATOM     40  F   UNL d   1      19.860   8.660 -18.664  0.00  0.00    -0.163 F 
ATOM     41  F   UNL d   1      18.543  10.005 -19.730  0.00  0.00    -0.163 F 
ENDBRANCH  36  38
ENDBRANCH   1  23
TORSDOF 7
