REMARK  11 active torsions:
REMARK  status: ('A' for Active; 'I' for Inactive)
REMARK    1  A    between atoms: C_2  and  N_3 
REMARK    2  A    between atoms: N_3  and  C_4 
REMARK    3  A    between atoms: N_3  and  C_20 
REMARK    4  A    between atoms: C_4  and  C_5 
REMARK    5  A    between atoms: C_5  and  C_6 
REMARK    6  A    between atoms: C_6  and  S_7 
REMARK    7  A    between atoms: S_7  and  C_8 
REMARK    8  A    between atoms: C_11  and  C_12 
REMARK    9  A    between atoms: C_20  and  C_21 
REMARK   10  A    between atoms: C_23  and  C_24 
REMARK   11  A    between atoms: C_30  and  O_31 
ROOT
ATOM      1  N   UNL d   1       9.558   2.878 -16.498  0.00  0.00     0.137 N 
ENDROOT
BRANCH   1   2
ATOM      2  C   UNL d   1       9.798   1.443 -16.307  0.00  0.00     0.250 C 
ATOM      3  C   UNL d   1      11.288   1.042 -16.413  0.00  0.00     0.037 C 
ENDBRANCH   1   2
BRANCH   1   4
ATOM      4  C   UNL d   1      10.169   3.727 -15.460  0.00  0.00     0.251 C 
BRANCH   4   5
ATOM      5  C   UNL d   1       9.528   3.571 -14.064  0.00  0.00     0.047 C 
BRANCH   5   6
ATOM      6  C   UNL d   1       8.129   4.214 -14.089  0.00  0.00     0.067 C 
BRANCH   6   7
ATOM      7  S   UNL d   1       7.311   4.302 -12.457  0.00  0.00    -0.075 SA
BRANCH   7   8
ATOM      8  C   UNL d   1       8.322   5.523 -11.709  0.00  0.00     0.193 A 
ATOM      9  N   UNL d   1       8.700   5.493 -10.404  0.00  0.00    -0.289 N 
ATOM     10  C   UNL d   1       9.428   6.636 -10.297  0.00  0.00     0.167 A 
ATOM     11  C   UNL d   1       8.378   4.503  -9.385  0.00  0.00     0.134 C 
ATOM     12  N   UNL d   1       9.453   7.327 -11.446  0.00  0.00    -0.128 NA
ATOM     13  N   UNL d   1       8.776   6.572 -12.390  0.00  0.00    -0.122 NA
BRANCH  10  14
ATOM     14  C   UNL d   1      10.086   7.161  -9.091  0.00  0.00     0.036 A 
ATOM     15  C   UNL d   1      10.390   6.310  -8.000  0.00  0.00     0.003 A 
ATOM     16  C   UNL d   1      10.979   6.850  -6.823  0.00  0.00     0.000 A 
ATOM     17  C   UNL d   1      11.288   8.221  -6.732  0.00  0.00     0.000 A 
ATOM     18  C   UNL d   1      11.013   9.055  -7.832  0.00  0.00     0.000 A 
ATOM     19  C   UNL d   1      10.404   8.536  -8.995  0.00  0.00     0.003 A 
ENDBRANCH  10  14
ENDBRANCH   7   8
ENDBRANCH   6   7
ENDBRANCH   5   6
ENDBRANCH   4   5
ENDBRANCH   1   4
BRANCH   1  20
ATOM     20  C   UNL d   1       9.978   3.275 -17.852  0.00  0.00     0.251 C 
BRANCH  20  21
ATOM     21  C   UNL d   1       9.459   4.650 -18.260  0.00  0.00     0.038 A 
ATOM     22  C   UNL d   1      10.228   5.445 -19.284  0.00  0.00     0.026 A 
ATOM     23  C   UNL d   1      10.214   5.891 -17.834  0.00  0.00     0.007 A 
BRANCH  22  24
ATOM     24  C   UNL d   1       9.521   6.272 -20.336  0.00  0.00     0.001 A 
ATOM     25  C   UNL d   1      10.049   6.376 -21.646  0.00  0.00     0.090 A 
ATOM     26  C   UNL d   1       9.379   7.179 -22.596  0.00  0.00     0.025 A 
ATOM     27  C   UNL d   1       8.200   7.870 -22.242  0.00  0.00     0.013 A 
ATOM     28  C   UNL d   1       7.684   7.761 -20.946  0.00  0.00     0.058 A 
ATOM     29  C   UNL d   1       8.329   6.963 -19.995  0.00  0.00     0.009 A 
ATOM     30 CL   UNL d   1       6.247   8.614 -20.513  0.00  0.00    -0.082 Cl
BRANCH  25  31
ATOM     31  O   UNL d   1      11.221   5.685 -21.937  0.00  0.00    -0.328 OA
ATOM     32  C   UNL d   1      11.717   5.726 -23.268  0.00  0.00     0.181 C 
ENDBRANCH  25  31
ENDBRANCH  22  24
ENDBRANCH  20  21
ENDBRANCH   1  20
TORSDOF 11
