REMARK  4 active torsions:
REMARK  status: ('A' for Active; 'I' for Inactive)
REMARK    1  A    between atoms: C_8  and  C_9 
REMARK    2  A    between atoms: C_9  and  C_10 
REMARK    3  A    between atoms: C_10  and  N_11 
REMARK    4  A    between atoms: C_14  and  C_15 
ROOT
ATOM      1  N   UNL d   1       8.672   4.219 -12.403  0.00  0.00     0.137 N 
ATOM      2  C   UNL d   1       9.449   3.973 -11.216  0.00  0.00     0.251 C 
ATOM      3  C   UNL d   1       8.786   4.405  -9.857  0.00  0.00     0.041 C 
ATOM      4  C   UNL d   1       8.418   5.894  -9.893  0.00  0.00     0.047 C 
ATOM      5  C   UNL d   1       7.732   6.147 -11.268  0.00  0.00     0.041 C 
ATOM      6  C   UNL d   1       8.482   5.662 -12.508  0.00  0.00     0.251 C 
ENDROOT
BRANCH   1   7
ATOM      7  C   UNL d   1       9.537   3.776 -13.518  0.00  0.00     0.255 C 
BRANCH   7   8
ATOM      8  C   UNL d   1       8.669   3.703 -14.756  0.00  0.00     0.068 C 
BRANCH   8   9
ATOM      9  C   UNL d   1       9.347   2.988 -15.911  0.00  0.00     0.050 A 
ATOM     10  C   UNL d   1      10.036   3.640 -16.887  0.00  0.00     0.061 A 
ATOM     11  C   UNL d   1      10.185   5.150 -16.929  0.00  0.00     0.052 C 
ATOM     12  N   UNL d   1      10.659   2.947 -17.925  0.00  0.00    -0.234 NA
ATOM     13  C   UNL d   1      10.578   1.657 -17.953  0.00  0.00     0.155 A 
ATOM     14  C   UNL d   1      11.203   0.827 -19.073  0.00  0.00     0.217 C 
ATOM     15  N   UNL d   1       9.880   0.911 -16.980  0.00  0.00    -0.282 N 
ATOM     16  C   UNL d   1      10.246  -0.268 -19.583  0.00  0.00     0.045 C 
ATOM     17  F   UNL d   1      12.350   0.268 -18.674  0.00  0.00    -0.229 F 
ATOM     18  C   UNL d   1       9.632  -1.107 -18.445  0.00  0.00     0.028 C 
ATOM     19  C   UNL d   1       9.973  -0.553 -17.052  0.00  0.00     0.111 C 
ATOM     20  C   UNL d   1       9.236   1.519 -15.941  0.00  0.00     0.259 A 
ATOM     21  O   UNL d   1       8.629   0.877 -15.084  0.00  0.00    -0.267 OA
ENDBRANCH   8   9
ENDBRANCH   7   8
ENDBRANCH   1   7
BRANCH   4  22
ATOM     22  C   UNL d   1       9.621   6.760  -9.656  0.00  0.00     0.087 A 
ATOM     23  C   UNL d   1      10.020   7.561  -8.544  0.00  0.00     0.041 A 
ATOM     24  C   UNL d   1      11.279   8.093  -8.796  0.00  0.00     0.129 A 
ATOM     25  C   UNL d   1       9.399   7.835  -7.293  0.00  0.00     0.006 A 
ATOM     26  O   UNL d   1      11.640   7.589 -10.029  0.00  0.00    -0.211 OA
ATOM     27  C   UNL d   1      12.001   8.907  -7.948  0.00  0.00     0.057 A 
ATOM     28  N   UNL d   1      10.594   6.789 -10.543  0.00  0.00    -0.131 NA
ATOM     29  C   UNL d   1      11.363   9.291  -6.732  0.00  0.00     0.142 A 
ATOM     30  F   UNL d   1      11.974  10.182  -5.903  0.00  0.00    -0.204 F 
ATOM     31  C   UNL d   1      10.079   8.735  -6.400  0.00  0.00     0.030 A 
ENDBRANCH   4  22
TORSDOF 4
