REMARK  3 active torsions:
REMARK  status: ('A' for Active; 'I' for Inactive)
REMARK    1  A    between atoms: C_2  and  N_3 
REMARK    2  A    between atoms: C_7  and  C_8 
REMARK    3  A    between atoms: C_14  and  O_15 
ROOT
ATOM      1  C   UNL d   1      10.565   8.173  -7.100  0.00  0.00     0.040 C 
ATOM      2  C   UNL d   1      10.248   9.487  -7.237  0.00  0.00     0.101 C 
ATOM      3  N   UNL d   1      10.702  10.216  -6.157  0.00  0.00    -0.244 NA
ATOM      4  C   UNL d   1      11.187   9.398  -5.175  0.00  0.00     0.084 A 
ATOM      5  C   UNL d   1      11.674   9.638  -3.875  0.00  0.00     0.021 A 
ATOM      6  C   UNL d   1      12.171   8.579  -3.108  0.00  0.00     0.028 A 
ATOM      7  C   UNL d   1      12.165   7.273  -3.668  0.00  0.00     0.122 A 
ATOM      8  C   UNL d   1      11.704   7.075  -5.005  0.00  0.00     0.164 A 
ATOM      9  F   UNL d   1      11.929   5.918  -5.670  0.00  0.00    -0.202 F 
ATOM     10  C   UNL d   1      11.139   8.109  -5.769  0.00  0.00     0.050 A 
ENDROOT
BRANCH   1  11
ATOM     11  C   UNL d   1      10.268   7.115  -8.092  0.00  0.00     0.082 A 
ATOM     12  N   UNL d   1      10.201   7.266  -9.492  0.00  0.00    -0.309 N 
ATOM     13  C   UNL d   1       9.853   6.069  -9.981  0.00  0.00     0.179 A 
ATOM     14  N   UNL d   1       9.687   5.132  -9.063  0.00  0.00    -0.223 NA
ATOM     15  C   UNL d   1       9.948   5.805  -7.873  0.00  0.00     0.118 A 
BRANCH  12  16
ATOM     16  C   UNL d   1      10.410   8.448 -10.293  0.00  0.00     0.108 C 
ATOM     17  C   UNL d   1      11.838   9.008 -10.121  0.00  0.00     0.027 C 
ENDBRANCH  12  16
ENDBRANCH   1  11
BRANCH   7  18
ATOM     18  O   UNL d   1      12.665   6.172  -3.037  0.00  0.00    -0.326 OA
ATOM     19  C   UNL d   1      12.570   6.136  -1.639  0.00  0.00     0.181 C 
ENDBRANCH   7  18
TORSDOF 3
