REMARK  11 active torsions:
REMARK  status: ('A' for Active; 'I' for Inactive)
REMARK    1  A    between atoms: O_2  and  C_3 
REMARK    2  A    between atoms: C_3  and  C_4 
REMARK    3  A    between atoms: C_5  and  C_6 
REMARK    4  A    between atoms: C_10  and  C_11 
REMARK    5  A    between atoms: C_14  and  C_15 
REMARK    6  A    between atoms: C_16  and  C_17 
REMARK    7  A    between atoms: C_17  and  C_19 
REMARK    8  A    between atoms: C_19  and  C_20 
REMARK    9  A    between atoms: C_20  and  C_22 
REMARK   10  A    between atoms: C_22  and  C_23 
REMARK   11  A    between atoms: C_26  and  C_27 
ROOT
ATOM      1  C   UNL d   1       8.493   1.584 -15.829  0.00  0.00     0.021 A 
ATOM      2  C   UNL d   1       7.231   1.195 -15.261  0.00  0.00     0.057 A 
ATOM      3  N   UNL d   1       6.553   1.952 -14.373  0.00  0.00    -0.255 NA
ATOM      4  C   UNL d   1       7.074   3.139 -13.996  0.00  0.00     0.058 A 
ATOM      5  C   UNL d   1       8.330   3.655 -14.433  0.00  0.00     0.013 A 
ATOM      6  C   UNL d   1       9.049   2.846 -15.387  0.00  0.00     0.001 A 
ENDROOT
BRANCH   5   7
ATOM      7  C   UNL d   1       8.841   4.969 -13.930  0.00  0.00    -0.001 C 
ATOM      8  C   UNL d   1       8.678   5.505 -12.720  0.00  0.00     0.006 C 
BRANCH   8   9
ATOM      9  C   UNL d   1       9.103   6.846 -12.247  0.00  0.00     0.177 C 
ATOM     10  O   UNL d   1       8.041   7.751 -12.424  0.00  0.00    -0.218 OA
BRANCH   9  11
ATOM     11  C   UNL d   1       9.467   6.703 -10.746  0.00  0.00     0.071 C 
BRANCH  11  12
ATOM     12  C   UNL d   1      10.264   7.869 -10.168  0.00  0.00     0.166 C 
ATOM     13  O   UNL d   1       9.468   9.033 -10.161  0.00  0.00    -0.223 OA
BRANCH  12  14
ATOM     14  C   UNL d   1      10.733   7.590  -8.730  0.00  0.00     0.131 C 
BRANCH  14  15
ATOM     15  C   UNL d   1      11.910   8.463  -8.296  0.00  0.00     0.188 C 
ATOM     16  O   UNL d   1      11.895   9.153  -7.279  0.00  0.00    -0.647 OA
ATOM     17  O   UNL d   1      12.960   8.370  -9.164  0.00  0.00    -0.647 OA
ENDBRANCH  14  15
ENDBRANCH  12  14
ENDBRANCH  11  12
ENDBRANCH   9  11
ENDBRANCH   8   9
ENDBRANCH   5   7
BRANCH   4  18
ATOM     18  C   UNL d   1       6.189   3.870 -12.992  0.00  0.00     0.040 C 
ATOM     19  C   UNL d   1       6.398   3.411 -11.555  0.00  0.00     0.006 C 
ATOM     20  C   UNL d   1       4.739   3.766 -13.318  0.00  0.00     0.006 C 
ENDBRANCH   4  18
BRANCH   6  21
ATOM     21  C   UNL d   1      10.358   3.333 -15.923  0.00  0.00    -0.000 C 
ATOM     22  C   UNL d   1      10.545   4.645 -16.428  0.00  0.00     0.002 C 
ATOM     23  C   UNL d   1      11.805   5.114 -16.846  0.00  0.00     0.030 C 
ATOM     24  C   UNL d   1      12.866   4.207 -16.987  0.00  0.00     0.140 C 
ATOM     25  C   UNL d   1      12.668   2.874 -16.605  0.00  0.00     0.030 C 
ATOM     26  F   UNL d   1      14.069   4.616 -17.482  0.00  0.00    -0.204 F 
ATOM     27  C   UNL d   1      11.489   2.485 -15.974  0.00  0.00     0.002 C 
ENDBRANCH   6  21
BRANCH   1  28
ATOM     28  C   UNL d   1       9.183   0.653 -16.871  0.00  0.00     0.170 C 
BRANCH  28  29
ATOM     29  O   UNL d   1       8.854   0.891 -18.227  0.00  0.00    -0.347 OA
ATOM     30  C   UNL d   1       7.549   0.505 -18.525  0.00  0.00     0.175 C 
ENDBRANCH  28  29
ENDBRANCH   1  28
BRANCH   2  31
ATOM     31  C   UNL d   1       6.487  -0.112 -15.623  0.00  0.00     0.040 C 
ATOM     32  C   UNL d   1       5.186   0.065 -16.451  0.00  0.00     0.006 C 
ATOM     33  C   UNL d   1       6.202  -0.938 -14.362  0.00  0.00     0.006 C 
ENDBRANCH   2  31
TORSDOF 11
