REMARK  4 active torsions:
REMARK  status: ('A' for Active; 'I' for Inactive)
REMARK    1  A    between atoms: N_2  and  C_5 
REMARK    2  A    between atoms: C_5  and  C_6 
REMARK    3  A    between atoms: C_6  and  C_8 
REMARK    4  A    between atoms: C_8  and  C_9 
ROOT
ATOM      1  C   UNL d   1       8.875   5.741  -9.594  0.00  0.00     0.194 C 
ATOM      2  O   UNL d   1       8.892   4.709  -8.640  0.00  0.00    -0.221 OA
ENDROOT
BRANCH   1   3
ATOM      3  C   UNL d   1      10.150   6.641  -9.494  0.00  0.00     0.250 C 
BRANCH   3   4
ATOM      4  N   UNL d   1      10.327   7.504  -8.283  0.00  0.00     0.002 N 
ATOM      5  C   UNL d   1       9.179   8.429  -8.096  0.00  0.00     0.250 C 
ATOM      6  C   UNL d   1      11.545   8.333  -8.481  0.00  0.00     0.250 C 
ATOM      7  C   UNL d   1      10.503   6.694  -7.052  0.00  0.00     0.250 C 
ENDBRANCH   3   4
ENDBRANCH   1   3
BRANCH   1   8
ATOM      8  C   UNL d   1       8.671   5.028 -10.954  0.00  0.00     0.133 C 
BRANCH   8   9
ATOM      9  C   UNL d   1       8.852   5.932 -12.164  0.00  0.00     0.188 C 
ATOM     10  O   UNL d   1       9.530   5.598 -13.135  0.00  0.00    -0.647 OA
ATOM     11  O   UNL d   1       8.196   7.132 -12.050  0.00  0.00    -0.647 OA
ENDBRANCH   8   9
ENDBRANCH   1   8
TORSDOF 4
