REMARK  7 active torsions:
REMARK  status: ('A' for Active; 'I' for Inactive)
REMARK       I    between atoms: C_2  and  N_3 
REMARK       I    between atoms: C_2  and  N_20 
REMARK    1  A    between atoms: N_3  and  C_4 
REMARK    2  A    between atoms: C_4  and  C_5 
REMARK    3  A    between atoms: C_5  and  N_6 
REMARK    4  A    between atoms: C_9  and  C_11 
REMARK    5  A    between atoms: N_20  and  C_21 
REMARK    6  A    between atoms: C_21  and  C_22 
REMARK    7  A    between atoms: C_22  and  N_23 
ROOT
ATOM      1  C   UNL d   1       9.407   5.111 -12.870  0.00  0.00     0.277 C 
ENDROOT
BRANCH   1   2
ATOM      2  C   UNL d   1       8.327   4.981 -11.774  0.00  0.00     0.166 C 
BRANCH   2   3
ATOM      3  N   UNL d   1       8.530   5.989 -10.737  0.00  0.00    -0.215 NA
ATOM      4  C   UNL d   1       9.300   5.835  -9.655  0.00  0.00     0.360 C 
ATOM      5  O   UNL d   1       9.820   4.767  -9.328  0.00  0.00    -0.243 OA
ATOM      6  N   UNL d   1       9.486   6.983  -8.995  0.00  0.00    -0.215 NA
BRANCH   6   7
ATOM      7  C   UNL d   1      10.453   7.146  -7.915  0.00  0.00     0.155 C 
BRANCH   7   8
ATOM      8  C   UNL d   1      10.010   8.231  -6.921  0.00  0.00     0.139 C 
BRANCH   8   9
ATOM      9  N   UNL d   1      10.999   8.424  -5.849  0.00  0.00    -0.261 N 
ATOM     10  C   UNL d   1      11.728   9.542  -5.673  0.00  0.00     0.263 A 
ATOM     11  C   UNL d   1      12.533   9.297  -4.499  0.00  0.00     0.066 A 
ATOM     12  O   UNL d   1      11.697  10.556  -6.367  0.00  0.00    -0.267 OA
ATOM     13  C   UNL d   1      12.251   8.081  -4.037  0.00  0.00     0.066 A 
ATOM     14  C   UNL d   1      11.271   7.499  -4.910  0.00  0.00     0.263 A 
ATOM     15  O   UNL d   1      10.763   6.388  -4.812  0.00  0.00    -0.267 OA
ENDBRANCH   8   9
ENDBRANCH   7   8
ENDBRANCH   6   7
ENDBRANCH   2   3
ENDBRANCH   1   2
BRANCH   1  16
ATOM     16  N   UNL d   1       9.220   4.158 -13.959  0.00  0.00     0.139 N 
ATOM     17  C   UNL d   1       9.996   4.591 -15.120  0.00  0.00     0.253 C 
ATOM     18  C   UNL d   1       9.787   3.626 -16.298  0.00  0.00     0.070 C 
ATOM     19  C   UNL d   1      10.175   2.179 -15.940  0.00  0.00     0.149 C 
ATOM     20  C   UNL d   1       9.470   1.784 -14.628  0.00  0.00     0.070 C 
ATOM     21  O   UNL d   1      11.567   2.204 -15.682  0.00  0.00    -0.221 OA
ATOM     22  C   UNL d   1       9.704   2.840 -13.541  0.00  0.00     0.253 C 
BRANCH  19  23
ATOM     23  C   UNL d   1       9.807   1.207 -17.065  0.00  0.00     0.005 A 
ATOM     24  C   UNL d   1       8.464   1.112 -17.500  0.00  0.00    -0.001 A 
ATOM     25  C   UNL d   1       8.101   0.242 -18.542  0.00  0.00     0.011 A 
ATOM     26  C   UNL d   1       9.082  -0.556 -19.163  0.00  0.00     0.058 A 
ATOM     27  C   UNL d   1      10.423  -0.485 -18.732  0.00  0.00     0.011 A 
ATOM     28 CL   UNL d   1       8.638  -1.612 -20.454  0.00  0.00    -0.082 Cl
ATOM     29  C   UNL d   1      10.785   0.390 -17.687  0.00  0.00    -0.001 A 
ENDBRANCH  19  23
ENDBRANCH   1  16
TORSDOF 7
