REMARK  3 active torsions:
REMARK  status: ('A' for Active; 'I' for Inactive)
REMARK    1  A    between atoms: O_2  and  C_3 
REMARK    2  A    between atoms: C_7  and  O_8 
REMARK    3  A    between atoms: C_10  and  C_11 
ROOT
ATOM      1  C   UNL d   1      10.429   3.087 -15.759  0.00  0.00     0.004 A 
ATOM      2  C   UNL d   1      10.960   3.746 -14.626  0.00  0.00     0.000 A 
ATOM      3  C   UNL d   1      10.173   4.013 -13.496  0.00  0.00    -0.000 A 
ATOM      4  C   UNL d   1       8.846   3.570 -13.459  0.00  0.00    -0.004 A 
ATOM      5  C   UNL d   1       8.306   2.884 -14.562  0.00  0.00    -0.020 A 
ATOM      6  C   UNL d   1       9.052   2.698 -15.753  0.00  0.00    -0.004 A 
ATOM      7  C   UNL d   1       8.336   2.075 -16.905  0.00  0.00    -0.003 A 
ATOM      8  C   UNL d   1       8.647   2.344 -18.265  0.00  0.00    -0.000 A 
ATOM      9  C   UNL d   1       7.997   1.711 -19.343  0.00  0.00    -0.000 A 
ATOM     10  C   UNL d   1       6.956   0.803 -19.101  0.00  0.00    -0.004 A 
ATOM     11  C   UNL d   1       6.555   0.542 -17.782  0.00  0.00    -0.022 A 
ATOM     12  C   UNL d   1       7.235   1.197 -16.720  0.00  0.00     0.005 A 
ATOM     13  C   UNL d   1       6.801   0.966 -15.257  0.00  0.00     0.246 C 
ATOM     14  C   UNL d   1       6.912   2.294 -14.458  0.00  0.00     0.064 C 
ATOM     15  N   UNL d   1       5.466   0.372 -15.096  0.00  0.00     0.142 N 
ATOM     16  C   UNL d   1       5.199  -0.039 -13.720  0.00  0.00     0.286 C 
ATOM     17  C   UNL d   1       5.398  -0.816 -15.934  0.00  0.00     0.255 C 
ATOM     18  C   UNL d   1       5.399  -0.364 -17.394  0.00  0.00     0.061 C 
ENDROOT
BRANCH   1  19
ATOM     19  C   UNL d   1      11.367   2.798 -16.872  0.00  0.00     0.045 A 
ATOM     20  C   UNL d   1      12.085   3.859 -17.492  0.00  0.00     0.096 A 
ATOM     21  C   UNL d   1      12.979   3.566 -18.554  0.00  0.00     0.024 A 
ATOM     22  C   UNL d   1      13.142   2.249 -19.007  0.00  0.00     0.004 A 
ATOM     23  C   UNL d   1      12.424   1.203 -18.407  0.00  0.00     0.024 A 
ATOM     24  C   UNL d   1      11.554   1.462 -17.322  0.00  0.00     0.096 A 
BRANCH  20  25
ATOM     25  O   UNL d   1      11.868   5.141 -17.026  0.00  0.00    -0.328 OA
ATOM     26  C   UNL d   1      12.609   6.216 -17.589  0.00  0.00     0.181 C 
ENDBRANCH  20  25
BRANCH  24  27
ATOM     27  O   UNL d   1      10.879   0.452 -16.666  0.00  0.00    -0.328 OA
ATOM     28  C   UNL d   1      10.572  -0.732 -17.390  0.00  0.00     0.181 C 
ENDBRANCH  24  27
ENDBRANCH   1  19
TORSDOF 3
