REMARK  7 active torsions:
REMARK  status: ('A' for Active; 'I' for Inactive)
REMARK    1  A    between atoms: C_2  and  O_3 
REMARK    2  A    between atoms: O_3  and  N_4 
REMARK    3  A    between atoms: C_5  and  C_6 
REMARK    4  A    between atoms: C_5  and  C_19 
REMARK    5  A    between atoms: C_6  and  C_7 
REMARK    6  A    between atoms: C_7  and  N_8 
REMARK    7  A    between atoms: N_11  and  C_12 
ROOT
ATOM      1  C   UNL d   1       8.850   5.439 -11.230  0.00  0.00     0.083 C 
ENDROOT
BRANCH   1   2
ATOM      2  C   UNL d   1       9.163   6.898 -10.941  0.00  0.00     0.087 C 
ATOM      3  N   UNL d   1       8.842   7.773 -11.779  0.00  0.00    -0.136 NA
BRANCH   3   4
ATOM      4  O   UNL d   1       7.910   7.245 -12.697  0.00  0.00    -0.237 OA
BRANCH   4   5
ATOM      5  C   UNL d   1       7.021   8.306 -13.057  0.00  0.00     0.176 C 
ATOM      6  C   UNL d   1       5.679   8.382 -12.344  0.00  0.00     0.038 C 
ENDBRANCH   4   5
ENDBRANCH   3   4
BRANCH   2   7
ATOM      7  C   UNL d   1       9.814   7.218  -9.630  0.00  0.00     0.016 A 
ATOM      8  C   UNL d   1       9.188   6.945  -8.407  0.00  0.00     0.001 A 
ATOM      9  C   UNL d   1       9.808   7.264  -7.174  0.00  0.00     0.000 A 
ATOM     10  C   UNL d   1      11.084   7.862  -7.181  0.00  0.00     0.000 A 
ATOM     11  C   UNL d   1      11.710   8.159  -8.401  0.00  0.00     0.000 A 
ATOM     12  C   UNL d   1      11.080   7.852  -9.625  0.00  0.00     0.001 A 
ENDBRANCH   2   7
ENDBRANCH   1   2
BRANCH   1  13
ATOM     13  C   UNL d   1       9.509   4.989 -12.565  0.00  0.00     0.257 C 
BRANCH  13  14
ATOM     14  N   UNL d   1       9.018   3.673 -12.958  0.00  0.00     0.141 N 
ATOM     15  C   UNL d   1      10.014   3.042 -13.818  0.00  0.00     0.274 C 
ATOM     16  C   UNL d   1       9.508   1.659 -14.256  0.00  0.00     0.139 C 
ATOM     17  N   UNL d   1       8.256   1.759 -14.987  0.00  0.00    -0.325 N 
ATOM     18  C   UNL d   1       7.258   2.458 -14.175  0.00  0.00     0.139 C 
ATOM     19  C   UNL d   1       7.784   3.829 -13.732  0.00  0.00     0.274 C 
BRANCH  17  20
ATOM     20  C   UNL d   1       8.035   1.168 -16.222  0.00  0.00     0.172 A 
ATOM     21  S   UNL d   1       9.316   0.356 -17.121  0.00  0.00    -0.048 SA
ATOM     22  C   UNL d   1       8.177   0.037 -18.403  0.00  0.00     0.059 A 
ATOM     23  C   UNL d   1       6.923   0.505 -18.093  0.00  0.00     0.108 A 
ATOM     24  N   UNL d   1       6.860   1.144 -16.851  0.00  0.00    -0.221 NA
ENDBRANCH  17  20
ENDBRANCH  13  14
ENDBRANCH   1  13
TORSDOF 7
