REMARK  2 active torsions:
REMARK  status: ('A' for Active; 'I' for Inactive)
REMARK    1  A    between atoms: C_2  and  C_3 
REMARK    2  A    between atoms: C_3  and  C_4 
ROOT
ATOM      1  C   UNL d   1      10.909   7.865  -6.470  0.00  0.00     0.001 A 
ATOM      2  C   UNL d   1      10.668   9.171  -6.809  0.00  0.00     0.095 A 
ATOM      3  N   UNL d   1      10.999   9.989  -5.742  0.00  0.00    -0.244 NA
ATOM      4  C   UNL d   1      11.445   9.241  -4.676  0.00  0.00     0.081 A 
ATOM      5  C   UNL d   1      11.856   9.589  -3.377  0.00  0.00     0.021 A 
ATOM      6  C   UNL d   1      12.278   8.587  -2.493  0.00  0.00     0.029 A 
ATOM      7  C   UNL d   1      12.259   7.246  -2.907  0.00  0.00     0.131 A 
ATOM      8  O   UNL d   1      12.658   6.286  -2.038  0.00  0.00    -0.190 OA
ATOM      9  C   UNL d   1      11.824   6.897  -4.202  0.00  0.00     0.029 A 
ATOM     10  C   UNL d   1      11.406   7.886  -5.120  0.00  0.00     0.017 A 
ENDROOT
BRANCH   1  11
ATOM     11  C   UNL d   1      10.695   6.673  -7.353  0.00  0.00     0.069 C 
BRANCH  11  12
ATOM     12  C   UNL d   1       9.209   6.405  -7.628  0.00  0.00     0.343 C 
ATOM     13  N   UNL d   1       9.058   5.265  -8.511  0.00  0.00     0.618 N 
ENDBRANCH  11  12
ENDBRANCH   1  11
TORSDOF 2
