REMARK  7 active torsions:
REMARK  status: ('A' for Active; 'I' for Inactive)
REMARK    1  A    between atoms: S_2  and  N_4 
REMARK    2  A    between atoms: S_2  and  C_20 
REMARK    3  A    between atoms: N_4  and  C_5 
REMARK    4  A    between atoms: N_8  and  C_9 
REMARK    5  A    between atoms: C_9  and  C_10 
REMARK    6  A    between atoms: C_10  and  O_11 
REMARK    7  A    between atoms: O_11  and  C_12 
ROOT
ATOM      1  C   UNL d   1       9.078   5.004 -11.414  0.00  0.00     0.151 C 
ATOM      2  C   UNL d   1       8.983   6.530 -11.428  0.00  0.00     0.063 C 
ATOM      3  C   UNL d   1       9.201   6.911  -9.979  0.00  0.00     0.253 C 
ATOM      4  N   UNL d   1       9.998   5.845  -9.451  0.00  0.00     0.142 N 
ATOM      5  C   UNL d   1       9.346   4.651  -9.959  0.00  0.00     0.275 C 
ENDROOT
BRANCH   1   6
ATOM      6  N   UNL d   1       7.847   4.375 -11.873  0.00  0.00    -0.185 NA
BRANCH   6   7
ATOM      7  S   UNL d   1       7.484   4.346 -13.536  0.00  0.00     0.281 S 
ATOM      8  O   UNL d   1       6.022   4.277 -13.633  0.00  0.00    -0.199 OA
ATOM      9  O   UNL d   1       8.267   5.427 -14.161  0.00  0.00    -0.199 OA
BRANCH   7  10
ATOM     10  C   UNL d   1       8.195   2.822 -14.120  0.00  0.00     0.107 A 
ATOM     11  C   UNL d   1       7.352   1.749 -14.442  0.00  0.00     0.045 A 
ATOM     12  C   UNL d   1       7.912   0.530 -14.864  0.00  0.00     0.168 A 
ATOM     13  C   UNL d   1       9.313   0.401 -15.001  0.00  0.00     0.167 A 
ATOM     14  F   UNL d   1       7.086  -0.505 -15.129  0.00  0.00    -0.202 F 
ATOM     15  C   UNL d   1      10.151   1.500 -14.721  0.00  0.00     0.033 A 
ATOM     16  F   UNL d   1       9.857  -0.775 -15.395  0.00  0.00    -0.202 F 
ATOM     17  C   UNL d   1       9.593   2.716 -14.281  0.00  0.00     0.015 A 
ENDBRANCH   7  10
ENDBRANCH   6   7
ENDBRANCH   1   6
BRANCH   4  18
ATOM     18  C   UNL d   1      10.028   5.840  -8.002  0.00  0.00     0.283 C 
BRANCH  18  19
ATOM     19  C   UNL d   1      10.927   6.952  -7.475  0.00  0.00     0.184 C 
BRANCH  19  20
ATOM     20  O   UNL d   1      11.288   6.649  -6.128  0.00  0.00    -0.329 OA
BRANCH  20  21
ATOM     21  C   UNL d   1      11.453   7.654  -5.198  0.00  0.00     0.096 A 
ATOM     22  C   UNL d   1      11.903   7.277  -3.907  0.00  0.00     0.054 A 
ATOM     23  C   UNL d   1      12.076   8.243  -2.896  0.00  0.00     0.142 A 
ATOM     24  C   UNL d   1      11.774   9.591  -3.171  0.00  0.00     0.030 A 
ATOM     25  F   UNL d   1      12.517   7.887  -1.663  0.00  0.00    -0.204 F 
ATOM     26  C   UNL d   1      11.302   9.970  -4.437  0.00  0.00     0.004 A 
ATOM     27  C   UNL d   1      11.167   9.016  -5.456  0.00  0.00     0.024 A 
ENDBRANCH  20  21
ENDBRANCH  19  20
ENDBRANCH  18  19
ENDBRANCH   4  18
TORSDOF 7
