REMARK  10 active torsions:
REMARK  status: ('A' for Active; 'I' for Inactive)
REMARK    1  A    between atoms: C_2  and  C_3 
REMARK    2  A    between atoms: C_3  and  N_4 
REMARK    3  A    between atoms: N_4  and  C_5 
REMARK    4  A    between atoms: N_4  and  C_24 
REMARK    5  A    between atoms: C_5  and  C_6 
REMARK    6  A    between atoms: C_6  and  C_7 
REMARK    7  A    between atoms: C_7  and  C_8 
REMARK    8  A    between atoms: C_8  and  N_9 
REMARK       I    between atoms: N_9  and  C_10 
REMARK    9  A    between atoms: C_10  and  C_12 
REMARK   10  A    between atoms: C_15  and  C_16 
ROOT
ATOM      1  C   UNL d   1       8.663   4.419 -12.623  0.00  0.00     0.029 C 
ENDROOT
BRANCH   1   2
ATOM      2  C   UNL d   1       8.228   4.093 -14.056  0.00  0.00     0.037 C 
BRANCH   2   3
ATOM      3  C   UNL d   1       8.532   2.623 -14.407  0.00  0.00     0.250 C 
BRANCH   3   4
ATOM      4  N   UNL d   1       8.830   2.443 -15.837  0.00  0.00     0.135 N 
BRANCH   4   5
ATOM      5  C   UNL d   1      10.259   2.692 -16.120  0.00  0.00     0.250 C 
BRANCH   5   6
ATOM      6  C   UNL d   1      10.729   4.111 -15.750  0.00  0.00     0.035 C 
ATOM      7  C   UNL d   1      12.208   4.369 -16.042  0.00  0.00     0.002 C 
ENDBRANCH   5   6
ENDBRANCH   4   5
BRANCH   4   8
ATOM      8  C   UNL d   1       8.400   1.140 -16.391  0.00  0.00     0.225 C 
ATOM      9  C   UNL d   1       6.956   0.759 -15.941  0.00  0.00     0.068 C 
ATOM     10  C   UNL d   1       6.360  -0.345 -16.754  0.00  0.00     0.026 A 
ATOM     11  C   UNL d   1       6.852  -0.788 -17.950  0.00  0.00     0.063 A 
ATOM     12  S   UNL d   1       4.969  -1.257 -16.245  0.00  0.00    -0.050 SA
ATOM     13  C   UNL d   1       8.070  -0.218 -18.590  0.00  0.00     0.048 C 
ATOM     14  N   UNL d   1       6.131  -1.854 -18.503  0.00  0.00    -0.224 NA
ATOM     15  C   UNL d   1       8.497   1.121 -17.949  0.00  0.00     0.040 C 
ATOM     16  C   UNL d   1       5.096  -2.193 -17.734  0.00  0.00     0.214 A 
ATOM     17  N   UNL d   1       4.167  -3.150 -18.080  0.00  0.00    -0.120 N 
ENDBRANCH   4   8
ENDBRANCH   3   4
ENDBRANCH   2   3
ENDBRANCH   1   2
BRANCH   1  18
ATOM     18  C   UNL d   1       8.531   5.911 -12.309  0.00  0.00     0.129 C 
BRANCH  18  19
ATOM     19  N   UNL d   1       9.104   6.227 -11.008  0.00  0.00    -0.234 NA
ATOM     20  C   UNL d   1       9.629   7.411 -10.660  0.00  0.00     0.275 C 
ATOM     21  O   UNL d   1       9.722   8.367 -11.433  0.00  0.00    -0.266 OA
BRANCH  20  22
ATOM     22  C   UNL d   1      10.113   7.519  -9.243  0.00  0.00     0.058 A 
ATOM     23  C   UNL d   1       9.460   6.813  -8.204  0.00  0.00     0.005 A 
ATOM     24  C   UNL d   1       9.898   6.944  -6.874  0.00  0.00     0.000 A 
ATOM     25  C   UNL d   1      10.977   7.791  -6.543  0.00  0.00     0.000 A 
ATOM     26  C   UNL d   1      11.612   8.507  -7.582  0.00  0.00     0.000 A 
ATOM     27  C   UNL d   1      11.183   8.377  -8.917  0.00  0.00     0.005 A 
BRANCH  25  28
ATOM     28  C   UNL d   1      11.419   7.930  -5.144  0.00  0.00     0.000 A 
ATOM     29  C   UNL d   1      11.664   9.203  -4.583  0.00  0.00     0.000 A 
ATOM     30  C   UNL d   1      12.069   9.333  -3.241  0.00  0.00     0.000 A 
ATOM     31  C   UNL d   1      12.247   8.190  -2.441  0.00  0.00     0.000 A 
ATOM     32  C   UNL d   1      12.004   6.915  -2.982  0.00  0.00     0.000 A 
ATOM     33  C   UNL d   1      11.594   6.791  -4.325  0.00  0.00     0.000 A 
ENDBRANCH  25  28
ENDBRANCH  20  22
ENDBRANCH  18  19
ENDBRANCH   1  18
TORSDOF 10
