REMARK  2 active torsions:
REMARK  status: ('A' for Active; 'I' for Inactive)
REMARK    1  A    between atoms: C_2  and  N_4 
REMARK    2  A    between atoms: N_4  and  C_5 
ROOT
ATOM      1  C   UNL d   1      10.451   7.949  -7.408  0.00  0.00     0.103 C 
ATOM      2  C   UNL d   1      10.182   6.603  -6.711  0.00  0.00     0.029 C 
ATOM      3  C   UNL d   1      11.287   6.444  -5.652  0.00  0.00     0.030 C 
ATOM      4  C   UNL d   1      11.466   7.658  -4.765  0.00  0.00     0.002 A 
ATOM      5  C   UNL d   1      12.149   7.526  -3.534  0.00  0.00     0.136 A 
ATOM      6  F   UNL d   1      12.614   6.328  -3.129  0.00  0.00    -0.205 F 
ATOM      7  C   UNL d   1      12.334   8.638  -2.699  0.00  0.00     0.029 A 
ATOM      8  C   UNL d   1      11.844   9.890  -3.098  0.00  0.00     0.002 A 
ATOM      9  C   UNL d   1      11.162  10.027  -4.319  0.00  0.00    -0.004 A 
ATOM     10  C   UNL d   1      10.974   8.922  -5.165  0.00  0.00    -0.022 A 
ATOM     11  C   UNL d   1      10.177   9.106  -6.440  0.00  0.00     0.050 C 
ENDROOT
BRANCH   1  12
ATOM     12  N   UNL d   1       9.546   8.129  -8.563  0.00  0.00    -0.299 NA
BRANCH  12  13
ATOM     13  C   UNL d   1      10.135   7.984  -9.877  0.00  0.00     0.098 C 
ATOM     14  C   UNL d   1      10.161   6.508 -10.277  0.00  0.00     0.026 C 
ATOM     15  C   UNL d   1      11.501   8.688  -9.962  0.00  0.00     0.026 C 
ENDBRANCH  12  13
ENDBRANCH   1  12
TORSDOF 2
