REMARK  0 active torsions:
REMARK  status: ('A' for Active; 'I' for Inactive)
ROOT
ATOM      1  C   UNL d   1       3.881  -1.351 -15.202  0.00  0.00     0.285 C 
ATOM      2  N   UNL d   1       5.175  -0.817 -14.796  0.00  0.00     0.140 N 
ATOM      3  C   UNL d   1       6.122  -0.968 -15.906  0.00  0.00     0.252 C 
ATOM      4  C   UNL d   1       7.501  -0.305 -15.608  0.00  0.00     0.058 C 
ATOM      5  C   UNL d   1       7.252   1.161 -15.299  0.00  0.00     0.093 C 
ATOM      6  C   UNL d   1       6.385   1.169 -14.074  0.00  0.00     0.078 C 
ATOM      7  C   UNL d   1       5.029   0.596 -14.454  0.00  0.00     0.257 C 
ATOM      8  C   UNL d   1       6.538   2.594 -13.651  0.00  0.00    -0.002 A 
ATOM      9  C   UNL d   1       5.771   3.440 -12.839  0.00  0.00    -0.003 A 
ATOM     10  C   UNL d   1       6.331   4.678 -12.456  0.00  0.00     0.000 A 
ATOM     11  C   UNL d   1       7.650   5.026 -12.840  0.00  0.00     0.008 A 
ATOM     12  C   UNL d   1       8.461   4.188 -13.645  0.00  0.00     0.041 A 
ATOM     13  C   UNL d   1       7.823   2.997 -14.065  0.00  0.00     0.062 A 
ATOM     14  N   UNL d   1       8.377   2.035 -14.978  0.00  0.00    -0.329 N 
ATOM     15  C   UNL d   1       9.377   2.216 -15.969  0.00  0.00     0.057 A 
ATOM     16  C   UNL d   1       9.122   1.924 -17.336  0.00  0.00     0.017 A 
ATOM     17  C   UNL d   1      10.121   2.067 -18.318  0.00  0.00     0.002 A 
ATOM     18  C   UNL d   1      11.404   2.502 -17.954  0.00  0.00    -0.000 A 
ATOM     19  C   UNL d   1      11.681   2.800 -16.612  0.00  0.00    -0.002 A 
ATOM     20  C   UNL d   1      10.677   2.662 -15.626  0.00  0.00     0.005 A 
ATOM     21  C   UNL d   1      10.996   3.073 -14.213  0.00  0.00     0.090 C 
ATOM     22  S   UNL d   1      10.146   4.634 -13.936  0.00  0.00    -0.107 SA
ENDROOT
TORSDOF 0
