REMARK  5 active torsions:
REMARK  status: ('A' for Active; 'I' for Inactive)
REMARK    1  A    between atoms: C_2  and  C_3 
REMARK    2  A    between atoms: C_2  and  C_13 
REMARK    3  A    between atoms: C_4  and  C_6 
REMARK    4  A    between atoms: N_16  and  C_17 
REMARK    5  A    between atoms: C_17  and  C_18 
ROOT
ATOM      1  C   UNL d   1       7.970   5.854 -11.411  0.00  0.00     0.066 C 
ATOM      2  C   UNL d   1       8.392   4.426 -11.098  0.00  0.00     0.043 C 
ATOM      3  C   UNL d   1       9.458   3.942 -12.089  0.00  0.00     0.251 C 
ATOM      4  N   UNL d   1       8.902   3.893 -13.438  0.00  0.00     0.141 N 
ATOM      5  C   UNL d   1       8.528   5.254 -13.822  0.00  0.00     0.251 C 
ATOM      6  C   UNL d   1       7.471   5.841 -12.857  0.00  0.00     0.043 C 
ENDROOT
BRANCH   1   7
ATOM      7  C   UNL d   1       9.094   6.880 -11.140  0.00  0.00     0.175 C 
ATOM      8  O   UNL d   1       9.414   7.698 -11.997  0.00  0.00    -0.291 OA
BRANCH   7   9
ATOM      9  C   UNL d   1       9.694   6.862  -9.787  0.00  0.00     0.065 C 
ATOM     10  C   UNL d   1       9.861   7.987  -9.047  0.00  0.00     0.134 C 
ATOM     11  O   UNL d   1       9.438   9.181  -9.490  0.00  0.00    -0.190 OA
BRANCH  10  12
ATOM     12  C   UNL d   1      10.413   8.005  -7.692  0.00  0.00     0.025 A 
ATOM     13  C   UNL d   1      10.320   6.865  -6.874  0.00  0.00     0.003 A 
ATOM     14  C   UNL d   1      10.848   6.878  -5.574  0.00  0.00     0.011 A 
ATOM     15  C   UNL d   1      11.463   8.043  -5.074  0.00  0.00     0.058 A 
ATOM     16  C   UNL d   1      11.566   9.190  -5.888  0.00  0.00     0.011 A 
ATOM     17 CL   UNL d   1      12.150   8.047  -3.494  0.00  0.00    -0.082 Cl
ATOM     18  C   UNL d   1      11.050   9.164  -7.200  0.00  0.00     0.003 A 
ENDBRANCH  10  12
ENDBRANCH   7   9
ENDBRANCH   1   7
BRANCH   4  19
ATOM     19  C   UNL d   1       9.923   3.394 -14.358  0.00  0.00     0.277 C 
BRANCH  19  20
ATOM     20  C   UNL d   1       9.322   2.825 -15.621  0.00  0.00     0.011 A 
ATOM     21  C   UNL d   1       9.616   3.392 -16.875  0.00  0.00    -0.002 A 
ATOM     22  C   UNL d   1       9.059   2.834 -18.042  0.00  0.00    -0.000 A 
ATOM     23  C   UNL d   1       8.210   1.711 -17.956  0.00  0.00    -0.000 A 
ATOM     24  C   UNL d   1       7.909   1.151 -16.699  0.00  0.00    -0.000 A 
ATOM     25  C   UNL d   1       8.468   1.709 -15.533  0.00  0.00    -0.002 A 
ENDBRANCH  19  20
ENDBRANCH   4  19
TORSDOF 5
