REMARK  4 active torsions:
REMARK  status: ('A' for Active; 'I' for Inactive)
REMARK    1  A    between atoms: O_2  and  C_3 
REMARK    2  A    between atoms: C_8  and  O_9 
REMARK    3  A    between atoms: C_14  and  O_15 
REMARK    4  A    between atoms: C_19  and  O_20 
ROOT
ATOM      1  C   UNL d   1      10.677   0.483 -18.830  0.00  0.00     0.116 A 
ATOM      2  C   UNL d   1      10.937   1.870 -18.654  0.00  0.00     0.022 A 
ATOM      3  C   UNL d   1      10.732   2.481 -17.404  0.00  0.00    -0.020 A 
ATOM      4  C   UNL d   1      10.270   1.718 -16.305  0.00  0.00     0.007 A 
ATOM      5  C   UNL d   1      10.002   0.348 -16.477  0.00  0.00     0.024 A 
ATOM      6  C   UNL d   1      10.199  -0.265 -17.727  0.00  0.00     0.116 A 
ATOM      7  C   UNL d   1      10.020   2.394 -14.964  0.00  0.00     0.246 C 
ATOM      8  C   UNL d   1       8.503   2.613 -14.771  0.00  0.00     0.066 C 
ATOM      9  C   UNL d   1       8.140   3.576 -13.658  0.00  0.00     0.002 A 
ATOM     10  C   UNL d   1       6.806   3.664 -13.227  0.00  0.00     0.090 A 
ATOM     11  C   UNL d   1       6.461   4.572 -12.209  0.00  0.00     0.026 A 
ATOM     12  C   UNL d   1       7.445   5.390 -11.626  0.00  0.00     0.026 A 
ATOM     13  C   UNL d   1       8.796   5.302 -12.045  0.00  0.00     0.092 A 
ATOM     14  C   UNL d   1       9.128   4.395 -13.076  0.00  0.00     0.031 A 
ATOM     15  C   UNL d   1      10.569   4.236 -13.519  0.00  0.00     0.279 C 
ATOM     16  N   UNL d   1      10.773   3.650 -14.835  0.00  0.00     0.144 N 
ATOM     17  C   UNL d   1      10.490   4.570 -15.933  0.00  0.00     0.256 C 
ATOM     18  C   UNL d   1      11.067   3.959 -17.223  0.00  0.00     0.061 C 
ENDROOT
BRANCH   1  19
ATOM     19  O   UNL d   1      10.888  -0.195 -20.012  0.00  0.00    -0.326 OA
ATOM     20  C   UNL d   1      11.258   0.560 -21.158  0.00  0.00     0.181 C 
ENDBRANCH   1  19
BRANCH   6  21
ATOM     21  O   UNL d   1       9.983  -1.611 -17.830  0.00  0.00    -0.326 OA
ATOM     22  C   UNL d   1       8.707  -1.955 -18.349  0.00  0.00     0.181 C 
ENDBRANCH   6  21
BRANCH  10  23
ATOM     23  O   UNL d   1       5.859   2.906 -13.856  0.00  0.00    -0.328 OA
ATOM     24  C   UNL d   1       5.441   1.759 -13.132  0.00  0.00     0.181 C 
ENDBRANCH  10  23
BRANCH  13  25
ATOM     25  O   UNL d   1       9.827   6.030 -11.486  0.00  0.00    -0.328 OA
ATOM     26  C   UNL d   1       9.502   7.113 -10.623  0.00  0.00     0.181 C 
ENDBRANCH  13  25
TORSDOF 4
