REMARK  3 active torsions:
REMARK  status: ('A' for Active; 'I' for Inactive)
REMARK    1  A    between atoms: C_8  and  C_9 
REMARK    2  A    between atoms: C_9  and  N_10 
REMARK    3  A    between atoms: N_13  and  C_14 
ROOT
ATOM      1  N   UNL d   1       9.531   6.663 -11.253  0.00  0.00     0.147 N 
ATOM      2  C   UNL d   1      10.135   7.976 -10.988  0.00  0.00     0.275 C 
ATOM      3  C   UNL d   1      11.311   7.835 -10.001  0.00  0.00     0.137 C 
ATOM      4  N   UNL d   1      10.826   7.197  -8.777  0.00  0.00    -0.344 N 
ATOM      5  C   UNL d   1      10.070   5.958  -8.935  0.00  0.00     0.137 C 
ATOM      6  C   UNL d   1       8.989   6.117  -9.998  0.00  0.00     0.275 C 
ENDROOT
BRANCH   1   7
ATOM      7  C   UNL d   1       8.535   6.780 -12.310  0.00  0.00     0.295 C 
BRANCH   7   8
ATOM      8  C   UNL d   1       7.850   5.499 -12.688  0.00  0.00     0.091 A 
ATOM      9  C   UNL d   1       6.550   5.171 -12.415  0.00  0.00     0.075 A 
ATOM     10  N   UNL d   1       6.207   3.946 -12.948  0.00  0.00    -0.231 NA
ATOM     11  C   UNL d   1       5.551   5.951 -11.648  0.00  0.00     0.053 C 
ATOM     12  C   UNL d   1       7.304   3.498 -13.539  0.00  0.00     0.149 A 
ATOM     13  C   UNL d   1       7.553   2.282 -14.227  0.00  0.00     0.052 A 
ATOM     14  N   UNL d   1       8.382   4.412 -13.406  0.00  0.00    -0.281 N 
ATOM     15  C   UNL d   1       8.827   2.068 -14.685  0.00  0.00     0.064 A 
ATOM     16  C   UNL d   1       9.202   0.790 -15.390  0.00  0.00     0.052 C 
ATOM     17  N   UNL d   1       9.848   2.960 -14.552  0.00  0.00    -0.236 NA
ATOM     18  C   UNL d   1       9.603   4.085 -13.948  0.00  0.00     0.125 A 
ATOM     19  C   UNL d   1      10.798   4.984 -13.812  0.00  0.00     0.072 C 
ENDBRANCH   7   8
ENDBRANCH   1   7
BRANCH   4  20
ATOM     20  C   UNL d   1      11.023   7.766  -7.519  0.00  0.00     0.057 A 
ATOM     21  C   UNL d   1      11.274   6.949  -6.393  0.00  0.00     0.029 A 
ATOM     22  C   UNL d   1      11.467   7.523  -5.129  0.00  0.00     0.070 A 
ATOM     23  C   UNL d   1      11.398   8.913  -4.965  0.00  0.00     0.068 A 
ATOM     24 CL   UNL d   1      11.875   6.554  -3.765  0.00  0.00    -0.081 Cl
ATOM     25  C   UNL d   1      11.136   9.738  -6.071  0.00  0.00     0.014 A 
ATOM     26 CL   UNL d   1      11.662   9.591  -3.413  0.00  0.00    -0.082 Cl
ATOM     27  C   UNL d   1      10.970   9.172  -7.349  0.00  0.00     0.018 A 
ENDBRANCH   4  20
TORSDOF 3
