REMARK  7 active torsions:
REMARK  status: ('A' for Active; 'I' for Inactive)
REMARK    1  A    between atoms: O_2  and  C_3 
REMARK    2  A    between atoms: C_3  and  C_5 
REMARK    3  A    between atoms: C_8  and  C_9 
REMARK    4  A    between atoms: C_11  and  C_12 
REMARK    5  A    between atoms: C_12  and  N_13 
REMARK    6  A    between atoms: N_13  and  C_15 
REMARK    7  A    between atoms: C_15  and  C_16 
ROOT
ATOM      1  C   UNL d   1       8.845   3.836 -13.527  0.00  0.00     0.182 A 
ATOM      2  N   UNL d   1       9.727   4.553 -12.825  0.00  0.00    -0.223 NA
ATOM      3  C   UNL d   1       8.953   5.368 -12.008  0.00  0.00     0.113 A 
ATOM      4  C   UNL d   1       7.635   5.109 -12.279  0.00  0.00     0.095 A 
ATOM      5  C   UNL d   1       6.375   5.657 -11.720  0.00  0.00     0.060 C 
ATOM      6  O   UNL d   1       7.550   4.139 -13.232  0.00  0.00    -0.292 OA
ENDROOT
BRANCH   3   7
ATOM      7  C   UNL d   1       9.550   6.329 -11.013  0.00  0.00     0.297 C 
BRANCH   7   8
ATOM      8  N   UNL d   1       9.243   6.215  -9.588  0.00  0.00     0.148 N 
ATOM      9  C   UNL d   1       9.676   4.926  -9.071  0.00  0.00     0.286 C 
BRANCH   8  10
ATOM     10  C   UNL d   1       9.888   7.322  -8.880  0.00  0.00     0.281 C 
BRANCH  10  11
ATOM     11  C   UNL d   1       9.554   7.370  -7.380  0.00  0.00     0.159 A 
ATOM     12  O   UNL d   1      10.445   6.497  -6.667  0.00  0.00    -0.331 OA
ATOM     13  C   UNL d   1      11.029   7.197  -5.644  0.00  0.00     0.090 A 
ATOM     14  C   UNL d   1      10.662   8.533  -5.620  0.00  0.00     0.003 A 
ATOM     15  C   UNL d   1      11.860   6.671  -4.644  0.00  0.00     0.024 A 
ATOM     16  C   UNL d   1       9.720   8.782  -6.752  0.00  0.00     0.060 A 
ATOM     17  C   UNL d   1      11.099   9.412  -4.618  0.00  0.00    -0.002 A 
ATOM     18  C   UNL d   1      11.924   8.886  -3.600  0.00  0.00    -0.000 A 
ATOM     19  C   UNL d   1      12.303   7.524  -3.611  0.00  0.00     0.002 A 
ENDBRANCH  10  11
ENDBRANCH   8  10
ENDBRANCH   7   8
ENDBRANCH   3   7
BRANCH   1  20
ATOM     20  C   UNL d   1       9.096   2.823 -14.543  0.00  0.00     0.041 A 
ATOM     21  C   UNL d   1      10.409   2.371 -14.789  0.00  0.00     0.004 A 
ATOM     22  C   UNL d   1      10.652   1.396 -15.778  0.00  0.00     0.005 A 
ATOM     23  C   UNL d   1       9.587   0.860 -16.536  0.00  0.00     0.063 A 
ATOM     24  C   UNL d   1       8.272   1.315 -16.283  0.00  0.00     0.005 A 
ATOM     25  C   UNL d   1       8.027   2.278 -15.286  0.00  0.00     0.004 A 
BRANCH  23  26
ATOM     26  C   UNL d   1       9.860  -0.183 -17.565  0.00  0.00     0.296 C 
ATOM     27  O   UNL d   1      10.949  -0.739 -17.698  0.00  0.00    -0.259 OA
BRANCH  26  28
ATOM     28  O   UNL d   1       8.789  -0.450 -18.336  0.00  0.00    -0.296 OA
ATOM     29  C   UNL d   1       8.866  -1.488 -19.294  0.00  0.00     0.185 C 
ENDBRANCH  26  28
ENDBRANCH  23  26
ENDBRANCH   1  20
TORSDOF 7
