REMARK  3 active torsions:
REMARK  status: ('A' for Active; 'I' for Inactive)
REMARK    1  A    between atoms: C_4  and  C_5 
REMARK    2  A    between atoms: C_5  and  N_6 
REMARK    3  A    between atoms: C_14  and  C_15 
ROOT
ATOM      1  N   UNL d   1       9.526   7.577 -10.163  0.00  0.00     0.144 N 
ATOM      2  C   UNL d   1       9.232   7.962 -11.552  0.00  0.00     0.254 C 
ATOM      3  C   UNL d   1       8.323   6.913 -12.221  0.00  0.00     0.071 C 
ATOM      4  C   UNL d   1       8.913   5.494 -12.137  0.00  0.00     0.157 A 
ATOM      5  C   UNL d   1       9.304   5.184 -10.694  0.00  0.00     0.071 C 
ATOM      6  C   UNL d   1      10.184   6.285 -10.134  0.00  0.00     0.254 C 
ATOM      7  O   UNL d   1      10.066   5.322 -12.960  0.00  0.00    -0.326 OA
ATOM      8  C   UNL d   1       9.842   4.239 -13.769  0.00  0.00     0.119 A 
ATOM      9  C   UNL d   1       8.628   3.671 -13.674  0.00  0.00     0.061 A 
ATOM     10  C   UNL d   1       7.929   4.459 -12.665  0.00  0.00     0.200 A 
ATOM     11  O   UNL d   1       6.770   4.355 -12.255  0.00  0.00    -0.289 OA
ENDROOT
BRANCH   9  12
ATOM     12  C   UNL d   1       8.093   2.548 -14.481  0.00  0.00     0.005 A 
ATOM     13  C   UNL d   1       6.822   1.989 -14.192  0.00  0.00     0.000 A 
ATOM     14  C   UNL d   1       6.325   0.938 -14.979  0.00  0.00     0.000 A 
ATOM     15  C   UNL d   1       7.076   0.449 -16.054  0.00  0.00     0.000 A 
ATOM     16  C   UNL d   1       8.337   0.999 -16.343  0.00  0.00     0.000 A 
ATOM     17  C   UNL d   1       8.849   2.045 -15.559  0.00  0.00     0.000 A 
ENDBRANCH   9  12
BRANCH   1  18
ATOM     18  C   UNL d   1      10.321   8.625  -9.514  0.00  0.00     0.303 C 
BRANCH  18  19
ATOM     19  C   UNL d   1      10.606   8.408  -8.046  0.00  0.00     0.137 A 
ATOM     20  C   UNL d   1      11.122   7.374  -7.314  0.00  0.00     0.041 A 
ATOM     21  C   UNL d   1      11.075   7.825  -5.979  0.00  0.00     0.088 A 
ATOM     22  C   UNL d   1      11.503   7.044  -4.780  0.00  0.00     0.055 C 
ATOM     23  N   UNL d   1      10.647   9.072  -5.890  0.00  0.00    -0.131 NA
ATOM     24  O   UNL d   1      10.335   9.446  -7.205  0.00  0.00    -0.214 OA
ENDBRANCH  18  19
ENDBRANCH   1  18
TORSDOF 3
