REMARK  8 active torsions:
REMARK  status: ('A' for Active; 'I' for Inactive)
REMARK    1  A    between atoms: O_2  and  C_3 
REMARK    2  A    between atoms: C_9  and  C_10 
REMARK    3  A    between atoms: N_14  and  C_15 
REMARK    4  A    between atoms: C_15  and  C_16 
REMARK    5  A    between atoms: C_16  and  C_17 
REMARK    6  A    between atoms: C_17  and  C_18 
REMARK    7  A    between atoms: C_18  and  N_19 
REMARK    8  A    between atoms: C_22  and  C_23 
ROOT
ATOM      1  C   UNL d   1       9.453   4.497 -14.195  0.00  0.00     0.112 C 
ENDROOT
BRANCH   1   2
ATOM      2  N   UNL d   1       9.807   3.264 -14.906  0.00  0.00    -0.270 N 
ATOM      3  C   UNL d   1      11.067   2.943 -15.266  0.00  0.00     0.240 A 
ATOM      4  C   UNL d   1      11.080   1.616 -16.039  0.00  0.00     0.102 A 
ATOM      5  O   UNL d   1      12.068   3.592 -15.065  0.00  0.00    -0.272 OA
ATOM      6  C   UNL d   1       9.605   1.212 -16.059  0.00  0.00     0.113 A 
ATOM      7  C   UNL d   1       8.909   2.332 -15.290  0.00  0.00     0.243 A 
ATOM      8  O   UNL d   1       7.711   2.373 -15.083  0.00  0.00    -0.272 OA
BRANCH   6   9
ATOM      9  C   UNL d   1       9.047   1.108 -17.469  0.00  0.00     0.007 A 
ATOM     10  C   UNL d   1       8.479  -0.001 -18.031  0.00  0.00     0.095 A 
ATOM     11  N   UNL d   1       8.108   0.293 -19.332  0.00  0.00    -0.244 NA
ATOM     12  C   UNL d   1       8.425   1.600 -19.647  0.00  0.00     0.081 A 
ATOM     13  C   UNL d   1       8.256   2.369 -20.811  0.00  0.00     0.021 A 
ATOM     14  C   UNL d   1       9.022   2.142 -18.470  0.00  0.00     0.018 A 
ATOM     15  C   UNL d   1       8.689   3.710 -20.826  0.00  0.00     0.026 A 
ATOM     16  C   UNL d   1       9.282   4.287 -19.685  0.00  0.00     0.094 A 
ATOM     17  C   UNL d   1       9.441   3.493 -18.525  0.00  0.00     0.025 A 
BRANCH  16  18
ATOM     18  O   UNL d   1       9.671   5.605 -19.770  0.00  0.00    -0.328 OA
ATOM     19  C   UNL d   1      10.212   6.227 -18.610  0.00  0.00     0.181 C 
ENDBRANCH  16  18
ENDBRANCH   6   9
ENDBRANCH   1   2
BRANCH   1  20
ATOM     20  C   UNL d   1       8.870   4.219 -12.793  0.00  0.00     0.027 C 
BRANCH  20  21
ATOM     21  C   UNL d   1       9.144   5.370 -11.824  0.00  0.00     0.037 C 
BRANCH  21  22
ATOM     22  C   UNL d   1       8.628   5.096 -10.402  0.00  0.00     0.250 C 
BRANCH  22  23
ATOM     23  N   UNL d   1       9.061   6.094  -9.410  0.00  0.00     0.137 N 
ATOM     24  C   UNL d   1       8.565   5.707  -8.092  0.00  0.00     0.251 C 
ATOM     25  C   UNL d   1       8.929   6.763  -7.025  0.00  0.00     0.040 C 
ATOM     26  C   UNL d   1      10.447   6.967  -6.966  0.00  0.00     0.028 C 
ATOM     27  C   UNL d   1      10.970   7.262  -8.361  0.00  0.00     0.040 C 
ATOM     28  C   UNL d   1      10.514   6.183  -9.339  0.00  0.00     0.251 C 
BRANCH  26  29
ATOM     29  C   UNL d   1      10.832   8.084  -6.021  0.00  0.00    -0.002 A 
ATOM     30  C   UNL d   1      11.446   7.957  -4.738  0.00  0.00     0.015 A 
ATOM     31  C   UNL d   1      11.586   9.267  -4.195  0.00  0.00     0.081 A 
ATOM     32  C   UNL d   1      11.856   6.871  -3.934  0.00  0.00     0.001 A 
ATOM     33  N   UNL d   1      11.083  10.128  -5.146  0.00  0.00    -0.244 NA
ATOM     34  C   UNL d   1      12.134   9.484  -2.925  0.00  0.00     0.019 A 
ATOM     35  C   UNL d   1      10.660   9.416  -6.252  0.00  0.00     0.095 A 
ATOM     36  C   UNL d   1      12.564   8.387  -2.159  0.00  0.00     0.002 A 
ATOM     37  C   UNL d   1      12.415   7.079  -2.655  0.00  0.00     0.000 A 
ENDBRANCH  26  29
ENDBRANCH  22  23
ENDBRANCH  21  22
ENDBRANCH  20  21
ENDBRANCH   1  20
TORSDOF 8
