REMARK  7 active torsions:
REMARK  status: ('A' for Active; 'I' for Inactive)
REMARK    1  A    between atoms: C_2  and  C_3 
REMARK       I    between atoms: C_2  and  N_11 
REMARK    2  A    between atoms: C_14  and  C_16 
REMARK    3  A    between atoms: C_16  and  N_17 
REMARK    4  A    between atoms: N_17  and  C_18 
REMARK    5  A    between atoms: C_18  and  C_19 
REMARK    6  A    between atoms: C_19  and  O_20 
REMARK    7  A    between atoms: O_20  and  C_21 
ROOT
ATOM      1  O   UNL d   1       9.625  -0.913 -17.907  0.00  0.00    -0.267 OA
ATOM      2  C   UNL d   1       8.721  -0.142 -17.583  0.00  0.00     0.257 C 
ATOM      3  N   UNL d   1       8.947   1.076 -17.015  0.00  0.00    -0.317 N 
ATOM      4  C   UNL d   1       7.912   2.049 -16.622  0.00  0.00     0.107 C 
ATOM      5  C   UNL d   1       8.120   2.434 -15.149  0.00  0.00     0.059 C 
ATOM      6  C   UNL d   1       9.524   3.027 -14.929  0.00  0.00     0.172 C 
ATOM      7  F   UNL d   1       9.640   4.159 -15.647  0.00  0.00    -0.238 F 
ATOM      8  C   UNL d   1      10.597   2.044 -15.436  0.00  0.00     0.059 C 
ATOM      9  C   UNL d   1      10.311   1.617 -16.888  0.00  0.00     0.107 C 
ENDROOT
BRANCH   6  10
ATOM     10  C   UNL d   1       9.765   3.357 -13.450  0.00  0.00     0.323 C 
BRANCH  10  11
ATOM     11  N   UNL d   1       8.962   4.490 -13.032  0.00  0.00     0.345 N 
BRANCH  11  12
ATOM     12  C   UNL d   1       9.394   4.899 -11.715  0.00  0.00     0.323 C 
BRANCH  12  13
ATOM     13  C   UNL d   1       8.310   5.742 -11.035  0.00  0.00     0.187 C 
BRANCH  13  14
ATOM     14  O   UNL d   1       8.677   5.973  -9.682  0.00  0.00    -0.327 OA
BRANCH  14  15
ATOM     15  C   UNL d   1       9.696   6.860  -9.403  0.00  0.00     0.118 A 
ATOM     16  C   UNL d   1      10.049   7.019  -8.047  0.00  0.00     0.138 A 
ATOM     17  C   UNL d   1      11.123   7.860  -7.667  0.00  0.00     0.118 A 
ATOM     18  O   UNL d   1       9.316   6.334  -7.109  0.00  0.00    -0.324 OA
ATOM     19  C   UNL d   1      11.846   8.551  -8.649  0.00  0.00     0.026 A 
ATOM     20  O   UNL d   1      11.473   8.016  -6.347  0.00  0.00    -0.326 OA
ATOM     21  C   UNL d   1      11.475   8.426 -10.000  0.00  0.00     0.004 A 
ATOM     22  C   UNL d   1      10.388   7.614 -10.376  0.00  0.00     0.026 A 
ATOM     23  C   UNL d   1      10.979   7.007  -5.484  0.00  0.00     0.181 C 
ATOM     24  C   UNL d   1       9.492   6.805  -5.786  0.00  0.00     0.182 C 
ENDBRANCH  14  15
ENDBRANCH  13  14
ENDBRANCH  12  13
ENDBRANCH  11  12
ENDBRANCH  10  11
ENDBRANCH   6  10
BRANCH   2  25
ATOM     25  C   UNL d   1       7.296  -0.530 -17.865  0.00  0.00     0.057 A 
ATOM     26  C   UNL d   1       6.366  -0.706 -16.817  0.00  0.00     0.018 A 
ATOM     27  C   UNL d   1       5.031  -1.062 -17.089  0.00  0.00     0.085 A 
ATOM     28  C   UNL d   1       4.619  -1.281 -18.424  0.00  0.00     0.151 A 
ATOM     29 CL   UNL d   1       3.918  -1.214 -15.780  0.00  0.00    -0.080 Cl
ATOM     30  C   UNL d   1       5.550  -1.131 -19.472  0.00  0.00     0.031 A 
ATOM     31  F   UNL d   1       3.338  -1.613 -18.703  0.00  0.00    -0.203 F 
ATOM     32  C   UNL d   1       6.884  -0.772 -19.194  0.00  0.00     0.007 A 
ENDBRANCH   2  25
TORSDOF 7
