REMARK  7 active torsions:
REMARK  status: ('A' for Active; 'I' for Inactive)
REMARK    1  A    between atoms: S_2  and  N_4 
REMARK    2  A    between atoms: S_2  and  C_21 
REMARK    3  A    between atoms: N_4  and  C_5 
REMARK    4  A    between atoms: N_8  and  C_9 
REMARK    5  A    between atoms: C_9  and  C_10 
REMARK    6  A    between atoms: C_10  and  O_11 
REMARK    7  A    between atoms: O_11  and  C_12 
ROOT
ATOM      1  C   UNL d   1       9.636   6.428 -10.842  0.00  0.00     0.151 C 
ATOM      2  C   UNL d   1       9.660   7.965 -10.967  0.00  0.00     0.063 C 
ATOM      3  C   UNL d   1       9.990   8.429  -9.557  0.00  0.00     0.253 C 
ATOM      4  N   UNL d   1      10.709   7.264  -9.050  0.00  0.00     0.142 N 
ATOM      5  C   UNL d   1       9.886   6.137  -9.388  0.00  0.00     0.275 C 
ENDROOT
BRANCH   4   6
ATOM      6  C   UNL d   1      10.790   7.378  -7.643  0.00  0.00     0.283 C 
BRANCH   6   7
ATOM      7  C   UNL d   1      11.535   6.337  -6.831  0.00  0.00     0.184 C 
BRANCH   7   8
ATOM      8  O   UNL d   1      11.277   6.435  -5.409  0.00  0.00    -0.328 OA
BRANCH   8   9
ATOM      9  C   UNL d   1      11.433   7.635  -4.753  0.00  0.00     0.105 A 
ATOM     10  C   UNL d   1      12.107   7.622  -3.482  0.00  0.00     0.090 A 
ATOM     11  C   UNL d   1      12.289   8.786  -2.759  0.00  0.00     0.070 A 
ATOM     12 CL   UNL d   1      12.657   6.183  -2.735  0.00  0.00    -0.079 Cl
ATOM     13  C   UNL d   1      11.820  10.008  -3.243  0.00  0.00     0.012 A 
ATOM     14 CL   UNL d   1      13.059   8.713  -1.246  0.00  0.00    -0.081 Cl
ATOM     15  C   UNL d   1      11.134  10.036  -4.486  0.00  0.00     0.003 A 
ATOM     16  C   UNL d   1      10.909   8.883  -5.167  0.00  0.00     0.025 A 
ENDBRANCH   8   9
ENDBRANCH   7   8
ENDBRANCH   6   7
ENDBRANCH   4   6
BRANCH   1  17
ATOM     17  N   UNL d   1       8.375   5.805 -11.184  0.00  0.00    -0.184 NA
BRANCH  17  18
ATOM     18  S   UNL d   1       7.999   5.860 -12.813  0.00  0.00     0.287 S 
ATOM     19  O   UNL d   1       7.250   7.125 -12.942  0.00  0.00    -0.198 OA
ATOM     20  O   UNL d   1       9.220   5.586 -13.580  0.00  0.00    -0.198 OA
BRANCH  18  21
ATOM     21  C   UNL d   1       6.924   4.470 -13.054  0.00  0.00     0.135 A 
ATOM     22  S   UNL d   1       7.407   3.110 -14.006  0.00  0.00    -0.062 SA
ATOM     23  C   UNL d   1       5.947   2.249 -13.636  0.00  0.00     0.088 A 
ATOM     24  C   UNL d   1       5.131   2.990 -12.824  0.00  0.00     0.019 A 
ATOM     25 CL   UNL d   1       5.676   0.667 -14.257  0.00  0.00    -0.075 Cl
ATOM     26  C   UNL d   1       5.706   4.245 -12.470  0.00  0.00     0.021 A 
ENDBRANCH  18  21
ENDBRANCH  17  18
ENDBRANCH   1  17
TORSDOF 7
