REMARK  7 active torsions:
REMARK  status: ('A' for Active; 'I' for Inactive)
REMARK    1  A    between atoms: N_2  and  C_3 
REMARK    2  A    between atoms: C_3  and  C_5 
REMARK    3  A    between atoms: C_10  and  O_11 
REMARK    4  A    between atoms: O_11  and  C_12 
REMARK    5  A    between atoms: C_18  and  O_19 
REMARK    6  A    between atoms: O_19  and  C_20 
REMARK    7  A    between atoms: C_26  and  N_27 
ROOT
ATOM      1  C   UNL d   1       8.541   2.838 -14.244  0.00  0.00     0.188 C 
ATOM      2  C   UNL d   1       9.934   3.287 -14.708  0.00  0.00     0.334 C 
ATOM      3  N   UNL d   1      10.695   3.837 -13.580  0.00  0.00     0.619 N 
ATOM      4  C   UNL d   1      10.698   2.097 -15.296  0.00  0.00     0.083 C 
ATOM      5  C   UNL d   1       9.943   1.417 -16.446  0.00  0.00     0.334 C 
ATOM      6  N   UNL d   1      10.696   0.252 -16.940  0.00  0.00     0.619 N 
ATOM      7  C   UNL d   1       8.527   0.996 -16.012  0.00  0.00     0.188 C 
ATOM      8  C   UNL d   1       7.766   2.154 -15.398  0.00  0.00     0.210 C 
ATOM      9  O   UNL d   1       6.525   1.691 -14.885  0.00  0.00    -0.218 OA
ENDROOT
BRANCH   1  10
ATOM     10  O   UNL d   1       7.833   4.013 -13.848  0.00  0.00    -0.327 OA
BRANCH  10  11
ATOM     11  C   UNL d   1       7.133   3.890 -12.642  0.00  0.00     0.274 C 
ATOM     12  C   UNL d   1       6.031   4.948 -12.550  0.00  0.00     0.357 C 
ATOM     13  C   UNL d   1       6.667   6.348 -12.468  0.00  0.00     0.047 C 
ATOM     14  N   UNL d   1       5.059   4.762 -13.640  0.00  0.00     0.621 N 
ATOM     15  C   UNL d   1       7.645   6.391 -11.318  0.00  0.00     0.034 C 
ATOM     16  C   UNL d   1       8.628   5.261 -11.369  0.00  0.00     0.140 C 
ATOM     17  O   UNL d   1       7.961   4.022 -11.535  0.00  0.00    -0.330 OA
BRANCH  16  18
ATOM     18  C   UNL d   1       9.587   5.184 -10.163  0.00  0.00     0.125 C 
ATOM     19  C   UNL d   1      10.364   6.518  -9.933  0.00  0.00     0.028 C 
BRANCH  18  20
ATOM     20  N   UNL d   1       9.032   4.682  -8.901  0.00  0.00    -0.293 NA
ATOM     21  C   UNL d   1       8.297   5.645  -8.084  0.00  0.00     0.146 C 
ENDBRANCH  18  20
ENDBRANCH  16  18
ENDBRANCH  10  11
ENDBRANCH   1  10
BRANCH   7  22
ATOM     22  O   UNL d   1       7.855   0.707 -17.236  0.00  0.00    -0.327 OA
BRANCH  22  23
ATOM     23  C   UNL d   1       7.613  -0.648 -17.424  0.00  0.00     0.269 C 
ATOM     24  C   UNL d   1       7.657  -1.053 -18.906  0.00  0.00     0.232 C 
ATOM     25  C   UNL d   1       6.482  -0.421 -19.657  0.00  0.00     0.164 C 
ATOM     26  O   UNL d   1       8.917  -0.728 -19.472  0.00  0.00    -0.216 OA
ATOM     27  C   UNL d   1       5.156  -0.764 -18.917  0.00  0.00     0.177 C 
ATOM     28  C   UNL d   1       5.260  -0.412 -17.422  0.00  0.00     0.177 C 
ATOM     29  C   UNL d   1       3.942  -0.028 -19.500  0.00  0.00     0.038 C 
ATOM     30  O   UNL d   1       4.854  -2.139 -19.039  0.00  0.00    -0.221 OA
ATOM     31  O   UNL d   1       6.396  -1.034 -16.849  0.00  0.00    -0.326 OA
BRANCH  25  32
ATOM     32  N   UNL d   1       6.459  -0.949 -21.033  0.00  0.00    -0.290 NA
ATOM     33  C   UNL d   1       5.874  -0.084 -22.059  0.00  0.00     0.146 C 
ENDBRANCH  25  32
ENDBRANCH  22  23
ENDBRANCH   7  22
TORSDOF 7
