REMARK  5 active torsions:
REMARK  status: ('A' for Active; 'I' for Inactive)
REMARK    1  A    between atoms: O_2  and  C_3 
REMARK    2  A    between atoms: C_6  and  C_7 
REMARK    3  A    between atoms: C_7  and  N_8 
REMARK    4  A    between atoms: N_11  and  C_12 
REMARK    5  A    between atoms: C_12  and  C_13 
REMARK       I    between atoms: C_13  and  N_15 
ROOT
ATOM      1  N   UNL d   1      10.091   7.668  -9.739  0.00  0.00     0.146 N 
ATOM      2  C   UNL d   1       9.703   8.246 -11.037  0.00  0.00     0.286 C 
ATOM      3  C   UNL d   1       8.758   7.294 -11.824  0.00  0.00     0.286 C 
ATOM      4  N   UNL d   1       9.386   6.000 -12.073  0.00  0.00     0.151 N 
ATOM      5  C   UNL d   1       9.757   5.450 -10.777  0.00  0.00     0.286 C 
ATOM      6  C   UNL d   1      10.682   6.378 -10.016  0.00  0.00     0.286 C 
ENDROOT
BRANCH   4   7
ATOM      7  C   UNL d   1       8.475   5.090 -12.772  0.00  0.00     0.337 C 
BRANCH   7   8
ATOM      8  C   UNL d   1       9.124   4.378 -13.955  0.00  0.00     0.271 C 
ATOM      9  O   UNL d   1      10.136   4.904 -14.458  0.00  0.00    -0.270 OA
ATOM     10  N   UNL d   1       8.589   3.219 -14.417  0.00  0.00    -0.299 N 
ATOM     11  C   UNL d   1       9.315   2.352 -15.372  0.00  0.00     0.093 C 
ATOM     12  C   UNL d   1       7.370   2.578 -14.055  0.00  0.00     0.058 A 
ATOM     13  C   UNL d   1       8.564   0.995 -15.370  0.00  0.00     0.051 C 
ATOM     14  C   UNL d   1       9.331   2.965 -16.786  0.00  0.00     0.025 C 
ATOM     15  C   UNL d   1       7.345   1.281 -14.537  0.00  0.00    -0.004 A 
ATOM     16  C   UNL d   1       6.265   0.418 -14.267  0.00  0.00    -0.003 A 
ATOM     17  C   UNL d   1       5.210   0.886 -13.452  0.00  0.00    -0.000 A 
ATOM     18  C   UNL d   1       5.235   2.208 -12.958  0.00  0.00     0.002 A 
ATOM     19  C   UNL d   1       6.276   3.082 -13.282  0.00  0.00     0.017 A 
ENDBRANCH   7   8
ENDBRANCH   4   7
BRANCH   1  20
ATOM     20  C   UNL d   1      11.010   8.552  -9.015  0.00  0.00     0.277 C 
BRANCH  20  21
ATOM     21  C   UNL d   1      11.147   8.247  -7.527  0.00  0.00     0.011 A 
ATOM     22  C   UNL d   1      11.421   6.956  -7.023  0.00  0.00    -0.000 A 
ATOM     23  C   UNL d   1      11.479   6.717  -5.658  0.00  0.00     0.024 A 
ATOM     24  C   UNL d   1      11.382   7.757  -4.730  0.00  0.00     0.094 A 
ATOM     25  C   UNL d   1      11.130   9.076  -5.212  0.00  0.00     0.024 A 
ATOM     26  C   UNL d   1      11.017   9.316  -6.604  0.00  0.00    -0.000 A 
BRANCH  24  27
ATOM     27  O   UNL d   1      11.543   7.460  -3.394  0.00  0.00    -0.328 OA
ATOM     28  C   UNL d   1      12.105   8.473  -2.588  0.00  0.00     0.181 C 
ENDBRANCH  24  27
ENDBRANCH  20  21
ENDBRANCH   1  20
TORSDOF 5
