REMARK  6 active torsions:
REMARK  status: ('A' for Active; 'I' for Inactive)
REMARK    1  A    between atoms: C_6  and  N_7 
REMARK    2  A    between atoms: N_10  and  C_11 
REMARK    3  A    between atoms: C_11  and  C_12 
REMARK    4  A    between atoms: C_12  and  C_13 
REMARK    5  A    between atoms: C_16  and  N_17 
REMARK       I    between atoms: N_17  and  C_18 
REMARK    6  A    between atoms: C_18  and  C_20 
ROOT
ATOM      1  C   UNL d   1       9.204   4.194 -12.368  0.00  0.00     0.250 C 
ENDROOT
BRANCH   1   2
ATOM      2  N   UNL d   1       8.406   3.798 -13.512  0.00  0.00     0.141 N 
ATOM      3  C   UNL d   1       6.978   3.638 -13.142  0.00  0.00     0.274 C 
ATOM      4  C   UNL d   1       6.137   3.099 -14.298  0.00  0.00     0.138 C 
ATOM      5  N   UNL d   1       6.830   1.970 -14.939  0.00  0.00    -0.330 N 
ATOM      6  C   UNL d   1       8.244   2.079 -15.235  0.00  0.00     0.138 C 
ATOM      7  C   UNL d   1       8.988   2.550 -13.990  0.00  0.00     0.274 C 
BRANCH   5   8
ATOM      8  C   UNL d   1       6.163   0.738 -15.246  0.00  0.00     0.138 A 
ATOM      9  C   UNL d   1       6.398  -0.028 -16.412  0.00  0.00     0.036 A 
ATOM     10  C   UNL d   1       5.590  -1.117 -16.705  0.00  0.00     0.094 A 
ATOM     11  C   UNL d   1       7.406   0.088 -17.517  0.00  0.00     0.064 A 
ATOM     12  C   UNL d   1       4.538  -1.461 -15.835  0.00  0.00     0.039 A 
ATOM     13  O   UNL d   1       5.907  -1.760 -17.874  0.00  0.00    -0.331 OA
ATOM     14  C   UNL d   1       4.409  -0.647 -14.679  0.00  0.00     0.063 A 
ATOM     15  C   UNL d   1       3.226  -0.756 -13.816  0.00  0.00     0.052 C 
ATOM     16  N   UNL d   1       5.219   0.373 -14.389  0.00  0.00    -0.233 NA
ATOM     17  C   UNL d   1       6.968  -1.009 -18.500  0.00  0.00     0.154 A 
ENDBRANCH   5   8
ENDBRANCH   1   2
BRANCH   1  18
ATOM     18  C   UNL d   1       9.103   5.709 -12.130  0.00  0.00     0.035 C 
BRANCH  18  19
ATOM     19  C   UNL d   1       9.569   6.162 -10.732  0.00  0.00     0.002 C 
ATOM     20  C   UNL d   1       8.610   5.666  -9.625  0.00  0.00     0.002 C 
ATOM     21  C   UNL d   1       9.083   6.145  -8.255  0.00  0.00     0.024 C 
ATOM     22  C   UNL d   1       9.343   7.665  -8.220  0.00  0.00     0.106 C 
ATOM     23  C   UNL d   1      10.264   8.157  -9.359  0.00  0.00     0.024 C 
ATOM     24  C   UNL d   1       9.754   7.694 -10.720  0.00  0.00     0.002 C 
BRANCH  22  25
ATOM     25  N   UNL d   1       9.800   8.093  -6.918  0.00  0.00    -0.240 NA
ATOM     26  C   UNL d   1      10.959   7.745  -6.352  0.00  0.00     0.251 C 
ATOM     27  O   UNL d   1      11.809   7.070  -6.930  0.00  0.00    -0.271 OA
BRANCH  26  28
ATOM     28  C   UNL d   1      11.154   8.174  -4.900  0.00  0.00     0.086 C 
ATOM     29  C   UNL d   1      11.488   6.914  -4.058  0.00  0.00     0.042 C 
ATOM     30  C   UNL d   1      11.849   7.265  -2.609  0.00  0.00     0.143 C 
ATOM     31  O   UNL d   1      12.894   8.207  -2.634  0.00  0.00    -0.354 OA
ATOM     32  C   UNL d   1      12.560   9.422  -3.288  0.00  0.00     0.143 C 
ATOM     33  C   UNL d   1      12.273   9.199  -4.768  0.00  0.00     0.042 C 
ENDBRANCH  26  28
ENDBRANCH  22  25
ENDBRANCH  18  19
ENDBRANCH   1  18
TORSDOF 6
