REMARK  8 active torsions:
REMARK  status: ('A' for Active; 'I' for Inactive)
REMARK    1  A    between atoms: C_2  and  N_3 
REMARK    2  A    between atoms: N_3  and  C_4 
REMARK    3  A    between atoms: N_3  and  C_6 
REMARK    4  A    between atoms: C_6  and  C_7 
REMARK    5  A    between atoms: C_7  and  O_8 
REMARK    6  A    between atoms: O_8  and  C_9 
REMARK    7  A    between atoms: C_9  and  C_11 
REMARK    8  A    between atoms: C_11  and  C_12 
ROOT
ATOM      1  C   UNL d   1       9.168   4.445 -13.425  0.00  0.00     0.078 C 
ATOM      2  C   UNL d   1       9.149   4.855 -14.924  0.00  0.00     0.009 C 
ATOM      3  C   UNL d   1      10.526   5.298 -15.484  0.00  0.00     0.001 C 
ATOM      4  C   UNL d   1      11.595   4.230 -15.298  0.00  0.00     0.000 C 
ATOM      5  C   UNL d   1      11.666   3.868 -13.814  0.00  0.00     0.001 C 
ATOM      6  C   UNL d   1      10.286   3.382 -13.286  0.00  0.00     0.009 C 
ENDROOT
BRANCH   1   7
ATOM      7  C   UNL d   1       9.453   5.641 -12.484  0.00  0.00     0.271 C 
ATOM      8  O   UNL d   1       9.254   6.797 -12.835  0.00  0.00    -0.264 OA
BRANCH   7   9
ATOM      9  O   UNL d   1       9.762   5.316 -11.224  0.00  0.00    -0.300 OA
BRANCH   9  10
ATOM     10  C   UNL d   1      10.200   6.319 -10.356  0.00  0.00     0.187 C 
BRANCH  10  11
ATOM     11  C   UNL d   1       9.714   6.064  -8.957  0.00  0.00     0.283 C 
BRANCH  11  12
ATOM     12  N   UNL d   1      10.493   6.873  -8.014  0.00  0.00     0.140 N 
BRANCH  12  13
ATOM     13  C   UNL d   1       9.677   7.052  -6.810  0.00  0.00     0.250 C 
ATOM     14  C   UNL d   1       8.896   8.362  -6.879  0.00  0.00     0.037 C 
ENDBRANCH  12  13
BRANCH  12  15
ATOM     15  C   UNL d   1      11.172   8.082  -8.520  0.00  0.00     0.250 C 
ATOM     16  C   UNL d   1      12.372   8.387  -7.646  0.00  0.00     0.037 C 
ENDBRANCH  12  15
ENDBRANCH  11  12
ENDBRANCH  10  11
ENDBRANCH   9  10
ENDBRANCH   7   9
ENDBRANCH   1   7
BRANCH   1  17
ATOM     17  C   UNL d   1       7.809   3.843 -12.948  0.00  0.00     0.009 C 
ATOM     18  C   UNL d   1       6.729   4.854 -12.490  0.00  0.00     0.001 C 
ATOM     19  C   UNL d   1       5.560   4.122 -11.875  0.00  0.00     0.000 C 
ATOM     20  C   UNL d   1       4.915   3.200 -12.892  0.00  0.00     0.000 C 
ATOM     21  C   UNL d   1       5.907   2.126 -13.361  0.00  0.00     0.000 C 
ATOM     22  C   UNL d   1       7.172   2.802 -13.938  0.00  0.00     0.001 C 
ENDBRANCH   1  17
TORSDOF 8
