REMARK  7 active torsions:
REMARK  status: ('A' for Active; 'I' for Inactive)
REMARK    1  A    between atoms: C_2  and  C_3 
REMARK       I    between atoms: C_2  and  N_9 
REMARK    2  A    between atoms: C_3  and  C_4 
REMARK    3  A    between atoms: N_9  and  C_10 
REMARK    4  A    between atoms: C_13  and  C_14 
REMARK    5  A    between atoms: C_14  and  C_15 
REMARK    6  A    between atoms: C_15  and  N_16 
REMARK    7  A    between atoms: N_19  and  C_20 
ROOT
ATOM      1  C   UNL d   1       8.937   4.618 -11.075  0.00  0.00     0.035 C 
ENDROOT
BRANCH   1   2
ATOM      2  C   UNL d   1       8.972   5.933 -10.278  0.00  0.00     0.002 C 
ATOM      3  C   UNL d   1       9.220   5.643  -8.793  0.00  0.00     0.002 C 
ATOM      4  C   UNL d   1       9.275   6.932  -7.982  0.00  0.00     0.024 C 
ATOM      5  C   UNL d   1      10.370   7.884  -8.524  0.00  0.00     0.106 C 
ATOM      6  C   UNL d   1      10.122   8.206 -10.002  0.00  0.00     0.024 C 
ATOM      7  C   UNL d   1      10.032   6.920 -10.822  0.00  0.00     0.002 C 
BRANCH   5   8
ATOM      8  N   UNL d   1      10.443   9.128  -7.783  0.00  0.00    -0.240 NA
ATOM      9  C   UNL d   1      10.877   9.293  -6.525  0.00  0.00     0.254 C 
ATOM     10  O   UNL d   1      11.091  10.418  -6.094  0.00  0.00    -0.271 OA
BRANCH   9  11
ATOM     11  C   UNL d   1      11.007   8.054  -5.632  0.00  0.00     0.119 C 
BRANCH  11  12
ATOM     12  C   UNL d   1      11.895   8.213  -4.416  0.00  0.00     0.125 C 
ATOM     13  O   UNL d   1      11.400   9.220  -3.559  0.00  0.00    -0.356 OA
ATOM     14  C   UNL d   1      12.056   9.013  -2.334  0.00  0.00     0.142 C 
ATOM     15  C   UNL d   1      11.965   7.500  -2.141  0.00  0.00     0.035 C 
ATOM     16  C   UNL d   1      11.864   6.958  -3.546  0.00  0.00     0.033 C 
ENDBRANCH  11  12
ENDBRANCH   9  11
ENDBRANCH   5   8
ENDBRANCH   1   2
BRANCH   1  17
ATOM     17  C   UNL d   1       8.745   4.870 -12.573  0.00  0.00     0.250 C 
BRANCH  17  18
ATOM     18  N   UNL d   1       8.764   3.598 -13.278  0.00  0.00     0.141 N 
ATOM     19  C   UNL d   1       9.653   3.668 -14.441  0.00  0.00     0.274 C 
ATOM     20  C   UNL d   1       9.650   2.325 -15.203  0.00  0.00     0.138 C 
ATOM     21  N   UNL d   1       8.281   1.949 -15.544  0.00  0.00    -0.330 N 
ATOM     22  C   UNL d   1       7.332   1.979 -14.441  0.00  0.00     0.138 C 
ATOM     23  C   UNL d   1       7.404   3.318 -13.713  0.00  0.00     0.274 C 
BRANCH  21  24
ATOM     24  C   UNL d   1       7.895   1.602 -16.857  0.00  0.00     0.138 A 
ATOM     25  C   UNL d   1       6.857   0.688 -17.139  0.00  0.00     0.036 A 
ATOM     26  C   UNL d   1       6.537   0.369 -18.446  0.00  0.00     0.095 A 
ATOM     27  C   UNL d   1       5.988  -0.126 -16.230  0.00  0.00     0.064 C 
ATOM     28  C   UNL d   1       7.227   0.981 -19.507  0.00  0.00     0.045 A 
ATOM     29  O   UNL d   1       5.548  -0.571 -18.545  0.00  0.00    -0.331 OA
ATOM     30  C   UNL d   1       8.260   1.875 -19.153  0.00  0.00     0.103 A 
ATOM     31  N   UNL d   1       8.575   2.187 -17.871  0.00  0.00    -0.228 NA
ATOM     32  C   UNL d   1       5.268  -1.056 -17.220  0.00  0.00     0.154 C 
ENDBRANCH  21  24
ENDBRANCH  17  18
ENDBRANCH   1  17
TORSDOF 7
