REMARK  3 active torsions:
REMARK  status: ('A' for Active; 'I' for Inactive)
REMARK    1  A    between atoms: C_2  and  O_4 
REMARK    2  A    between atoms: C_2  and  C_12 
REMARK    3  A    between atoms: O_4  and  C_5 
ROOT
ATOM      1  C   UNL d   1      11.265   7.710  -5.962  0.00  0.00     0.095 C 
ATOM      2  C   UNL d   1      11.643   6.711  -5.037  0.00  0.00     0.025 C 
ATOM      3  C   UNL d   1      11.970   7.023  -3.705  0.00  0.00     0.013 C 
ATOM      4  C   UNL d   1      11.906   8.353  -3.269  0.00  0.00     0.058 C 
ATOM      5 CL   UNL d   1      12.324   8.752  -1.653  0.00  0.00    -0.082 Cl
ATOM      6  C   UNL d   1      11.547   9.371  -4.181  0.00  0.00     0.013 C 
ATOM      7  C   UNL d   1      11.307   9.068  -5.533  0.00  0.00     0.025 C 
ENDROOT
BRANCH   1   8
ATOM      8  O   UNL d   1      11.051   7.286  -7.260  0.00  0.00    -0.325 OA
BRANCH   8   9
ATOM      9  C   UNL d   1       9.909   7.635  -8.081  0.00  0.00     0.176 C 
ATOM     10  C   UNL d   1       9.106   6.331  -8.285  0.00  0.00     0.041 C 
ATOM     11  C   UNL d   1       8.994   8.742  -7.533  0.00  0.00     0.041 C 
BRANCH   9  12
ATOM     12  C   UNL d   1      10.453   8.097  -9.436  0.00  0.00     0.211 C 
ATOM     13  O   UNL d   1      11.643   8.258  -9.646  0.00  0.00    -0.646 OA
ATOM     14  O   UNL d   1       9.470   8.307 -10.363  0.00  0.00    -0.646 OA
ENDBRANCH   9  12
ENDBRANCH   8   9
ENDBRANCH   1   8
TORSDOF 3
