REMARK  2 active torsions:
REMARK  status: ('A' for Active; 'I' for Inactive)
REMARK    1  A    between atoms: C_2  and  N_3 
REMARK    2  A    between atoms: C_7  and  C_8 
ROOT
ATOM      1  C   UNL d   1      10.219   7.796  -7.805  0.00  0.00     0.038 A 
ATOM      2  C   UNL d   1      10.431   8.989  -8.415  0.00  0.00     0.100 A 
ATOM      3  N   UNL d   1      11.107   9.806  -7.564  0.00  0.00    -0.244 NA
ATOM      4  C   UNL d   1      11.354   9.193  -6.377  0.00  0.00     0.082 A 
ATOM      5  C   UNL d   1      12.004   9.708  -5.276  0.00  0.00     0.020 A 
ATOM      6  C   UNL d   1      12.199   8.900  -4.159  0.00  0.00     0.008 A 
ATOM      7  C   UNL d   1      11.707   7.578  -4.188  0.00  0.00     0.035 A 
ATOM      8 BR   UNL d   1      11.991   6.548  -2.628  0.00  0.00    -0.049 Br
ATOM      9  C   UNL d   1      11.014   7.080  -5.337  0.00  0.00     0.008 A 
ATOM     10  C   UNL d   1      10.827   7.901  -6.479  0.00  0.00     0.021 A 
ENDROOT
BRANCH   1  11
ATOM     11  C   UNL d   1       9.529   6.660  -8.361  0.00  0.00     0.082 C 
ATOM     12  N   UNL d   1       9.542   6.274  -9.696  0.00  0.00    -0.309 N 
ATOM     13  C   UNL d   1       8.905   5.099  -9.721  0.00  0.00     0.179 C 
ATOM     14  N   UNL d   1       8.476   4.685  -8.544  0.00  0.00    -0.223 NA
ATOM     15  C   UNL d   1       8.763   5.747  -7.699  0.00  0.00     0.118 C 
BRANCH  12  16
ATOM     16  C   UNL d   1      10.178   6.905 -10.817  0.00  0.00     0.108 C 
ATOM     17  C   UNL d   1       9.260   7.926 -11.518  0.00  0.00     0.027 C 
ENDBRANCH  12  16
ENDBRANCH   1  11
TORSDOF 2
