REMARK  8 active torsions:
REMARK  status: ('A' for Active; 'I' for Inactive)
REMARK    1  A    between atoms: C_2  and  N_3 
REMARK    2  A    between atoms: N_3  and  C_4 
REMARK    3  A    between atoms: C_8  and  O_9 
REMARK    4  A    between atoms: O_9  and  C_10 
REMARK    5  A    between atoms: C_12  and  C_13 
REMARK    6  A    between atoms: C_21  and  O_22 
REMARK    7  A    between atoms: O_22  and  C_23 
REMARK    8  A    between atoms: C_29  and  N_30 
ROOT
ATOM      1  C   UNL d   1      10.062   2.869 -17.005  0.00  0.00     0.288 C 
ATOM      2  C   UNL d   1      11.237   3.759 -16.567  0.00  0.00     0.080 C 
ATOM      3  C   UNL d   1      10.822   4.860 -15.572  0.00  0.00     0.333 C 
ATOM      4  N   UNL d   1      12.008   5.619 -15.171  0.00  0.00     0.619 N 
ATOM      5  C   UNL d   1      10.130   4.272 -14.336  0.00  0.00     0.188 C 
ATOM      6  C   UNL d   1       9.008   3.362 -14.803  0.00  0.00     0.210 C 
ATOM      7  O   UNL d   1       8.477   2.790 -13.673  0.00  0.00    -0.218 OA
ATOM      8  C   UNL d   1       9.407   2.262 -15.772  0.00  0.00     0.185 C 
ENDROOT
BRANCH   8   9
ATOM      9  O   UNL d   1       8.180   1.674 -16.201  0.00  0.00    -0.327 OA
BRANCH   9  10
ATOM     10  C   UNL d   1       8.227   0.285 -16.134  0.00  0.00     0.269 C 
ATOM     11  C   UNL d   1       7.007  -0.334 -16.851  0.00  0.00     0.232 C 
ATOM     12  C   UNL d   1       5.712  -0.066 -16.062  0.00  0.00     0.164 C 
ATOM     13  O   UNL d   1       6.948   0.075 -18.204  0.00  0.00    -0.216 OA
ATOM     14  C   UNL d   1       5.835  -0.423 -14.561  0.00  0.00     0.177 C 
ATOM     15  C   UNL d   1       7.130   0.174 -13.991  0.00  0.00     0.177 C 
ATOM     16  C   UNL d   1       4.649   0.118 -13.724  0.00  0.00     0.038 C 
ATOM     17  O   UNL d   1       5.891  -1.784 -14.345  0.00  0.00    -0.221 OA
ATOM     18  O   UNL d   1       8.261  -0.149 -14.816  0.00  0.00    -0.326 OA
BRANCH  12  19
ATOM     19  N   UNL d   1       4.541  -0.732 -16.682  0.00  0.00    -0.290 NA
ATOM     20  C   UNL d   1       4.675  -2.104 -17.194  0.00  0.00     0.146 C 
ENDBRANCH  12  19
ENDBRANCH   9  10
ENDBRANCH   8   9
BRANCH   1  21
ATOM     21  N   UNL d   1      10.529   1.789 -17.883  0.00  0.00     0.340 N 
BRANCH  21  22
ATOM     22  C   UNL d   1      10.665   2.166 -19.289  0.00  0.00     0.290 C 
ATOM     23  C   UNL d   1      11.168   0.989 -20.128  0.00  0.00     0.040 C 
ENDBRANCH  21  22
ENDBRANCH   1  21
BRANCH   5  24
ATOM     24  O   UNL d   1       9.499   5.353 -13.618  0.00  0.00    -0.327 OA
BRANCH  24  25
ATOM     25  C   UNL d   1       9.676   5.392 -12.216  0.00  0.00     0.278 C 
ATOM     26  C   UNL d   1       8.524   4.661 -11.462  0.00  0.00     0.362 C 
ATOM     27  C   UNL d   1       8.780   4.702  -9.949  0.00  0.00     0.072 C 
ATOM     28  N   UNL d   1       7.230   5.256 -11.826  0.00  0.00     0.622 N 
ATOM     29  C   UNL d   1       9.276   6.031  -9.488  0.00  0.00    -0.002 C 
ATOM     30  C   UNL d   1       9.738   6.948 -10.369  0.00  0.00     0.109 C 
ATOM     31  O   UNL d   1       9.793   6.711 -11.727  0.00  0.00    -0.307 OA
BRANCH  30  32
ATOM     32  C   UNL d   1      10.217   8.313  -9.988  0.00  0.00     0.389 C 
ATOM     33  N   UNL d   1      11.221   8.239  -8.943  0.00  0.00     0.626 N 
ENDBRANCH  30  32
ENDBRANCH  24  25
ENDBRANCH   5  24
TORSDOF 8
