REMARK  6 active torsions:
REMARK  status: ('A' for Active; 'I' for Inactive)
REMARK    1  A    between atoms: C_3  and  S_4 
REMARK    2  A    between atoms: S_4  and  C_5 
REMARK    3  A    between atoms: C_5  and  C_6 
REMARK    4  A    between atoms: C_6  and  C_7 
REMARK    5  A    between atoms: C_7  and  N_8 
REMARK    6  A    between atoms: C_16  and  C_17 
ROOT
ATOM      1  C   UNL d   1      11.822  10.011  -6.670  0.00  0.00     0.134 C 
ATOM      2  N   UNL d   1      11.002   8.810  -6.653  0.00  0.00    -0.289 N 
ATOM      3  C   UNL d   1      10.271   8.296  -7.659  0.00  0.00     0.193 A 
ATOM      4  N   UNL d   1       9.689   7.135  -7.364  0.00  0.00    -0.122 NA
ATOM      5  N   UNL d   1      10.077   6.860  -6.073  0.00  0.00    -0.128 NA
ATOM      6  C   UNL d   1      10.843   7.883  -5.686  0.00  0.00     0.167 A 
ENDROOT
BRANCH   3   7
ATOM      7  S   UNL d   1      10.163   9.107  -9.218  0.00  0.00    -0.075 SA
BRANCH   7   8
ATOM      8  C   UNL d   1      10.626   7.738 -10.297  0.00  0.00     0.067 C 
BRANCH   8   9
ATOM      9  C   UNL d   1       9.451   6.810 -10.634  0.00  0.00     0.047 C 
BRANCH   9  10
ATOM     10  C   UNL d   1       8.736   7.186 -11.956  0.00  0.00     0.251 C 
BRANCH  10  11
ATOM     11  N   UNL d   1       7.868   6.153 -12.525  0.00  0.00     0.141 N 
ATOM     12  C   UNL d   1       6.714   5.871 -11.678  0.00  0.00     0.288 C 
ATOM     13  C   UNL d   1       5.774   4.822 -12.294  0.00  0.00     0.325 C 
ATOM     14  N   UNL d   1       6.489   3.593 -12.633  0.00  0.00     0.343 N 
ATOM     15  C   UNL d   1       7.665   3.847 -13.471  0.00  0.00     0.325 C 
ATOM     16  C   UNL d   1       8.577   4.912 -12.842  0.00  0.00     0.288 C 
ENDBRANCH  10  11
ENDBRANCH   9  10
ENDBRANCH   8   9
ENDBRANCH   7   8
ENDBRANCH   3   7
BRANCH   6  17
ATOM     17  C   UNL d   1      11.457   7.937  -4.366  0.00  0.00     0.036 A 
ATOM     18  C   UNL d   1      11.933   6.754  -3.773  0.00  0.00     0.003 A 
ATOM     19  C   UNL d   1      12.511   6.772  -2.486  0.00  0.00     0.000 A 
ATOM     20  C   UNL d   1      12.627   7.993  -1.809  0.00  0.00     0.000 A 
ATOM     21  C   UNL d   1      12.151   9.172  -2.391  0.00  0.00     0.000 A 
ATOM     22  C   UNL d   1      11.507   9.150  -3.636  0.00  0.00     0.003 A 
ENDBRANCH   6  17
TORSDOF 6
