REMARK  10 active torsions:
REMARK  status: ('A' for Active; 'I' for Inactive)
REMARK    1  A    between atoms: S_2  and  C_3 
REMARK    2  A    between atoms: C_8  and  N_9 
REMARK    3  A    between atoms: N_12  and  C_13 
REMARK    4  A    between atoms: C_13  and  C_14 
REMARK    5  A    between atoms: C_14  and  C_15 
REMARK    6  A    between atoms: C_15  and  C_16 
REMARK    7  A    between atoms: C_16  and  C_17 
REMARK    8  A    between atoms: C_17  and  C_18 
REMARK       I    between atoms: C_18  and  N_20 
REMARK    9  A    between atoms: N_20  and  C_21 
REMARK   10  A    between atoms: C_21  and  C_22 
ROOT
ATOM      1  C   UNL d   1       5.418   0.033 -14.511  0.00  0.00     0.002 A 
ATOM      2  C   UNL d   1       6.178   0.043 -15.698  0.00  0.00    -0.002 A 
ATOM      3  C   UNL d   1       5.673  -0.575 -16.858  0.00  0.00     0.010 A 
ATOM      4  C   UNL d   1       4.416  -1.211 -16.827  0.00  0.00     0.068 A 
ATOM      5  C   UNL d   1       3.885  -1.845 -18.022  0.00  0.00     0.101 C 
ATOM      6  N   UNL d   1       3.466  -2.347 -18.973  0.00  0.00    -0.191 NA
ATOM      7  C   UNL d   1       3.659  -1.210 -15.640  0.00  0.00     0.010 A 
ATOM      8  C   UNL d   1       4.156  -0.589 -14.482  0.00  0.00    -0.002 A 
ENDROOT
BRANCH   1   9
ATOM      9  C   UNL d   1       5.959   0.696 -13.266  0.00  0.00     0.155 C 
BRANCH   9  10
ATOM     10  N   UNL d   1       5.481   2.066 -13.089  0.00  0.00    -0.233 NA
ATOM     11  C   UNL d   1       6.209   3.162 -13.363  0.00  0.00     0.252 C 
ATOM     12  O   UNL d   1       7.231   3.131 -14.047  0.00  0.00    -0.271 OA
BRANCH  11  13
ATOM     13  C   UNL d   1       5.777   4.464 -12.677  0.00  0.00     0.090 C 
BRANCH  13  14
ATOM     14  C   UNL d   1       6.956   5.300 -12.122  0.00  0.00     0.010 C 
BRANCH  14  15
ATOM     15  C   UNL d   1       7.912   4.519 -11.201  0.00  0.00     0.003 C 
BRANCH  15  16
ATOM     16  C   UNL d   1       8.947   5.388 -10.486  0.00  0.00     0.035 C 
BRANCH  16  17
ATOM     17  C   UNL d   1       8.446   5.841  -9.110  0.00  0.00     0.250 C 
BRANCH  17  18
ATOM     18  N   UNL d   1       9.393   6.728  -8.452  0.00  0.00     0.141 N 
ATOM     19  C   UNL d   1       8.710   7.353  -7.320  0.00  0.00     0.274 C 
ATOM     20  C   UNL d   1       9.665   8.317  -6.645  0.00  0.00     0.137 C 
ATOM     21  N   UNL d   1      10.890   7.639  -6.215  0.00  0.00    -0.344 N 
ATOM     22  C   UNL d   1      11.544   6.869  -7.258  0.00  0.00     0.137 C 
ATOM     23  C   UNL d   1      10.525   5.962  -7.944  0.00  0.00     0.274 C 
BRANCH  21  24
ATOM     24  C   UNL d   1      11.416   7.711  -4.918  0.00  0.00     0.062 A 
ATOM     25  C   UNL d   1      11.505   8.921  -4.180  0.00  0.00     0.041 A 
ATOM     26  C   UNL d   1      11.969   8.952  -2.851  0.00  0.00     0.008 A 
ATOM     27  C   UNL d   1      12.379   7.763  -2.229  0.00  0.00     0.001 A 
ATOM     28  C   UNL d   1      12.322   6.559  -2.951  0.00  0.00     0.002 A 
ATOM     29  C   UNL d   1      11.857   6.536  -4.276  0.00  0.00     0.017 A 
BRANCH  25  30
ATOM     30  S   UNL d   1      10.982  10.420  -4.879  0.00  0.00    -0.111 SA
ATOM     31  C   UNL d   1      11.932  10.717  -6.394  0.00  0.00     0.074 C 
ENDBRANCH  25  30
ENDBRANCH  21  24
ENDBRANCH  17  18
ENDBRANCH  16  17
ENDBRANCH  15  16
ENDBRANCH  14  15
ENDBRANCH  13  14
ENDBRANCH  11  13
ENDBRANCH   9  10
ENDBRANCH   1   9
TORSDOF 10
