REMARK  5 active torsions:
REMARK  status: ('A' for Active; 'I' for Inactive)
REMARK    1  A    between atoms: C_7  and  C_8 
REMARK    2  A    between atoms: C_8  and  C_10 
REMARK    3  A    between atoms: C_10  and  C_11 
REMARK    4  A    between atoms: C_11  and  C_12 
REMARK    5  A    between atoms: C_12  and  N_13 
ROOT
ATOM      1  N   UNL d   1       9.393   4.321 -14.049  0.00  0.00     0.137 N 
ATOM      2  C   UNL d   1      10.810   4.573 -14.276  0.00  0.00     0.252 C 
ATOM      3  C   UNL d   1      11.269   3.696 -15.451  0.00  0.00     0.058 C 
ATOM      4  C   UNL d   1      11.064   2.182 -15.200  0.00  0.00     0.089 C 
ATOM      5  C   UNL d   1       9.686   1.900 -14.578  0.00  0.00     0.078 C 
ATOM      6  C   UNL d   1       9.220   2.947 -13.580  0.00  0.00     0.256 C 
ATOM      7  C   UNL d   1       8.801   1.700 -15.770  0.00  0.00    -0.001 A 
ATOM      8  C   UNL d   1       7.419   1.783 -16.000  0.00  0.00    -0.003 A 
ATOM      9  C   UNL d   1       6.961   1.568 -17.322  0.00  0.00     0.002 A 
ATOM     10  C   UNL d   1       7.870   1.285 -18.381  0.00  0.00     0.026 A 
ATOM     11  C   UNL d   1       9.270   1.192 -18.174  0.00  0.00     0.109 A 
ATOM     12  C   UNL d   1       9.636   1.417 -16.839  0.00  0.00     0.075 A 
ATOM     13  N   UNL d   1      10.994   1.443 -16.453  0.00  0.00    -0.346 N 
ATOM     14  C   UNL d   1      11.920   1.582 -17.565  0.00  0.00     0.134 C 
ATOM     15  C   UNL d   1      11.497   0.645 -18.716  0.00  0.00     0.173 C 
ATOM     16  O   UNL d   1      10.177   0.947 -19.178  0.00  0.00    -0.327 OA
ENDROOT
BRANCH   1  17
ATOM     17  C   UNL d   1       8.816   5.301 -13.114  0.00  0.00     0.251 C 
BRANCH  17  18
ATOM     18  C   UNL d   1       9.037   4.968 -11.619  0.00  0.00     0.043 C 
BRANCH  18  19
ATOM     19  C   UNL d   1       8.520   6.006 -10.655  0.00  0.00     0.071 C 
BRANCH  19  20
ATOM     20  C   UNL d   1       9.479   7.199 -10.502  0.00  0.00     0.174 C 
ATOM     21  O   UNL d   1       9.700   7.912 -11.479  0.00  0.00    -0.291 OA
BRANCH  20  22
ATOM     22  C   UNL d   1      10.055   7.430  -9.152  0.00  0.00     0.048 A 
ATOM     23  C   UNL d   1      11.334   8.027  -8.961  0.00  0.00     0.073 A 
ATOM     24  N   UNL d   1      12.167   8.374 -10.034  0.00  0.00    -0.100 NA
ATOM     25  C   UNL d   1      11.813   8.254  -7.659  0.00  0.00     0.014 A 
ATOM     26  C   UNL d   1      11.033   7.916  -6.535  0.00  0.00     0.001 A 
ATOM     27  C   UNL d   1       9.760   7.349  -6.712  0.00  0.00     0.000 A 
ATOM     28  C   UNL d   1       9.272   7.132  -8.011  0.00  0.00     0.004 A 
ENDBRANCH  20  22
ENDBRANCH  19  20
ENDBRANCH  18  19
ENDBRANCH  17  18
ENDBRANCH   1  17
TORSDOF 5
