REMARK  7 active torsions:
REMARK  status: ('A' for Active; 'I' for Inactive)
REMARK    1  A    between atoms: C_2  and  C_3 
REMARK       I    between atoms: C_2  and  N_11 
REMARK    2  A    between atoms: C_14  and  C_16 
REMARK    3  A    between atoms: C_16  and  N_17 
REMARK    4  A    between atoms: N_17  and  C_18 
REMARK    5  A    between atoms: C_18  and  C_19 
REMARK    6  A    between atoms: C_19  and  O_20 
REMARK    7  A    between atoms: O_20  and  C_21 
ROOT
ATOM      1  O   UNL d   1       5.863   2.255 -13.671  0.00  0.00    -0.267 OA
ATOM      2  C   UNL d   1       6.944   2.730 -14.013  0.00  0.00     0.257 C 
ATOM      3  N   UNL d   1       7.353   3.975 -13.643  0.00  0.00    -0.317 N 
ATOM      4  C   UNL d   1       6.553   4.795 -12.713  0.00  0.00     0.107 C 
ATOM      5  C   UNL d   1       7.416   5.272 -11.532  0.00  0.00     0.059 C 
ATOM      6  C   UNL d   1       8.684   5.985 -12.009  0.00  0.00     0.172 C 
ATOM      7  F   UNL d   1       8.292   7.070 -12.703  0.00  0.00    -0.238 F 
ATOM      8  C   UNL d   1       9.434   5.119 -13.018  0.00  0.00     0.059 C 
ATOM      9  C   UNL d   1       8.527   4.698 -14.180  0.00  0.00     0.107 C 
ENDROOT
BRANCH   6  10
ATOM     10  C   UNL d   1       9.594   6.375 -10.826  0.00  0.00     0.323 C 
BRANCH  10  11
ATOM     11  N   UNL d   1       9.462   7.776 -10.467  0.00  0.00     0.345 N 
BRANCH  11  12
ATOM     12  C   UNL d   1      10.399   8.143  -9.415  0.00  0.00     0.323 C 
BRANCH  12  13
ATOM     13  C   UNL d   1       9.594   8.291  -8.104  0.00  0.00     0.187 C 
BRANCH  13  14
ATOM     14  O   UNL d   1      10.314   9.142  -7.212  0.00  0.00    -0.327 OA
BRANCH  14  15
ATOM     15  C   UNL d   1      10.914   8.603  -6.092  0.00  0.00     0.113 A 
ATOM     16  C   UNL d   1      11.533   9.484  -5.152  0.00  0.00     0.123 A 
ATOM     17  N   UNL d   1      12.098   9.064  -3.993  0.00  0.00    -0.240 NA
ATOM     18  C   UNL d   1      12.068   7.737  -3.724  0.00  0.00     0.099 A 
ATOM     19  C   UNL d   1      11.479   6.802  -4.612  0.00  0.00     0.023 A 
ATOM     20  C   UNL d   1      10.916   7.224  -5.817  0.00  0.00     0.027 A 
ENDBRANCH  14  15
ENDBRANCH  13  14
ENDBRANCH  12  13
ENDBRANCH  11  12
ENDBRANCH  10  11
ENDBRANCH   6  10
BRANCH   2  21
ATOM     21  C   UNL d   1       7.856   1.867 -14.844  0.00  0.00     0.057 A 
ATOM     22  C   UNL d   1       7.354   1.197 -15.978  0.00  0.00     0.018 A 
ATOM     23  C   UNL d   1       8.202   0.391 -16.764  0.00  0.00     0.085 A 
ATOM     24  C   UNL d   1       9.561   0.235 -16.409  0.00  0.00     0.151 A 
ATOM     25 CL   UNL d   1       7.569  -0.409 -18.158  0.00  0.00    -0.080 Cl
ATOM     26  C   UNL d   1      10.056   0.876 -15.261  0.00  0.00     0.031 A 
ATOM     27  F   UNL d   1      10.385  -0.522 -17.171  0.00  0.00    -0.203 F 
ATOM     28  C   UNL d   1       9.209   1.667 -14.474  0.00  0.00     0.007 A 
ENDBRANCH   2  21
TORSDOF 7
