REMARK  3 active torsions:
REMARK  status: ('A' for Active; 'I' for Inactive)
REMARK    1  A    between atoms: C_2  and  C_3 
REMARK    2  A    between atoms: C_3  and  N_4 
REMARK    3  A    between atoms: C_9  and  C_10 
ROOT
ATOM      1  C   UNL d   1       9.102   3.064 -15.674  0.00  0.00     0.021 C 
ATOM      2  C   UNL d   1       8.541   2.017 -16.671  0.00  0.00     0.148 C 
ATOM      3  C   UNL d   1       9.221   0.610 -16.496  0.00  0.00     0.188 C 
ATOM      4  N   UNL d   1      10.184   0.535 -17.575  0.00  0.00    -0.299 N 
ATOM      5  C   UNL d   1      10.366  -0.406 -18.554  0.00  0.00     0.238 A 
ATOM      6  O   UNL d   1      10.141  -1.583 -18.559  0.00  0.00    -0.272 OA
ATOM      7  C   UNL d   1      10.863   0.664 -19.536  0.00  0.00     0.127 A 
ATOM      8  C   UNL d   1      10.611   1.647 -18.392  0.00  0.00     0.202 A 
ATOM      9  S   UNL d   1       9.060   2.613 -18.376  0.00  0.00     0.191 S 
ATOM     10  O   UNL d   1       8.138   2.124 -19.413  0.00  0.00    -0.224 OA
ATOM     11  O   UNL d   1       9.373   4.051 -18.336  0.00  0.00    -0.224 OA
ENDROOT
BRANCH   2  12
ATOM     12  C   UNL d   1       6.995   2.005 -16.598  0.00  0.00     0.147 C 
BRANCH  12  13
ATOM     13  N   UNL d   1       6.360   0.757 -16.976  0.00  0.00    -0.229 N 
ATOM     14  N   UNL d   1       6.029   0.525 -18.267  0.00  0.00    -0.064 NA
ATOM     15  N   UNL d   1       5.531  -0.667 -18.325  0.00  0.00    -0.127 NA
ATOM     16  C   UNL d   1       5.511  -1.218 -17.045  0.00  0.00     0.144 A 
ATOM     17  C   UNL d   1       6.045  -0.317 -16.171  0.00  0.00     0.119 A 
ENDBRANCH  12  13
ENDBRANCH   2  12
BRANCH   3  18
ATOM     18  C   UNL d   1       9.832   0.390 -15.111  0.00  0.00     0.208 C 
ATOM     19  O   UNL d   1      11.044   0.386 -14.962  0.00  0.00    -0.646 OA
ATOM     20  O   UNL d   1       8.986   0.391 -14.040  0.00  0.00    -0.646 OA
ENDBRANCH   3  18
TORSDOF 3
