REMARK  7 active torsions:
REMARK  status: ('A' for Active; 'I' for Inactive)
REMARK    1  A    between atoms: C_2  and  C_3 
REMARK    2  A    between atoms: C_2  and  C_20 
REMARK    3  A    between atoms: C_3  and  N_4 
REMARK       I    between atoms: N_4  and  C_5 
REMARK       I    between atoms: C_5  and  N_7 
REMARK       I    between atoms: C_8  and  N_10 
REMARK    4  A    between atoms: N_10  and  C_11 
REMARK    5  A    between atoms: C_11  and  C_12 
REMARK    6  A    between atoms: C_12  and  C_13 
REMARK    7  A    between atoms: C_13  and  C_14 
ROOT
ATOM      1  N   UNL d   1      10.001   3.390 -13.807  0.00  0.00    -0.217 NA
ATOM      2  C   UNL d   1       9.202   4.452 -13.410  0.00  0.00     0.367 C 
ATOM      3  O   UNL d   1       8.526   5.018 -14.287  0.00  0.00    -0.243 OA
ATOM      4  N   UNL d   1       9.246   4.619 -12.066  0.00  0.00    -0.159 NA
ATOM      5  C   UNL d   1       8.515   5.525 -11.476  0.00  0.00     0.237 C 
ATOM      6  N   UNL d   1       7.594   6.377 -12.056  0.00  0.00    -0.060 NA
ATOM      7  N   UNL d   1       8.563   5.716 -10.101  0.00  0.00    -0.241 NA
ENDROOT
BRANCH   1   8
ATOM      8  C   UNL d   1      10.397   3.099 -15.185  0.00  0.00     0.131 C 
BRANCH   8   9
ATOM      9  C   UNL d   1       9.773   1.774 -15.689  0.00  0.00     0.025 C 
ATOM     10  C   UNL d   1      10.456   0.532 -15.069  0.00  0.00     0.002 C 
BRANCH   9  11
ATOM     11  C   UNL d   1       8.215   1.690 -15.604  0.00  0.00     0.002 C 
ATOM     12  C   UNL d   1       7.664   0.490 -16.399  0.00  0.00     0.000 C 
ATOM     13  C   UNL d   1       6.133   0.350 -16.256  0.00  0.00     0.000 C 
ATOM     14  C   UNL d   1       5.672   0.356 -14.773  0.00  0.00     0.000 C 
ATOM     15  C   UNL d   1       6.206   1.582 -14.055  0.00  0.00     0.000 C 
ATOM     16  C   UNL d   1       7.705   1.648 -14.122  0.00  0.00     0.000 C 
ENDBRANCH   9  11
ENDBRANCH   8   9
ENDBRANCH   1   8
BRANCH   7  17
ATOM     17  C   UNL d   1       9.482   5.042  -9.217  0.00  0.00     0.129 C 
BRANCH  17  18
ATOM     18  C   UNL d   1      10.267   6.026  -8.339  0.00  0.00     0.033 C 
BRANCH  18  19
ATOM     19  C   UNL d   1       9.379   6.815  -7.362  0.00  0.00     0.057 C 
BRANCH  19  20
ATOM     20  C   UNL d   1      10.165   7.727  -6.478  0.00  0.00     0.112 A 
ATOM     21  S   UNL d   1      11.074   7.136  -5.093  0.00  0.00    -0.036 SA
ATOM     22  C   UNL d   1      11.526   8.812  -4.829  0.00  0.00     0.203 A 
ATOM     23  N   UNL d   1      11.052   9.676  -5.728  0.00  0.00    -0.127 NA
ATOM     24  N   UNL d   1      12.318   9.176  -3.753  0.00  0.00    -0.070 NA
ATOM     25  N   UNL d   1      10.278   9.044  -6.696  0.00  0.00    -0.144 NA
ENDBRANCH  19  20
ENDBRANCH  18  19
ENDBRANCH  17  18
ENDBRANCH   7  17
TORSDOF 7
