REMARK  5 active torsions:
REMARK  status: ('A' for Active; 'I' for Inactive)
REMARK    1  A    between atoms: C_2  and  C_3 
REMARK    2  A    between atoms: C_2  and  C_16 
REMARK    3  A    between atoms: C_3  and  C_4 
REMARK    4  A    between atoms: C_4  and  C_5 
REMARK    5  A    between atoms: C_5  and  N_6 
ROOT
ATOM      1  C   UNL d   1       9.627   6.359 -10.931  0.00  0.00     0.043 C 
ENDROOT
BRANCH   1   2
ATOM      2  C   UNL d   1       8.668   5.545 -11.812  0.00  0.00     0.071 C 
BRANCH   2   3
ATOM      3  C   UNL d   1       9.293   4.702 -12.928  0.00  0.00     0.173 C 
ATOM      4  O   UNL d   1      10.454   4.897 -13.306  0.00  0.00    -0.291 OA
BRANCH   3   5
ATOM      5  C   UNL d   1       8.430   3.647 -13.535  0.00  0.00     0.035 A 
ATOM      6  C   UNL d   1       9.009   2.670 -14.370  0.00  0.00     0.004 A 
ATOM      7  C   UNL d   1       8.222   1.644 -14.926  0.00  0.00     0.011 A 
ATOM      8  C   UNL d   1       6.840   1.596 -14.653  0.00  0.00     0.058 A 
ATOM      9  C   UNL d   1       6.259   2.572 -13.833  0.00  0.00     0.011 A 
ATOM     10 CL   UNL d   1       5.873   0.336 -15.322  0.00  0.00    -0.082 Cl
ATOM     11  C   UNL d   1       7.031   3.603 -13.281  0.00  0.00     0.004 A 
ENDBRANCH   3   5
ENDBRANCH   2   3
ENDBRANCH   1   2
BRANCH   1  12
ATOM     12  C   UNL d   1       9.618   5.903  -9.467  0.00  0.00     0.251 C 
BRANCH  12  13
ATOM     13  N   UNL d   1      10.243   6.895  -8.583  0.00  0.00     0.142 N 
ATOM     14  C   UNL d   1      10.388   6.310  -7.249  0.00  0.00     0.276 C 
ATOM     15  C   UNL d   1      10.893   7.283  -6.185  0.00  0.00     0.007 A 
ATOM     16  C   UNL d   1      10.747   8.668  -6.388  0.00  0.00    -0.022 A 
ATOM     17  C   UNL d   1      11.459   6.804  -4.983  0.00  0.00    -0.003 A 
ATOM     18  C   UNL d   1      10.157   9.156  -7.697  0.00  0.00     0.061 C 
ATOM     19  C   UNL d   1      11.181   9.579  -5.406  0.00  0.00    -0.004 A 
ATOM     20  C   UNL d   1       9.391   8.068  -8.451  0.00  0.00     0.255 C 
ATOM     21  C   UNL d   1      11.755   9.104  -4.208  0.00  0.00    -0.000 A 
ATOM     22  C   UNL d   1      11.889   7.716  -3.996  0.00  0.00    -0.000 A 
ENDBRANCH  12  13
ENDBRANCH   1  12
TORSDOF 5
