REMARK  6 active torsions:
REMARK  status: ('A' for Active; 'I' for Inactive)
REMARK    1  A    between atoms: C_6  and  C_7 
REMARK       I    between atoms: C_7  and  N_9 
REMARK    2  A    between atoms: N_9  and  C_10 
REMARK    3  A    between atoms: C_13  and  C_14 
REMARK    4  A    between atoms: C_14  and  C_15 
REMARK    5  A    between atoms: C_15  and  N_16 
REMARK    6  A    between atoms: C_19  and  C_20 
ROOT
ATOM      1  N   UNL d   1      11.394   8.644  -5.048  0.00  0.00    -0.191 NA
ATOM      2  C   UNL d   1      11.050   8.327  -6.112  0.00  0.00     0.101 C 
ATOM      3  C   UNL d   1      10.629   7.930  -7.439  0.00  0.00     0.068 A 
ATOM      4  C   UNL d   1      10.727   8.835  -8.515  0.00  0.00     0.010 A 
ATOM      5  C   UNL d   1      10.321   8.452  -9.804  0.00  0.00     0.005 A 
ATOM      6  C   UNL d   1       9.831   7.152 -10.047  0.00  0.00     0.058 A 
ATOM      7  C   UNL d   1       9.717   6.250  -8.954  0.00  0.00     0.005 A 
ATOM      8  C   UNL d   1      10.124   6.635  -7.666  0.00  0.00     0.010 A 
ENDROOT
BRANCH   6   9
ATOM      9  C   UNL d   1       9.316   6.798 -11.414  0.00  0.00     0.275 C 
ATOM     10  O   UNL d   1       9.204   7.647 -12.302  0.00  0.00    -0.266 OA
ATOM     11  N   UNL d   1       9.046   5.504 -11.614  0.00  0.00    -0.236 NA
BRANCH  11  12
ATOM     12  C   UNL d   1       8.481   4.929 -12.820  0.00  0.00     0.107 C 
ATOM     13  C   UNL d   1       7.120   4.296 -12.477  0.00  0.00     0.024 C 
ATOM     14  C   UNL d   1       6.543   3.587 -13.707  0.00  0.00     0.002 C 
ATOM     15  C   UNL d   1       7.549   2.597 -14.344  0.00  0.00     0.002 C 
ATOM     16  C   UNL d   1       8.914   3.246 -14.625  0.00  0.00     0.002 C 
ATOM     17  C   UNL d   1       9.476   3.903 -13.376  0.00  0.00     0.024 C 
BRANCH  15  18
ATOM     18  C   UNL d   1       6.948   1.986 -15.606  0.00  0.00     0.035 C 
BRANCH  18  19
ATOM     19  C   UNL d   1       7.923   1.092 -16.397  0.00  0.00     0.250 C 
BRANCH  19  20
ATOM     20  N   UNL d   1       7.297   0.361 -17.481  0.00  0.00     0.137 N 
ATOM     21  C   UNL d   1       8.335  -0.489 -18.077  0.00  0.00     0.251 C 
ATOM     22  C   UNL d   1       7.750  -1.255 -19.269  0.00  0.00     0.040 C 
ATOM     23  C   UNL d   1       6.519  -2.119 -18.894  0.00  0.00     0.026 C 
ATOM     24  C   UNL d   1       5.553  -1.204 -18.125  0.00  0.00     0.040 C 
ATOM     25  C   UNL d   1       6.228  -0.491 -16.984  0.00  0.00     0.251 C 
BRANCH  23  26
ATOM     26  C   UNL d   1       5.831  -2.787 -20.092  0.00  0.00    -0.024 A 
ATOM     27  C   UNL d   1       4.680  -3.607 -19.948  0.00  0.00    -0.001 A 
ATOM     28  C   UNL d   1       4.063  -4.196 -21.047  0.00  0.00     0.090 A 
ATOM     29  C   UNL d   1       3.937  -4.044 -18.709  0.00  0.00     0.061 A 
ATOM     30  C   UNL d   1       4.551  -4.008 -22.345  0.00  0.00     0.024 A 
ATOM     31  O   UNL d   1       2.983  -4.963 -20.705  0.00  0.00    -0.331 OA
ATOM     32  C   UNL d   1       5.692  -3.200 -22.527  0.00  0.00     0.002 A 
ATOM     33  C   UNL d   1       6.326  -2.603 -21.419  0.00  0.00    -0.004 A 
ATOM     34  C   UNL d   1       2.764  -4.840 -19.296  0.00  0.00     0.154 A 
ENDBRANCH  23  26
ENDBRANCH  19  20
ENDBRANCH  18  19
ENDBRANCH  15  18
ENDBRANCH  11  12
ENDBRANCH   6   9
TORSDOF 6
