REMARK  5 active torsions:
REMARK  status: ('A' for Active; 'I' for Inactive)
REMARK    1  A    between atoms: O_2  and  C_3 
REMARK    2  A    between atoms: C_6  and  C_7 
REMARK    3  A    between atoms: N_13  and  C_14 
REMARK    4  A    between atoms: C_14  and  C_15 
REMARK    5  A    between atoms: C_15  and  C_16 
ROOT
ATOM      1  C   UNL d   1       9.559   6.775 -10.149  0.00  0.00     0.061 A 
ATOM      2  C   UNL d   1       9.451   7.217 -11.401  0.00  0.00     0.119 A 
ATOM      3  O   UNL d   1       8.891   6.351 -12.288  0.00  0.00    -0.326 OA
ATOM      4  C   UNL d   1       8.684   5.095 -11.628  0.00  0.00     0.157 A 
ATOM      5  C   UNL d   1       9.593   4.056 -12.310  0.00  0.00     0.071 C 
ATOM      6  C   UNL d   1       9.082   3.675 -13.708  0.00  0.00     0.253 C 
ATOM      7  N   UNL d   1       7.701   3.193 -13.649  0.00  0.00     0.138 N 
ATOM      8  C   UNL d   1       6.816   4.229 -13.128  0.00  0.00     0.253 C 
ATOM      9  C   UNL d   1       7.216   4.632 -11.704  0.00  0.00     0.071 C 
ATOM     10  C   UNL d   1       9.101   5.399 -10.186  0.00  0.00     0.200 A 
ATOM     11  O   UNL d   1       9.072   4.586  -9.261  0.00  0.00    -0.289 OA
ENDROOT
BRANCH   1  12
ATOM     12  C   UNL d   1      10.163   7.476  -9.004  0.00  0.00     0.005 A 
ATOM     13  C   UNL d   1      11.434   8.063  -9.124  0.00  0.00     0.002 A 
ATOM     14  C   UNL d   1      11.994   8.746  -8.031  0.00  0.00     0.024 A 
ATOM     15  C   UNL d   1      11.295   8.875  -6.811  0.00  0.00     0.094 A 
ATOM     16  C   UNL d   1      10.011   8.290  -6.707  0.00  0.00     0.024 A 
ATOM     17  C   UNL d   1       9.450   7.590  -7.790  0.00  0.00     0.002 A 
BRANCH  15  18
ATOM     18  O   UNL d   1      11.913   9.573  -5.800  0.00  0.00    -0.328 OA
ATOM     19  C   UNL d   1      11.239   9.694  -4.554  0.00  0.00     0.181 C 
ENDBRANCH  15  18
ENDBRANCH   1  12
BRANCH   7  20
ATOM     20  C   UNL d   1       7.259   2.770 -14.977  0.00  0.00     0.255 C 
BRANCH  20  21
ATOM     21  C   UNL d   1       7.182   1.242 -15.119  0.00  0.00     0.062 C 
BRANCH  21  22
ATOM     22  C   UNL d   1       6.691   0.826 -16.500  0.00  0.00    -0.020 A 
ATOM     23  C   UNL d   1       7.406   1.214 -17.655  0.00  0.00    -0.004 A 
ATOM     24  C   UNL d   1       6.943   0.852 -18.936  0.00  0.00    -0.000 A 
ATOM     25  C   UNL d   1       5.763   0.097 -19.070  0.00  0.00    -0.000 A 
ATOM     26  C   UNL d   1       5.050  -0.298 -17.923  0.00  0.00    -0.000 A 
ATOM     27  C   UNL d   1       5.511   0.063 -16.642  0.00  0.00    -0.004 A 
ENDBRANCH  21  22
ENDBRANCH  20  21
ENDBRANCH   7  20
TORSDOF 5
