REMARK  6 active torsions:
REMARK  status: ('A' for Active; 'I' for Inactive)
REMARK       I    between atoms: C_2  and  N_3 
REMARK       I    between atoms: C_2  and  N_10 
REMARK    1  A    between atoms: N_3  and  C_4 
REMARK    2  A    between atoms: N_10  and  C_11 
REMARK    3  A    between atoms: C_14  and  C_15 
REMARK    4  A    between atoms: C_15  and  C_16 
REMARK    5  A    between atoms: C_16  and  N_17 
REMARK    6  A    between atoms: N_20  and  C_21 
ROOT
ATOM      1  C   UNL d   1       8.952   1.758 -15.522  0.00  0.00     0.086 A 
ATOM      2  C   UNL d   1       9.333   3.049 -15.079  0.00  0.00     0.019 A 
ATOM      3  C   UNL d   1       8.433   3.837 -14.367  0.00  0.00    -0.003 A 
ATOM      4  C   UNL d   1       7.154   3.343 -14.017  0.00  0.00    -0.020 A 
ATOM      5  C   UNL d   1       6.776   2.051 -14.441  0.00  0.00    -0.003 A 
ATOM      6  C   UNL d   1       7.674   1.258 -15.187  0.00  0.00     0.019 A 
ENDROOT
BRANCH   4   7
ATOM      7  C   UNL d   1       6.164   4.192 -13.221  0.00  0.00     0.062 C 
BRANCH   7   8
ATOM      8  C   UNL d   1       6.466   4.319 -11.716  0.00  0.00     0.255 C 
BRANCH   8   9
ATOM      9  N   UNL d   1       7.843   4.686 -11.437  0.00  0.00     0.141 N 
ATOM     10  C   UNL d   1       8.087   4.620  -9.990  0.00  0.00     0.274 C 
ATOM     11  C   UNL d   1       9.562   4.838  -9.680  0.00  0.00     0.137 C 
ATOM     12  N   UNL d   1       9.934   6.152 -10.202  0.00  0.00    -0.344 N 
ATOM     13  C   UNL d   1       9.615   6.330 -11.625  0.00  0.00     0.137 C 
ATOM     14  C   UNL d   1       8.128   6.061 -11.859  0.00  0.00     0.274 C 
BRANCH  12  15
ATOM     15  C   UNL d   1      10.504   7.154  -9.405  0.00  0.00     0.056 A 
ATOM     16  C   UNL d   1      10.945   6.902  -8.075  0.00  0.00     0.017 A 
ATOM     17  C   UNL d   1      11.509   7.905  -7.279  0.00  0.00     0.002 A 
ATOM     18  C   UNL d   1      11.683   9.187  -7.807  0.00  0.00     0.000 A 
ATOM     19  C   UNL d   1      11.292   9.454  -9.121  0.00  0.00     0.002 A 
ATOM     20  C   UNL d   1      10.691   8.472  -9.917  0.00  0.00     0.017 A 
ENDBRANCH  12  15
ENDBRANCH   8   9
ENDBRANCH   7   8
ENDBRANCH   4   7
BRANCH   1  21
ATOM     21  N   UNL d   1       9.829   0.924 -16.264  0.00  0.00    -0.191 NA
ATOM     22  C   UNL d   1      10.712   1.364 -17.178  0.00  0.00     0.369 C 
ATOM     23  O   UNL d   1      10.794   2.551 -17.531  0.00  0.00    -0.242 OA
ATOM     24  N   UNL d   1      11.472   0.388 -17.689  0.00  0.00    -0.191 NA
BRANCH  24  25
ATOM     25  C   UNL d   1      12.513   0.529 -18.654  0.00  0.00     0.089 A 
ATOM     26  C   UNL d   1      12.866  -0.606 -19.409  0.00  0.00     0.040 A 
ATOM     27  C   UNL d   1      13.899  -0.491 -20.366  0.00  0.00     0.101 A 
ATOM     28  N   UNL d   1      14.588   0.651 -20.576  0.00  0.00    -0.242 NA
ATOM     29  C   UNL d   1      14.265   1.724 -19.836  0.00  0.00     0.101 A 
ATOM     30  C   UNL d   1      13.267   1.716 -18.856  0.00  0.00     0.040 A 
ENDBRANCH  24  25
ENDBRANCH   1  21
TORSDOF 6
