REMARK  10 active torsions:
REMARK  status: ('A' for Active; 'I' for Inactive)
REMARK    1  A    between atoms: C_6  and  C_7 
REMARK    2  A    between atoms: C_7  and  N_8 
REMARK       I    between atoms: N_8  and  C_9 
REMARK    3  A    between atoms: C_9  and  C_11 
REMARK    4  A    between atoms: C_11  and  C_12 
REMARK    5  A    between atoms: C_12  and  O_13 
REMARK    6  A    between atoms: O_13  and  C_14 
REMARK    7  A    between atoms: C_14  and  C_15 
REMARK    8  A    between atoms: C_15  and  N_16 
REMARK    9  A    between atoms: N_19  and  C_20 
REMARK   10  A    between atoms: C_25  and  C_26 
ROOT
ATOM      1  N   UNL d   1      11.834   7.446  -4.265  0.00  0.00    -0.191 NA
ATOM      2  C   UNL d   1      11.454   7.481  -5.358  0.00  0.00     0.101 C 
ATOM      3  C   UNL d   1      10.983   7.525  -6.733  0.00  0.00     0.068 A 
ATOM      4  C   UNL d   1      11.706   8.230  -7.721  0.00  0.00     0.010 A 
ATOM      5  C   UNL d   1      11.240   8.267  -9.052  0.00  0.00    -0.002 A 
ATOM      6  C   UNL d   1      10.053   7.593  -9.412  0.00  0.00     0.002 A 
ATOM      7  C   UNL d   1       9.335   6.892  -8.416  0.00  0.00    -0.002 A 
ATOM      8  C   UNL d   1       9.793   6.860  -7.086  0.00  0.00     0.010 A 
ENDROOT
BRANCH   6   9
ATOM      9  C   UNL d   1       9.543   7.679 -10.849  0.00  0.00     0.155 C 
BRANCH   9  10
ATOM     10  N   UNL d   1       8.658   6.590 -11.233  0.00  0.00    -0.233 NA
ATOM     11  C   UNL d   1       8.866   5.672 -12.183  0.00  0.00     0.254 C 
ATOM     12  O   UNL d   1       9.856   5.679 -12.914  0.00  0.00    -0.270 OA
BRANCH  11  13
ATOM     13  C   UNL d   1       7.793   4.577 -12.322  0.00  0.00     0.122 C 
BRANCH  13  14
ATOM     14  C   UNL d   1       8.027   3.675 -13.541  0.00  0.00     0.152 C 
BRANCH  14  15
ATOM     15  O   UNL d   1       9.324   3.096 -13.491  0.00  0.00    -0.352 OA
BRANCH  15  16
ATOM     16  C   UNL d   1       9.897   2.826 -14.760  0.00  0.00     0.178 C 
BRANCH  16  17
ATOM     17  C   UNL d   1       9.098   1.719 -15.464  0.00  0.00     0.282 C 
BRANCH  17  18
ATOM     18  N   UNL d   1       9.852   0.939 -16.426  0.00  0.00     0.144 N 
ATOM     19  C   UNL d   1       9.072  -0.211 -16.884  0.00  0.00     0.274 C 
ATOM     20  C   UNL d   1       9.853  -1.103 -17.867  0.00  0.00     0.137 C 
ATOM     21  N   UNL d   1      10.382  -0.298 -18.964  0.00  0.00    -0.343 N 
ATOM     22  C   UNL d   1      11.078   0.926 -18.578  0.00  0.00     0.137 C 
ATOM     23  C   UNL d   1      10.250   1.736 -17.583  0.00  0.00     0.274 C 
BRANCH  21  24
ATOM     24  C   UNL d   1      10.158  -0.620 -20.317  0.00  0.00     0.074 A 
ATOM     25  C   UNL d   1      11.165  -0.469 -21.317  0.00  0.00     0.097 A 
ATOM     26  N   UNL d   1      10.949  -0.751 -22.621  0.00  0.00    -0.243 NA
ATOM     27  C   UNL d   1       9.739  -1.200 -22.995  0.00  0.00     0.099 A 
ATOM     28  C   UNL d   1       8.683  -1.398 -22.094  0.00  0.00     0.022 A 
ATOM     29  C   UNL d   1       8.896  -1.103 -20.735  0.00  0.00     0.020 A 
BRANCH  25  30
ATOM     30  C   UNL d   1      12.549  -0.044 -21.026  0.00  0.00     0.019 A 
ATOM     31  C   UNL d   1      13.458  -0.921 -20.393  0.00  0.00     0.004 A 
ATOM     32  C   UNL d   1      14.763  -0.499 -20.082  0.00  0.00     0.030 A 
ATOM     33  C   UNL d   1      15.170   0.809 -20.391  0.00  0.00     0.140 A 
ATOM     34  C   UNL d   1      14.275   1.695 -21.018  0.00  0.00     0.030 A 
ATOM     35  F   UNL d   1      16.423   1.210 -20.077  0.00  0.00    -0.204 F 
ATOM     36  C   UNL d   1      12.973   1.266 -21.343  0.00  0.00     0.004 A 
ENDBRANCH  25  30
ENDBRANCH  21  24
ENDBRANCH  17  18
ENDBRANCH  16  17
ENDBRANCH  15  16
ENDBRANCH  14  15
ENDBRANCH  13  14
ENDBRANCH  11  13
ENDBRANCH   9  10
ENDBRANCH   6   9
TORSDOF 10
