REMARK  8 active torsions:
REMARK  status: ('A' for Active; 'I' for Inactive)
REMARK    1  A    between atoms: O_2  and  C_3 
REMARK    2  A    between atoms: C_8  and  N_9 
REMARK    3  A    between atoms: N_12  and  C_13 
REMARK    4  A    between atoms: C_13  and  C_14 
REMARK    5  A    between atoms: C_14  and  C_15 
REMARK    6  A    between atoms: C_15  and  C_16 
REMARK    7  A    between atoms: C_16  and  N_17 
REMARK       I    between atoms: N_17  and  C_18 
REMARK    8  A    between atoms: C_18  and  C_20 
ROOT
ATOM      1  N   UNL d   1       7.395   2.799 -14.758  0.00  0.00    -0.343 N 
ATOM      2  C   UNL d   1       6.693   3.805 -13.951  0.00  0.00     0.137 C 
ATOM      3  C   UNL d   1       7.495   4.092 -12.691  0.00  0.00     0.274 C 
ATOM      4  N   UNL d   1       8.867   4.509 -13.017  0.00  0.00     0.141 N 
ATOM      5  C   UNL d   1       9.528   3.424 -13.765  0.00  0.00     0.274 C 
ATOM      6  C   UNL d   1       8.777   3.123 -15.082  0.00  0.00     0.137 C 
ENDROOT
BRANCH   4   7
ATOM      7  C   UNL d   1       9.617   4.769 -11.790  0.00  0.00     0.251 C 
BRANCH   7   8
ATOM      8  C   UNL d   1       9.048   5.941 -10.955  0.00  0.00     0.037 C 
BRANCH   8   9
ATOM      9  C   UNL d   1       9.883   6.256  -9.706  0.00  0.00     0.029 C 
BRANCH   9  10
ATOM     10  C   UNL d   1       9.133   7.170  -8.737  0.00  0.00     0.129 C 
BRANCH  10  11
ATOM     11  N   UNL d   1       9.815   7.283  -7.461  0.00  0.00    -0.234 NA
ATOM     12  C   UNL d   1      10.631   8.281  -7.109  0.00  0.00     0.276 C 
ATOM     13  O   UNL d   1      10.950   9.200  -7.862  0.00  0.00    -0.266 OA
BRANCH  12  14
ATOM     14  C   UNL d   1      11.124   8.251  -5.695  0.00  0.00     0.077 A 
ATOM     15  C   UNL d   1      11.377   7.026  -5.037  0.00  0.00     0.106 A 
ATOM     16  N   UNL d   1      11.861   6.940  -3.784  0.00  0.00    -0.216 NA
ATOM     17  C   UNL d   1      12.101   8.083  -3.112  0.00  0.00     0.222 A 
ATOM     18  C   UNL d   1      11.872   9.353  -3.672  0.00  0.00     0.050 A 
ATOM     19  F   UNL d   1      12.573   7.997  -1.848  0.00  0.00    -0.183 F 
ATOM     20  C   UNL d   1      11.387   9.443  -4.991  0.00  0.00     0.010 A 
ENDBRANCH  12  14
ENDBRANCH  10  11
ENDBRANCH   9  10
ENDBRANCH   8   9
ENDBRANCH   7   8
ENDBRANCH   4   7
BRANCH   1  21
ATOM     21  C   UNL d   1       6.747   1.644 -15.234  0.00  0.00     0.079 A 
ATOM     22  C   UNL d   1       5.955   0.874 -14.353  0.00  0.00     0.110 A 
ATOM     23  C   UNL d   1       5.290  -0.275 -14.831  0.00  0.00     0.026 A 
ATOM     24  C   UNL d   1       5.409  -0.645 -16.185  0.00  0.00     0.002 A 
ATOM     25  C   UNL d   1       6.185   0.130 -17.066  0.00  0.00     0.002 A 
ATOM     26  C   UNL d   1       6.858   1.270 -16.593  0.00  0.00     0.019 A 
BRANCH  22  27
ATOM     27  O   UNL d   1       5.860   1.315 -13.052  0.00  0.00    -0.327 OA
ATOM     28  C   UNL d   1       5.521   0.390 -12.063  0.00  0.00     0.181 C 
ENDBRANCH  22  27
ENDBRANCH   1  21
TORSDOF 8
