REMARK  8 active torsions:
REMARK  status: ('A' for Active; 'I' for Inactive)
REMARK    1  A    between atoms: C_2  and  C_3 
REMARK    2  A    between atoms: C_7  and  N_8 
REMARK    3  A    between atoms: N_11  and  C_12 
REMARK    4  A    between atoms: C_12  and  C_13 
REMARK    5  A    between atoms: C_13  and  C_15 
REMARK    6  A    between atoms: C_15  and  C_16 
REMARK    7  A    between atoms: C_16  and  N_17 
REMARK       I    between atoms: N_17  and  C_18 
REMARK    8  A    between atoms: C_18  and  C_20 
ROOT
ATOM      1  C   UNL d   1       7.918   6.464 -11.889  0.00  0.00     0.283 C 
ENDROOT
BRANCH   1   2
ATOM      2  N   UNL d   1       8.209   5.099 -12.359  0.00  0.00     0.144 N 
ATOM      3  C   UNL d   1       9.649   4.817 -12.460  0.00  0.00     0.274 C 
ATOM      4  C   UNL d   1       9.971   3.413 -12.882  0.00  0.00     0.137 C 
ATOM      5  N   UNL d   1       9.261   3.113 -14.092  0.00  0.00    -0.344 N 
ATOM      6  C   UNL d   1       7.826   3.349 -14.098  0.00  0.00     0.137 C 
ATOM      7  C   UNL d   1       7.550   4.796 -13.633  0.00  0.00     0.274 C 
BRANCH   5   8
ATOM      8  C   UNL d   1       9.968   2.590 -15.193  0.00  0.00     0.067 A 
ATOM      9  C   UNL d   1      11.011   3.345 -15.761  0.00  0.00     0.018 A 
ATOM     10  C   UNL d   1      11.732   2.828 -16.860  0.00  0.00     0.001 A 
ATOM     11  C   UNL d   1      11.424   1.553 -17.358  0.00  0.00    -0.003 A 
ATOM     12  C   UNL d   1      10.403   0.777 -16.772  0.00  0.00    -0.010 A 
ATOM     13  C   UNL d   1       9.662   1.308 -15.681  0.00  0.00     0.069 A 
ATOM     14 CL   UNL d   1       8.403   0.382 -14.933  0.00  0.00    -0.081 Cl
BRANCH  12  15
ATOM     15  C   UNL d   1      10.110  -0.605 -17.319  0.00  0.00     0.027 C 
ATOM     16  C   UNL d   1       8.931  -0.602 -18.297  0.00  0.00     0.005 C 
ENDBRANCH  12  15
ENDBRANCH   5   8
ENDBRANCH   1   2
BRANCH   1  17
ATOM     17  C   UNL d   1       9.126   7.433 -11.686  0.00  0.00     0.188 C 
ATOM     18  O   UNL d   1       8.639   8.750 -11.704  0.00  0.00    -0.221 OA
BRANCH  17  19
ATOM     19  C   UNL d   1       9.841   7.194 -10.325  0.00  0.00     0.061 C 
BRANCH  19  20
ATOM     20  C   UNL d   1      10.820   8.312  -9.936  0.00  0.00     0.132 C 
BRANCH  20  21
ATOM     21  N   UNL d   1      11.225   8.131  -8.556  0.00  0.00    -0.234 NA
ATOM     22  C   UNL d   1      10.467   8.543  -7.530  0.00  0.00     0.275 C 
ATOM     23  O   UNL d   1       9.409   9.148  -7.648  0.00  0.00    -0.266 OA
BRANCH  22  24
ATOM     24  C   UNL d   1      11.015   8.235  -6.186  0.00  0.00     0.060 A 
ATOM     25  C   UNL d   1      11.188   9.271  -5.243  0.00  0.00     0.031 A 
ATOM     26  C   UNL d   1      11.708   8.935  -3.987  0.00  0.00     0.119 A 
ATOM     27  C   UNL d   1      12.033   7.628  -3.670  0.00  0.00     0.119 A 
ATOM     28  O   UNL d   1      11.966   9.725  -2.919  0.00  0.00    -0.300 OA
ATOM     29  C   UNL d   1      11.856   6.585  -4.580  0.00  0.00     0.026 A 
ATOM     30  O   UNL d   1      12.517   7.565  -2.409  0.00  0.00    -0.300 OA
ATOM     31  C   UNL d   1      11.333   6.889  -5.852  0.00  0.00     0.007 A 
ATOM     32  C   UNL d   1      12.497   8.881  -1.929  0.00  0.00     0.304 A 
ENDBRANCH  22  24
ENDBRANCH  20  21
ENDBRANCH  19  20
ENDBRANCH  17  19
ENDBRANCH   1  17
TORSDOF 8
