REMARK  7 active torsions:
REMARK  status: ('A' for Active; 'I' for Inactive)
REMARK    1  A    between atoms: O_2  and  C_3 
REMARK    2  A    between atoms: C_6  and  O_7 
REMARK    3  A    between atoms: O_7  and  C_8 
REMARK    4  A    between atoms: C_8  and  C_9 
REMARK    5  A    between atoms: C_9  and  N_10 
REMARK       I    between atoms: N_13  and  C_14 
REMARK    6  A    between atoms: C_14  and  C_16 
REMARK    7  A    between atoms: C_20  and  O_21 
ROOT
ATOM      1  N   UNL d   1       8.483   5.056 -12.033  0.00  0.00     0.144 N 
ATOM      2  C   UNL d   1       9.090   6.208 -12.709  0.00  0.00     0.274 C 
ATOM      3  C   UNL d   1       8.961   7.498 -11.878  0.00  0.00     0.140 C 
ATOM      4  N   UNL d   1       9.515   7.263 -10.491  0.00  0.00    -0.311 N 
ATOM      5  C   UNL d   1      10.388   8.094  -9.910  0.00  0.00     0.275 C 
ATOM      6  O   UNL d   1      10.881   9.059 -10.447  0.00  0.00    -0.266 OA
ATOM      7  C   UNL d   1       8.868   6.091  -9.859  0.00  0.00     0.140 C 
ATOM      8  C   UNL d   1       9.137   4.893 -10.741  0.00  0.00     0.274 C 
ENDROOT
BRANCH   5   9
ATOM      9  C   UNL d   1      10.747   7.967  -8.484  0.00  0.00     0.137 A 
ATOM     10  N   UNL d   1      11.094   9.165  -7.844  0.00  0.00    -0.241 NA
ATOM     11  C   UNL d   1      11.413   8.940  -6.545  0.00  0.00     0.082 A 
ATOM     12  C   UNL d   1      11.237   7.543  -6.350  0.00  0.00     0.021 A 
ATOM     13  C   UNL d   1      11.852   9.798  -5.507  0.00  0.00     0.021 A 
ATOM     14  C   UNL d   1      10.912   6.942  -7.586  0.00  0.00     0.025 A 
ATOM     15  C   UNL d   1      11.445   7.025  -5.067  0.00  0.00     0.026 A 
ATOM     16  C   UNL d   1      11.869   7.860  -3.987  0.00  0.00     0.094 A 
ATOM     17  C   UNL d   1      12.077   9.233  -4.247  0.00  0.00     0.026 A 
BRANCH  16  18
ATOM     18  O   UNL d   1      12.075   7.234  -2.787  0.00  0.00    -0.328 OA
ATOM     19  C   UNL d   1      12.526   8.083  -1.762  0.00  0.00     0.181 C 
ENDBRANCH  16  18
ENDBRANCH   5   9
BRANCH   1  20
ATOM     20  C   UNL d   1       8.764   3.860 -12.794  0.00  0.00     0.283 C 
BRANCH  20  21
ATOM     21  C   UNL d   1       7.473   3.446 -13.591  0.00  0.00     0.184 C 
BRANCH  21  22
ATOM     22  O   UNL d   1       7.554   2.119 -14.107  0.00  0.00    -0.329 OA
BRANCH  22  23
ATOM     23  C   UNL d   1       8.578   1.811 -14.964  0.00  0.00     0.094 A 
ATOM     24  C   UNL d   1       8.808   0.452 -15.283  0.00  0.00     0.026 A 
ATOM     25  C   UNL d   1       9.877   0.070 -16.130  0.00  0.00     0.026 A 
ATOM     26  C   UNL d   1      10.783   1.056 -16.633  0.00  0.00     0.094 A 
ATOM     27  C   UNL d   1      10.541   2.404 -16.273  0.00  0.00     0.026 A 
ATOM     28  C   UNL d   1       9.444   2.788 -15.532  0.00  0.00     0.026 A 
BRANCH  26  29
ATOM     29  O   UNL d   1      11.803   0.658 -17.470  0.00  0.00    -0.328 OA
ATOM     30  C   UNL d   1      12.646   1.699 -17.977  0.00  0.00     0.181 C 
ENDBRANCH  26  29
ENDBRANCH  22  23
ENDBRANCH  21  22
ENDBRANCH  20  21
ENDBRANCH   1  20
TORSDOF 7
