REMARK  3 active torsions:
REMARK  status: ('A' for Active; 'I' for Inactive)
REMARK    1  A    between atoms: C_2  and  C_3 
REMARK    2  A    between atoms: C_3  and  N_4 
REMARK    3  A    between atoms: C_7  and  C_8 
ROOT
ATOM      1  N   UNL d   1       9.736   5.633  -8.932  0.00  0.00     0.137 N 
ATOM      2  C   UNL d   1       8.590   6.159  -8.181  0.00  0.00     0.251 C 
ATOM      3  C   UNL d   1       9.034   6.954  -6.954  0.00  0.00     0.041 C 
ATOM      4  C   UNL d   1      10.075   8.045  -7.309  0.00  0.00     0.046 C 
ATOM      5  C   UNL d   1      11.196   7.470  -8.184  0.00  0.00     0.041 C 
ATOM      6  C   UNL d   1      10.609   6.735  -9.379  0.00  0.00     0.251 C 
ENDROOT
BRANCH   4   7
ATOM      7  C   UNL d   1      10.627   8.742  -6.129  0.00  0.00     0.082 C 
ATOM      8  C   UNL d   1      11.232   8.152  -5.033  0.00  0.00     0.035 A 
ATOM      9  C   UNL d   1      11.524   9.197  -4.176  0.00  0.00     0.104 A 
ATOM     10  C   UNL d   1      11.529   6.820  -4.704  0.00  0.00     0.003 A 
ATOM     11  N   UNL d   1      11.115  10.385  -4.658  0.00  0.00    -0.148 NA
ATOM     12  C   UNL d   1      12.179   8.977  -2.947  0.00  0.00     0.021 A 
ATOM     13  N   UNL d   1      10.667  10.095  -5.914  0.00  0.00    -0.152 NA
ATOM     14  C   UNL d   1      12.461   7.643  -2.584  0.00  0.00     0.002 A 
ATOM     15  C   UNL d   1      12.128   6.587  -3.452  0.00  0.00     0.000 A 
ENDBRANCH   4   7
BRANCH   1  16
ATOM     16  C   UNL d   1       9.244   4.811 -10.032  0.00  0.00     0.250 C 
BRANCH  16  17
ATOM     17  C   UNL d   1       8.625   5.603 -11.217  0.00  0.00     0.035 C 
ATOM     18  C   UNL d   1       8.100   4.721 -12.336  0.00  0.00     0.002 C 
ENDBRANCH  16  17
ENDBRANCH   1  16
TORSDOF 3
