REMARK  0 active torsions:
REMARK  status: ('A' for Active; 'I' for Inactive)
ROOT
ATOM      1  C   UNL d   1       5.907  -0.831 -14.738  0.00  0.00     0.154 C 
ATOM      2  N   UNL d   1       6.567   0.445 -14.564  0.00  0.00    -0.248 N 
ATOM      3  C   UNL d   1       6.095   1.585 -13.970  0.00  0.00     0.092 A 
ATOM      4  C   UNL d   1       7.074   2.537 -14.040  0.00  0.00     0.016 A 
ATOM      5  C   UNL d   1       8.150   1.868 -14.721  0.00  0.00     0.098 A 
ATOM      6  N   UNL d   1       7.819   0.616 -15.020  0.00  0.00    -0.170 NA
ATOM      7  C   UNL d   1       9.494   2.347 -15.108  0.00  0.00     0.015 A 
ATOM      8  C   UNL d   1      10.158   1.731 -16.200  0.00  0.00     0.001 A 
ATOM      9  C   UNL d   1      11.440   2.145 -16.604  0.00  0.00     0.000 A 
ATOM     10  C   UNL d   1      12.083   3.191 -15.922  0.00  0.00    -0.000 A 
ATOM     11  C   UNL d   1      11.442   3.817 -14.840  0.00  0.00    -0.004 A 
ATOM     12  C   UNL d   1      10.153   3.408 -14.431  0.00  0.00    -0.021 A 
ATOM     13  C   UNL d   1       9.504   4.140 -13.269  0.00  0.00     0.027 C 
ATOM     14  C   UNL d   1       8.193   4.820 -13.680  0.00  0.00     0.009 C 
ATOM     15  C   UNL d   1       6.960   3.933 -13.483  0.00  0.00     0.030 C 
ENDROOT
TORSDOF 0
