REMARK  5 active torsions:
REMARK  status: ('A' for Active; 'I' for Inactive)
REMARK    1  A    between atoms: C_6  and  C_7 
REMARK    2  A    between atoms: C_7  and  C_9 
REMARK    3  A    between atoms: C_9  and  C_10 
REMARK    4  A    between atoms: C_10  and  C_11 
REMARK    5  A    between atoms: C_11  and  N_12 
ROOT
ATOM      1  N   UNL d   1      10.027  -0.010 -15.864  0.00  0.00    -0.191 NA
ATOM      2  C   UNL d   1       9.649   0.931 -15.297  0.00  0.00     0.101 C 
ATOM      3  C   UNL d   1       9.178   2.111 -14.590  0.00  0.00     0.068 A 
ATOM      4  C   UNL d   1      10.117   3.019 -14.045  0.00  0.00     0.010 A 
ATOM      5  C   UNL d   1       9.686   4.172 -13.372  0.00  0.00     0.004 A 
ATOM      6  C   UNL d   1       8.305   4.426 -13.185  0.00  0.00     0.035 A 
ATOM      7  C   UNL d   1       7.368   3.521 -13.741  0.00  0.00     0.004 A 
ATOM      8  C   UNL d   1       7.798   2.374 -14.442  0.00  0.00     0.010 A 
ENDROOT
BRANCH   6   9
ATOM      9  C   UNL d   1       7.814   5.594 -12.399  0.00  0.00     0.173 C 
ATOM     10  O   UNL d   1       6.618   5.835 -12.253  0.00  0.00    -0.291 OA
BRANCH   9  11
ATOM     11  C   UNL d   1       8.836   6.551 -11.782  0.00  0.00     0.071 C 
BRANCH  11  12
ATOM     12  C   UNL d   1       9.815   5.890 -10.792  0.00  0.00     0.043 C 
BRANCH  12  13
ATOM     13  C   UNL d   1       9.305   5.808  -9.351  0.00  0.00     0.251 C 
BRANCH  13  14
ATOM     14  N   UNL d   1      10.044   6.778  -8.545  0.00  0.00     0.142 N 
ATOM     15  C   UNL d   1      10.172   6.267  -7.189  0.00  0.00     0.276 C 
ATOM     16  C   UNL d   1      10.798   7.244  -6.210  0.00  0.00     0.007 A 
ATOM     17  C   UNL d   1      10.762   8.631  -6.496  0.00  0.00    -0.022 A 
ATOM     18  C   UNL d   1      11.364   6.789  -5.002  0.00  0.00    -0.003 A 
ATOM     19  C   UNL d   1      10.165   9.107  -7.811  0.00  0.00     0.061 C 
ATOM     20  C   UNL d   1      11.296   9.555  -5.577  0.00  0.00    -0.004 A 
ATOM     21  C   UNL d   1       9.309   8.037  -8.504  0.00  0.00     0.255 C 
ATOM     22  C   UNL d   1      11.858   9.098  -4.372  0.00  0.00    -0.000 A 
ATOM     23  C   UNL d   1      11.889   7.715  -4.086  0.00  0.00    -0.000 A 
ENDBRANCH  13  14
ENDBRANCH  12  13
ENDBRANCH  11  12
ENDBRANCH   9  11
ENDBRANCH   6   9
TORSDOF 5
