REMARK  6 active torsions:
REMARK  status: ('A' for Active; 'I' for Inactive)
REMARK    1  A    between atoms: C_9  and  O_10 
REMARK    2  A    between atoms: O_10  and  C_11 
REMARK    3  A    between atoms: C_11  and  C_12 
REMARK    4  A    between atoms: C_12  and  C_13 
REMARK    5  A    between atoms: C_13  and  N_14 
REMARK    6  A    between atoms: N_17  and  C_18 
ROOT
ATOM      1  N   UNL d   1      12.234   3.198 -17.081  0.00  0.00     0.141 N 
ATOM      2  C   UNL d   1      11.047   4.051 -17.229  0.00  0.00     0.274 C 
ATOM      3  C   UNL d   1      10.360   4.212 -15.874  0.00  0.00     0.137 C 
ATOM      4  N   UNL d   1      10.025   2.913 -15.300  0.00  0.00    -0.344 N 
ATOM      5  C   UNL d   1      11.129   1.961 -15.251  0.00  0.00     0.137 C 
ATOM      6  C   UNL d   1      11.801   1.868 -16.633  0.00  0.00     0.274 C 
ENDROOT
BRANCH   1   7
ATOM      7  C   UNL d   1      12.892   3.085 -18.378  0.00  0.00     0.253 C 
BRANCH   7   8
ATOM      8  C   UNL d   1      13.726   4.338 -18.713  0.00  0.00     0.068 C 
BRANCH   8   9
ATOM      9  C   UNL d   1      13.780   4.576 -20.227  0.00  0.00     0.151 C 
BRANCH   9  10
ATOM     10  O   UNL d   1      14.927   5.359 -20.550  0.00  0.00    -0.329 OA
BRANCH  10  11
ATOM     11  C   UNL d   1      16.064   4.762 -21.054  0.00  0.00     0.121 A 
ATOM     12  C   UNL d   1      17.229   5.576 -21.176  0.00  0.00     0.162 A 
ATOM     13  C   UNL d   1      18.438   5.063 -21.710  0.00  0.00     0.029 A 
ATOM     14  F   UNL d   1      17.193   6.868 -20.766  0.00  0.00    -0.202 F 
ATOM     15  C   UNL d   1      18.442   3.720 -22.119  0.00  0.00     0.009 A 
ATOM     16  C   UNL d   1      19.548   2.890 -22.721  0.00  0.00     0.156 A 
ATOM     17  C   UNL d   1      17.321   2.929 -22.005  0.00  0.00     0.058 A 
ATOM     18  N   UNL d   1      18.894   1.589 -22.913  0.00  0.00    -0.229 NA
ATOM     19  C   UNL d   1      17.612   1.573 -22.511  0.00  0.00     0.275 A 
ATOM     20  O   UNL d   1      16.818   0.637 -22.540  0.00  0.00    -0.266 OA
ATOM     21  C   UNL d   1      16.117   3.407 -21.473  0.00  0.00     0.031 A 
ENDBRANCH  10  11
ENDBRANCH   9  10
ENDBRANCH   8   9
ENDBRANCH   7   8
ENDBRANCH   1   7
BRANCH   4  22
ATOM     22  C   UNL d   1       8.742   2.585 -14.851  0.00  0.00     0.056 A 
ATOM     23  C   UNL d   1       7.968   3.460 -14.028  0.00  0.00     0.016 A 
ATOM     24  C   UNL d   1       6.655   3.083 -13.639  0.00  0.00     0.004 A 
ATOM     25  C   UNL d   1       8.478   4.696 -13.542  0.00  0.00     0.004 A 
ATOM     26  C   UNL d   1       6.128   1.836 -14.035  0.00  0.00     0.000 A 
ATOM     27  C   UNL d   1       5.876   3.938 -12.829  0.00  0.00     0.030 A 
ATOM     28  C   UNL d   1       6.887   0.967 -14.835  0.00  0.00     0.002 A 
ATOM     29  C   UNL d   1       8.182   1.340 -15.239  0.00  0.00     0.017 A 
ATOM     30  C   UNL d   1       6.394   5.175 -12.404  0.00  0.00     0.140 A 
ATOM     31  F   UNL d   1       5.643   6.002 -11.646  0.00  0.00    -0.204 F 
ATOM     32  C   UNL d   1       7.690   5.553 -12.762  0.00  0.00     0.030 A 
ENDBRANCH   4  22
TORSDOF 6
