REMARK  9 active torsions:
REMARK  status: ('A' for Active; 'I' for Inactive)
REMARK    1  A    between atoms: CB_2  and  CA_4 
REMARK    2  A    between atoms: CA_8  and  CB_9 
REMARK    3  A    between atoms: CB_9  and  CG_10 
REMARK    4  A    between atoms: CA_19  and  CB_20 
REMARK    5  A    between atoms: CB_20  and  CG_21 
REMARK    6  A    between atoms: CA_31  and  CB_32 
REMARK    7  A    between atoms: CB_32  and  CG_33 
REMARK    8  A    between atoms: CG_33  and  CD_34 
REMARK    9  A    between atoms: CD_34  and  NE_35 
ROOT
ATOM      1  CA  VAL d   1       5.799  -0.657 -17.660  0.00  0.00     0.186 C 
ATOM      2  N   VAL d   1       6.652  -1.394 -18.588  0.00  0.00    -0.229 NA
ATOM      3  C   VAL d   1       6.614   0.572 -17.215  0.00  0.00     0.274 C 
ATOM      4  O   VAL d   1       6.292   1.677 -17.641  0.00  0.00    -0.268 OA
ATOM      5  C   PHE d   5       6.739  -1.139 -19.900  0.00  0.00     0.275 C 
ATOM      6  O   PHE d   5       6.035  -0.304 -20.472  0.00  0.00    -0.268 OA
ATOM      7  CA  PHE d   5       7.832  -1.897 -20.673  0.00  0.00     0.191 C 
ATOM      8  N   PHE d   5       8.979  -0.997 -20.762  0.00  0.00    -0.228 NA
ATOM      9  C   ASP d   4       9.862  -0.800 -19.770  0.00  0.00     0.275 C 
ATOM     10  O   ASP d   4       9.863  -1.468 -18.730  0.00  0.00    -0.268 OA
ATOM     11  CA  ASP d   4      10.846   0.365 -19.944  0.00  0.00     0.197 C 
ATOM     12  N   ASP d   4      11.122   0.923 -18.629  0.00  0.00    -0.228 NA
ATOM     13  C   GLY d   3      11.310   2.204 -18.295  0.00  0.00     0.277 C 
ATOM     14  O   GLY d   3      11.354   3.114 -19.122  0.00  0.00    -0.268 OA
ATOM     15  CA  GLY d   3      11.419   2.519 -16.796  0.00  0.00     0.218 C 
ATOM     16  N   GLY d   3      11.141   1.371 -15.930  0.00  0.00    -0.226 NA
ATOM     17  C   ARG d   2       9.954   0.828 -15.606  0.00  0.00     0.274 C 
ATOM     18  O   ARG d   2       9.916  -0.186 -14.925  0.00  0.00    -0.268 OA
ATOM     19  CA  ARG d   2       8.627   1.463 -16.048  0.00  0.00     0.186 C 
ATOM     20  N   ARG d   2       7.702   0.395 -16.448  0.00  0.00    -0.229 NA
ENDROOT
BRANCH   7  21
ATOM     21  CB  PHE d   5       7.375  -2.253 -22.109  0.00  0.00     0.060 C 
BRANCH  21  22
ATOM     22  CG  PHE d   5       6.329  -3.354 -22.181  0.00  0.00    -0.020 A 
ATOM     23  CD1 PHE d   5       4.961  -3.040 -22.043  0.00  0.00    -0.004 A 
ATOM     24  CE1 PHE d   5       3.988  -4.054 -22.075  0.00  0.00    -0.000 A 
ATOM     25  CZ  PHE d   5       4.376  -5.393 -22.268  0.00  0.00    -0.000 A 
ATOM     26  CE2 PHE d   5       5.740  -5.714 -22.423  0.00  0.00    -0.000 A 
ATOM     27  CD2 PHE d   5       6.717  -4.697 -22.376  0.00  0.00    -0.004 A 
ENDBRANCH  21  22
ENDBRANCH   7  21
BRANCH   1  28
ATOM     28  CB  VAL d   1       5.401  -1.543 -16.448  0.00  0.00     0.032 C 
ATOM     29  CG1 VAL d   1       5.067  -2.987 -16.854  0.00  0.00     0.003 C 
ATOM     30  CG2 VAL d   1       4.236  -0.936 -15.650  0.00  0.00     0.003 C 
ENDBRANCH   1  28
BRANCH  11  31
ATOM     31  CB  ASP d   4      12.142   0.063 -20.744  0.00  0.00     0.132 C 
BRANCH  31  32
ATOM     32  CG  ASP d   4      13.178  -0.841 -20.053  0.00  0.00     0.188 C 
ATOM     33  OD1 ASP d   4      13.138  -1.196 -18.881  0.00  0.00    -0.647 OA
ATOM     34  OD2 ASP d   4      14.175  -1.237 -20.890  0.00  0.00    -0.647 OA
ENDBRANCH  31  32
ENDBRANCH  11  31
BRANCH  19  35
ATOM     35  CB  ARG d   2       7.992   2.349 -14.947  0.00  0.00     0.036 C 
BRANCH  35  36
ATOM     36  CG  ARG d   2       8.850   3.550 -14.515  0.00  0.00     0.029 C 
BRANCH  36  37
ATOM     37  CD  ARG d   2       8.183   4.412 -13.444  0.00  0.00     0.129 C 
BRANCH  37  38
ATOM     38  NE  ARG d   2       9.094   5.469 -13.043  0.00  0.00    -0.240 NA
ATOM     39  CZ  ARG d   2       8.659   6.355 -12.210  0.00  0.00     0.252 C 
ATOM     40  NH1 ARG d   2       7.386   6.382 -11.671  0.00  0.00    -0.059 NA
ATOM     41  NH2 ARG d   2       9.454   7.389 -11.772  0.00  0.00    -0.111 N 
ENDBRANCH  37  38
ENDBRANCH  36  37
ENDBRANCH  35  36
ENDBRANCH  19  35
TORSDOF 9
