REMARK  9 active torsions:
REMARK  status: ('A' for Active; 'I' for Inactive)
REMARK    1  A    between atoms: C_2  and  C_3 
REMARK    2  A    between atoms: C_3  and  N_4 
REMARK    3  A    between atoms: N_4  and  C_5 
REMARK    4  A    between atoms: N_4  and  C_8 
REMARK    5  A    between atoms: C_5  and  C_6 
REMARK    6  A    between atoms: C_13  and  C_14 
REMARK    7  A    between atoms: C_14  and  S_15 
REMARK    8  A    between atoms: S_15  and  C_16 
REMARK    9  A    between atoms: C_19  and  O_20 
ROOT
ATOM      1  C   UNL d   1       7.557   1.958 -15.387  0.00  0.00     0.224 C 
ATOM      2  C   UNL d   1       8.875   1.462 -14.759  0.00  0.00     0.038 C 
ATOM      3  C   UNL d   1       9.680   2.634 -14.196  0.00  0.00     0.028 C 
ATOM      4  C   UNL d   1       8.850   3.603 -13.391  0.00  0.00    -0.026 A 
ATOM      5  C   UNL d   1       9.524   4.458 -12.501  0.00  0.00    -0.008 A 
ATOM      6  C   UNL d   1       8.784   5.350 -11.708  0.00  0.00    -0.011 A 
ATOM      7  C   UNL d   1       7.383   5.402 -11.786  0.00  0.00    -0.004 A 
ATOM      8  C   UNL d   1       6.710   4.556 -12.683  0.00  0.00    -0.005 A 
ATOM      9  C   UNL d   1       7.442   3.665 -13.485  0.00  0.00    -0.024 A 
ATOM     10  C   UNL d   1       6.661   2.699 -14.358  0.00  0.00     0.059 C 
ENDROOT
BRANCH   6  11
ATOM     11  C   UNL d   1       9.483   6.292 -10.754  0.00  0.00     0.088 C 
BRANCH  11  12
ATOM     12  S   UNL d   1       9.694   5.485  -9.146  0.00  0.00    -0.109 SA
BRANCH  12  13
ATOM     13  C   UNL d   1      10.165   6.728  -8.015  0.00  0.00     0.026 A 
ATOM     14  C   UNL d   1       9.631   8.023  -8.129  0.00  0.00     0.008 A 
ATOM     15  C   UNL d   1       9.990   9.003  -7.178  0.00  0.00     0.025 A 
ATOM     16  C   UNL d   1      10.815   8.728  -6.090  0.00  0.00     0.094 A 
ATOM     17  C   UNL d   1      11.351   7.402  -5.973  0.00  0.00     0.025 A 
ATOM     18  C   UNL d   1      11.046   6.445  -6.968  0.00  0.00     0.008 A 
BRANCH  16  19
ATOM     19  O   UNL d   1      11.081   9.728  -5.184  0.00  0.00    -0.328 OA
ATOM     20  C   UNL d   1      11.892   9.409  -4.080  0.00  0.00     0.181 C 
ENDBRANCH  16  19
ENDBRANCH  12  13
ENDBRANCH  11  12
ENDBRANCH   6  11
BRANCH   1  21
ATOM     21  N   UNL d   1       6.815   0.902 -16.129  0.00  0.00     0.135 N 
BRANCH  21  22
ATOM     22  C   UNL d   1       6.301  -0.165 -15.262  0.00  0.00     0.250 C 
BRANCH  22  23
ATOM     23  C   UNL d   1       5.269  -1.059 -15.983  0.00  0.00     0.035 C 
ATOM     24  C   UNL d   1       3.964  -1.188 -15.194  0.00  0.00     0.002 C 
ENDBRANCH  22  23
ENDBRANCH  21  22
BRANCH  21  25
ATOM     25  C   UNL d   1       7.559   0.358 -17.278  0.00  0.00     0.250 C 
BRANCH  25  26
ATOM     26  C   UNL d   1       7.609   1.338 -18.469  0.00  0.00     0.035 C 
ATOM     27  C   UNL d   1       6.344   1.262 -19.328  0.00  0.00     0.002 C 
ENDBRANCH  25  26
ENDBRANCH  21  25
ENDBRANCH   1  21
TORSDOF 9
