REMARK  2 active torsions:
REMARK  status: ('A' for Active; 'I' for Inactive)
REMARK    1  A    between atoms: C_8  and  C_9 
REMARK    2  A    between atoms: C_10  and  C_11 
ROOT
ATOM      1  N   UNL d   1      10.386   2.196 -14.924  0.00  0.00    -0.191 NA
ATOM      2  C   UNL d   1       9.654   2.817 -14.278  0.00  0.00     0.101 C 
ATOM      3  C   UNL d   1       8.737   3.601 -13.468  0.00  0.00     0.071 A 
ATOM      4  C   UNL d   1       7.359   3.629 -13.772  0.00  0.00     0.040 A 
ATOM      5  C   UNL d   1       6.474   4.376 -12.969  0.00  0.00     0.141 A 
ATOM      6  F   UNL d   1       5.153   4.389 -13.270  0.00  0.00    -0.204 F 
ATOM      7  C   UNL d   1       6.963   5.101 -11.863  0.00  0.00     0.038 A 
ATOM      8  C   UNL d   1       8.334   5.053 -11.544  0.00  0.00     0.045 A 
ATOM      9  C   UNL d   1       9.219   4.308 -12.349  0.00  0.00     0.019 A 
ENDROOT
BRANCH   8  10
ATOM     10  C   UNL d   1       8.833   5.739 -10.367  0.00  0.00    -0.058 C 
ATOM     11  C   UNL d   1       9.248   6.332  -9.384  0.00  0.00    -0.040 C 
BRANCH  11  12
ATOM     12  C   UNL d   1       9.734   7.033  -8.251  0.00  0.00     0.132 A 
ATOM     13  N   UNL d   1      10.555   6.388  -7.319  0.00  0.00    -0.204 NA
ATOM     14  C   UNL d   1      10.870   7.190  -6.306  0.00  0.00     0.254 A 
ATOM     15  S   UNL d   1      10.258   8.819  -6.441  0.00  0.00    -0.035 SA
ATOM     16  F   UNL d   1      11.584   6.840  -5.261  0.00  0.00    -0.176 F 
ATOM     17  C   UNL d   1       9.479   8.344  -7.931  0.00  0.00     0.067 A 
ENDBRANCH  11  12
ENDBRANCH   8  10
TORSDOF 2
