REMARK  1 active torsions:
REMARK  status: ('A' for Active; 'I' for Inactive)
REMARK    1  A    between atoms: N_4  and  C_5 
ROOT
ATOM      1  C   UNL d   1      10.450   0.247 -15.620  0.00  0.00     0.050 C 
ATOM      2  C   UNL d   1      10.259   1.614 -15.042  0.00  0.00     0.067 A 
ATOM      3  N   UNL d   1       9.165   2.008 -14.495  0.00  0.00    -0.171 NA
ATOM      4  N   UNL d   1       9.319   3.279 -14.039  0.00  0.00    -0.198 N 
ATOM      5  C   UNL d   1      10.547   3.751 -14.323  0.00  0.00     0.263 A 
ATOM      6  O   UNL d   1      11.021   4.865 -14.086  0.00  0.00    -0.270 OA
ATOM      7  C   UNL d   1      11.312   2.665 -15.026  0.00  0.00     0.133 A 
ENDROOT
BRANCH   4   8
ATOM      8  C   UNL d   1       8.290   3.996 -13.360  0.00  0.00     0.086 A 
ATOM      9  C   UNL d   1       6.929   3.722 -13.649  0.00  0.00     0.019 A 
ATOM     10  C   UNL d   1       5.898   4.424 -12.993  0.00  0.00     0.002 A 
ATOM     11  C   UNL d   1       6.217   5.408 -12.037  0.00  0.00     0.000 A 
ATOM     12  C   UNL d   1       7.564   5.652 -11.714  0.00  0.00     0.002 A 
ATOM     13  C   UNL d   1       8.594   4.955 -12.363  0.00  0.00     0.019 A 
ENDBRANCH   4   8
TORSDOF 1
