REMARK  0 active torsions:
REMARK  status: ('A' for Active; 'I' for Inactive)
ROOT
ATOM      1  C   UNL d   1       4.963  -1.778 -15.441  0.00  0.00     0.058 C 
ATOM      2  C   UNL d   1       5.483  -0.493 -14.891  0.00  0.00     0.078 A 
ATOM      3  C   UNL d   1       4.941   0.386 -13.989  0.00  0.00     0.022 A 
ATOM      4  C   UNL d   1       5.864   1.483 -13.898  0.00  0.00     0.024 A 
ATOM      5  C   UNL d   1       5.905   2.733 -13.238  0.00  0.00     0.002 A 
ATOM      6  C   UNL d   1       7.019   3.590 -13.400  0.00  0.00    -0.004 A 
ATOM      7  C   UNL d   1       8.105   3.214 -14.224  0.00  0.00    -0.018 A 
ATOM      8  C   UNL d   1       8.104   1.979 -14.910  0.00  0.00     0.019 A 
ATOM      9  C   UNL d   1       6.963   1.155 -14.741  0.00  0.00     0.099 A 
ATOM     10  O   UNL d   1       6.687  -0.045 -15.363  0.00  0.00    -0.311 OA
ATOM     11  C   UNL d   1       9.267   1.634 -15.771  0.00  0.00    -0.001 A 
ATOM     12  C   UNL d   1       9.566   0.310 -16.183  0.00  0.00    -0.000 A 
ATOM     13  C   UNL d   1      10.629  -0.007 -17.049  0.00  0.00    -0.000 A 
ATOM     14  C   UNL d   1      11.470   1.005 -17.534  0.00  0.00    -0.004 A 
ATOM     15  C   UNL d   1      11.255   2.336 -17.140  0.00  0.00    -0.022 A 
ATOM     16  C   UNL d   1      10.182   2.612 -16.248  0.00  0.00     0.005 A 
ATOM     17  C   UNL d   1       9.919   4.058 -15.791  0.00  0.00     0.246 C 
ATOM     18  C   UNL d   1       9.289   4.146 -14.382  0.00  0.00     0.064 C 
ATOM     19  N   UNL d   1      11.044   4.990 -15.930  0.00  0.00     0.142 N 
ATOM     20  C   UNL d   1      12.124   4.806 -14.965  0.00  0.00     0.286 C 
ATOM     21  C   UNL d   1      11.527   4.909 -17.301  0.00  0.00     0.255 C 
ATOM     22  C   UNL d   1      12.117   3.516 -17.576  0.00  0.00     0.061 C 
ENDROOT
TORSDOF 0
