REMARK  9 active torsions:
REMARK  status: ('A' for Active; 'I' for Inactive)
REMARK    1  A    between atoms: C_2  and  C_5 
REMARK    2  A    between atoms: C_7  and  N_8 
REMARK    3  A    between atoms: N_11  and  C_12 
REMARK    4  A    between atoms: C_12  and  C_13 
REMARK    5  A    between atoms: C_13  and  C_14 
REMARK    6  A    between atoms: C_14  and  C_15 
REMARK    7  A    between atoms: C_15  and  N_16 
REMARK    8  A    between atoms: C_20  and  C_21 
REMARK    9  A    between atoms: C_30  and  C_31 
ROOT
ATOM      1  N   UNL d   1       7.649   1.319 -18.008  0.00  0.00    -0.330 N 
ATOM      2  C   UNL d   1       6.757   1.808 -16.946  0.00  0.00     0.138 C 
ATOM      3  C   UNL d   1       7.526   2.001 -15.629  0.00  0.00     0.274 C 
ATOM      4  N   UNL d   1       8.694   2.870 -15.818  0.00  0.00     0.141 N 
ATOM      5  C   UNL d   1       9.589   2.270 -16.805  0.00  0.00     0.274 C 
ATOM      6  C   UNL d   1       8.882   2.096 -18.163  0.00  0.00     0.138 C 
ENDROOT
BRANCH   4   7
ATOM      7  C   UNL d   1       9.387   3.094 -14.554  0.00  0.00     0.251 C 
BRANCH   7   8
ATOM      8  C   UNL d   1       9.255   4.564 -14.116  0.00  0.00     0.037 C 
BRANCH   8   9
ATOM      9  C   UNL d   1       9.590   4.704 -12.624  0.00  0.00     0.027 C 
BRANCH   9  10
ATOM     10  C   UNL d   1       9.152   6.057 -12.005  0.00  0.00     0.109 C 
BRANCH  10  11
ATOM     11  N   UNL d   1       9.294   6.105 -10.538  0.00  0.00    -0.294 N 
ATOM     12  C   UNL d   1       9.954   7.118  -9.892  0.00  0.00     0.265 A 
ATOM     13  C   UNL d   1      10.004   7.038  -8.417  0.00  0.00     0.128 A 
ATOM     14  O   UNL d   1      10.443   8.071 -10.506  0.00  0.00    -0.267 OA
ATOM     15  C   UNL d   1       9.388   6.021  -7.767  0.00  0.00     0.010 A 
ATOM     16  C   UNL d   1       8.659   5.013  -8.498  0.00  0.00     0.019 A 
ATOM     17  C   UNL d   1       8.620   5.096  -9.827  0.00  0.00     0.078 A 
BRANCH  13  18
ATOM     18  C   UNL d   1      10.760   8.110  -7.648  0.00  0.00     0.423 C 
ATOM     19  F   UNL d   1      11.914   8.433  -8.236  0.00  0.00    -0.166 F 
ATOM     20  F   UNL d   1      10.005   9.201  -7.563  0.00  0.00    -0.166 F 
ATOM     21  F   UNL d   1      11.046   7.712  -6.405  0.00  0.00    -0.166 F 
ENDBRANCH  13  18
ENDBRANCH  10  11
ENDBRANCH   9  10
ENDBRANCH   8   9
ENDBRANCH   7   8
ENDBRANCH   4   7
BRANCH   1  22
ATOM     22  C   UNL d   1       7.390   0.133 -18.733  0.00  0.00     0.143 A 
ATOM     23  N   UNL d   1       6.325  -0.617 -18.366  0.00  0.00    -0.214 NA
ATOM     24  C   UNL d   1       6.028  -1.715 -19.056  0.00  0.00     0.140 A 
ATOM     25  N   UNL d   1       6.752  -2.196 -20.071  0.00  0.00    -0.227 NA
ATOM     26  C   UNL d   1       7.821  -1.479 -20.469  0.00  0.00     0.157 A 
ATOM     27  C   UNL d   1       8.177  -0.279 -19.832  0.00  0.00     0.060 A 
BRANCH  24  28
ATOM     28  C   UNL d   1       4.908  -2.616 -18.512  0.00  0.00     0.052 C 
ATOM     29  C   UNL d   1       5.477  -3.557 -17.438  0.00  0.00     0.008 C 
ATOM     30  C   UNL d   1       4.267  -3.458 -19.640  0.00  0.00     0.008 C 
ATOM     31  C   UNL d   1       3.777  -1.765 -17.906  0.00  0.00     0.008 C 
ENDBRANCH  24  28
BRANCH  26  32
ATOM     32  C   UNL d   1       8.604  -1.992 -21.674  0.00  0.00     0.435 C 
ATOM     33  F   UNL d   1       9.853  -1.528 -21.649  0.00  0.00    -0.165 F 
ATOM     34  F   UNL d   1       8.655  -3.327 -21.689  0.00  0.00    -0.165 F 
ATOM     35  F   UNL d   1       8.017  -1.568 -22.791  0.00  0.00    -0.165 F 
ENDBRANCH  26  32
ENDBRANCH   1  22
TORSDOF 9
