REMARK  10 active torsions:
REMARK  status: ('A' for Active; 'I' for Inactive)
REMARK    1  A    between atoms: O_2  and  C_3 
REMARK    2  A    between atoms: C_7  and  C_8 
REMARK    3  A    between atoms: C_8  and  C_9 
REMARK    4  A    between atoms: C_9  and  C_10 
REMARK    5  A    between atoms: C_15  and  O_16 
REMARK    6  A    between atoms: O_16  and  C_17 
REMARK    7  A    between atoms: C_17  and  C_18 
REMARK    8  A    between atoms: C_18  and  N_19 
REMARK    9  A    between atoms: N_22  and  C_23 
REMARK   10  A    between atoms: C_28  and  O_29 
ROOT
ATOM      1  O   UNL d   1      14.302   5.534 -18.670  0.00  0.00    -0.329 OA
ENDROOT
BRANCH   1   2
ATOM      2  C   UNL d   1      13.495   6.444 -19.327  0.00  0.00     0.090 A 
ATOM      3  C   UNL d   1      14.129   7.491 -20.039  0.00  0.00     0.001 A 
ATOM      4  C   UNL d   1      13.360   8.454 -20.722  0.00  0.00    -0.002 A 
ATOM      5  C   UNL d   1      11.957   8.394 -20.688  0.00  0.00    -0.000 A 
ATOM      6  C   UNL d   1      11.312   7.376 -19.974  0.00  0.00     0.002 A 
ATOM      7  C   UNL d   1      12.073   6.386 -19.326  0.00  0.00     0.024 A 
BRANCH   3   8
ATOM      8  C   UNL d   1      15.643   7.567 -20.111  0.00  0.00     0.033 C 
BRANCH   8   9
ATOM      9  C   UNL d   1      16.287   8.151 -18.839  0.00  0.00     0.031 C 
BRANCH   9  10
ATOM     10  C   UNL d   1      17.790   8.368 -18.965  0.00  0.00    -0.020 A 
ATOM     11  C   UNL d   1      18.379   9.543 -18.446  0.00  0.00    -0.004 A 
ATOM     12  C   UNL d   1      19.764   9.761 -18.589  0.00  0.00     0.002 A 
ATOM     13  C   UNL d   1      20.568   8.814 -19.255  0.00  0.00     0.024 A 
ATOM     14  C   UNL d   1      19.991   7.632 -19.775  0.00  0.00     0.094 A 
ATOM     15  C   UNL d   1      18.612   7.413 -19.606  0.00  0.00     0.020 A 
BRANCH  14  16
ATOM     16  O   UNL d   1      20.684   6.653 -20.449  0.00  0.00    -0.328 OA
ATOM     17  C   UNL d   1      22.006   6.939 -20.875  0.00  0.00     0.181 C 
ENDBRANCH  14  16
ENDBRANCH   9  10
ENDBRANCH   8   9
ENDBRANCH   3   8
ENDBRANCH   1   2
BRANCH   1  18
ATOM     18  C   UNL d   1      13.684   4.484 -17.934  0.00  0.00     0.184 C 
BRANCH  18  19
ATOM     19  C   UNL d   1      13.030   5.014 -16.632  0.00  0.00     0.283 C 
BRANCH  19  20
ATOM     20  N   UNL d   1      12.184   4.004 -16.006  0.00  0.00     0.144 N 
ATOM     21  C   UNL d   1      11.830   4.491 -14.673  0.00  0.00     0.274 C 
ATOM     22  C   UNL d   1      10.996   3.431 -13.928  0.00  0.00     0.137 C 
ATOM     23  N   UNL d   1       9.803   3.100 -14.696  0.00  0.00    -0.343 N 
ATOM     24  C   UNL d   1      10.053   2.728 -16.085  0.00  0.00     0.137 C 
ATOM     25  C   UNL d   1      10.932   3.800 -16.756  0.00  0.00     0.274 C 
BRANCH  23  26
ATOM     26  C   UNL d   1       8.505   3.216 -14.182  0.00  0.00     0.079 A 
ATOM     27  C   UNL d   1       8.095   4.338 -13.401  0.00  0.00     0.110 A 
ATOM     28  C   UNL d   1       6.771   4.378 -12.888  0.00  0.00     0.026 A 
ATOM     29  C   UNL d   1       5.862   3.338 -13.162  0.00  0.00     0.002 A 
ATOM     30  C   UNL d   1       6.260   2.245 -13.943  0.00  0.00     0.002 A 
ATOM     31  C   UNL d   1       7.573   2.185 -14.450  0.00  0.00     0.019 A 
BRANCH  27  32
ATOM     32  O   UNL d   1       9.000   5.362 -13.218  0.00  0.00    -0.327 OA
ATOM     33  C   UNL d   1       8.650   6.444 -12.373  0.00  0.00     0.181 C 
ENDBRANCH  27  32
ENDBRANCH  23  26
ENDBRANCH  19  20
ENDBRANCH  18  19
ENDBRANCH   1  18
TORSDOF 10
