REMARK  12 active torsions:
REMARK  status: ('A' for Active; 'I' for Inactive)
REMARK    1  A    between atoms: O_2  and  C_3 
REMARK    2  A    between atoms: C_5  and  C_6 
REMARK    3  A    between atoms: C_6  and  C_7 
REMARK    4  A    between atoms: C_7  and  N_8 
REMARK    5  A    between atoms: N_8  and  C_9 
REMARK    6  A    between atoms: C_9  and  C_10 
REMARK    7  A    between atoms: C_10  and  C_11 
REMARK    8  A    between atoms: C_25  and  O_26 
REMARK    9  A    between atoms: O_26  and  C_27 
REMARK   10  A    between atoms: C_27  and  C_28 
REMARK   11  A    between atoms: C_28  and  C_29 
REMARK   12  A    between atoms: C_29  and  C_30 
ROOT
ATOM      1  C   UNL d   1       9.447   7.448 -10.992  0.00  0.00     0.116 A 
ATOM      2  C   UNL d   1       9.448   6.446 -12.005  0.00  0.00     0.022 A 
ATOM      3  C   UNL d   1       9.464   5.082 -11.665  0.00  0.00    -0.018 A 
ATOM      4  C   UNL d   1       9.462   4.734 -10.306  0.00  0.00    -0.002 A 
ATOM      5  C   UNL d   1       9.421   5.698  -9.295  0.00  0.00     0.026 A 
ATOM      6  C   UNL d   1       9.484   7.062  -9.633  0.00  0.00     0.116 A 
ENDROOT
BRANCH   3   7
ATOM      7  C   UNL d   1       9.647   4.001 -12.709  0.00  0.00     0.065 C 
BRANCH   7   8
ATOM      8  C   UNL d   1       8.883   4.300 -13.998  0.00  0.00     0.295 C 
BRANCH   8   9
ATOM      9  N   UNL d   1       8.875   3.112 -14.833  0.00  0.00     0.340 N 
BRANCH   9  10
ATOM     10  C   UNL d   1       7.664   2.347 -14.598  0.00  0.00     0.295 C 
BRANCH  10  11
ATOM     11  C   UNL d   1       7.953   0.862 -14.850  0.00  0.00     0.067 C 
BRANCH  11  12
ATOM     12  C   UNL d   1       6.741   0.148 -15.406  0.00  0.00     0.004 A 
ATOM     13  C   UNL d   1       6.574   0.065 -16.803  0.00  0.00     0.110 A 
ATOM     14  C   UNL d   1       5.479  -0.643 -17.338  0.00  0.00     0.132 A 
ATOM     15  O   UNL d   1       7.520   0.613 -17.644  0.00  0.00    -0.319 OA
ATOM     16  C   UNL d   1       4.542  -1.271 -16.491  0.00  0.00     0.150 A 
ATOM     17  N   UNL d   1       5.372  -0.782 -18.736  0.00  0.00    -0.206 NA
ATOM     18  C   UNL d   1       4.684  -1.140 -15.094  0.00  0.00     0.029 A 
ATOM     19  O   UNL d   1       3.527  -2.017 -17.036  0.00  0.00    -0.189 OA
ATOM     20  C   UNL d   1       5.780  -0.437 -14.550  0.00  0.00    -0.000 A 
ATOM     21  C   UNL d   1       6.162  -0.115 -19.588  0.00  0.00     0.287 C 
ATOM     22  C   UNL d   1       7.109   0.929 -18.979  0.00  0.00     0.238 C 
ATOM     23  O   UNL d   1       6.122  -0.287 -20.804  0.00  0.00    -0.267 OA
ENDBRANCH  11  12
ENDBRANCH  10  11
ENDBRANCH   9  10
ENDBRANCH   8   9
ENDBRANCH   7   8
ENDBRANCH   3   7
BRANCH   1  24
ATOM     24  O   UNL d   1       9.453   8.785 -11.265  0.00  0.00    -0.326 OA
ATOM     25  C   UNL d   1       9.026   9.131 -12.569  0.00  0.00     0.181 C 
ENDBRANCH   1  24
BRANCH   6  26
ATOM     26  O   UNL d   1       9.543   8.060  -8.697  0.00  0.00    -0.329 OA
BRANCH  26  27
ATOM     27  C   UNL d   1       9.020   7.832  -7.384  0.00  0.00     0.149 C 
BRANCH  27  28
ATOM     28  C   UNL d   1      10.013   8.606  -6.529  0.00  0.00     0.037 C 
BRANCH  28  29
ATOM     29  C   UNL d   1      11.237   7.746  -6.194  0.00  0.00     0.029 C 
BRANCH  29  30
ATOM     30  C   UNL d   1      11.645   7.877  -4.744  0.00  0.00    -0.022 A 
ATOM     31  C   UNL d   1      11.797   9.150  -4.163  0.00  0.00    -0.004 A 
ATOM     32  C   UNL d   1      12.146   9.260  -2.807  0.00  0.00    -0.000 A 
ATOM     33  C   UNL d   1      12.372   8.109  -2.033  0.00  0.00    -0.000 A 
ATOM     34  C   UNL d   1      12.231   6.836  -2.607  0.00  0.00    -0.000 A 
ATOM     35  C   UNL d   1      11.860   6.726  -3.957  0.00  0.00    -0.004 A 
ENDBRANCH  29  30
ENDBRANCH  28  29
ENDBRANCH  27  28
ENDBRANCH  26  27
ENDBRANCH   6  26
TORSDOF 12
