REMARK  10 active torsions:
REMARK  status: ('A' for Active; 'I' for Inactive)
REMARK    1  A    between atoms: O_2  and  C_3 
REMARK    2  A    between atoms: C_7  and  C_8 
REMARK    3  A    between atoms: C_8  and  C_9 
REMARK    4  A    between atoms: C_9  and  C_10 
REMARK    5  A    between atoms: C_15  and  O_16 
REMARK    6  A    between atoms: O_16  and  C_17 
REMARK    7  A    between atoms: C_17  and  C_18 
REMARK    8  A    between atoms: C_18  and  N_19 
REMARK    9  A    between atoms: N_22  and  C_23 
REMARK   10  A    between atoms: C_27  and  C_28 
ROOT
ATOM      1  C   UNL d   1       8.835   5.949 -12.031  0.00  0.00     0.184 C 
ENDROOT
BRANCH   1   2
ATOM      2  O   UNL d   1       9.059   5.018 -13.074  0.00  0.00    -0.329 OA
BRANCH   2   3
ATOM      3  C   UNL d   1       8.113   4.058 -13.345  0.00  0.00     0.090 A 
ATOM      4  C   UNL d   1       8.467   3.074 -14.298  0.00  0.00     0.001 A 
ATOM      5  C   UNL d   1       7.535   2.082 -14.661  0.00  0.00    -0.002 A 
ATOM      6  C   UNL d   1       6.260   2.059 -14.068  0.00  0.00    -0.000 A 
ATOM      7  C   UNL d   1       5.898   3.032 -13.122  0.00  0.00     0.002 A 
ATOM      8  C   UNL d   1       6.825   4.018 -12.748  0.00  0.00     0.024 A 
BRANCH   4   9
ATOM      9  C   UNL d   1       9.855   3.070 -14.929  0.00  0.00     0.033 C 
BRANCH   9  10
ATOM     10  C   UNL d   1       9.977   4.074 -16.085  0.00  0.00     0.031 C 
BRANCH  10  11
ATOM     11  C   UNL d   1      11.343   4.025 -16.745  0.00  0.00    -0.020 A 
ATOM     12  C   UNL d   1      11.592   3.104 -17.784  0.00  0.00    -0.004 A 
ATOM     13  C   UNL d   1      12.858   3.059 -18.395  0.00  0.00     0.002 A 
ATOM     14  C   UNL d   1      13.879   3.932 -17.974  0.00  0.00     0.024 A 
ATOM     15  C   UNL d   1      13.644   4.859 -16.926  0.00  0.00     0.094 A 
ATOM     16  C   UNL d   1      12.370   4.893 -16.322  0.00  0.00     0.020 A 
BRANCH  15  17
ATOM     17  O   UNL d   1      14.590   5.740 -16.446  0.00  0.00    -0.328 OA
ATOM     18  C   UNL d   1      15.880   5.719 -17.039  0.00  0.00     0.181 C 
ENDBRANCH  15  17
ENDBRANCH  10  11
ENDBRANCH   9  10
ENDBRANCH   4   9
ENDBRANCH   2   3
ENDBRANCH   1   2
BRANCH   1  19
ATOM     19  C   UNL d   1       9.225   5.311 -10.678  0.00  0.00     0.283 C 
BRANCH  19  20
ATOM     20  N   UNL d   1       9.070   6.242  -9.577  0.00  0.00     0.144 N 
ATOM     21  C   UNL d   1       9.341   5.572  -8.303  0.00  0.00     0.274 C 
ATOM     22  C   UNL d   1       9.092   6.545  -7.135  0.00  0.00     0.137 C 
ATOM     23  N   UNL d   1       9.942   7.735  -7.266  0.00  0.00    -0.344 N 
ATOM     24  C   UNL d   1       9.739   8.397  -8.562  0.00  0.00     0.137 C 
ATOM     25  C   UNL d   1       9.973   7.403  -9.694  0.00  0.00     0.274 C 
BRANCH  23  26
ATOM     26  C   UNL d   1      10.844   8.172  -6.290  0.00  0.00     0.056 A 
ATOM     27  C   UNL d   1      11.051   7.467  -5.059  0.00  0.00     0.021 A 
ATOM     28  C   UNL d   1      11.884   7.950  -4.039  0.00  0.00     0.073 A 
ATOM     29  C   UNL d   1      12.615   9.138  -4.248  0.00  0.00     0.004 A 
ATOM     30  C   UNL d   1      12.471   9.818  -5.469  0.00  0.00     0.001 A 
ATOM     31  C   UNL d   1      11.597   9.366  -6.461  0.00  0.00     0.017 A 
BRANCH  28  32
ATOM     32  C   UNL d   1      12.003   7.188  -2.734  0.00  0.00     0.419 C 
ATOM     33  F   UNL d   1      12.156   8.026  -1.713  0.00  0.00    -0.166 F 
ATOM     34  F   UNL d   1      10.972   6.391  -2.483  0.00  0.00    -0.166 F 
ATOM     35  F   UNL d   1      13.061   6.400  -2.834  0.00  0.00    -0.166 F 
ENDBRANCH  28  32
ENDBRANCH  23  26
ENDBRANCH  19  20
ENDBRANCH   1  19
TORSDOF 10
