REMARK  6 active torsions:
REMARK  status: ('A' for Active; 'I' for Inactive)
REMARK       I    between atoms: C_2  and  N_3 
REMARK    1  A    between atoms: C_2  and  C_22 
REMARK    2  A    between atoms: N_3  and  C_4 
REMARK    3  A    between atoms: C_4  and  C_5 
REMARK    4  A    between atoms: C_6  and  C_7 
REMARK    5  A    between atoms: C_7  and  N_8 
REMARK    6  A    between atoms: N_11  and  C_12 
ROOT
ATOM      1  N   UNL d   1       8.781   4.251 -13.053  0.00  0.00     0.145 N 
ATOM      2  C   UNL d   1       9.339   3.067 -13.729  0.00  0.00     0.275 C 
ATOM      3  C   UNL d   1       8.474   2.643 -14.915  0.00  0.00     0.137 C 
ATOM      4  N   UNL d   1       7.086   2.474 -14.496  0.00  0.00    -0.344 N 
ATOM      5  C   UNL d   1       6.514   3.607 -13.770  0.00  0.00     0.137 C 
ATOM      6  C   UNL d   1       7.401   4.009 -12.595  0.00  0.00     0.275 C 
ENDROOT
BRANCH   1   7
ATOM      7  C   UNL d   1       9.711   4.592 -11.986  0.00  0.00     0.276 C 
BRANCH   7   8
ATOM      8  C   UNL d   1       9.198   5.640 -11.020  0.00  0.00     0.006 C 
ATOM      9  C   UNL d   1       9.514   5.673  -9.714  0.00  0.00    -0.003 C 
BRANCH   9  10
ATOM     10  C   UNL d   1       8.931   6.690  -8.773  0.00  0.00     0.155 C 
BRANCH  10  11
ATOM     11  N   UNL d   1       9.759   6.900  -7.606  0.00  0.00    -0.229 NA
ATOM     12  C   UNL d   1      10.403   8.042  -7.317  0.00  0.00     0.275 C 
ATOM     13  O   UNL d   1      10.473   9.013  -8.072  0.00  0.00    -0.266 OA
BRANCH  12  14
ATOM     14  C   UNL d   1      10.949   8.116  -5.926  0.00  0.00     0.058 A 
ATOM     15  C   UNL d   1      11.087   9.373  -5.296  0.00  0.00     0.006 A 
ATOM     16  C   UNL d   1      11.598   9.449  -3.991  0.00  0.00     0.012 A 
ATOM     17  C   UNL d   1      11.999   8.286  -3.312  0.00  0.00     0.058 A 
ATOM     18  C   UNL d   1      11.863   7.029  -3.930  0.00  0.00     0.012 A 
ATOM     19 CL   UNL d   1      12.667   8.412  -1.733  0.00  0.00    -0.082 Cl
ATOM     20  C   UNL d   1      11.361   6.949  -5.237  0.00  0.00     0.006 A 
ENDBRANCH  12  14
ENDBRANCH  10  11
ENDBRANCH   9  10
ENDBRANCH   7   8
ENDBRANCH   1   7
BRANCH   4  21
ATOM     21  C   UNL d   1       6.329   1.329 -14.803  0.00  0.00     0.068 A 
ATOM     22  C   UNL d   1       6.298   0.710 -16.100  0.00  0.00     0.084 A 
ATOM     23  C   UNL d   1       5.476  -0.409 -16.332  0.00  0.00     0.070 A 
ATOM     24 CL   UNL d   1       7.141   1.404 -17.451  0.00  0.00    -0.080 Cl
ATOM     25  C   UNL d   1       4.665  -0.916 -15.310  0.00  0.00     0.012 A 
ATOM     26 CL   UNL d   1       5.396  -1.130 -17.899  0.00  0.00    -0.081 Cl
ATOM     27  C   UNL d   1       4.648  -0.302 -14.051  0.00  0.00     0.002 A 
ATOM     28  C   UNL d   1       5.494   0.786 -13.792  0.00  0.00     0.018 A 
ENDBRANCH   4  21
TORSDOF 6
