REMARK  4 active torsions:
REMARK  status: ('A' for Active; 'I' for Inactive)
REMARK    1  A    between atoms: C_4  and  C_5 
REMARK    2  A    between atoms: C_7  and  C_8 
REMARK    3  A    between atoms: C_8  and  N_9 
REMARK    4  A    between atoms: N_12  and  C_13 
ROOT
ATOM      1  N   UNL d   1       9.884   7.439  -9.130  0.00  0.00     0.147 N 
ATOM      2  C   UNL d   1      10.777   8.544  -8.762  0.00  0.00     0.275 C 
ATOM      3  C   UNL d   1      10.358   9.143  -7.409  0.00  0.00     0.138 C 
ATOM      4  N   UNL d   1      10.342   8.097  -6.400  0.00  0.00    -0.328 N 
ATOM      5  C   UNL d   1       9.544   6.928  -6.745  0.00  0.00     0.138 C 
ATOM      6  C   UNL d   1       9.978   6.384  -8.113  0.00  0.00     0.275 C 
ENDROOT
BRANCH   1   7
ATOM      7  C   UNL d   1      10.254   6.914 -10.440  0.00  0.00     0.297 C 
BRANCH   7   8
ATOM      8  C   UNL d   1       9.369   5.935 -11.154  0.00  0.00     0.113 A 
ATOM      9  N   UNL d   1       9.774   5.247 -12.303  0.00  0.00    -0.228 NA
ATOM     10  C   UNL d   1       8.735   4.491 -12.664  0.00  0.00     0.162 A 
ATOM     11  N   UNL d   1       7.705   4.677 -11.822  0.00  0.00    -0.224 NA
ATOM     12  C   UNL d   1       8.080   5.587 -10.854  0.00  0.00     0.117 A 
BRANCH  10  13
ATOM     13  C   UNL d   1       8.732   3.590 -13.813  0.00  0.00     0.036 A 
ATOM     14  C   UNL d   1       9.894   3.438 -14.604  0.00  0.00     0.003 A 
ATOM     15  C   UNL d   1       9.893   2.571 -15.714  0.00  0.00     0.000 A 
ATOM     16  C   UNL d   1       8.732   1.845 -16.039  0.00  0.00     0.000 A 
ATOM     17  C   UNL d   1       7.572   1.985 -15.254  0.00  0.00     0.000 A 
ATOM     18  C   UNL d   1       7.572   2.853 -14.146  0.00  0.00     0.003 A 
ENDBRANCH  10  13
ENDBRANCH   7   8
ENDBRANCH   1   7
BRANCH   4  19
ATOM     19  C   UNL d   1      11.061   8.207  -5.194  0.00  0.00     0.160 A 
ATOM     20  N   UNL d   1      11.227   9.450  -4.674  0.00  0.00    -0.224 NA
ATOM     21  C   UNL d   1      11.859   9.539  -3.482  0.00  0.00     0.121 A 
ATOM     22  C   UNL d   1      12.385   8.407  -2.829  0.00  0.00     0.120 A 
ATOM     23  N   UNL d   1      12.246   7.168  -3.341  0.00  0.00    -0.238 NA
ATOM     24  C   UNL d   1      11.578   7.071  -4.515  0.00  0.00     0.136 A 
ENDBRANCH   4  19
TORSDOF 4
