REMARK  8 active torsions:
REMARK  status: ('A' for Active; 'I' for Inactive)
REMARK    1  A    between atoms: C_2  and  C_3 
REMARK       I    between atoms: C_2  and  N_11 
REMARK    2  A    between atoms: C_3  and  C_4 
REMARK    3  A    between atoms: C_4  and  C_5 
REMARK    4  A    between atoms: N_11  and  C_12 
REMARK    5  A    between atoms: C_18  and  C_19 
REMARK    6  A    between atoms: C_19  and  C_20 
REMARK    7  A    between atoms: C_20  and  N_21 
REMARK    8  A    between atoms: N_24  and  C_25 
ROOT
ATOM      1  C   UNL d   1       9.625   1.171 -18.442  0.00  0.00     0.129 C 
ATOM      2  C   UNL d   1      10.843   0.302 -18.815  0.00  0.00     0.034 C 
ATOM      3  C   UNL d   1      12.090   0.975 -18.210  0.00  0.00     0.028 C 
ATOM      4  C   UNL d   1      11.536   2.003 -17.271  0.00  0.00    -0.024 A 
ATOM      5  C   UNL d   1      12.263   2.803 -16.375  0.00  0.00    -0.005 A 
ATOM      6  C   UNL d   1      11.547   3.685 -15.542  0.00  0.00    -0.005 A 
ATOM      7  C   UNL d   1      10.139   3.778 -15.665  0.00  0.00    -0.020 A 
ATOM      8  C   UNL d   1       9.424   2.979 -16.579  0.00  0.00    -0.007 A 
ATOM      9  C   UNL d   1      10.155   2.092 -17.376  0.00  0.00    -0.004 A 
ENDROOT
BRANCH   7  10
ATOM     10  C   UNL d   1       9.390   4.779 -14.827  0.00  0.00     0.062 C 
BRANCH  10  11
ATOM     11  C   UNL d   1       8.805   4.143 -13.557  0.00  0.00     0.255 C 
BRANCH  11  12
ATOM     12  N   UNL d   1       7.815   5.025 -12.926  0.00  0.00     0.141 N 
ATOM     13  C   UNL d   1       8.243   6.396 -12.637  0.00  0.00     0.274 C 
ATOM     14  C   UNL d   1       9.419   6.406 -11.655  0.00  0.00     0.138 C 
ATOM     15  N   UNL d   1       9.048   5.719 -10.421  0.00  0.00    -0.329 N 
ATOM     16  C   UNL d   1       8.432   4.412 -10.615  0.00  0.00     0.138 C 
ATOM     17  C   UNL d   1       7.299   4.484 -11.671  0.00  0.00     0.274 C 
BRANCH  15  18
ATOM     18  C   UNL d   1       9.243   6.237  -9.143  0.00  0.00     0.148 C 
ATOM     19  C   UNL d   1      10.345   7.128  -8.805  0.00  0.00     0.042 A 
ATOM     20  C   UNL d   1      10.206   7.544  -7.450  0.00  0.00     0.050 A 
ATOM     21  C   UNL d   1      11.463   7.594  -9.496  0.00  0.00     0.004 A 
ATOM     22  S   UNL d   1       8.769   6.785  -6.830  0.00  0.00     0.015 SA
ATOM     23  C   UNL d   1      11.141   8.379  -6.824  0.00  0.00     0.008 A 
ATOM     24  N   UNL d   1       8.496   5.831  -8.164  0.00  0.00    -0.192 NA
ATOM     25  C   UNL d   1      12.273   8.800  -7.543  0.00  0.00     0.001 A 
ATOM     26  C   UNL d   1      12.433   8.395  -8.885  0.00  0.00     0.000 A 
ENDBRANCH  15  18
ENDBRANCH  11  12
ENDBRANCH  10  11
ENDBRANCH   7  10
BRANCH   1  27
ATOM     27  N   UNL d   1       8.527   0.346 -17.955  0.00  0.00    -0.235 NA
ATOM     28  C   UNL d   1       7.292   0.302 -18.476  0.00  0.00     0.252 C 
ATOM     29  O   UNL d   1       6.877   1.134 -19.280  0.00  0.00    -0.271 OA
BRANCH  28  30
ATOM     30  C   UNL d   1       6.450  -0.915 -18.093  0.00  0.00     0.094 C 
BRANCH  30  31
ATOM     31  C   UNL d   1       5.070  -0.565 -17.514  0.00  0.00     0.036 C 
BRANCH  31  32
ATOM     32  C   UNL d   1       5.080  -0.252 -16.020  0.00  0.00    -0.022 A 
ATOM     33  C   UNL d   1       4.023  -0.711 -15.210  0.00  0.00    -0.004 A 
ATOM     34  C   UNL d   1       3.986  -0.376 -13.837  0.00  0.00    -0.000 A 
ATOM     35  C   UNL d   1       5.042   0.370 -13.252  0.00  0.00    -0.000 A 
ATOM     36  C   UNL d   1       6.102   0.812 -14.058  0.00  0.00    -0.000 A 
ATOM     37  C   UNL d   1       6.124   0.530 -15.432  0.00  0.00    -0.004 A 
ENDBRANCH  31  32
ENDBRANCH  30  31
ENDBRANCH  28  30
ENDBRANCH   1  27
TORSDOF 8
