REMARK  4 active torsions:
REMARK  status: ('A' for Active; 'I' for Inactive)
REMARK    1  A    between atoms: N_5  and  C_6 
REMARK    2  A    between atoms: C_18  and  O_19 
REMARK    3  A    between atoms: O_19  and  S_20 
REMARK    4  A    between atoms: S_20  and  C_23 
ROOT
ATOM      1  C   UNL d   1       9.547   3.904 -15.210  0.00  0.00     0.141 C 
ATOM      2  N   UNL d   1      10.225   4.864 -15.752  0.00  0.00    -0.228 NA
ATOM      3  C   UNL d   1      11.043   4.800 -16.870  0.00  0.00     0.089 A 
ATOM      4  C   UNL d   1      11.031   5.895 -17.742  0.00  0.00     0.020 A 
ATOM      5  C   UNL d   1      11.857   5.946 -18.892  0.00  0.00     0.002 A 
ATOM      6  C   UNL d   1      12.641   4.815 -19.222  0.00  0.00     0.001 A 
ATOM      7  C   UNL d   1      12.661   3.712 -18.351  0.00  0.00     0.008 A 
ATOM      8  C   UNL d   1      11.915   3.769 -17.171  0.00  0.00     0.047 A 
ATOM      9  S   UNL d   1      12.158   2.567 -16.029  0.00  0.00    -0.085 SA
ATOM     10  C   UNL d   1      10.651   1.800 -16.094  0.00  0.00     0.033 A 
ATOM     11  C   UNL d   1      10.631   0.477 -16.557  0.00  0.00     0.009 A 
ATOM     12  C   UNL d   1       9.443  -0.253 -16.432  0.00  0.00     0.026 A 
ATOM     13  C   UNL d   1       8.305   0.358 -15.860  0.00  0.00     0.114 A 
ATOM     14  C   UNL d   1       8.331   1.722 -15.513  0.00  0.00     0.029 A 
ATOM     15  C   UNL d   1       9.529   2.470 -15.632  0.00  0.00     0.042 A 
ENDROOT
BRANCH  13  16
ATOM     16  O   UNL d   1       7.147  -0.363 -15.655  0.00  0.00    -0.224 OA
BRANCH  16  17
ATOM     17  S   UNL d   1       6.187  -0.551 -17.024  0.00  0.00     0.374 S 
ATOM     18  O   UNL d   1       5.605   0.763 -17.312  0.00  0.00    -0.189 OA
ATOM     19  O   UNL d   1       7.003  -1.250 -18.042  0.00  0.00    -0.189 OA
BRANCH  17  20
ATOM     20  C   UNL d   1       4.930  -1.699 -16.327  0.00  0.00     0.524 C 
ATOM     21  F   UNL d   1       4.724  -2.685 -17.194  0.00  0.00    -0.155 F 
ATOM     22  F   UNL d   1       5.384  -2.207 -15.181  0.00  0.00    -0.155 F 
ATOM     23  F   UNL d   1       3.805  -1.024 -16.108  0.00  0.00    -0.155 F 
ENDBRANCH  17  20
ENDBRANCH  16  17
ENDBRANCH  13  16
BRANCH   1  24
ATOM     24  N   UNL d   1       8.736   4.161 -14.121  0.00  0.00    -0.330 N 
ATOM     25  C   UNL d   1       8.822   3.420 -12.879  0.00  0.00     0.138 C 
ATOM     26  C   UNL d   1       9.639   4.191 -11.841  0.00  0.00     0.274 C 
ATOM     27  N   UNL d   1       8.981   5.469 -11.574  0.00  0.00     0.143 N 
ATOM     28  C   UNL d   1       9.711   6.207 -10.557  0.00  0.00     0.286 C 
ATOM     29  C   UNL d   1       8.945   6.258 -12.805  0.00  0.00     0.274 C 
ATOM     30  C   UNL d   1       8.159   5.472 -13.869  0.00  0.00     0.138 C 
ENDBRANCH   1  24
TORSDOF 4
