REMARK  6 active torsions:
REMARK  status: ('A' for Active; 'I' for Inactive)
REMARK    1  A    between atoms: O_2  and  C_3 
REMARK    2  A    between atoms: C_9  and  C_10 
REMARK    3  A    between atoms: C_10  and  C_11 
REMARK    4  A    between atoms: C_11  and  C_12 
REMARK    5  A    between atoms: C_12  and  N_13 
REMARK    6  A    between atoms: N_16  and  C_17 
ROOT
ATOM      1  C   UNL d   1       8.614   5.110 -12.517  0.00  0.00     0.036 C 
ENDROOT
BRANCH   1   2
ATOM      2  C   UNL d   1       9.055   4.470 -13.829  0.00  0.00     0.006 C 
BRANCH   2   3
ATOM      3  C   UNL d   1       8.596   3.001 -14.035  0.00  0.00     0.022 C 
ATOM      4  C   UNL d   1       9.133   2.399 -15.339  0.00  0.00    -0.025 A 
ATOM      5  C   UNL d   1       8.369   1.519 -16.144  0.00  0.00    -0.026 A 
ATOM      6  C   UNL d   1      10.447   2.722 -15.738  0.00  0.00     0.020 A 
ATOM      7  C   UNL d   1       8.926   1.003 -17.336  0.00  0.00    -0.003 A 
ATOM      8  C   UNL d   1       6.950   1.119 -15.751  0.00  0.00     0.026 C 
ATOM      9  C   UNL d   1      10.233   1.365 -17.738  0.00  0.00     0.024 A 
ATOM     10  C   UNL d   1      11.006   2.235 -16.945  0.00  0.00     0.094 A 
ATOM     11  C   UNL d   1       6.608   1.434 -14.286  0.00  0.00     0.005 C 
ATOM     12  C   UNL d   1       7.065   2.842 -13.896  0.00  0.00     0.005 C 
BRANCH  10  13
ATOM     13  O   UNL d   1      12.266   2.586 -17.376  0.00  0.00    -0.328 OA
ATOM     14  C   UNL d   1      12.955   3.608 -16.653  0.00  0.00     0.181 C 
ENDBRANCH  10  13
ENDBRANCH   2   3
ENDBRANCH   1   2
BRANCH   1  15
ATOM     15  C   UNL d   1       9.657   6.138 -12.037  0.00  0.00     0.250 C 
BRANCH  15  16
ATOM     16  N   UNL d   1       9.290   6.747 -10.768  0.00  0.00     0.141 N 
ATOM     17  C   UNL d   1       9.394   5.795  -9.657  0.00  0.00     0.274 C 
ATOM     18  C   UNL d   1       8.930   6.442  -8.346  0.00  0.00     0.137 C 
ATOM     19  N   UNL d   1       9.704   7.654  -8.082  0.00  0.00    -0.344 N 
ATOM     20  C   UNL d   1       9.714   8.616  -9.182  0.00  0.00     0.137 C 
ATOM     21  C   UNL d   1      10.141   7.909 -10.489  0.00  0.00     0.274 C 
BRANCH  19  22
ATOM     22  C   UNL d   1      10.383   7.879  -6.867  0.00  0.00     0.056 A 
ATOM     23  C   UNL d   1      10.806   6.791  -6.072  0.00  0.00     0.018 A 
ATOM     24  C   UNL d   1      11.464   7.000  -4.844  0.00  0.00     0.013 A 
ATOM     25  C   UNL d   1      11.758   8.304  -4.415  0.00  0.00     0.058 A 
ATOM     26  C   UNL d   1      11.363   9.399  -5.205  0.00  0.00     0.013 A 
ATOM     27 CL   UNL d   1      12.592   8.553  -2.925  0.00  0.00    -0.082 Cl
ATOM     28  C   UNL d   1      10.671   9.185  -6.418  0.00  0.00     0.018 A 
ENDBRANCH  19  22
ENDBRANCH  15  16
ENDBRANCH   1  15
TORSDOF 6
