REMARK  1 active torsions:
REMARK  status: ('A' for Active; 'I' for Inactive)
REMARK    1  A    between atoms: O_2  and  C_3 
ROOT
ATOM      1  C   UNL d   1       6.969   0.939 -14.878  0.00  0.00     0.130 A 
ATOM      2  C   UNL d   1       6.955  -0.211 -13.841  0.00  0.00     0.039 C 
ATOM      3  C   UNL d   1       6.875   2.287 -14.155  0.00  0.00     0.006 A 
ATOM      4  C   UNL d   1       5.949   2.886 -13.272  0.00  0.00    -0.002 A 
ATOM      5  C   UNL d   1       6.274   4.129 -12.653  0.00  0.00    -0.001 A 
ATOM      6  C   UNL d   1       7.522   4.765 -12.895  0.00  0.00    -0.004 A 
ATOM      7  C   UNL d   1       8.457   4.176 -13.776  0.00  0.00    -0.020 A 
ATOM      8  C   UNL d   1       8.068   2.975 -14.377  0.00  0.00    -0.006 A 
ATOM      9  C   UNL d   1       8.895   2.238 -15.289  0.00  0.00    -0.004 A 
ATOM     10  C   UNL d   1       8.322   1.002 -15.605  0.00  0.00     0.006 A 
ATOM     11  C   UNL d   1       9.057   0.142 -16.440  0.00  0.00    -0.002 A 
ATOM     12  C   UNL d   1      10.325   0.538 -16.968  0.00  0.00    -0.005 A 
ATOM     13  C   UNL d   1      10.867   1.811 -16.667  0.00  0.00    -0.022 A 
ATOM     14  C   UNL d   1      10.115   2.640 -15.820  0.00  0.00     0.005 A 
ATOM     15  C   UNL d   1      10.428   4.112 -15.500  0.00  0.00     0.246 C 
ATOM     16  C   UNL d   1       9.892   4.588 -14.107  0.00  0.00     0.064 C 
ATOM     17  N   UNL d   1      11.858   4.401 -15.696  0.00  0.00     0.142 N 
ATOM     18  C   UNL d   1      12.140   5.829 -15.651  0.00  0.00     0.286 C 
ATOM     19  C   UNL d   1      12.262   3.932 -17.021  0.00  0.00     0.255 C 
ATOM     20  C   UNL d   1      12.198   2.395 -17.090  0.00  0.00     0.061 C 
ENDROOT
BRANCH   1  21
ATOM     21  O   UNL d   1       5.861   0.761 -15.778  0.00  0.00    -0.348 OA
ATOM     22  C   UNL d   1       5.750  -0.424 -16.552  0.00  0.00     0.175 C 
ENDBRANCH   1  21
TORSDOF 1
