REMARK  5 active torsions:
REMARK  status: ('A' for Active; 'I' for Inactive)
REMARK    1  A    between atoms: C_7  and  C_8 
REMARK    2  A    between atoms: C_8  and  C_10 
REMARK    3  A    between atoms: C_10  and  C_11 
REMARK    4  A    between atoms: C_11  and  C_12 
REMARK    5  A    between atoms: C_12  and  N_13 
ROOT
ATOM      1  N   UNL d   1       8.977   6.184 -13.052  0.00  0.00     0.137 N 
ATOM      2  C   UNL d   1       7.545   5.954 -12.877  0.00  0.00     0.252 C 
ATOM      3  C   UNL d   1       7.161   4.681 -13.578  0.00  0.00     0.058 C 
ATOM      4  C   UNL d   1       7.925   3.501 -13.026  0.00  0.00     0.089 C 
ATOM      5  C   UNL d   1       9.422   3.756 -12.802  0.00  0.00     0.077 C 
ATOM      6  C   UNL d   1       9.730   5.169 -12.326  0.00  0.00     0.256 C 
ATOM      7  C   UNL d   1      10.033   3.325 -14.110  0.00  0.00    -0.003 A 
ATOM      8  C   UNL d   1      11.256   3.585 -14.746  0.00  0.00    -0.003 A 
ATOM      9  C   UNL d   1      11.488   2.952 -15.991  0.00  0.00     0.000 A 
ATOM     10  C   UNL d   1      10.541   2.054 -16.561  0.00  0.00     0.008 A 
ATOM     11  C   UNL d   1       9.304   1.781 -15.935  0.00  0.00     0.040 A 
ATOM     12  C   UNL d   1       9.111   2.485 -14.742  0.00  0.00     0.058 A 
ATOM     13  N   UNL d   1       7.911   2.426 -14.014  0.00  0.00    -0.348 N 
ATOM     14  C   UNL d   1       6.706   1.834 -14.565  0.00  0.00     0.113 C 
ATOM     15  C   UNL d   1       6.960   0.472 -15.218  0.00  0.00     0.086 C 
ATOM     16  S   UNL d   1       8.108   0.671 -16.603  0.00  0.00    -0.110 SA
ENDROOT
BRANCH   1  17
ATOM     17  C   UNL d   1       9.324   7.555 -12.607  0.00  0.00     0.251 C 
BRANCH  17  18
ATOM     18  C   UNL d   1       8.661   7.842 -11.332  0.00  0.00     0.043 C 
BRANCH  18  19
ATOM     19  C   UNL d   1       9.166   9.072 -10.676  0.00  0.00     0.071 C 
BRANCH  19  20
ATOM     20  C   UNL d   1      10.423   8.799  -9.836  0.00  0.00     0.174 C 
ATOM     21  O   UNL d   1      11.522   9.152 -10.285  0.00  0.00    -0.291 OA
BRANCH  20  22
ATOM     22  C   UNL d   1      10.264   8.172  -8.493  0.00  0.00     0.048 A 
ATOM     23  C   UNL d   1      11.188   8.316  -7.424  0.00  0.00     0.073 A 
ATOM     24  N   UNL d   1      12.326   9.160  -7.504  0.00  0.00    -0.100 NA
ATOM     25  C   UNL d   1      10.990   7.662  -6.189  0.00  0.00     0.014 A 
ATOM     26  C   UNL d   1       9.885   6.811  -6.018  0.00  0.00     0.001 A 
ATOM     27  C   UNL d   1       8.980   6.647  -7.065  0.00  0.00     0.000 A 
ATOM     28  C   UNL d   1       9.140   7.332  -8.249  0.00  0.00     0.004 A 
ENDBRANCH  20  22
ENDBRANCH  19  20
ENDBRANCH  18  19
ENDBRANCH  17  18
ENDBRANCH   1  17
TORSDOF 5
