REMARK  4 active torsions:
REMARK  status: ('A' for Active; 'I' for Inactive)
REMARK    1  A    between atoms: C_4  and  C_5 
REMARK    2  A    between atoms: C_7  and  C_8 
REMARK    3  A    between atoms: C_8  and  N_9 
REMARK    4  A    between atoms: N_12  and  C_13 
ROOT
ATOM      1  N   UNL d   1       9.674   7.291  -9.024  0.00  0.00     0.141 N 
ATOM      2  C   UNL d   1      10.839   6.609  -8.485  0.00  0.00     0.274 C 
ATOM      3  C   UNL d   1      10.644   6.273  -7.001  0.00  0.00     0.137 C 
ATOM      4  N   UNL d   1      10.340   7.480  -6.255  0.00  0.00    -0.343 N 
ATOM      5  C   UNL d   1       9.210   8.234  -6.794  0.00  0.00     0.137 C 
ATOM      6  C   UNL d   1       9.473   8.535  -8.283  0.00  0.00     0.274 C 
ENDROOT
BRANCH   1   7
ATOM      7  C   UNL d   1       9.856   7.550 -10.458  0.00  0.00     0.251 C 
BRANCH   7   8
ATOM      8  C   UNL d   1       8.689   6.986 -11.244  0.00  0.00     0.038 A 
ATOM      9  C   UNL d   1       8.887   6.506 -12.666  0.00  0.00     0.024 A 
ATOM     10  C   UNL d   1       8.115   7.778 -12.424  0.00  0.00     0.007 A 
BRANCH   9  11
ATOM     11  C   UNL d   1       8.231   5.243 -13.146  0.00  0.00    -0.022 A 
ATOM     12  C   UNL d   1       8.925   4.349 -13.988  0.00  0.00    -0.004 A 
ATOM     13  C   UNL d   1       8.298   3.165 -14.438  0.00  0.00    -0.000 A 
ATOM     14  C   UNL d   1       6.970   2.885 -14.047  0.00  0.00    -0.000 A 
ATOM     15  C   UNL d   1       6.275   3.777 -13.212  0.00  0.00    -0.000 A 
ATOM     16  C   UNL d   1       6.909   4.944 -12.758  0.00  0.00    -0.004 A 
ENDBRANCH   9  11
ENDBRANCH   7   8
ENDBRANCH   1   7
BRANCH   4  17
ATOM     17  C   UNL d   1      11.084   7.874  -5.122  0.00  0.00     0.076 A 
ATOM     18  C   UNL d   1      11.213   9.236  -4.773  0.00  0.00     0.116 A 
ATOM     19  N   UNL d   1      11.852   9.664  -3.659  0.00  0.00    -0.241 NA
ATOM     20  C   UNL d   1      12.437   8.756  -2.870  0.00  0.00     0.099 A 
ATOM     21  C   UNL d   1      12.398   7.379  -3.121  0.00  0.00     0.022 A 
ATOM     22  C   UNL d   1      11.704   6.929  -4.269  0.00  0.00     0.020 A 
ENDBRANCH   4  17
TORSDOF 4
