REMARK  9 active torsions:
REMARK  status: ('A' for Active; 'I' for Inactive)
REMARK    1  A    between atoms: C_2  and  C_3 
REMARK    2  A    between atoms: C_6  and  C_7 
REMARK       I    between atoms: C_7  and  N_9 
REMARK    3  A    between atoms: N_9  and  C_10 
REMARK    4  A    between atoms: C_10  and  C_11 
REMARK    5  A    between atoms: C_11  and  C_12 
REMARK    6  A    between atoms: C_12  and  C_13 
REMARK    7  A    between atoms: C_13  and  N_14 
REMARK    8  A    between atoms: N_17  and  C_18 
REMARK    9  A    between atoms: C_22  and  C_23 
ROOT
ATOM      1  N   UNL d   1       8.611   4.421 -13.002  0.00  0.00     0.141 N 
ATOM      2  C   UNL d   1       9.215   3.221 -13.599  0.00  0.00     0.274 C 
ATOM      3  C   UNL d   1       8.403   2.776 -14.810  0.00  0.00     0.137 C 
ATOM      4  N   UNL d   1       7.011   2.571 -14.440  0.00  0.00    -0.344 N 
ATOM      5  C   UNL d   1       6.372   3.679 -13.731  0.00  0.00     0.137 C 
ATOM      6  C   UNL d   1       7.236   4.146 -12.552  0.00  0.00     0.274 C 
ENDROOT
BRANCH   1   7
ATOM      7  C   UNL d   1       9.438   4.821 -11.884  0.00  0.00     0.251 C 
BRANCH   7   8
ATOM      8  C   UNL d   1       9.227   6.303 -11.538  0.00  0.00     0.037 C 
BRANCH   8   9
ATOM      9  C   UNL d   1      10.065   6.695 -10.328  0.00  0.00     0.029 C 
BRANCH   9  10
ATOM     10  C   UNL d   1      10.045   8.210 -10.047  0.00  0.00     0.129 C 
BRANCH  10  11
ATOM     11  N   UNL d   1      10.609   8.561  -8.758  0.00  0.00    -0.232 NA
ATOM     12  C   UNL d   1      10.205   8.112  -7.554  0.00  0.00     0.311 C 
ATOM     13  O   UNL d   1       9.247   7.367  -7.367  0.00  0.00    -0.262 OA
BRANCH  12  14
ATOM     14  C   UNL d   1      11.042   8.553  -6.404  0.00  0.00     0.221 A 
ATOM     15  N   UNL d   1      12.057   9.414  -6.533  0.00  0.00    -0.220 NA
ATOM     16  C   UNL d   1      12.630   9.584  -5.294  0.00  0.00     0.116 A 
ATOM     17  C   UNL d   1      11.902   8.820  -4.429  0.00  0.00     0.080 A 
ATOM     18  N   UNL d   1      10.917   8.150  -5.145  0.00  0.00    -0.226 NA
BRANCH  17  19
ATOM     19  C   UNL d   1      12.050   8.659  -2.949  0.00  0.00     0.048 C 
ATOM     20  C   UNL d   1      12.506   7.249  -2.568  0.00  0.00     0.007 C 
ENDBRANCH  17  19
ENDBRANCH  12  14
ENDBRANCH  10  11
ENDBRANCH   9  10
ENDBRANCH   8   9
ENDBRANCH   7   8
ENDBRANCH   1   7
BRANCH   4  21
ATOM     21  C   UNL d   1       6.324   1.383 -14.766  0.00  0.00     0.067 A 
ATOM     22  C   UNL d   1       6.383   0.773 -16.057  0.00  0.00     0.069 A 
ATOM     23  C   UNL d   1       5.662  -0.416 -16.314  0.00  0.00    -0.010 A 
ATOM     24 CL   UNL d   1       7.241   1.530 -17.365  0.00  0.00    -0.081 Cl
ATOM     25  C   UNL d   1       4.849  -0.974 -15.315  0.00  0.00    -0.003 A 
ATOM     26  C   UNL d   1       4.740  -0.354 -14.065  0.00  0.00     0.001 A 
ATOM     27  C   UNL d   1       5.492   0.797 -13.781  0.00  0.00     0.018 A 
BRANCH  23  28
ATOM     28  C   UNL d   1       5.764  -1.111 -17.658  0.00  0.00     0.027 C 
ATOM     29  C   UNL d   1       4.849  -0.490 -18.729  0.00  0.00     0.005 C 
ENDBRANCH  23  28
ENDBRANCH   4  21
TORSDOF 9
