REMARK  6 active torsions:
REMARK  status: ('A' for Active; 'I' for Inactive)
REMARK    1  A    between atoms: C_2  and  C_3 
REMARK    2  A    between atoms: N_13  and  C_14 
REMARK    3  A    between atoms: C_14  and  C_15 
REMARK    4  A    between atoms: C_15  and  C_17 
REMARK    5  A    between atoms: C_17  and  N_18 
REMARK       I    between atoms: N_21  and  C_22 
REMARK    6  A    between atoms: C_22  and  C_24 
ROOT
ATOM      1  C   UNL d   1       8.810   5.745 -11.205  0.00  0.00     0.208 C 
ATOM      2  O   UNL d   1       7.468   6.001 -11.548  0.00  0.00    -0.219 OA
ENDROOT
BRANCH   1   3
ATOM      3  C   UNL d   1       9.302   4.387 -11.763  0.00  0.00     0.148 C 
BRANCH   3   4
ATOM      4  N   UNL d   1       9.527   4.398 -13.207  0.00  0.00    -0.247 N 
ATOM      5  C   UNL d   1       8.528   4.506 -14.091  0.00  0.00     0.348 C 
ATOM      6  N   UNL d   1       9.074   4.595 -15.304  0.00  0.00    -0.209 NA
ATOM      7  O   UNL d   1       7.324   4.540 -13.867  0.00  0.00    -0.245 OA
ATOM      8  C   UNL d   1      10.489   4.291 -15.329  0.00  0.00     0.179 C 
ATOM      9  C   UNL d   1      11.302   5.453 -15.937  0.00  0.00     0.039 C 
ATOM     10  C   UNL d   1      10.706   4.257 -13.836  0.00  0.00     0.265 C 
ATOM     11  O   UNL d   1      11.827   4.114 -13.366  0.00  0.00    -0.269 OA
BRANCH   8  12
ATOM     12  C   UNL d   1      10.793   2.920 -15.958  0.00  0.00     0.006 A 
ATOM     13  C   UNL d   1       9.977   1.794 -15.673  0.00  0.00     0.000 A 
ATOM     14  C   UNL d   1      10.251   0.542 -16.258  0.00  0.00     0.029 A 
ATOM     15  C   UNL d   1      11.325   0.406 -17.154  0.00  0.00     0.140 A 
ATOM     16  C   UNL d   1      12.163   1.501 -17.419  0.00  0.00     0.029 A 
ATOM     17  F   UNL d   1      11.559  -0.778 -17.762  0.00  0.00    -0.204 F 
ATOM     18  C   UNL d   1      11.899   2.748 -16.827  0.00  0.00     0.000 A 
ENDBRANCH   8  12
ENDBRANCH   3   4
ENDBRANCH   1   3
BRANCH   1  19
ATOM     19  C   UNL d   1       8.792   5.769  -9.658  0.00  0.00     0.285 C 
BRANCH  19  20
ATOM     20  N   UNL d   1       9.995   6.265  -9.023  0.00  0.00     0.144 N 
ATOM     21  C   UNL d   1      10.250   7.679  -9.320  0.00  0.00     0.274 C 
ATOM     22  C   UNL d   1      11.517   8.191  -8.621  0.00  0.00     0.140 C 
ATOM     23  N   UNL d   1      11.434   7.956  -7.170  0.00  0.00    -0.312 N 
ATOM     24  C   UNL d   1      11.077   6.560  -6.864  0.00  0.00     0.140 C 
ATOM     25  C   UNL d   1      11.646   8.926  -6.246  0.00  0.00     0.257 C 
ATOM     26  C   UNL d   1       9.842   6.128  -7.602  0.00  0.00     0.274 C 
ATOM     27  O   UNL d   1      11.752  10.117  -6.565  0.00  0.00    -0.267 OA
BRANCH  25  28
ATOM     28  C   UNL d   1      11.820   8.563  -4.787  0.00  0.00     0.056 A 
ATOM     29  C   UNL d   1      12.270   7.291  -4.361  0.00  0.00     0.005 A 
ATOM     30  C   UNL d   1      12.430   6.946  -3.022  0.00  0.00     0.000 A 
ATOM     31  C   UNL d   1      12.294   7.934  -2.055  0.00  0.00     0.000 A 
ATOM     32  C   UNL d   1      11.909   9.230  -2.444  0.00  0.00     0.000 A 
ATOM     33  C   UNL d   1      11.695   9.547  -3.789  0.00  0.00     0.005 A 
ENDBRANCH  25  28
ENDBRANCH  19  20
ENDBRANCH   1  19
TORSDOF 6
