REMARK  3 active torsions:
REMARK  status: ('A' for Active; 'I' for Inactive)
REMARK    1  A    between atoms: C_5  and  N_6 
REMARK    2  A    between atoms: N_9  and  C_10 
REMARK    3  A    between atoms: C_10  and  C_11 
ROOT
ATOM      1  N   UNL d   1      10.468   3.657 -15.347  0.00  0.00     0.148 N 
ATOM      2  C   UNL d   1      11.116   3.588 -14.029  0.00  0.00     0.286 C 
ATOM      3  C   UNL d   1      10.104   3.765 -12.893  0.00  0.00     0.286 C 
ATOM      4  N   UNL d   1       9.396   5.035 -12.976  0.00  0.00     0.146 N 
ATOM      5  C   UNL d   1       8.736   5.094 -14.269  0.00  0.00     0.286 C 
ATOM      6  C   UNL d   1       9.741   4.936 -15.423  0.00  0.00     0.286 C 
ENDROOT
BRANCH   1   7
ATOM      7  C   UNL d   1      11.406   3.446 -16.481  0.00  0.00     0.297 C 
ATOM      8  C   UNL d   1      10.807   3.755 -17.873  0.00  0.00     0.269 C 
ATOM      9  N   UNL d   1       9.693   3.101 -18.293  0.00  0.00    -0.296 N 
ATOM     10  O   UNL d   1      11.354   4.624 -18.557  0.00  0.00    -0.270 OA
ATOM     11  C   UNL d   1       9.043   3.568 -19.534  0.00  0.00     0.133 C 
ATOM     12  C   UNL d   1       9.078   2.034 -17.559  0.00  0.00     0.058 A 
ATOM     13  C   UNL d   1       9.838   0.990 -16.958  0.00  0.00    -0.006 A 
ATOM     14  C   UNL d   1       7.667   2.008 -17.410  0.00  0.00     0.017 A 
ATOM     15  C   UNL d   1      11.348   0.910 -17.154  0.00  0.00     0.030 C 
ATOM     16  C   UNL d   1       9.180  -0.008 -16.212  0.00  0.00    -0.003 A 
ATOM     17  C   UNL d   1      12.118   2.073 -16.504  0.00  0.00     0.048 C 
ATOM     18  C   UNL d   1       7.768  -0.008 -16.083  0.00  0.00    -0.000 A 
ATOM     19  C   UNL d   1       7.016   0.986 -16.716  0.00  0.00     0.002 A 
ENDBRANCH   1   7
BRANCH   4  20
ATOM     20  C   UNL d   1       8.456   5.194 -11.868  0.00  0.00     0.277 C 
BRANCH  20  21
ATOM     21  C   UNL d   1       9.059   5.945 -10.694  0.00  0.00     0.011 A 
ATOM     22  C   UNL d   1       9.144   5.336  -9.425  0.00  0.00    -0.002 A 
ATOM     23  C   UNL d   1       9.659   6.060  -8.332  0.00  0.00     0.011 A 
ATOM     24  C   UNL d   1      10.088   7.390  -8.501  0.00  0.00     0.058 A 
ATOM     25  C   UNL d   1      10.006   8.001  -9.766  0.00  0.00     0.011 A 
ATOM     26 CL   UNL d   1      10.722   8.267  -7.155  0.00  0.00    -0.082 Cl
ATOM     27  C   UNL d   1       9.490   7.278 -10.861  0.00  0.00    -0.002 A 
ENDBRANCH  20  21
ENDBRANCH   4  20
TORSDOF 3
