REMARK  5 active torsions:
REMARK  status: ('A' for Active; 'I' for Inactive)
REMARK    1  A    between atoms: C_2  and  N_3 
REMARK    2  A    between atoms: C_7  and  C_8 
REMARK    3  A    between atoms: C_8  and  N_9 
REMARK       I    between atoms: N_9  and  C_10 
REMARK    4  A    between atoms: C_10  and  C_12 
REMARK    5  A    between atoms: C_20  and  O_21 
ROOT
ATOM      1  C   UNL d   1       8.840   4.223 -13.518  0.00  0.00     0.107 A 
ATOM      2  C   UNL d   1      10.064   4.089 -14.214  0.00  0.00     0.148 A 
ATOM      3  O   UNL d   1      11.053   5.029 -14.118  0.00  0.00    -0.189 OA
ATOM      4  C   UNL d   1      10.286   2.971 -15.040  0.00  0.00     0.084 A 
ATOM      5 CL   UNL d   1      11.767   2.815 -15.918  0.00  0.00    -0.080 Cl
ATOM      6  C   UNL d   1       9.297   1.977 -15.161  0.00  0.00     0.027 A 
ATOM      7  C   UNL d   1       8.074   2.114 -14.481  0.00  0.00     0.081 A 
ATOM      8 CL   UNL d   1       6.891   0.867 -14.643  0.00  0.00    -0.080 Cl
ATOM      9  C   UNL d   1       7.820   3.247 -13.678  0.00  0.00     0.111 A 
ENDROOT
BRANCH   1  10
ATOM     10  C   UNL d   1       8.613   5.401 -12.628  0.00  0.00     0.279 C 
ATOM     11  N   UNL d   1       9.053   5.279 -11.372  0.00  0.00    -0.232 NA
ATOM     12  O   UNL d   1       8.053   6.404 -13.069  0.00  0.00    -0.265 OA
BRANCH  11  13
ATOM     13  C   UNL d   1       8.874   6.319 -10.366  0.00  0.00     0.162 C 
BRANCH  13  14
ATOM     14  C   UNL d   1      10.112   6.419  -9.464  0.00  0.00     0.243 C 
ATOM     15  N   UNL d   1      10.212   7.660  -8.714  0.00  0.00     0.137 N 
ATOM     16  C   UNL d   1      11.160   7.396  -7.635  0.00  0.00     0.250 C 
ATOM     17  C   UNL d   1      10.816   5.991  -7.178  0.00  0.00     0.037 C 
ATOM     18  C   UNL d   1      10.129   5.342  -8.380  0.00  0.00     0.037 C 
BRANCH  15  19
ATOM     19  C   UNL d   1      10.557   8.828  -9.536  0.00  0.00     0.250 C 
ATOM     20  C   UNL d   1      12.020   8.861 -10.000  0.00  0.00     0.037 C 
ENDBRANCH  15  19
ENDBRANCH  13  14
ENDBRANCH  11  13
ENDBRANCH   1  10
BRANCH   9  21
ATOM     21  O   UNL d   1       6.633   3.328 -12.994  0.00  0.00    -0.327 OA
ATOM     22  C   UNL d   1       5.654   4.157 -13.584  0.00  0.00     0.181 C 
ENDBRANCH   9  21
TORSDOF 5
