REMARK  8 active torsions:
REMARK  status: ('A' for Active; 'I' for Inactive)
REMARK    1  A    between atoms: C_6  and  C_7 
REMARK    2  A    between atoms: C_10  and  S_11 
REMARK    3  A    between atoms: S_11  and  C_12 
REMARK    4  A    between atoms: C_12  and  C_13 
REMARK    5  A    between atoms: C_13  and  C_14 
REMARK    6  A    between atoms: C_14  and  N_15 
REMARK    7  A    between atoms: C_22  and  C_23 
REMARK    8  A    between atoms: C_23  and  C_24 
ROOT
ATOM      1  N   UNL d   1      10.809   0.446 -17.843  0.00  0.00     0.138 N 
ATOM      2  C   UNL d   1      11.783   1.312 -17.186  0.00  0.00     0.255 C 
ATOM      3  C   UNL d   1      11.364   2.789 -17.081  0.00  0.00     0.061 C 
ATOM      4  C   UNL d   1      10.400   3.075 -15.942  0.00  0.00    -0.022 A 
ATOM      5  C   UNL d   1      10.794   4.005 -14.956  0.00  0.00     0.017 A 
ATOM      6  C   UNL d   1       9.931   4.317 -13.890  0.00  0.00     0.106 A 
ATOM      7  N   UNL d   1      10.055   5.172 -12.822  0.00  0.00    -0.224 NA
ATOM      8  C   UNL d   1       8.902   5.022 -12.163  0.00  0.00     0.159 A 
ATOM      9  O   UNL d   1       8.014   4.133 -12.707  0.00  0.00    -0.292 OA
ATOM     10  C   UNL d   1       8.681   3.676 -13.831  0.00  0.00     0.119 A 
ATOM     11  C   UNL d   1       8.260   2.749 -14.787  0.00  0.00     0.022 A 
ATOM     12  C   UNL d   1       9.129   2.445 -15.862  0.00  0.00    -0.022 A 
ATOM     13  C   UNL d   1       8.662   1.457 -16.912  0.00  0.00     0.061 C 
ATOM     14  C   UNL d   1       9.582   0.230 -17.062  0.00  0.00     0.255 C 
ENDROOT
BRANCH   1  15
ATOM     15  C   UNL d   1      10.636   0.784 -19.255  0.00  0.00     0.251 C 
BRANCH  15  16
ATOM     16  C   UNL d   1      10.084  -0.399 -20.050  0.00  0.00     0.047 C 
BRANCH  16  17
ATOM     17  C   UNL d   1       9.852  -0.074 -21.529  0.00  0.00     0.067 C 
BRANCH  17  18
ATOM     18  S   UNL d   1       9.048  -1.428 -22.437  0.00  0.00    -0.075 SA
BRANCH  18  19
ATOM     19  C   UNL d   1       7.510  -1.504 -21.557  0.00  0.00     0.193 A 
ATOM     20  N   UNL d   1       7.046  -0.503 -20.828  0.00  0.00    -0.122 NA
ATOM     21  N   UNL d   1       5.902  -1.009 -20.207  0.00  0.00    -0.126 NA
ATOM     22  C   UNL d   1       5.773  -2.249 -20.671  0.00  0.00     0.191 A 
ATOM     23  N   UNL d   1       6.748  -2.619 -21.532  0.00  0.00    -0.287 N 
ATOM     24  C   UNL d   1       6.934  -3.885 -22.227  0.00  0.00     0.134 C 
BRANCH  22  25
ATOM     25  C   UNL d   1       4.647  -3.080 -20.257  0.00  0.00     0.151 A 
ATOM     26  C   UNL d   1       3.816  -3.031 -19.166  0.00  0.00     0.087 A 
ATOM     27  C   UNL d   1       3.840  -2.106 -17.986  0.00  0.00     0.054 C 
ATOM     28  N   UNL d   1       2.851  -4.017 -19.306  0.00  0.00    -0.221 NA
ATOM     29  C   UNL d   1       3.154  -4.616 -20.457  0.00  0.00     0.225 A 
ATOM     30  O   UNL d   1       4.240  -4.095 -21.077  0.00  0.00    -0.282 OA
ENDBRANCH  22  25
ENDBRANCH  18  19
ENDBRANCH  17  18
ENDBRANCH  16  17
ENDBRANCH  15  16
ENDBRANCH   1  15
BRANCH   8  31
ATOM     31  C   UNL d   1       8.502   5.716 -10.894  0.00  0.00     0.072 C 
BRANCH  31  32
ATOM     32  C   UNL d   1       9.297   5.225  -9.680  0.00  0.00     0.008 A 
ATOM     33  C   UNL d   1       8.794   5.506  -8.286  0.00  0.00     0.001 A 
ATOM     34  C   UNL d   1       8.755   4.104  -8.836  0.00  0.00     0.001 A 
ENDBRANCH  31  32
ENDBRANCH   8  31
TORSDOF 8
