REMARK  6 active torsions:
REMARK  status: ('A' for Active; 'I' for Inactive)
REMARK    1  A    between atoms: C_2  and  C_3 
REMARK       I    between atoms: C_3  and  N_5 
REMARK    2  A    between atoms: N_5  and  C_6 
REMARK    3  A    between atoms: C_9  and  C_10 
REMARK    4  A    between atoms: C_10  and  C_11 
REMARK    5  A    between atoms: C_11  and  N_12 
REMARK    6  A    between atoms: N_15  and  C_16 
ROOT
ATOM      1  N   UNL d   1       8.890   5.457 -11.913  0.00  0.00     0.141 N 
ATOM      2  C   UNL d   1       9.968   4.488 -12.117  0.00  0.00     0.274 C 
ATOM      3  C   UNL d   1       9.600   3.414 -13.151  0.00  0.00     0.138 C 
ATOM      4  N   UNL d   1       9.252   4.031 -14.402  0.00  0.00    -0.329 N 
ATOM      5  C   UNL d   1       8.286   5.105 -14.277  0.00  0.00     0.138 C 
ATOM      6  C   UNL d   1       8.706   6.116 -13.195  0.00  0.00     0.274 C 
ENDROOT
BRANCH   1   7
ATOM      7  C   UNL d   1       9.322   6.480 -10.964  0.00  0.00     0.250 C 
BRANCH   7   8
ATOM      8  C   UNL d   1       9.308   5.942  -9.525  0.00  0.00     0.035 C 
BRANCH   8   9
ATOM      9  C   UNL d   1       9.552   7.025  -8.465  0.00  0.00     0.002 C 
ATOM     10  C   UNL d   1       9.471   6.398  -7.068  0.00  0.00     0.002 C 
ATOM     11  C   UNL d   1       9.713   7.441  -5.981  0.00  0.00     0.024 C 
ATOM     12  C   UNL d   1      11.047   8.175  -6.167  0.00  0.00     0.106 C 
ATOM     13  C   UNL d   1      11.129   8.813  -7.551  0.00  0.00     0.024 C 
ATOM     14  C   UNL d   1      10.900   7.760  -8.636  0.00  0.00     0.002 C 
BRANCH  12  15
ATOM     15  N   UNL d   1      11.230   9.184  -5.131  0.00  0.00    -0.240 NA
ATOM     16  C   UNL d   1      11.804   9.019  -3.937  0.00  0.00     0.251 C 
ATOM     17  O   UNL d   1      11.849   9.952  -3.148  0.00  0.00    -0.271 OA
BRANCH  16  18
ATOM     18  C   UNL d   1      12.383   7.652  -3.543  0.00  0.00     0.090 C 
ATOM     19  C   UNL d   1      12.146   7.275  -2.083  0.00  0.00     0.010 C 
ENDBRANCH  16  18
ENDBRANCH  12  15
ENDBRANCH   8   9
ENDBRANCH   7   8
ENDBRANCH   1   7
BRANCH   4  20
ATOM     20  C   UNL d   1       9.832   3.648 -15.623  0.00  0.00     0.148 A 
ATOM     21  C   UNL d   1      10.031   2.249 -15.974  0.00  0.00     0.042 A 
ATOM     22  C   UNL d   1      10.643   2.175 -17.256  0.00  0.00     0.050 A 
ATOM     23  C   UNL d   1       9.734   1.024 -15.331  0.00  0.00     0.004 A 
ATOM     24  S   UNL d   1      10.874   3.811 -17.842  0.00  0.00     0.015 SA
ATOM     25  C   UNL d   1      10.960   0.946 -17.863  0.00  0.00     0.008 A 
ATOM     26  N   UNL d   1      10.185   4.555 -16.505  0.00  0.00    -0.192 NA
ATOM     27  C   UNL d   1      10.650  -0.253 -17.200  0.00  0.00     0.001 A 
ATOM     28  C   UNL d   1      10.043  -0.207 -15.934  0.00  0.00     0.000 A 
ENDBRANCH   4  20
TORSDOF 6
