REMARK  8 active torsions:
REMARK  status: ('A' for Active; 'I' for Inactive)
REMARK    1  A    between atoms: C_6  and  N_7 
REMARK    2  A    between atoms: N_10  and  C_11 
REMARK    3  A    between atoms: C_11  and  C_12 
REMARK    4  A    between atoms: C_12  and  C_13 
REMARK    5  A    between atoms: C_13  and  C_14 
REMARK       I    between atoms: C_14  and  N_16 
REMARK    6  A    between atoms: N_16  and  C_17 
REMARK    7  A    between atoms: C_17  and  C_18 
REMARK    8  A    between atoms: N_29  and  C_30 
ROOT
ATOM      1  C   UNL d   1       6.923   0.344 -14.754  0.00  0.00     0.252 C 
ATOM      2  O   UNL d   1       6.877  -0.142 -13.623  0.00  0.00    -0.271 OA
ATOM      3  N   UNL d   1       8.010   0.948 -15.258  0.00  0.00    -0.230 NA
ENDROOT
BRANCH   3   4
ATOM      4  C   UNL d   1       9.277   1.122 -14.550  0.00  0.00     0.192 C 
BRANCH   4   5
ATOM      5  C   UNL d   1      10.201   2.133 -15.250  0.00  0.00     0.151 A 
ATOM      6  N   UNL d   1      10.160   3.485 -14.778  0.00  0.00    -0.261 N 
ATOM      7  C   UNL d   1      11.033   4.404 -15.298  0.00  0.00     0.267 A 
ATOM      8  C   UNL d   1      11.954   3.933 -16.386  0.00  0.00     0.076 A 
ATOM      9  O   UNL d   1      11.109   5.583 -14.931  0.00  0.00    -0.267 OA
ATOM     10  C   UNL d   1      11.866   2.587 -16.806  0.00  0.00     0.087 A 
ATOM     11  C   UNL d   1      12.879   4.812 -16.992  0.00  0.00     0.036 A 
ATOM     12  N   UNL d   1      10.971   1.697 -16.202  0.00  0.00    -0.230 NA
ATOM     13  C   UNL d   1      12.714   2.136 -17.841  0.00  0.00     0.022 A 
ATOM     14  C   UNL d   1      13.640   3.015 -18.439  0.00  0.00     0.031 A 
ATOM     15  C   UNL d   1      13.725   4.356 -18.017  0.00  0.00     0.140 A 
ATOM     16  F   UNL d   1      14.617   5.199 -18.585  0.00  0.00    -0.204 F 
BRANCH   6  17
ATOM     17  C   UNL d   1       9.191   3.951 -13.825  0.00  0.00     0.068 A 
ATOM     18  C   UNL d   1       7.807   3.722 -14.039  0.00  0.00     0.018 A 
ATOM     19  C   UNL d   1       6.860   4.132 -13.081  0.00  0.00     0.002 A 
ATOM     20  C   UNL d   1       7.271   4.816 -11.923  0.00  0.00     0.000 A 
ATOM     21  C   UNL d   1       8.639   5.080 -11.712  0.00  0.00     0.002 A 
ATOM     22  C   UNL d   1       9.594   4.634 -12.651  0.00  0.00     0.018 A 
ENDBRANCH   6  17
ENDBRANCH   4   5
ENDBRANCH   3   4
BRANCH   1  23
ATOM     23  C   UNL d   1       5.714   0.257 -15.681  0.00  0.00     0.092 C 
BRANCH  23  24
ATOM     24  C   UNL d   1       5.769  -0.989 -16.575  0.00  0.00     0.045 C 
BRANCH  24  25
ATOM     25  C   UNL d   1       4.878  -0.850 -17.826  0.00  0.00     0.251 C 
BRANCH  25  26
ATOM     26  N   UNL d   1       4.897  -2.048 -18.666  0.00  0.00     0.141 N 
ATOM     27  C   UNL d   1       4.234  -3.157 -17.968  0.00  0.00     0.274 C 
ATOM     28  C   UNL d   1       4.236  -4.430 -18.829  0.00  0.00     0.137 C 
ATOM     29  N   UNL d   1       3.646  -4.157 -20.127  0.00  0.00    -0.344 N 
ATOM     30  C   UNL d   1       4.150  -2.990 -20.830  0.00  0.00     0.137 C 
ATOM     31  C   UNL d   1       4.153  -1.761 -19.898  0.00  0.00     0.274 C 
BRANCH  29  32
ATOM     32  C   UNL d   1       2.631  -4.962 -20.652  0.00  0.00     0.052 A 
ATOM     33  C   UNL d   1       1.335  -4.834 -20.121  0.00  0.00     0.017 A 
ATOM     34  C   UNL d   1       0.277  -5.612 -20.629  0.00  0.00     0.001 A 
ATOM     35  C   UNL d   1       0.521  -6.544 -21.649  0.00  0.00    -0.004 A 
ATOM     36  C   UNL d   1       1.817  -6.700 -22.180  0.00  0.00    -0.024 A 
ATOM     37  C   UNL d   1       2.046  -7.731 -23.265  0.00  0.00     0.031 C 
ATOM     38  C   UNL d   1       2.882  -5.891 -21.694  0.00  0.00    -0.010 A 
ATOM     39  C   UNL d   1       4.282  -6.056 -22.274  0.00  0.00     0.032 C 
ENDBRANCH  29  32
ENDBRANCH  25  26
ENDBRANCH  24  25
ENDBRANCH  23  24
ENDBRANCH   1  23
TORSDOF 8
