REMARK  4 active torsions:
REMARK  status: ('A' for Active; 'I' for Inactive)
REMARK    1  A    between atoms: C_2  and  N_4 
REMARK    2  A    between atoms: C_6  and  S_7 
REMARK    3  A    between atoms: S_7  and  C_10 
REMARK    4  A    between atoms: C_22  and  N_23 
ROOT
ATOM      1  N   UNL d   1       7.500   3.215 -13.797  0.00  0.00    -0.253 N 
ATOM      2  N   UNL d   1       8.456   3.190 -14.767  0.00  0.00    -0.158 NA
ATOM      3  C   UNL d   1       9.439   3.904 -14.292  0.00  0.00     0.190 C 
ATOM      4  C   UNL d   1       9.083   4.615 -13.094  0.00  0.00     0.049 A 
ATOM      5  C   UNL d   1       9.664   5.575 -12.234  0.00  0.00     0.021 A 
ATOM      6  C   UNL d   1       8.992   6.086 -11.112  0.00  0.00     0.056 A 
ATOM      7  C   UNL d   1       7.704   5.605 -10.844  0.00  0.00     0.018 A 
ATOM      8  C   UNL d   1       7.097   4.611 -11.634  0.00  0.00     0.020 A 
ATOM      9  C   UNL d   1       7.784   4.138 -12.779  0.00  0.00     0.080 A 
ENDROOT
BRANCH   3  10
ATOM     10  S   UNL d   1      11.014   4.082 -15.083  0.00  0.00     0.228 S 
ATOM     11  O   UNL d   1      10.841   5.270 -15.940  0.00  0.00    -0.216 OA
ATOM     12  O   UNL d   1      12.041   4.092 -14.039  0.00  0.00    -0.216 OA
BRANCH  10  13
ATOM     13  C   UNL d   1      11.270   2.615 -16.131  0.00  0.00     0.089 A 
ATOM     14  C   UNL d   1      12.167   2.647 -17.239  0.00  0.00     0.011 A 
ATOM     15  C   UNL d   1      12.294   1.485 -18.055  0.00  0.00     0.001 A 
ATOM     16  C   UNL d   1      12.970   3.779 -17.547  0.00  0.00     0.001 A 
ATOM     17  C   UNL d   1      11.537   0.325 -17.784  0.00  0.00     0.000 A 
ATOM     18  C   UNL d   1      13.201   1.465 -19.136  0.00  0.00     0.000 A 
ATOM     19  C   UNL d   1      10.671   0.301 -16.673  0.00  0.00     0.001 A 
ATOM     20  C   UNL d   1      10.574   1.416 -15.822  0.00  0.00     0.011 A 
ATOM     21  C   UNL d   1      13.982   2.597 -19.429  0.00  0.00     0.000 A 
ATOM     22  C   UNL d   1      13.864   3.752 -18.636  0.00  0.00     0.000 A 
ENDBRANCH  10  13
ENDBRANCH   3  10
BRANCH   1  23
ATOM     23  C   UNL d   1       6.349   2.328 -13.949  0.00  0.00     0.105 C 
ATOM     24  C   UNL d   1       5.309   2.449 -12.827  0.00  0.00     0.026 C 
ATOM     25  C   UNL d   1       6.769   0.850 -14.145  0.00  0.00     0.026 C 
ENDBRANCH   1  23
BRANCH   6  26
ATOM     26  N   UNL d   1       9.590   7.027 -10.253  0.00  0.00    -0.344 N 
ATOM     27  C   UNL d   1       9.341   7.025  -8.817  0.00  0.00     0.140 C 
ATOM     28  C   UNL d   1      10.699   7.107  -8.106  0.00  0.00     0.314 C 
ATOM     29  N   UNL d   1      11.466   8.270  -8.569  0.00  0.00     0.343 N 
ATOM     30  C   UNL d   1      11.696   8.175 -10.015  0.00  0.00     0.314 C 
ATOM     31  C   UNL d   1      10.351   8.148 -10.760  0.00  0.00     0.140 C 
ENDBRANCH   6  26
TORSDOF 4
