REMARK  10 active torsions:
REMARK  status: ('A' for Active; 'I' for Inactive)
REMARK    1  A    between atoms: C_2  and  N_3 
REMARK    2  A    between atoms: N_3  and  C_4 
REMARK    3  A    between atoms: N_3  and  C_19 
REMARK    4  A    between atoms: C_4  and  C_5 
REMARK    5  A    between atoms: C_5  and  C_6 
REMARK    6  A    between atoms: C_6  and  O_7 
REMARK    7  A    between atoms: O_7  and  C_8 
REMARK    8  A    between atoms: C_19  and  C_20 
REMARK    9  A    between atoms: C_22  and  C_23 
REMARK   10  A    between atoms: C_29  and  O_30 
ROOT
ATOM      1  N   UNL d   1       7.822   2.430 -14.770  0.00  0.00     0.137 N 
ENDROOT
BRANCH   1   2
ATOM      2  C   UNL d   1       6.607   1.655 -14.445  0.00  0.00     0.250 C 
ATOM      3  C   UNL d   1       6.126   0.641 -15.487  0.00  0.00     0.037 C 
ENDBRANCH   1   2
BRANCH   1   4
ATOM      4  C   UNL d   1       9.010   1.565 -14.769  0.00  0.00     0.253 C 
BRANCH   4   5
ATOM      5  C   UNL d   1       9.165   0.850 -16.142  0.00  0.00     0.068 C 
BRANCH   5   6
ATOM      6  C   UNL d   1      10.299  -0.193 -16.067  0.00  0.00     0.151 C 
BRANCH   6   7
ATOM      7  O   UNL d   1      10.690  -0.637 -17.358  0.00  0.00    -0.331 OA
BRANCH   7   8
ATOM      8  C   UNL d   1      11.588   0.153 -18.032  0.00  0.00     0.096 A 
ATOM      9  C   UNL d   1      12.514  -0.512 -18.863  0.00  0.00     0.043 A 
ATOM     10  C   UNL d   1      13.514   0.229 -19.520  0.00  0.00     0.082 A 
ATOM     11  C   UNL d   1      13.560   1.636 -19.378  0.00  0.00    -0.004 A 
ATOM     12  N   UNL d   1      14.501  -0.435 -20.281  0.00  0.00    -0.212 NA
ATOM     13  C   UNL d   1      12.626   2.296 -18.572  0.00  0.00    -0.001 A 
ATOM     14  C   UNL d   1      14.662   2.420 -20.048  0.00  0.00     0.038 C 
ATOM     15  C   UNL d   1      11.665   1.566 -17.878  0.00  0.00     0.024 A 
ATOM     16  C   UNL d   1      15.128   1.713 -21.331  0.00  0.00     0.095 C 
ATOM     17  C   UNL d   1      15.324   0.202 -21.128  0.00  0.00     0.256 C 
ATOM     18  O   UNL d   1      16.185  -0.398 -21.755  0.00  0.00    -0.270 OA
ENDBRANCH   7   8
ENDBRANCH   6   7
ENDBRANCH   5   6
ENDBRANCH   4   5
ENDBRANCH   1   4
BRANCH   1  19
ATOM     19  C   UNL d   1       8.010   3.528 -13.792  0.00  0.00     0.251 C 
BRANCH  19  20
ATOM     20  C   UNL d   1       6.764   4.404 -13.675  0.00  0.00     0.038 A 
ATOM     21  C   UNL d   1       6.619   5.458 -12.605  0.00  0.00     0.026 A 
ATOM     22  C   UNL d   1       5.703   4.240 -12.612  0.00  0.00     0.007 A 
BRANCH  21  23
ATOM     23  C   UNL d   1       7.725   5.646 -11.590  0.00  0.00     0.001 A 
ATOM     24  C   UNL d   1       8.552   6.788 -11.654  0.00  0.00     0.090 A 
ATOM     25  C   UNL d   1       9.575   6.942 -10.667  0.00  0.00     0.025 A 
ATOM     26  C   UNL d   1       9.746   5.978  -9.665  0.00  0.00     0.013 A 
ATOM     27  C   UNL d   1       8.892   4.900  -9.628  0.00  0.00     0.058 A 
ATOM     28  C   UNL d   1       7.914   4.724 -10.571  0.00  0.00     0.009 A 
ATOM     29 CL   UNL d   1       9.004   3.727  -8.443  0.00  0.00    -0.082 Cl
BRANCH  24  30
ATOM     30  O   UNL d   1       8.287   7.713 -12.636  0.00  0.00    -0.328 OA
ATOM     31  C   UNL d   1       8.551   9.070 -12.328  0.00  0.00     0.181 C 
ENDBRANCH  24  30
ENDBRANCH  21  23
ENDBRANCH  19  20
ENDBRANCH   1  19
TORSDOF 10
