REMARK  8 active torsions:
REMARK  status: ('A' for Active; 'I' for Inactive)
REMARK    1  A    between atoms: O_2  and  C_3 
REMARK    2  A    between atoms: C_8  and  N_9 
REMARK    3  A    between atoms: N_12  and  C_13 
REMARK    4  A    between atoms: C_13  and  C_14 
REMARK    5  A    between atoms: C_14  and  C_15 
REMARK    6  A    between atoms: C_15  and  O_16 
REMARK    7  A    between atoms: O_16  and  C_17 
REMARK    8  A    between atoms: C_20  and  C_21 
ROOT
ATOM      1  C   UNL d   1      12.067   0.282 -20.023  0.00  0.00     0.151 C 
ENDROOT
BRANCH   1   2
ATOM      2  C   UNL d   1      11.461   0.402 -18.611  0.00  0.00     0.068 C 
BRANCH   2   3
ATOM      3  C   UNL d   1       9.961   0.747 -18.634  0.00  0.00     0.253 C 
BRANCH   3   4
ATOM      4  N   UNL d   1       9.344   0.549 -17.323  0.00  0.00     0.141 N 
ATOM      5  C   UNL d   1       9.945   1.418 -16.298  0.00  0.00     0.274 C 
ATOM      6  C   UNL d   1       9.308   1.129 -14.929  0.00  0.00     0.137 C 
ATOM      7  N   UNL d   1       7.870   1.341 -15.011  0.00  0.00    -0.343 N 
ATOM      8  C   UNL d   1       7.206   0.597 -16.075  0.00  0.00     0.137 C 
ATOM      9  C   UNL d   1       7.912   0.855 -17.424  0.00  0.00     0.274 C 
BRANCH   7  10
ATOM     10  C   UNL d   1       7.178   2.248 -14.192  0.00  0.00     0.079 A 
ATOM     11  C   UNL d   1       7.708   3.524 -13.867  0.00  0.00     0.110 A 
ATOM     12  C   UNL d   1       7.000   4.361 -12.967  0.00  0.00     0.026 A 
ATOM     13  C   UNL d   1       5.761   3.956 -12.436  0.00  0.00     0.002 A 
ATOM     14  C   UNL d   1       5.224   2.711 -12.792  0.00  0.00     0.002 A 
ATOM     15  C   UNL d   1       5.934   1.854 -13.649  0.00  0.00     0.019 A 
BRANCH  11  16
ATOM     16  O   UNL d   1       8.896   3.910 -14.462  0.00  0.00    -0.327 OA
ATOM     17  C   UNL d   1       9.657   4.919 -13.818  0.00  0.00     0.181 C 
ENDBRANCH  11  16
ENDBRANCH   7  10
ENDBRANCH   3   4
ENDBRANCH   2   3
ENDBRANCH   1   2
BRANCH   1  18
ATOM     18  O   UNL d   1      11.971   1.512 -20.738  0.00  0.00    -0.331 OA
BRANCH  18  19
ATOM     19  C   UNL d   1      12.809   2.555 -20.404  0.00  0.00     0.094 A 
ATOM     20  C   UNL d   1      13.833   2.477 -19.426  0.00  0.00     0.024 A 
ATOM     21  C   UNL d   1      14.633   3.595 -19.141  0.00  0.00     0.004 A 
ATOM     22  C   UNL d   1      14.453   4.806 -19.842  0.00  0.00     0.019 A 
ATOM     23  C   UNL d   1      13.435   4.887 -20.817  0.00  0.00     0.004 A 
ATOM     24  C   UNL d   1      12.618   3.772 -21.090  0.00  0.00     0.024 A 
BRANCH  22  25
ATOM     25  C   UNL d   1      15.308   5.964 -19.565  0.00  0.00     0.101 A 
ATOM     26  N   UNL d   1      16.400   5.872 -18.705  0.00  0.00    -0.227 NA
ATOM     27  C   UNL d   1      16.965   7.076 -18.676  0.00  0.00     0.144 A 
ATOM     28  N   UNL d   1      16.258   7.966 -19.512  0.00  0.00    -0.288 N 
ATOM     29  C   UNL d   1      18.096   7.601 -17.989  0.00  0.00     0.013 A 
ATOM     30  C   UNL d   1      15.218   7.236 -20.058  0.00  0.00     0.101 A 
ATOM     31  C   UNL d   1      16.620   9.269 -19.674  0.00  0.00     0.082 A 
ATOM     32  C   UNL d   1      17.724   9.758 -19.011  0.00  0.00     0.019 A 
ATOM     33  C   UNL d   1      18.463   8.915 -18.156  0.00  0.00     0.000 A 
ATOM     34  C   UNL d   1      18.893   6.727 -17.049  0.00  0.00     0.034 C 
ENDBRANCH  22  25
ENDBRANCH  18  19
ENDBRANCH   1  18
TORSDOF 8
