REMARK  4 active torsions:
REMARK  status: ('A' for Active; 'I' for Inactive)
REMARK       I    between atoms: C_2  and  N_3 
REMARK    1  A    between atoms: C_2  and  C_17 
REMARK    2  A    between atoms: N_3  and  C_4 
REMARK    3  A    between atoms: N_7  and  C_8 
REMARK    4  A    between atoms: C_8  and  C_9 
ROOT
ATOM      1  C   UNL d   1       9.986   6.771  -9.835  0.00  0.00     0.111 C 
ATOM      2  C   UNL d   1       9.827   6.344  -8.383  0.00  0.00     0.060 C 
ATOM      3  C   UNL d   1      10.819   7.030  -7.497  0.00  0.00     0.253 C 
ATOM      4  N   UNL d   1      10.767   8.485  -7.561  0.00  0.00     0.141 N 
ATOM      5  C   UNL d   1      11.064   8.924  -8.939  0.00  0.00     0.253 C 
ATOM      6  C   UNL d   1      10.021   8.311  -9.906  0.00  0.00     0.060 C 
ENDROOT
BRANCH   1   7
ATOM      7  N   UNL d   1       8.890   6.152 -10.580  0.00  0.00    -0.236 NA
ATOM      8  C   UNL d   1       8.807   6.139 -11.912  0.00  0.00     0.275 C 
ATOM      9  O   UNL d   1       9.460   6.871 -12.639  0.00  0.00    -0.266 OA
BRANCH   8  10
ATOM     10  C   UNL d   1       7.914   5.108 -12.486  0.00  0.00     0.058 A 
ATOM     11  C   UNL d   1       8.393   4.165 -13.423  0.00  0.00     0.005 A 
ATOM     12  C   UNL d   1       7.489   3.210 -13.952  0.00  0.00     0.000 A 
ATOM     13  C   UNL d   1       9.755   4.112 -13.852  0.00  0.00     0.000 A 
ATOM     14  C   UNL d   1       6.140   3.201 -13.524  0.00  0.00     0.000 A 
ATOM     15  C   UNL d   1       7.916   2.252 -14.891  0.00  0.00     0.000 A 
ATOM     16  C   UNL d   1       5.696   4.133 -12.574  0.00  0.00     0.000 A 
ATOM     17  C   UNL d   1       6.581   5.080 -12.037  0.00  0.00     0.005 A 
ATOM     18  C   UNL d   1       9.257   2.224 -15.307  0.00  0.00     0.000 A 
ATOM     19  C   UNL d   1      10.174   3.148 -14.787  0.00  0.00     0.000 A 
ENDBRANCH   8  10
ENDBRANCH   1   7
BRANCH   4  20
ATOM     20  C   UNL d   1      11.759   9.089  -6.657  0.00  0.00     0.277 C 
BRANCH  20  21
ATOM     21  C   UNL d   1      11.689   8.637  -5.195  0.00  0.00     0.011 A 
ATOM     22  C   UNL d   1      11.860   7.274  -4.826  0.00  0.00    -0.002 A 
ATOM     23  C   UNL d   1      11.857   6.826  -3.494  0.00  0.00    -0.000 A 
ATOM     24  C   UNL d   1      11.732   7.770  -2.465  0.00  0.00    -0.000 A 
ATOM     25  C   UNL d   1      11.618   9.154  -2.812  0.00  0.00    -0.000 A 
ATOM     26  C   UNL d   1      11.548   9.587  -4.158  0.00  0.00    -0.002 A 
ENDBRANCH  20  21
ENDBRANCH   4  20
TORSDOF 4
