REMARK  9 active torsions:
REMARK  status: ('A' for Active; 'I' for Inactive)
REMARK    1  A    between atoms: C_2  and  N_3 
REMARK    2  A    between atoms: N_3  and  C_4 
REMARK    3  A    between atoms: N_3  and  C_17 
REMARK    4  A    between atoms: C_4  and  C_5 
REMARK    5  A    between atoms: C_5  and  C_6 
REMARK    6  A    between atoms: C_10  and  O_11 
REMARK    7  A    between atoms: O_11  and  C_12 
REMARK    8  A    between atoms: C_17  and  C_18 
REMARK    9  A    between atoms: C_18  and  N_19 
ROOT
ATOM      1  C   UNL d   1       8.978   3.220 -15.288  0.00  0.00     0.062 C 
ENDROOT
BRANCH   1   2
ATOM      2  C   UNL d   1      10.207   2.469 -14.742  0.00  0.00     0.255 C 
BRANCH   2   3
ATOM      3  N   UNL d   1      11.414   2.580 -15.570  0.00  0.00     0.139 N 
BRANCH   3   4
ATOM      4  C   UNL d   1      11.893   3.954 -15.711  0.00  0.00     0.250 C 
ATOM      5  C   UNL d   1      12.260   4.652 -14.402  0.00  0.00     0.037 C 
ENDBRANCH   3   4
BRANCH   3   6
ATOM      6  C   UNL d   1      11.245   1.985 -16.882  0.00  0.00     0.285 C 
BRANCH   6   7
ATOM      7  C   UNL d   1      11.027   0.462 -16.891  0.00  0.00     0.285 C 
BRANCH   7   8
ATOM      8  N   UNL d   1      11.231  -0.172 -18.193  0.00  0.00     0.139 N 
ATOM      9  C   UNL d   1      10.497   0.438 -19.290  0.00  0.00     0.250 C 
ATOM     10  C   UNL d   1      11.133  -0.120 -20.560  0.00  0.00     0.037 C 
ATOM     11  C   UNL d   1      12.550  -0.550 -20.119  0.00  0.00     0.037 C 
ATOM     12  C   UNL d   1      12.611  -0.218 -18.632  0.00  0.00     0.250 C 
ENDBRANCH   7   8
ENDBRANCH   6   7
ENDBRANCH   3   6
ENDBRANCH   2   3
ENDBRANCH   1   2
BRANCH   1  13
ATOM     13  C   UNL d   1       7.791   3.077 -14.377  0.00  0.00    -0.018 A 
ATOM     14  C   UNL d   1       7.002   1.915 -14.449  0.00  0.00     0.020 A 
ATOM     15  C   UNL d   1       5.856   1.785 -13.629  0.00  0.00     0.102 A 
ATOM     16  C   UNL d   1       5.534   2.829 -12.741  0.00  0.00     0.025 A 
ATOM     17  C   UNL d   1       6.335   3.986 -12.658  0.00  0.00     0.002 A 
ATOM     18  C   UNL d   1       7.467   4.113 -13.481  0.00  0.00    -0.004 A 
BRANCH  15  19
ATOM     19  O   UNL d   1       4.995   0.707 -13.661  0.00  0.00    -0.254 OA
BRANCH  19  20
ATOM     20  C   UNL d   1       5.232  -0.370 -14.456  0.00  0.00     0.530 C 
ATOM     21  F   UNL d   1       4.175  -1.208 -14.372  0.00  0.00    -0.144 F 
ATOM     22  F   UNL d   1       5.357  -0.033 -15.764  0.00  0.00    -0.144 F 
ATOM     23  F   UNL d   1       6.325  -1.058 -14.050  0.00  0.00    -0.144 F 
ENDBRANCH  19  20
ENDBRANCH  15  19
ENDBRANCH   1  13
TORSDOF 9
