REMARK  9 active torsions:
REMARK  status: ('A' for Active; 'I' for Inactive)
REMARK    1  A    between atoms: O_2  and  C_3 
REMARK    2  A    between atoms: C_6  and  N_7 
REMARK    3  A    between atoms: N_13  and  C_14 
REMARK    4  A    between atoms: C_14  and  C_15 
REMARK    5  A    between atoms: C_15  and  C_16 
REMARK    6  A    between atoms: C_16  and  S_17 
REMARK    7  A    between atoms: S_17  and  C_18 
REMARK    8  A    between atoms: C_21  and  C_22 
REMARK    9  A    between atoms: C_34  and  O_35 
ROOT
ATOM      1  N   UNL d   1      13.404   4.958 -17.573  0.00  0.00    -0.347 N 
ATOM      2  C   UNL d   1      12.015   5.324 -17.325  0.00  0.00     0.102 C 
ATOM      3  C   UNL d   1      11.091   4.239 -17.904  0.00  0.00     0.024 C 
ATOM      4  C   UNL d   1      11.474   2.814 -17.393  0.00  0.00     0.008 C 
ATOM      5  C   UNL d   1      10.584   1.716 -18.045  0.00  0.00     0.035 C 
ATOM      6  C   UNL d   1       9.100   1.817 -17.615  0.00  0.00     0.250 C 
ATOM      7  N   UNL d   1       9.055   1.663 -16.164  0.00  0.00     0.137 N 
ATOM      8  C   UNL d   1       9.845   2.710 -15.514  0.00  0.00     0.250 C 
ATOM      9  C   UNL d   1      11.281   2.691 -15.889  0.00  0.00     0.035 C 
ATOM     10  C   UNL d   1      12.961   2.541 -17.702  0.00  0.00     0.024 C 
ATOM     11  C   UNL d   1      13.862   3.651 -17.124  0.00  0.00     0.102 C 
ENDROOT
BRANCH   7  12
ATOM     12  C   UNL d   1       7.660   1.747 -15.709  0.00  0.00     0.251 C 
BRANCH  12  13
ATOM     13  C   UNL d   1       7.462   1.160 -14.290  0.00  0.00     0.047 C 
BRANCH  13  14
ATOM     14  C   UNL d   1       6.186   1.664 -13.568  0.00  0.00     0.067 C 
BRANCH  14  15
ATOM     15  S   UNL d   1       5.901   3.478 -13.619  0.00  0.00    -0.075 SA
BRANCH  15  16
ATOM     16  C   UNL d   1       7.381   4.073 -12.898  0.00  0.00     0.193 A 
ATOM     17  N   UNL d   1       7.373   5.081 -11.965  0.00  0.00    -0.289 N 
ATOM     18  C   UNL d   1       8.677   5.214 -11.746  0.00  0.00     0.167 A 
ATOM     19  C   UNL d   1       6.292   5.759 -11.382  0.00  0.00     0.134 C 
ATOM     20  N   UNL d   1       9.469   4.432 -12.482  0.00  0.00    -0.128 NA
ATOM     21  N   UNL d   1       8.569   3.744 -13.268  0.00  0.00    -0.122 NA
BRANCH  18  22
ATOM     22  C   UNL d   1       9.279   6.131 -10.796  0.00  0.00     0.036 A 
ATOM     23  C   UNL d   1       9.608   5.698  -9.490  0.00  0.00     0.003 A 
ATOM     24  C   UNL d   1      10.226   6.588  -8.598  0.00  0.00     0.000 A 
ATOM     25  C   UNL d   1      10.542   7.899  -9.024  0.00  0.00     0.000 A 
ATOM     26  C   UNL d   1      10.276   8.304 -10.349  0.00  0.00     0.000 A 
ATOM     27  C   UNL d   1       9.647   7.421 -11.232  0.00  0.00     0.003 A 
ENDBRANCH  18  22
ENDBRANCH  15  16
ENDBRANCH  14  15
ENDBRANCH  13  14
ENDBRANCH  12  13
ENDBRANCH   7  12
BRANCH   1  28
ATOM     28  C   UNL d   1      14.242   5.832 -18.274  0.00  0.00     0.079 A 
ATOM     29  C   UNL d   1      14.237   7.182 -17.894  0.00  0.00     0.021 A 
ATOM     30  C   UNL d   1      15.052   8.103 -18.555  0.00  0.00     0.026 A 
ATOM     31  C   UNL d   1      15.889   7.686 -19.610  0.00  0.00     0.096 A 
ATOM     32  C   UNL d   1      15.899   6.323 -19.990  0.00  0.00     0.050 A 
ATOM     33  C   UNL d   1      15.059   5.373 -19.333  0.00  0.00     0.112 A 
BRANCH  31  34
ATOM     34  O   UNL d   1      16.703   8.573 -20.292  0.00  0.00    -0.328 OA
ATOM     35  C   UNL d   1      16.539   9.959 -20.032  0.00  0.00     0.181 C 
ENDBRANCH  31  34
BRANCH  33  36
ATOM     36  O   UNL d   1      14.989   4.035 -19.672  0.00  0.00    -0.327 OA
ATOM     37  C   UNL d   1      15.618   3.577 -20.855  0.00  0.00     0.181 C 
ENDBRANCH  33  36
ENDBRANCH   1  28
TORSDOF 9
