REMARK  11 active torsions:
REMARK  status: ('A' for Active; 'I' for Inactive)
REMARK    1  A    between atoms: C_2  and  N_3 
REMARK    2  A    between atoms: N_3  and  C_4 
REMARK    3  A    between atoms: N_3  and  C_20 
REMARK    4  A    between atoms: C_4  and  C_5 
REMARK    5  A    between atoms: C_5  and  C_6 
REMARK    6  A    between atoms: C_6  and  S_7 
REMARK    7  A    between atoms: S_7  and  C_8 
REMARK    8  A    between atoms: C_11  and  C_12 
REMARK    9  A    between atoms: C_20  and  C_21 
REMARK   10  A    between atoms: C_23  and  C_24 
REMARK   11  A    between atoms: C_30  and  O_31 
ROOT
ATOM      1  N   UNL d   1      10.129   4.652 -16.329  0.00  0.00     0.137 N 
ENDROOT
BRANCH   1   2
ATOM      2  C   UNL d   1      10.007   5.843 -17.179  0.00  0.00     0.250 C 
ATOM      3  C   UNL d   1      10.852   5.784 -18.464  0.00  0.00     0.037 C 
ENDBRANCH   1   2
BRANCH   1   4
ATOM      4  C   UNL d   1       9.281   4.660 -15.142  0.00  0.00     0.251 C 
BRANCH   4   5
ATOM      5  C   UNL d   1      10.124   4.383 -13.884  0.00  0.00     0.047 C 
BRANCH   5   6
ATOM      6  C   UNL d   1       9.334   3.627 -12.804  0.00  0.00     0.067 C 
BRANCH   6   7
ATOM      7  S   UNL d   1       7.830   4.504 -12.245  0.00  0.00    -0.075 SA
BRANCH   7   8
ATOM      8  C   UNL d   1       8.595   5.943 -11.590  0.00  0.00     0.193 A 
ATOM      9  N   UNL d   1       9.107   6.007 -10.342  0.00  0.00    -0.289 N 
ATOM     10  C   UNL d   1       9.608   7.258 -10.315  0.00  0.00     0.167 A 
ATOM     11  C   UNL d   1       9.101   5.012  -9.290  0.00  0.00     0.134 C 
ATOM     12  N   UNL d   1       9.463   7.911 -11.471  0.00  0.00    -0.128 NA
ATOM     13  N   UNL d   1       8.780   7.050 -12.303  0.00  0.00    -0.122 NA
BRANCH  10  14
ATOM     14  C   UNL d   1      10.238   7.868  -9.150  0.00  0.00     0.036 A 
ATOM     15  C   UNL d   1       9.471   8.166  -8.009  0.00  0.00     0.003 A 
ATOM     16  C   UNL d   1      10.075   8.771  -6.887  0.00  0.00     0.000 A 
ATOM     17  C   UNL d   1      11.450   9.073  -6.905  0.00  0.00     0.000 A 
ATOM     18  C   UNL d   1      12.225   8.759  -8.036  0.00  0.00     0.000 A 
ATOM     19  C   UNL d   1      11.612   8.173  -9.171  0.00  0.00     0.003 A 
ENDBRANCH  10  14
ENDBRANCH   7   8
ENDBRANCH   6   7
ENDBRANCH   5   6
ENDBRANCH   4   5
ENDBRANCH   1   4
BRANCH   1  20
ATOM     20  C   UNL d   1       9.963   3.375 -17.028  0.00  0.00     0.251 C 
BRANCH  20  21
ATOM     21  C   UNL d   1       8.683   3.275 -17.869  0.00  0.00     0.038 A 
ATOM     22  C   UNL d   1       8.571   2.170 -18.891  0.00  0.00     0.026 A 
ATOM     23  C   UNL d   1       7.698   2.151 -17.644  0.00  0.00     0.007 A 
BRANCH  22  24
ATOM     24  C   UNL d   1       9.708   1.215 -19.074  0.00  0.00     0.002 A 
ATOM     25  C   UNL d   1      10.819   1.523 -19.903  0.00  0.00     0.090 A 
ATOM     26  C   UNL d   1      11.897   0.598 -19.966  0.00  0.00     0.026 A 
ATOM     27  C   UNL d   1      11.865  -0.580 -19.202  0.00  0.00     0.032 A 
ATOM     28  C   UNL d   1      10.752  -0.846 -18.393  0.00  0.00     0.140 A 
ATOM     29  C   UNL d   1       9.681   0.037 -18.339  0.00  0.00     0.027 A 
ATOM     30  F   UNL d   1      10.674  -1.954 -17.639  0.00  0.00    -0.204 F 
BRANCH  25  31
ATOM     31  O   UNL d   1      10.794   2.712 -20.600  0.00  0.00    -0.328 OA
ATOM     32  C   UNL d   1      11.901   3.023 -21.432  0.00  0.00     0.181 C 
ENDBRANCH  25  31
ENDBRANCH  22  24
ENDBRANCH  20  21
ENDBRANCH   1  20
TORSDOF 11
