REMARK  4 active torsions:
REMARK  status: ('A' for Active; 'I' for Inactive)
REMARK       I    between atoms: C_2  and  N_3 
REMARK    1  A    between atoms: C_2  and  C_26 
REMARK    2  A    between atoms: N_3  and  C_4 
REMARK    3  A    between atoms: N_10  and  S_11 
REMARK    4  A    between atoms: S_11  and  C_14 
ROOT
ATOM      1  C   UNL d   1       8.721   5.011 -11.667  0.00  0.00     0.086 A 
ATOM      2  C   UNL d   1       7.327   4.792 -11.638  0.00  0.00     0.019 A 
ATOM      3  C   UNL d   1       6.707   3.998 -12.631  0.00  0.00     0.005 A 
ATOM      4  C   UNL d   1       7.478   3.408 -13.666  0.00  0.00     0.040 A 
ATOM      5  C   UNL d   1       7.244   2.567 -14.802  0.00  0.00     0.123 A 
ATOM      6  N   UNL d   1       8.354   2.316 -15.457  0.00  0.00    -0.154 NA
ATOM      7  N   UNL d   1       9.339   2.960 -14.776  0.00  0.00    -0.152 N 
ATOM      8  C   UNL d   1       8.881   3.651 -13.666  0.00  0.00     0.098 A 
ATOM      9  C   UNL d   1       9.493   4.456 -12.697  0.00  0.00     0.039 A 
ENDROOT
BRANCH   7  10
ATOM     10  S   UNL d   1      10.944   2.850 -15.405  0.00  0.00     0.286 S 
ATOM     11  O   UNL d   1      11.837   3.452 -14.401  0.00  0.00    -0.198 OA
ATOM     12  O   UNL d   1      11.089   1.441 -15.800  0.00  0.00    -0.198 OA
BRANCH  10  13
ATOM     13  C   UNL d   1      10.949   3.925 -16.852  0.00  0.00     0.105 A 
ATOM     14  C   UNL d   1      11.912   3.787 -17.889  0.00  0.00     0.012 A 
ATOM     15  C   UNL d   1      11.866   4.689 -18.988  0.00  0.00     0.001 A 
ATOM     16  C   UNL d   1      12.927   2.799 -17.868  0.00  0.00     0.001 A 
ATOM     17  C   UNL d   1      10.886   5.700 -19.044  0.00  0.00     0.000 A 
ATOM     18  C   UNL d   1      12.801   4.585 -20.036  0.00  0.00     0.000 A 
ATOM     19  C   UNL d   1       9.947   5.833 -18.010  0.00  0.00     0.001 A 
ATOM     20  C   UNL d   1       9.985   4.958 -16.914  0.00  0.00     0.013 A 
ATOM     21  C   UNL d   1      13.791   3.586 -20.008  0.00  0.00     0.000 A 
ATOM     22  C   UNL d   1      13.852   2.694 -18.924  0.00  0.00     0.000 A 
ENDBRANCH  10  13
ENDBRANCH   7  10
BRANCH   1  23
ATOM     23  N   UNL d   1       9.381   5.840 -10.737  0.00  0.00    -0.212 NA
ATOM     24  C   UNL d   1       9.302   5.778  -9.398  0.00  0.00     0.257 C 
ATOM     25  O   UNL d   1       8.648   4.937  -8.788  0.00  0.00    -0.270 OA
BRANCH  24  26
ATOM     26  C   UNL d   1      10.168   6.812  -8.649  0.00  0.00     0.117 C 
ATOM     27  C   UNL d   1       9.461   8.175  -8.610  0.00  0.00     0.299 C 
ATOM     28  N   UNL d   1      10.282   9.171  -7.934  0.00  0.00     0.340 N 
ATOM     29  C   UNL d   1      10.476   8.809  -6.540  0.00  0.00     0.290 C 
ATOM     30  C   UNL d   1      11.261   7.500  -6.474  0.00  0.00     0.039 C 
ATOM     31  C   UNL d   1      10.523   6.389  -7.215  0.00  0.00     0.014 C 
ENDBRANCH  24  26
ENDBRANCH   1  23
TORSDOF 4
