REMARK  4 active torsions:
REMARK  status: ('A' for Active; 'I' for Inactive)
REMARK    1  A    between atoms: C_5  and  N_6 
REMARK    2  A    between atoms: N_9  and  C_10 
REMARK    3  A    between atoms: C_10  and  C_11 
REMARK    4  A    between atoms: C_13  and  C_14 
ROOT
ATOM      1  N   UNL d   1      10.562   7.830  -7.170  0.00  0.00    -0.344 N 
ATOM      2  C   UNL d   1       9.607   8.732  -7.765  0.00  0.00     0.137 C 
ATOM      3  C   UNL d   1      10.247   9.241  -9.096  0.00  0.00     0.274 C 
ATOM      4  N   UNL d   1      10.548   8.118  -9.994  0.00  0.00     0.141 N 
ATOM      5  C   UNL d   1      11.528   7.255  -9.326  0.00  0.00     0.274 C 
ATOM      6  C   UNL d   1      10.996   6.695  -7.971  0.00  0.00     0.137 C 
ENDROOT
BRANCH   4   7
ATOM      7  C   UNL d   1       9.310   7.425 -10.355  0.00  0.00     0.251 C 
BRANCH   7   8
ATOM      8  C   UNL d   1       9.527   6.090 -10.991  0.00  0.00     0.038 A 
ATOM      9  C   UNL d   1       8.358   5.163 -11.170  0.00  0.00     0.024 A 
ATOM     10  C   UNL d   1       9.420   4.798 -10.169  0.00  0.00     0.007 A 
BRANCH   9  11
ATOM     11  C   UNL d   1       8.207   4.370 -12.411  0.00  0.00    -0.022 A 
ATOM     12  C   UNL d   1       9.375   3.922 -13.095  0.00  0.00    -0.004 A 
ATOM     13  C   UNL d   1       9.267   3.134 -14.237  0.00  0.00    -0.000 A 
ATOM     14  C   UNL d   1       7.996   2.778 -14.716  0.00  0.00    -0.000 A 
ATOM     15  C   UNL d   1       6.837   3.202 -14.043  0.00  0.00    -0.000 A 
ATOM     16  C   UNL d   1       6.935   3.991 -12.889  0.00  0.00    -0.004 A 
ENDBRANCH   9  11
ENDBRANCH   7   8
ENDBRANCH   4   7
BRANCH   1  17
ATOM     17  C   UNL d   1      11.032   7.973  -5.833  0.00  0.00     0.052 A 
ATOM     18  C   UNL d   1      11.093   6.819  -5.003  0.00  0.00     0.016 A 
ATOM     19  C   UNL d   1      11.556   6.878  -3.692  0.00  0.00    -0.003 A 
ATOM     20  C   UNL d   1      11.970   8.125  -3.180  0.00  0.00    -0.022 A 
ATOM     21  C   UNL d   1      12.463   8.273  -1.768  0.00  0.00     0.031 C 
ATOM     22  C   UNL d   1      11.915   9.273  -4.013  0.00  0.00    -0.007 A 
ATOM     23  C   UNL d   1      11.444   9.226  -5.343  0.00  0.00    -0.007 A 
ATOM     24  C   UNL d   1      11.541  10.502  -6.161  0.00  0.00     0.033 C 
ENDBRANCH   1  17
TORSDOF 4
