REMARK  10 active torsions:
REMARK  status: ('A' for Active; 'I' for Inactive)
REMARK    1  A    between atoms: O_2  and  C_3 
REMARK    2  A    between atoms: C_6  and  C_7 
REMARK    3  A    between atoms: C_9  and  C_10 
REMARK    4  A    between atoms: C_10  and  C_11 
REMARK    5  A    between atoms: C_11  and  C_12 
REMARK    6  A    between atoms: C_12  and  C_13 
REMARK    7  A    between atoms: C_13  and  N_14 
REMARK    8  A    between atoms: N_17  and  C_18 
REMARK    9  A    between atoms: C_23  and  O_24 
REMARK   10  A    between atoms: C_31  and  O_32 
ROOT
ATOM      1  C   UNL d   1       7.237   0.038 -15.903  0.00  0.00     0.009 C 
ENDROOT
BRANCH   1   2
ATOM      2  C   UNL d   1       7.481  -0.323 -17.378  0.00  0.00     0.054 C 
BRANCH   2   3
ATOM      3  C   UNL d   1       8.903  -0.132 -17.800  0.00  0.00     0.104 A 
ATOM      4  C   UNL d   1       9.587   0.939 -18.298  0.00  0.00     0.044 A 
ATOM      5  C   UNL d   1      10.920   0.461 -18.454  0.00  0.00     0.110 A 
ATOM      6  N   UNL d   1      11.019  -0.804 -18.066  0.00  0.00    -0.127 NA
ATOM      7  O   UNL d   1       9.744  -1.185 -17.637  0.00  0.00    -0.215 OA
BRANCH   5   8
ATOM      8  C   UNL d   1      12.095   1.191 -18.948  0.00  0.00     0.022 A 
ATOM      9  C   UNL d   1      12.061   2.598 -19.039  0.00  0.00     0.004 A 
ATOM     10  C   UNL d   1      13.174   3.312 -19.515  0.00  0.00     0.026 A 
ATOM     11  C   UNL d   1      14.348   2.630 -19.916  0.00  0.00     0.116 A 
ATOM     12  C   UNL d   1      14.395   1.220 -19.834  0.00  0.00     0.116 A 
ATOM     13  C   UNL d   1      13.265   0.511 -19.354  0.00  0.00     0.028 A 
BRANCH  11  14
ATOM     14  O   UNL d   1      15.473   3.268 -20.395  0.00  0.00    -0.326 OA
ATOM     15  C   UNL d   1      15.462   4.685 -20.488  0.00  0.00     0.181 C 
ENDBRANCH  11  14
BRANCH  12  16
ATOM     16  O   UNL d   1      15.567   0.609 -20.235  0.00  0.00    -0.326 OA
ATOM     17  C   UNL d   1      15.625  -0.808 -20.241  0.00  0.00     0.181 C 
ENDBRANCH  12  16
ENDBRANCH   5   8
ENDBRANCH   2   3
ENDBRANCH   1   2
BRANCH   1  18
ATOM     18  C   UNL d   1       7.185   1.552 -15.658  0.00  0.00     0.036 C 
BRANCH  18  19
ATOM     19  C   UNL d   1       7.153   1.903 -14.166  0.00  0.00     0.250 C 
BRANCH  19  20
ATOM     20  N   UNL d   1       7.322   3.342 -13.963  0.00  0.00     0.141 N 
ATOM     21  C   UNL d   1       6.661   3.756 -12.712  0.00  0.00     0.274 C 
ATOM     22  C   UNL d   1       6.817   5.268 -12.471  0.00  0.00     0.137 C 
ATOM     23  N   UNL d   1       8.216   5.661 -12.545  0.00  0.00    -0.343 N 
ATOM     24  C   UNL d   1       8.954   5.195 -13.704  0.00  0.00     0.137 C 
ATOM     25  C   UNL d   1       8.757   3.680 -13.887  0.00  0.00     0.274 C 
BRANCH  23  26
ATOM     26  C   UNL d   1       8.848   6.353 -11.490  0.00  0.00     0.079 A 
ATOM     27  C   UNL d   1       8.885   5.826 -10.176  0.00  0.00     0.110 A 
ATOM     28  C   UNL d   1       9.532   6.562  -9.144  0.00  0.00     0.026 A 
ATOM     29  C   UNL d   1      10.135   7.799  -9.416  0.00  0.00     0.002 A 
ATOM     30  C   UNL d   1      10.099   8.302 -10.719  0.00  0.00     0.002 A 
ATOM     31  C   UNL d   1       9.457   7.596 -11.755  0.00  0.00     0.019 A 
BRANCH  27  32
ATOM     32  O   UNL d   1       8.281   4.611  -9.961  0.00  0.00    -0.327 OA
ATOM     33  C   UNL d   1       8.368   4.062  -8.662  0.00  0.00     0.181 C 
ENDBRANCH  27  32
ENDBRANCH  23  26
ENDBRANCH  19  20
ENDBRANCH  18  19
ENDBRANCH   1  18
TORSDOF 10
