REMARK  6 active torsions:
REMARK  status: ('A' for Active; 'I' for Inactive)
REMARK    1  A    between atoms: S_2  and  C_4 
REMARK    2  A    between atoms: S_2  and  N_14 
REMARK    3  A    between atoms: C_18  and  C_19 
REMARK    4  A    between atoms: C_19  and  C_20 
REMARK    5  A    between atoms: C_20  and  N_21 
REMARK    6  A    between atoms: N_24  and  C_25 
ROOT
ATOM      1  N   UNL d   1      14.838   8.050 -19.833  0.00  0.00    -0.276 N 
ATOM      2  C   UNL d   1      14.633   7.248 -21.067  0.00  0.00     0.113 C 
ATOM      3  C   UNL d   1      13.362   7.824 -21.682  0.00  0.00     0.027 C 
ATOM      4  C   UNL d   1      12.492   8.130 -20.467  0.00  0.00     0.025 C 
ATOM      5  C   UNL d   1      13.488   8.437 -19.327  0.00  0.00     0.094 C 
ENDROOT
BRANCH   5   6
ATOM      6  C   UNL d   1      13.163   7.662 -18.047  0.00  0.00     0.058 C 
BRANCH   6   7
ATOM      7  C   UNL d   1      13.275   6.126 -18.213  0.00  0.00     0.252 C 
BRANCH   7   8
ATOM      8  N   UNL d   1      12.749   5.395 -17.066  0.00  0.00     0.141 N 
ATOM      9  C   UNL d   1      11.283   5.432 -17.093  0.00  0.00     0.274 C 
ATOM     10  C   UNL d   1      10.719   4.687 -15.880  0.00  0.00     0.138 C 
ATOM     11  N   UNL d   1      11.221   3.326 -15.845  0.00  0.00    -0.328 N 
ATOM     12  C   UNL d   1      12.653   3.192 -15.959  0.00  0.00     0.138 C 
ATOM     13  C   UNL d   1      13.174   3.993 -17.168  0.00  0.00     0.274 C 
BRANCH  11  14
ATOM     14  C   UNL d   1      10.373   2.191 -15.748  0.00  0.00     0.169 A 
ATOM     15  C   UNL d   1       9.100   2.154 -15.163  0.00  0.00     0.061 A 
ATOM     16  C   UNL d   1       8.604   0.846 -15.277  0.00  0.00     0.128 A 
ATOM     17  C   UNL d   1       8.304   3.124 -14.506  0.00  0.00     0.005 A 
ATOM     18  O   UNL d   1       9.607   0.130 -15.913  0.00  0.00    -0.210 OA
ATOM     19  C   UNL d   1       7.343   0.465 -14.793  0.00  0.00     0.027 A 
ATOM     20  N   UNL d   1      10.711   0.989 -16.193  0.00  0.00    -0.109 NA
ATOM     21  C   UNL d   1       6.546   1.453 -14.174  0.00  0.00     0.002 A 
ATOM     22  C   UNL d   1       7.023   2.780 -14.048  0.00  0.00     0.000 A 
ENDBRANCH  11  14
ENDBRANCH   7   8
ENDBRANCH   6   7
ENDBRANCH   5   6
BRANCH   1  23
ATOM     23  S   UNL d   1      16.154   9.222 -19.672  0.00  0.00     0.266 S 
ATOM     24  O   UNL d   1      15.937   9.963 -18.429  0.00  0.00    -0.200 OA
ATOM     25  O   UNL d   1      16.259   9.982 -20.930  0.00  0.00    -0.200 OA
BRANCH  23  26
ATOM     26  C   UNL d   1      17.659   8.223 -19.442  0.00  0.00     0.122 A 
ATOM     27  C   UNL d   1      18.225   7.458 -20.489  0.00  0.00     0.015 A 
ATOM     28  C   UNL d   1      19.388   6.678 -20.201  0.00  0.00     0.020 A 
ATOM     29  C   UNL d   1      17.742   7.454 -21.809  0.00  0.00     0.001 C 
ATOM     30  C   UNL d   1      19.958   6.788 -18.919  0.00  0.00     0.099 A 
ATOM     31  C   UNL d   1      19.964   5.874 -21.206  0.00  0.00     0.002 C 
ATOM     32  N   UNL d   1      19.443   7.550 -17.932  0.00  0.00    -0.242 NA
ATOM     33  C   UNL d   1      18.312   8.244 -18.187  0.00  0.00     0.112 A 
ATOM     34  C   UNL d   1      19.367   5.778 -22.477  0.00  0.00     0.000 C 
ATOM     35  C   UNL d   1      18.220   6.557 -22.764  0.00  0.00     0.000 C 
ENDBRANCH  23  26
ENDBRANCH   1  23
TORSDOF 6
