REMARK  7 active torsions:
REMARK  status: ('A' for Active; 'I' for Inactive)
REMARK       I    between atoms: C_2  and  N_3 
REMARK    1  A    between atoms: C_2  and  C_22 
REMARK    2  A    between atoms: N_3  and  C_4 
REMARK    3  A    between atoms: C_4  and  C_5 
REMARK    4  A    between atoms: C_5  and  C_6 
REMARK    5  A    between atoms: C_6  and  C_7 
REMARK    6  A    between atoms: C_7  and  N_8 
REMARK    7  A    between atoms: N_11  and  C_12 
ROOT
ATOM      1  C   UNL d   1      11.103   4.652 -16.196  0.00  0.00     0.037 C 
ENDROOT
BRANCH   1   2
ATOM      2  C   UNL d   1      11.053   5.238 -14.770  0.00  0.00     0.029 C 
BRANCH   2   3
ATOM      3  C   UNL d   1       9.701   5.143 -14.025  0.00  0.00     0.129 C 
BRANCH   3   4
ATOM      4  N   UNL d   1       9.581   5.903 -12.842  0.00  0.00    -0.233 NA
ATOM      5  C   UNL d   1       9.075   5.459 -11.685  0.00  0.00     0.293 C 
ATOM      6  O   UNL d   1       8.443   4.412 -11.571  0.00  0.00    -0.264 OA
BRANCH   5   7
ATOM      7  C   UNL d   1       9.450   6.271 -10.518  0.00  0.00     0.139 A 
ATOM      8  N   UNL d   1       9.082   5.845  -9.279  0.00  0.00    -0.241 NA
ATOM      9  C   UNL d   1       9.529   6.738  -8.323  0.00  0.00     0.082 A 
ATOM     10  C   UNL d   1      10.243   7.739  -9.030  0.00  0.00     0.020 A 
ATOM     11  C   UNL d   1       9.384   6.776  -6.931  0.00  0.00     0.020 A 
ATOM     12  C   UNL d   1      10.187   7.420 -10.408  0.00  0.00     0.025 A 
ATOM     13  C   UNL d   1      10.825   8.783  -8.288  0.00  0.00     0.008 A 
ATOM     14  C   UNL d   1      10.688   8.832  -6.887  0.00  0.00     0.035 A 
ATOM     15 BR   UNL d   1      11.461  10.255  -5.903  0.00  0.00    -0.049 Br
ATOM     16  C   UNL d   1       9.974   7.825  -6.218  0.00  0.00     0.008 A 
ENDBRANCH   5   7
ENDBRANCH   3   4
ENDBRANCH   2   3
ENDBRANCH   1   2
BRANCH   1  17
ATOM     17  C   UNL d   1      11.259   3.109 -16.250  0.00  0.00     0.251 C 
BRANCH  17  18
ATOM     18  N   UNL d   1      10.187   2.400 -15.560  0.00  0.00     0.141 N 
ATOM     19  C   UNL d   1       8.848   2.953 -15.953  0.00  0.00     0.274 C 
ATOM     20  C   UNL d   1       7.788   2.280 -15.033  0.00  0.00     0.137 C 
ATOM     21  N   UNL d   1       7.821   0.850 -15.216  0.00  0.00    -0.344 N 
ATOM     22  C   UNL d   1       9.119   0.222 -15.074  0.00  0.00     0.137 C 
ATOM     23  C   UNL d   1      10.217   0.968 -15.883  0.00  0.00     0.274 C 
BRANCH  21  24
ATOM     24  C   UNL d   1       6.675   0.165 -15.637  0.00  0.00     0.068 A 
ATOM     25  C   UNL d   1       5.545   0.071 -14.789  0.00  0.00     0.084 A 
ATOM     26  C   UNL d   1       4.424  -0.675 -15.199  0.00  0.00     0.070 A 
ATOM     27 CL   UNL d   1       5.531   0.830 -13.241  0.00  0.00    -0.080 Cl
ATOM     28  C   UNL d   1       4.407  -1.300 -16.455  0.00  0.00     0.012 A 
ATOM     29 CL   UNL d   1       3.062  -0.873 -14.156  0.00  0.00    -0.081 Cl
ATOM     30  C   UNL d   1       5.517  -1.182 -17.311  0.00  0.00     0.002 A 
ATOM     31  C   UNL d   1       6.648  -0.446 -16.909  0.00  0.00     0.018 A 
ENDBRANCH  21  24
ENDBRANCH  17  18
ENDBRANCH   1  17
TORSDOF 7
