REMARK  9 active torsions:
REMARK  status: ('A' for Active; 'I' for Inactive)
REMARK    1  A    between atoms: O_2  and  C_3 
REMARK    2  A    between atoms: C_8  and  C_9 
REMARK    3  A    between atoms: C_11  and  C_12 
REMARK    4  A    between atoms: C_12  and  N_13 
REMARK    5  A    between atoms: N_13  and  C_14 
REMARK    6  A    between atoms: C_14  and  C_15 
REMARK    7  A    between atoms: C_15  and  C_16 
REMARK    8  A    between atoms: C_19  and  N_20 
REMARK       I    between atoms: N_20  and  C_21 
REMARK    9  A    between atoms: C_21  and  C_23 
ROOT
ATOM      1  C   UNL d   1       9.062   5.404 -10.807  0.00  0.00     0.002 C 
ATOM      2  C   UNL d   1       9.653   6.822 -10.922  0.00  0.00     0.002 C 
ATOM      3  C   UNL d   1      10.518   7.190  -9.719  0.00  0.00     0.024 C 
ATOM      4  C   UNL d   1       9.723   7.057  -8.416  0.00  0.00     0.107 C 
ATOM      5  C   UNL d   1       9.131   5.647  -8.281  0.00  0.00     0.024 C 
ATOM      6  C   UNL d   1       8.282   5.285  -9.498  0.00  0.00     0.002 C 
ENDROOT
BRANCH   1   7
ATOM      7  C   UNL d   1       8.159   5.097 -12.011  0.00  0.00     0.038 C 
BRANCH   7   8
ATOM      8  C   UNL d   1       8.947   4.883 -13.307  0.00  0.00     0.290 C 
BRANCH   8   9
ATOM      9  N   UNL d   1       9.598   3.581 -13.257  0.00  0.00     0.339 N 
BRANCH   9  10
ATOM     10  C   UNL d   1       9.859   3.050 -14.583  0.00  0.00     0.290 C 
BRANCH  10  11
ATOM     11  C   UNL d   1       8.561   2.599 -15.240  0.00  0.00     0.041 A 
ATOM     12  C   UNL d   1       8.342   1.162 -15.656  0.00  0.00     0.026 A 
ATOM     13  C   UNL d   1       8.541   2.233 -16.706  0.00  0.00     0.007 A 
BRANCH  12  14
ATOM     14  C   UNL d   1       6.993   0.538 -15.426  0.00  0.00    -0.000 A 
ATOM     15  C   UNL d   1       6.374  -0.187 -16.461  0.00  0.00     0.090 A 
ATOM     16  C   UNL d   1       5.082  -0.744 -16.233  0.00  0.00     0.024 A 
ATOM     17  C   UNL d   1       4.439  -0.568 -14.996  0.00  0.00     0.002 A 
ATOM     18  C   UNL d   1       5.069   0.155 -13.968  0.00  0.00    -0.000 A 
ATOM     19  C   UNL d   1       6.345   0.704 -14.190  0.00  0.00    -0.002 A 
BRANCH  15  20
ATOM     20  O   UNL d   1       7.057  -0.305 -17.649  0.00  0.00    -0.328 OA
ATOM     21  C   UNL d   1       6.550  -1.193 -18.629  0.00  0.00     0.181 C 
ENDBRANCH  15  20
ENDBRANCH  12  14
ENDBRANCH  10  11
ENDBRANCH   9  10
ENDBRANCH   8   9
ENDBRANCH   7   8
ENDBRANCH   1   7
BRANCH   4  22
ATOM     22  N   UNL d   1      10.582   7.296  -7.272  0.00  0.00    -0.236 NA
ATOM     23  C   UNL d   1      10.788   8.471  -6.678  0.00  0.00     0.275 C 
ATOM     24  O   UNL d   1      10.517   9.557  -7.198  0.00  0.00    -0.266 OA
BRANCH  23  25
ATOM     25  C   UNL d   1      11.316   8.391  -5.272  0.00  0.00     0.058 A 
ATOM     26  C   UNL d   1      11.521   9.570  -4.530  0.00  0.00     0.005 A 
ATOM     27  C   UNL d   1      11.988   9.504  -3.204  0.00  0.00     0.000 A 
ATOM     28  C   UNL d   1      12.261   8.262  -2.601  0.00  0.00     0.000 A 
ATOM     29  C   UNL d   1      12.029   7.077  -3.320  0.00  0.00     0.000 A 
ATOM     30  C   UNL d   1      11.552   7.137  -4.640  0.00  0.00     0.005 A 
ENDBRANCH  23  25
ENDBRANCH   4  22
TORSDOF 9
