REMARK  5 active torsions:
REMARK  status: ('A' for Active; 'I' for Inactive)
REMARK    1  A    between atoms: S_2  and  C_4 
REMARK    2  A    between atoms: S_2  and  N_11 
REMARK    3  A    between atoms: C_14  and  C_15 
REMARK    4  A    between atoms: C_15  and  C_16 
REMARK    5  A    between atoms: C_16  and  C_17 
ROOT
ATOM      1  N   UNL d   1       8.492   5.622 -10.783  0.00  0.00    -0.275 N 
ATOM      2  C   UNL d   1       9.917   5.587 -11.033  0.00  0.00     0.113 C 
ATOM      3  C   UNL d   1      10.701   6.662 -10.261  0.00  0.00     0.025 C 
ATOM      4  C   UNL d   1      10.445   6.650  -8.753  0.00  0.00     0.004 C 
ATOM      5  C   UNL d   1       8.940   6.761  -8.598  0.00  0.00     0.025 C 
ATOM      6  C   UNL d   1       8.142   5.704  -9.367  0.00  0.00     0.113 C 
ENDROOT
BRANCH   1   7
ATOM      7  S   UNL d   1       7.363   5.946 -12.072  0.00  0.00     0.264 S 
ATOM      8  O   UNL d   1       7.897   7.078 -12.831  0.00  0.00    -0.200 OA
ATOM      9  O   UNL d   1       5.975   5.995 -11.585  0.00  0.00    -0.200 OA
BRANCH   7  10
ATOM     10  C   UNL d   1       7.463   4.476 -13.075  0.00  0.00     0.103 A 
ATOM     11  C   UNL d   1       8.678   4.131 -13.699  0.00  0.00     0.015 A 
ATOM     12  C   UNL d   1       8.755   2.956 -14.460  0.00  0.00     0.030 A 
ATOM     13  C   UNL d   1       7.618   2.151 -14.645  0.00  0.00     0.140 A 
ATOM     14  C   UNL d   1       6.394   2.508 -14.039  0.00  0.00     0.030 A 
ATOM     15  F   UNL d   1       7.688   1.052 -15.430  0.00  0.00    -0.204 F 
ATOM     16  C   UNL d   1       6.310   3.666 -13.235  0.00  0.00     0.015 A 
ENDBRANCH   7  10
ENDBRANCH   1   7
BRANCH   4  17
ATOM     17  C   UNL d   1      11.241   7.793  -8.080  0.00  0.00     0.005 C 
BRANCH  17  18
ATOM     18  C   UNL d   1      10.484   8.632  -7.005  0.00  0.00     0.029 C 
BRANCH  18  19
ATOM     19  C   UNL d   1      11.078   8.433  -5.629  0.00  0.00     0.005 A 
ATOM     20  C   UNL d   1      11.349   9.554  -4.832  0.00  0.00     0.138 A 
ATOM     21  C   UNL d   1      11.877   9.392  -3.543  0.00  0.00     0.059 A 
ATOM     22  F   UNL d   1      11.059  10.785  -5.289  0.00  0.00    -0.204 F 
ATOM     23  C   UNL d   1      12.144   8.098  -3.047  0.00  0.00     0.142 A 
ATOM     24  C   UNL d   1      11.860   6.965  -3.841  0.00  0.00     0.029 A 
ATOM     25  F   UNL d   1      12.656   7.949  -1.807  0.00  0.00    -0.204 F 
ATOM     26  C   UNL d   1      11.322   7.133  -5.133  0.00  0.00     0.000 A 
ENDBRANCH  18  19
ENDBRANCH  17  18
ENDBRANCH   4  17
TORSDOF 5
