REMARK  9 active torsions:
REMARK  status: ('A' for Active; 'I' for Inactive)
REMARK    1  A    between atoms: C_2  and  C_3 
REMARK    2  A    between atoms: C_8  and  C_9 
REMARK    3  A    between atoms: N_16  and  C_17 
REMARK    4  A    between atoms: C_17  and  C_18 
REMARK    5  A    between atoms: C_18  and  C_19 
REMARK    6  A    between atoms: C_19  and  C_20 
REMARK    7  A    between atoms: C_20  and  C_21 
REMARK    8  A    between atoms: C_21  and  C_22 
REMARK    9  A    between atoms: C_21  and  C_29 
ROOT
ATOM      1  C   UNL d   1       8.745   4.725 -12.017  0.00  0.00     0.250 C 
ENDROOT
BRANCH   1   2
ATOM      2  N   UNL d   1       9.466   5.368 -10.926  0.00  0.00     0.137 N 
ATOM      3  C   UNL d   1       9.223   4.683  -9.653  0.00  0.00     0.253 C 
ATOM      4  C   UNL d   1       9.993   5.361  -8.510  0.00  0.00     0.070 C 
ATOM      5  C   UNL d   1       9.639   6.811  -8.307  0.00  0.00     0.149 C 
ATOM      6  O   UNL d   1       8.358   6.686  -7.758  0.00  0.00    -0.221 OA
ATOM      7  C   UNL d   1       9.704   7.489  -9.707  0.00  0.00     0.070 C 
ATOM      8  C   UNL d   1       8.987   6.731 -10.827  0.00  0.00     0.253 C 
BRANCH   5   9
ATOM      9  C   UNL d   1      10.525   7.502  -7.245  0.00  0.00     0.005 A 
ATOM     10  C   UNL d   1      10.620   6.959  -5.929  0.00  0.00     0.003 A 
ATOM     11  C   UNL d   1      11.373   7.628  -4.911  0.00  0.00     0.082 A 
ATOM     12  C   UNL d   1      11.990   8.843  -5.249  0.00  0.00     0.062 A 
ATOM     13  C   UNL d   1      11.893   9.392  -6.529  0.00  0.00     0.011 A 
ATOM     14 CL   UNL d   1      13.057   9.569  -4.141  0.00  0.00    -0.082 Cl
ATOM     15  C   UNL d   1      11.188   8.720  -7.526  0.00  0.00    -0.001 A 
BRANCH  11  16
ATOM     16  C   UNL d   1      11.563   7.097  -3.479  0.00  0.00     0.420 C 
ATOM     17  F   UNL d   1      10.650   6.233  -3.323  0.00  0.00    -0.166 F 
ATOM     18  F   UNL d   1      12.682   6.457  -3.281  0.00  0.00    -0.166 F 
ATOM     19  F   UNL d   1      11.466   8.004  -2.495  0.00  0.00    -0.166 F 
ENDBRANCH  11  16
ENDBRANCH   5   9
ENDBRANCH   1   2
BRANCH   1  20
ATOM     20  C   UNL d   1       9.750   3.905 -12.826  0.00  0.00     0.035 C 
BRANCH  20  21
ATOM     21  C   UNL d   1       9.030   3.333 -14.041  0.00  0.00     0.003 C 
BRANCH  21  22
ATOM     22  C   UNL d   1       9.962   2.487 -14.947  0.00  0.00     0.009 C 
BRANCH  22  23
ATOM     23  C   UNL d   1       9.278   1.855 -16.193  0.00  0.00     0.044 C 
BRANCH  23  24
ATOM     24  C   UNL d   1       8.005   1.054 -15.867  0.00  0.00    -0.018 A 
ATOM     25  C   UNL d   1       7.006   0.891 -16.855  0.00  0.00    -0.002 A 
ATOM     26  C   UNL d   1       5.841   0.138 -16.579  0.00  0.00     0.029 A 
ATOM     27  C   UNL d   1       5.644  -0.419 -15.297  0.00  0.00     0.140 A 
ATOM     28  C   UNL d   1       6.634  -0.264 -14.311  0.00  0.00     0.029 A 
ATOM     29  F   UNL d   1       4.507  -1.105 -15.015  0.00  0.00    -0.204 F 
ATOM     30  C   UNL d   1       7.822   0.430 -14.605  0.00  0.00    -0.002 A 
ENDBRANCH  23  24
BRANCH  23  31
ATOM     31  C   UNL d   1      10.264   1.055 -17.054  0.00  0.00    -0.018 A 
ATOM     32  C   UNL d   1      11.448   1.663 -17.537  0.00  0.00    -0.002 A 
ATOM     33  C   UNL d   1      12.353   0.944 -18.347  0.00  0.00     0.029 A 
ATOM     34  C   UNL d   1      12.082  -0.391 -18.699  0.00  0.00     0.140 A 
ATOM     35  C   UNL d   1      10.899  -0.995 -18.241  0.00  0.00     0.029 A 
ATOM     36  F   UNL d   1      12.961  -1.101 -19.452  0.00  0.00    -0.204 F 
ATOM     37  C   UNL d   1      10.010  -0.290 -17.416  0.00  0.00    -0.002 A 
ENDBRANCH  23  31
ENDBRANCH  22  23
ENDBRANCH  21  22
ENDBRANCH  20  21
ENDBRANCH   1  20
TORSDOF 9
