REMARK  2 active torsions:
REMARK  status: ('A' for Active; 'I' for Inactive)
REMARK    1  A    between atoms: N_13  and  C_14 
REMARK    2  A    between atoms: C_14  and  C_15 
ROOT
ATOM      1  N   UNL d   1      11.429  10.261  -5.625  0.00  0.00    -0.120 N 
ATOM      2  C   UNL d   1      11.084   9.289  -6.537  0.00  0.00     0.215 A 
ATOM      3  N   UNL d   1      11.002   9.540  -7.839  0.00  0.00    -0.219 NA
ATOM      4  C   UNL d   1      10.520   8.423  -8.507  0.00  0.00     0.089 A 
ATOM      5  C   UNL d   1      10.216   8.318  -9.887  0.00  0.00     0.015 A 
ATOM      6  C   UNL d   1       9.765   7.104 -10.451  0.00  0.00    -0.022 A 
ATOM      7  C   UNL d   1       9.636   5.971  -9.626  0.00  0.00    -0.024 A 
ATOM      8  C   UNL d   1       9.898   6.059  -8.245  0.00  0.00     0.004 A 
ATOM      9  C   UNL d   1      10.328   7.269  -7.694  0.00  0.00     0.050 A 
ATOM     10  S   UNL d   1      10.706   7.649  -6.018  0.00  0.00    -0.045 SA
ATOM     11  C   UNL d   1       9.214   4.649 -10.204  0.00  0.00     0.061 C 
ATOM     12  C   UNL d   1       7.843   4.678 -10.887  0.00  0.00     0.255 C 
ATOM     13  N   UNL d   1       7.828   5.150 -12.262  0.00  0.00     0.142 N 
ATOM     14  C   UNL d   1       8.014   6.600 -12.297  0.00  0.00     0.255 C 
ATOM     15  C   UNL d   1       9.453   7.014 -11.941  0.00  0.00     0.061 C 
ENDROOT
BRANCH  13  16
ATOM     16  C   UNL d   1       6.503   4.809 -12.788  0.00  0.00     0.277 C 
BRANCH  16  17
ATOM     17  C   UNL d   1       6.393   3.384 -13.296  0.00  0.00     0.014 A 
ATOM     18  C   UNL d   1       7.210   2.927 -14.349  0.00  0.00     0.018 A 
ATOM     19  C   UNL d   1       7.064   1.599 -14.795  0.00  0.00     0.099 A 
ATOM     20  N   UNL d   1       6.183   0.732 -14.253  0.00  0.00    -0.243 NA
ATOM     21  C   UNL d   1       5.407   1.178 -13.247  0.00  0.00     0.099 A 
ATOM     22  C   UNL d   1       5.460   2.490 -12.740  0.00  0.00     0.018 A 
ENDBRANCH  16  17
ENDBRANCH  13  16
TORSDOF 2
