REMARK  7 active torsions:
REMARK  status: ('A' for Active; 'I' for Inactive)
REMARK    1  A    between atoms: C_2  and  C_3 
REMARK    2  A    between atoms: C_3  and  N_4 
REMARK    3  A    between atoms: N_4  and  C_5 
REMARK    4  A    between atoms: N_4  and  C_8 
REMARK    5  A    between atoms: C_5  and  C_6 
REMARK    6  A    between atoms: C_8  and  C_9 
REMARK    7  A    between atoms: C_16  and  O_17 
ROOT
ATOM      1  C   UNL d   1       8.973   3.740 -13.448  0.00  0.00     0.068 C 
ATOM      2  C   UNL d   1       7.805   2.934 -14.030  0.00  0.00     0.151 C 
ATOM      3  O   UNL d   1       8.243   1.654 -14.474  0.00  0.00    -0.331 OA
ATOM      4  C   UNL d   1       9.369   1.629 -15.263  0.00  0.00     0.092 A 
ATOM      5  C   UNL d   1       9.612   0.454 -15.998  0.00  0.00     0.024 A 
ATOM      6  C   UNL d   1      10.731   0.370 -16.839  0.00  0.00     0.004 A 
ATOM      7  C   UNL d   1      11.624   1.447 -16.949  0.00  0.00     0.024 A 
ATOM      8  C   UNL d   1      11.415   2.644 -16.202  0.00  0.00     0.092 A 
ATOM      9  C   UNL d   1      10.284   2.711 -15.358  0.00  0.00     0.022 A 
ATOM     10  C   UNL d   1      10.041   3.969 -14.528  0.00  0.00     0.035 C 
ENDROOT
BRANCH   1  11
ATOM     11  C   UNL d   1       8.506   5.077 -12.818  0.00  0.00     0.253 C 
BRANCH  11  12
ATOM     12  N   UNL d   1       9.355   5.550 -11.716  0.00  0.00     0.137 N 
BRANCH  12  13
ATOM     13  C   UNL d   1       8.875   6.877 -11.342  0.00  0.00     0.250 C 
BRANCH  13  14
ATOM     14  C   UNL d   1       9.454   7.999 -12.197  0.00  0.00     0.035 C 
ATOM     15  C   UNL d   1       8.500   9.184 -12.252  0.00  0.00     0.002 C 
ENDBRANCH  13  14
ENDBRANCH  12  13
BRANCH  12  16
ATOM     16  C   UNL d   1       9.212   4.636 -10.577  0.00  0.00     0.250 C 
BRANCH  16  17
ATOM     17  C   UNL d   1       9.837   5.125  -9.266  0.00  0.00     0.035 C 
ATOM     18  C   UNL d   1       8.816   5.701  -8.270  0.00  0.00     0.002 C 
ENDBRANCH  16  17
ENDBRANCH  12  16
ENDBRANCH  11  12
ENDBRANCH   1  11
BRANCH   8  19
ATOM     19  O   UNL d   1      12.258   3.733 -16.251  0.00  0.00    -0.328 OA
ATOM     20  C   UNL d   1      13.238   3.764 -17.283  0.00  0.00     0.181 C 
ENDBRANCH   8  19
TORSDOF 7
