REMARK  6 active torsions:
REMARK  status: ('A' for Active; 'I' for Inactive)
REMARK    1  A    between atoms: C_7  and  C_8 
REMARK    2  A    between atoms: C_8  and  C_9 
REMARK    3  A    between atoms: C_9  and  C_10 
REMARK    4  A    between atoms: C_10  and  N_11 
REMARK       I    between atoms: N_11  and  C_12 
REMARK       I    between atoms: N_14  and  C_15 
REMARK       I    between atoms: C_15  and  N_17 
REMARK    5  A    between atoms: N_17  and  C_18 
REMARK    6  A    between atoms: C_18  and  C_20 
ROOT
ATOM      1  N   UNL d   1       8.114   5.987 -10.843  0.00  0.00    -0.084 NA
ATOM      2  C   UNL d   1       7.369   5.429 -11.852  0.00  0.00     0.768 C 
ATOM      3  N   UNL d   1       6.201   6.123 -12.054  0.00  0.00     0.062 N 
ATOM      4  N   UNL d   1       7.769   4.372 -12.493  0.00  0.00     0.001 NA
ATOM      5  C   UNL d   1       6.966   3.738 -13.423  0.00  0.00     0.380 C 
ATOM      6  O   UNL d   1       5.775   3.945 -13.684  0.00  0.00    -0.242 OA
ATOM      7  N   UNL d   1       7.672   2.797 -14.053  0.00  0.00    -0.214 NA
ENDROOT
BRANCH   1   8
ATOM      8  C   UNL d   1       9.344   5.436 -10.300  0.00  0.00     0.145 C 
BRANCH   8   9
ATOM      9  C   UNL d   1       9.736   6.095  -8.977  0.00  0.00     0.032 C 
BRANCH   9  10
ATOM     10  C   UNL d   1      10.012   7.596  -9.131  0.00  0.00     0.036 C 
BRANCH  10  11
ATOM     11  C   UNL d   1      10.616   8.191  -7.905  0.00  0.00     0.023 A 
ATOM     12  C   UNL d   1      11.892   8.666  -7.753  0.00  0.00     0.063 A 
ATOM     13  C   UNL d   1      12.969   8.651  -8.783  0.00  0.00     0.052 C 
ATOM     14  N   UNL d   1      12.140   9.227  -6.498  0.00  0.00    -0.230 NA
ATOM     15  C   UNL d   1      11.086   9.142  -5.695  0.00  0.00     0.180 A 
ATOM     16  N   UNL d   1      11.062   9.616  -4.398  0.00  0.00    -0.072 NA
ATOM     17  S   UNL d   1       9.697   8.369  -6.437  0.00  0.00    -0.057 SA
ENDBRANCH  10  11
ENDBRANCH   9  10
ENDBRANCH   8   9
ENDBRANCH   1   8
BRANCH   7  18
ATOM     18  C   UNL d   1       7.167   1.860 -15.059  0.00  0.00     0.131 C 
ATOM     19  C   UNL d   1       6.779   0.537 -14.384  0.00  0.00     0.031 C 
BRANCH  18  20
ATOM     20  C   UNL d   1       8.164   1.638 -16.189  0.00  0.00     0.002 A 
ATOM     21  C   UNL d   1       9.553   1.583 -15.931  0.00  0.00     0.027 A 
ATOM     22  C   UNL d   1      10.462   1.373 -16.982  0.00  0.00     0.140 A 
ATOM     23  C   UNL d   1       9.992   1.206 -18.297  0.00  0.00     0.030 A 
ATOM     24  F   UNL d   1      11.789   1.324 -16.729  0.00  0.00    -0.204 F 
ATOM     25  C   UNL d   1       8.611   1.257 -18.564  0.00  0.00     0.002 A 
ATOM     26  C   UNL d   1       7.697   1.471 -17.512  0.00  0.00    -0.002 A 
ENDBRANCH  18  20
ENDBRANCH   7  18
TORSDOF 6
