REMARK  12 active torsions:
REMARK  status: ('A' for Active; 'I' for Inactive)
REMARK    1  A    between atoms: C_2  and  C_3 
REMARK    2  A    between atoms: C_3  and  N_4 
REMARK    3  A    between atoms: N_4  and  C_5 
REMARK    4  A    between atoms: N_4  and  C_24 
REMARK    5  A    between atoms: C_5  and  C_6 
REMARK    6  A    between atoms: C_6  and  C_7 
REMARK    7  A    between atoms: C_7  and  C_8 
REMARK    8  A    between atoms: C_8  and  N_9 
REMARK       I    between atoms: N_9  and  C_10 
REMARK    9  A    between atoms: C_10  and  C_12 
REMARK   10  A    between atoms: C_15  and  C_16 
REMARK   11  A    between atoms: C_24  and  C_25 
REMARK   12  A    between atoms: C_27  and  C_28 
ROOT
ATOM      1  C   UNL d   1       8.623   4.202 -13.900  0.00  0.00     0.037 C 
ENDROOT
BRANCH   1   2
ATOM      2  C   UNL d   1       9.005   2.761 -14.265  0.00  0.00     0.250 C 
BRANCH   2   3
ATOM      3  N   UNL d   1       8.391   2.347 -15.530  0.00  0.00     0.137 N 
BRANCH   3   4
ATOM      4  C   UNL d   1       7.844   0.992 -15.500  0.00  0.00     0.250 C 
BRANCH   4   5
ATOM      5  C   UNL d   1       6.569   0.905 -14.663  0.00  0.00     0.035 C 
ATOM      6  C   UNL d   1       6.029  -0.524 -14.639  0.00  0.00     0.002 C 
ENDBRANCH   4   5
ENDBRANCH   3   4
BRANCH   3   7
ATOM      7  C   UNL d   1       9.328   2.496 -16.633  0.00  0.00     0.251 C 
BRANCH   7   8
ATOM      8  C   UNL d   1      10.529   1.546 -16.563  0.00  0.00     0.038 A 
ATOM      9  C   UNL d   1      11.892   1.999 -17.017  0.00  0.00     0.025 A 
ATOM     10  C   UNL d   1      11.131   0.956 -17.814  0.00  0.00     0.007 A 
BRANCH   9  11
ATOM     11  C   UNL d   1      12.104   3.398 -17.488  0.00  0.00    -0.011 A 
ATOM     12  C   UNL d   1      12.277   4.485 -16.590  0.00  0.00     0.064 A 
ATOM     13  C   UNL d   1      12.430   5.803 -17.093  0.00  0.00     0.068 A 
ATOM     14 CL   UNL d   1      12.286   4.218 -14.880  0.00  0.00    -0.082 Cl
ATOM     15  C   UNL d   1      12.357   6.039 -18.476  0.00  0.00     0.012 A 
ATOM     16 CL   UNL d   1      12.678   7.147 -16.033  0.00  0.00    -0.082 Cl
ATOM     17  C   UNL d   1      12.160   4.966 -19.370  0.00  0.00     0.001 A 
ATOM     18  C   UNL d   1      12.047   3.661 -18.879  0.00  0.00    -0.003 A 
ENDBRANCH   9  11
ENDBRANCH   7   8
ENDBRANCH   3   7
ENDBRANCH   2   3
ENDBRANCH   1   2
BRANCH   1  19
ATOM     19  C   UNL d   1       9.253   4.610 -12.556  0.00  0.00     0.029 C 
BRANCH  19  20
ATOM     20  C   UNL d   1       8.874   6.031 -12.116  0.00  0.00     0.129 C 
BRANCH  20  21
ATOM     21  N   UNL d   1       9.454   6.338 -10.815  0.00  0.00    -0.234 NA
ATOM     22  C   UNL d   1       9.852   7.566 -10.424  0.00  0.00     0.275 C 
ATOM     23  O   UNL d   1       9.863   8.539 -11.165  0.00  0.00    -0.266 OA
BRANCH  22  24
ATOM     24  C   UNL d   1      10.307   7.665  -8.997  0.00  0.00     0.058 A 
ATOM     25  C   UNL d   1       9.674   6.910  -7.983  0.00  0.00     0.005 A 
ATOM     26  C   UNL d   1      10.071   7.050  -6.641  0.00  0.00     0.002 A 
ATOM     27  C   UNL d   1      11.084   7.958  -6.277  0.00  0.00     0.018 A 
ATOM     28  C   UNL d   1      11.710   8.718  -7.290  0.00  0.00     0.002 A 
ATOM     29  C   UNL d   1      11.324   8.573  -8.642  0.00  0.00     0.005 A 
BRANCH  27  30
ATOM     30  C   UNL d   1      11.486   8.095  -4.866  0.00  0.00     0.081 A 
ATOM     31  N   UNL d   1      11.492   9.358  -4.381  0.00  0.00    -0.244 NA
ATOM     32  C   UNL d   1      11.867   9.548  -3.104  0.00  0.00     0.099 A 
ATOM     33  C   UNL d   1      12.258   8.500  -2.248  0.00  0.00     0.021 A 
ATOM     34  C   UNL d   1      12.241   7.187  -2.746  0.00  0.00     0.003 A 
ATOM     35  C   UNL d   1      11.858   6.984  -4.081  0.00  0.00     0.019 A 
ENDBRANCH  27  30
ENDBRANCH  22  24
ENDBRANCH  20  21
ENDBRANCH  19  20
ENDBRANCH   1  19
TORSDOF 12
