REMARK  5 active torsions:
REMARK  status: ('A' for Active; 'I' for Inactive)
REMARK    1  A    between atoms: C_2  and  C_5 
REMARK    2  A    between atoms: C_5  and  N_6 
REMARK    3  A    between atoms: N_9  and  C_10 
REMARK    4  A    between atoms: N_19  and  N_20 
REMARK       I    between atoms: N_20  and  C_21 
REMARK    5  A    between atoms: C_21  and  C_23 
ROOT
ATOM      1  C   UNL d   1      10.401   4.578 -18.721  0.00  0.00     0.142 C 
ATOM      2  N   UNL d   1       9.790   3.451 -18.588  0.00  0.00    -0.227 NA
ATOM      3  C   UNL d   1      10.157   2.432 -17.703  0.00  0.00     0.101 A 
ATOM      4  C   UNL d   1       9.875   1.130 -18.158  0.00  0.00     0.032 A 
ATOM      5  C   UNL d   1      10.090   0.016 -17.337  0.00  0.00     0.059 A 
ATOM      6 CL   UNL d   1       9.794  -1.552 -18.009  0.00  0.00    -0.082 Cl
ATOM      7  C   UNL d   1      10.543   0.190 -16.015  0.00  0.00     0.013 A 
ATOM      8  C   UNL d   1      10.848   1.480 -15.552  0.00  0.00     0.022 A 
ATOM      9  C   UNL d   1      10.672   2.604 -16.386  0.00  0.00     0.101 A 
ATOM     10  N   UNL d   1      11.055   3.856 -15.889  0.00  0.00    -0.225 N 
ATOM     11  C   UNL d   1      11.888   4.700 -16.618  0.00  0.00     0.086 A 
ATOM     12  C   UNL d   1      13.041   5.193 -15.983  0.00  0.00     0.019 A 
ATOM     13  C   UNL d   1      13.982   5.958 -16.686  0.00  0.00     0.002 A 
ATOM     14  C   UNL d   1      13.781   6.224 -18.051  0.00  0.00     0.000 A 
ATOM     15  C   UNL d   1      12.627   5.744 -18.696  0.00  0.00     0.004 A 
ATOM     16  C   UNL d   1      11.657   4.991 -17.991  0.00  0.00     0.051 A 
ENDROOT
BRANCH   1  17
ATOM     17  N   UNL d   1       9.910   5.546 -19.583  0.00  0.00    -0.330 N 
ATOM     18  C   UNL d   1       9.748   5.329 -21.012  0.00  0.00     0.138 C 
ATOM     19  C   UNL d   1       8.308   5.639 -21.464  0.00  0.00     0.274 C 
ATOM     20  N   UNL d   1       7.959   7.010 -21.101  0.00  0.00     0.141 N 
ATOM     21  C   UNL d   1       8.010   7.069 -19.640  0.00  0.00     0.274 C 
ATOM     22  C   UNL d   1       9.444   6.849 -19.137  0.00  0.00     0.138 C 
BRANCH  20  23
ATOM     23  C   UNL d   1       6.602   7.311 -21.567  0.00  0.00     0.250 C 
BRANCH  23  24
ATOM     24  C   UNL d   1       6.404   8.760 -22.062  0.00  0.00     0.032 C 
ATOM     25  C   UNL d   1       6.817   9.803 -21.012  0.00  0.00     0.002 C 
ATOM     26  C   UNL d   1       4.907   8.963 -22.366  0.00  0.00     0.002 C 
ATOM     27  C   UNL d   1       7.207   8.978 -23.353  0.00  0.00     0.002 C 
ENDBRANCH  23  24
ENDBRANCH  20  23
ENDBRANCH   1  17
BRANCH  10  28
ATOM     28  N   UNL d   1      10.685   4.195 -14.581  0.00  0.00    -0.123 NA
ATOM     29  C   UNL d   1       9.445   4.701 -14.361  0.00  0.00     0.296 C 
ATOM     30  O   UNL d   1       8.709   5.142 -15.240  0.00  0.00    -0.264 OA
BRANCH  29  31
ATOM     31  C   UNL d   1       8.944   4.749 -12.966  0.00  0.00     0.070 A 
ATOM     32  C   UNL d   1       7.652   4.334 -12.605  0.00  0.00     0.062 A 
ATOM     33  C   UNL d   1       7.290   4.389 -11.255  0.00  0.00     0.012 A 
ATOM     34 CL   UNL d   1       6.510   3.635 -13.688  0.00  0.00    -0.082 Cl
ATOM     35  C   UNL d   1       8.193   4.833 -10.264  0.00  0.00     0.001 A 
ATOM     36  C   UNL d   1       9.456   5.312 -10.631  0.00  0.00     0.000 A 
ATOM     37  C   UNL d   1       9.792   5.270 -11.990  0.00  0.00     0.006 A 
ENDBRANCH  29  31
ENDBRANCH  10  28
TORSDOF 5
