REMARK  4 active torsions:
REMARK  status: ('A' for Active; 'I' for Inactive)
REMARK       I    between atoms: C_2  and  N_4 
REMARK    1  A    between atoms: N_4  and  C_5 
REMARK    2  A    between atoms: C_8  and  C_9 
REMARK    3  A    between atoms: C_9  and  C_10 
REMARK    4  A    between atoms: C_10  and  N_11 
ROOT
ATOM      1  N   UNL d   1       7.964   5.681 -12.215  0.00  0.00     0.138 N 
ATOM      2  C   UNL d   1       9.248   5.559 -12.917  0.00  0.00     0.253 C 
ATOM      3  C   UNL d   1       9.131   4.152 -13.514  0.00  0.00     0.070 C 
ATOM      4  C   UNL d   1       9.794   3.820 -14.849  0.00  0.00     0.151 C 
ATOM      5  O   UNL d   1       9.547   2.447 -15.188  0.00  0.00    -0.331 OA
ATOM      6  C   UNL d   1       8.317   1.893 -14.871  0.00  0.00     0.090 A 
ATOM      7  C   UNL d   1       8.056   0.579 -15.298  0.00  0.00     0.025 A 
ATOM      8  C   UNL d   1       6.829  -0.040 -14.982  0.00  0.00     0.012 A 
ATOM      9  C   UNL d   1       5.859   0.643 -14.238  0.00  0.00     0.068 A 
ATOM     10  C   UNL d   1       4.587  -0.018 -13.929  0.00  0.00     0.101 C 
ATOM     11  N   UNL d   1       3.578  -0.505 -13.693  0.00  0.00    -0.191 NA
ATOM     12  C   UNL d   1       6.105   1.951 -13.790  0.00  0.00     0.008 A 
ATOM     13  C   UNL d   1       7.334   2.577 -14.110  0.00  0.00     0.003 A 
ATOM     14  C   UNL d   1       7.641   3.983 -13.668  0.00  0.00     0.062 C 
ATOM     15  C   UNL d   1       7.146   4.471 -12.323  0.00  0.00     0.255 C 
ENDROOT
BRANCH   1  16
ATOM     16  C   UNL d   1       8.127   6.129 -10.862  0.00  0.00     0.255 C 
BRANCH  16  17
ATOM     17  C   UNL d   1       9.055   5.247 -10.022  0.00  0.00     0.062 C 
BRANCH  17  18
ATOM     18  C   UNL d   1       9.537   6.058  -8.843  0.00  0.00    -0.020 A 
ATOM     19  C   UNL d   1       8.851   6.037  -7.620  0.00  0.00    -0.003 A 
ATOM     20  C   UNL d   1       9.407   6.708  -6.507  0.00  0.00     0.019 A 
ATOM     21  C   UNL d   1      10.639   7.395  -6.604  0.00  0.00     0.084 A 
ATOM     22  C   UNL d   1      11.315   7.431  -7.845  0.00  0.00     0.019 A 
ATOM     23  C   UNL d   1      10.723   6.810  -8.960  0.00  0.00    -0.003 A 
BRANCH  21  24
ATOM     24  N   UNL d   1      11.153   8.004  -5.423  0.00  0.00    -0.212 NA
ATOM     25  C   UNL d   1      11.845   9.146  -5.291  0.00  0.00     0.256 C 
ATOM     26  C   UNL d   1      12.172  10.000  -6.524  0.00  0.00     0.100 C 
ATOM     27  O   UNL d   1      12.211   9.533  -4.181  0.00  0.00    -0.270 OA
ENDBRANCH  21  24
ENDBRANCH  17  18
ENDBRANCH  16  17
ENDBRANCH   1  16
TORSDOF 4
