REMARK  6 active torsions:
REMARK  status: ('A' for Active; 'I' for Inactive)
REMARK    1  A    between atoms: O_2  and  C_3 
REMARK    2  A    between atoms: C_7  and  C_8 
REMARK    3  A    between atoms: N_12  and  C_13 
REMARK    4  A    between atoms: C_13  and  C_14 
REMARK    5  A    between atoms: C_14  and  N_15 
REMARK    6  A    between atoms: N_18  and  C_19 
ROOT
ATOM      1  C   UNL d   1      10.371   2.948 -15.264  0.00  0.00     0.274 C 
ENDROOT
BRANCH   1   2
ATOM      2  N   UNL d   1      11.006   2.888 -16.572  0.00  0.00     0.139 N 
ATOM      3  C   UNL d   1      11.723   1.621 -16.653  0.00  0.00     0.250 C 
ATOM      4  C   UNL d   1      12.346   1.455 -18.044  0.00  0.00     0.036 C 
ATOM      5  C   UNL d   1      13.331   2.590 -18.328  0.00  0.00     0.008 C 
ATOM      6  C   UNL d   1      12.666   3.958 -18.077  0.00  0.00     0.056 C 
ATOM      7  C   UNL d   1      11.978   3.989 -16.695  0.00  0.00     0.255 C 
BRANCH   6   8
ATOM      8  C   UNL d   1      13.661   5.108 -18.229  0.00  0.00    -0.019 A 
ATOM      9  C   UNL d   1      13.373   6.194 -19.082  0.00  0.00    -0.004 A 
ATOM     10  C   UNL d   1      14.302   7.243 -19.231  0.00  0.00     0.002 A 
ATOM     11  C   UNL d   1      15.532   7.210 -18.541  0.00  0.00     0.024 A 
ATOM     12  C   UNL d   1      15.835   6.123 -17.681  0.00  0.00     0.094 A 
ATOM     13  C   UNL d   1      14.884   5.099 -17.523  0.00  0.00     0.020 A 
BRANCH  12  14
ATOM     14  O   UNL d   1      17.006   5.995 -16.964  0.00  0.00    -0.328 OA
ATOM     15  C   UNL d   1      18.108   6.805 -17.342  0.00  0.00     0.181 C 
ENDBRANCH  12  14
ENDBRANCH   6   8
ENDBRANCH   1   2
BRANCH   1  16
ATOM     16  C   UNL d   1       9.076   3.776 -15.335  0.00  0.00     0.141 C 
BRANCH  16  17
ATOM     17  N   UNL d   1       8.570   4.127 -14.012  0.00  0.00    -0.298 N 
ATOM     18  C   UNL d   1       9.274   4.803 -13.100  0.00  0.00     0.328 A 
ATOM     19  N   UNL d   1       8.515   4.988 -12.005  0.00  0.00    -0.280 N 
ATOM     20  O   UNL d   1      10.443   5.188 -13.245  0.00  0.00    -0.247 OA
ATOM     21  C   UNL d   1       7.199   4.372 -12.143  0.00  0.00     0.135 A 
ATOM     22  C   UNL d   1       7.224   3.807 -13.566  0.00  0.00     0.131 A 
BRANCH  19  23
ATOM     23  C   UNL d   1       8.963   5.609 -10.809  0.00  0.00     0.065 A 
ATOM     24  C   UNL d   1       9.724   6.803 -10.852  0.00  0.00     0.029 A 
ATOM     25  C   UNL d   1      10.188   7.413  -9.672  0.00  0.00     0.059 A 
ATOM     26  C   UNL d   1       9.875   6.853  -8.424  0.00  0.00     0.011 A 
ATOM     27 CL   UNL d   1      11.146   8.847  -9.756  0.00  0.00    -0.082 Cl
ATOM     28  C   UNL d   1       9.103   5.677  -8.368  0.00  0.00     0.002 A 
ATOM     29  C   UNL d   1       8.657   5.053  -9.547  0.00  0.00     0.017 A 
ENDBRANCH  19  23
ENDBRANCH  16  17
ENDBRANCH   1  16
TORSDOF 6
