REMARK  3 active torsions:
REMARK  status: ('A' for Active; 'I' for Inactive)
REMARK    1  A    between atoms: C_4  and  C_5 
REMARK    2  A    between atoms: C_5  and  N_6 
REMARK    3  A    between atoms: C_9  and  C_10 
ROOT
ATOM      1  C   UNL d   1      12.659   3.526 -16.195  0.00  0.00     0.251 C 
ENDROOT
BRANCH   1   2
ATOM      2  C   UNL d   1      11.653   2.415 -16.601  0.00  0.00     0.048 C 
ATOM      3  C   UNL d   1      11.196   2.505 -18.085  0.00  0.00     0.072 C 
ATOM      4  C   UNL d   1      10.111   1.561 -18.575  0.00  0.00     0.175 C 
ATOM      5  O   UNL d   1      10.033   1.231 -19.752  0.00  0.00    -0.291 OA
ATOM      6  C   UNL d   1       9.107   1.264 -17.581  0.00  0.00     0.055 A 
ATOM      7  C   UNL d   1       9.297   1.646 -16.265  0.00  0.00     0.080 A 
ATOM      8  C   UNL d   1       7.836   0.634 -17.637  0.00  0.00     0.029 A 
ATOM      9  C   UNL d   1      10.449   2.357 -15.639  0.00  0.00     0.054 C 
ATOM     10  O   UNL d   1       8.246   1.283 -15.513  0.00  0.00    -0.311 OA
ATOM     11  C   UNL d   1       7.364   0.653 -16.346  0.00  0.00     0.100 A 
ATOM     12  C   UNL d   1       6.155   0.137 -15.755  0.00  0.00     0.023 A 
ATOM     13  C   UNL d   1       5.819   0.481 -14.422  0.00  0.00     0.002 A 
ATOM     14  C   UNL d   1       5.304  -0.713 -16.488  0.00  0.00     0.002 A 
ATOM     15  C   UNL d   1       4.628  -0.006 -13.857  0.00  0.00     0.000 A 
ATOM     16  C   UNL d   1       3.786  -0.848 -14.593  0.00  0.00     0.000 A 
ATOM     17  C   UNL d   1       4.118  -1.208 -15.914  0.00  0.00     0.000 A 
ENDBRANCH   1   2
BRANCH   1  18
ATOM     18  N   UNL d   1      12.352   4.859 -16.728  0.00  0.00     0.137 N 
ATOM     19  C   UNL d   1      12.721   4.984 -18.148  0.00  0.00     0.251 C 
ATOM     20  C   UNL d   1      12.301   6.355 -18.645  0.00  0.00     0.041 C 
ATOM     21  C   UNL d   1      13.062   7.454 -17.916  0.00  0.00     0.047 C 
ATOM     22  C   UNL d   1      12.830   7.279 -16.395  0.00  0.00     0.041 C 
ATOM     23  C   UNL d   1      13.113   5.834 -15.904  0.00  0.00     0.251 C 
BRANCH  21  24
ATOM     24  C   UNL d   1      14.543   7.429 -18.279  0.00  0.00     0.087 A 
ATOM     25  C   UNL d   1      15.309   8.315 -19.049  0.00  0.00     0.041 A 
ATOM     26  C   UNL d   1      16.621   7.848 -19.133  0.00  0.00     0.129 A 
ATOM     27  C   UNL d   1      14.948   9.522 -19.685  0.00  0.00     0.006 A 
ATOM     28  O   UNL d   1      16.643   6.656 -18.436  0.00  0.00    -0.211 OA
ATOM     29  C   UNL d   1      17.633   8.511 -19.797  0.00  0.00     0.057 A 
ATOM     30  N   UNL d   1      15.352   6.421 -17.910  0.00  0.00    -0.131 NA
ATOM     31  C   UNL d   1      17.290   9.720 -20.431  0.00  0.00     0.142 A 
ATOM     32  F   UNL d   1      18.249  10.401 -21.087  0.00  0.00    -0.204 F 
ATOM     33  C   UNL d   1      15.961  10.215 -20.378  0.00  0.00     0.030 A 
ENDBRANCH  21  24
ENDBRANCH   1  18
TORSDOF 3
