REMARK  7 active torsions:
REMARK  status: ('A' for Active; 'I' for Inactive)
REMARK    1  A    between atoms: C_4  and  C_5 
REMARK    2  A    between atoms: C_5  and  N_6 
REMARK    3  A    between atoms: C_9  and  C_10 
REMARK    4  A    between atoms: C_10  and  N_11 
REMARK    5  A    between atoms: N_11  and  C_12 
REMARK    6  A    between atoms: C_12  and  C_13 
REMARK    7  A    between atoms: C_16  and  C_17 
ROOT
ATOM      1  C   UNL d   1       8.380   5.550 -10.872  0.00  0.00     0.293 C 
ENDROOT
BRANCH   1   2
ATOM      2  C   UNL d   1       9.433   5.599  -9.761  0.00  0.00     0.071 C 
ATOM      3  C   UNL d   1       8.879   5.159  -8.415  0.00  0.00     0.039 C 
ATOM      4  C   UNL d   1       9.114   6.346  -7.499  0.00  0.00     0.251 C 
ATOM      5  N   UNL d   1      10.289   6.979  -8.076  0.00  0.00     0.141 N 
ATOM      6  C   UNL d   1       9.997   7.001  -9.502  0.00  0.00     0.253 C 
BRANCH   5   7
ATOM      7  C   UNL d   1      10.524   8.317  -7.540  0.00  0.00     0.277 C 
BRANCH   7   8
ATOM      8  C   UNL d   1      11.007   8.333  -6.092  0.00  0.00     0.011 A 
ATOM      9  C   UNL d   1      11.456   7.162  -5.441  0.00  0.00    -0.002 A 
ATOM     10  C   UNL d   1      11.859   7.195  -4.094  0.00  0.00    -0.000 A 
ATOM     11  C   UNL d   1      11.884   8.416  -3.399  0.00  0.00    -0.000 A 
ATOM     12  C   UNL d   1      11.461   9.591  -4.045  0.00  0.00    -0.000 A 
ATOM     13  C   UNL d   1      11.023   9.556  -5.387  0.00  0.00    -0.002 A 
ENDBRANCH   7   8
ENDBRANCH   5   7
ENDBRANCH   1   2
BRANCH   1  14
ATOM     14  N   UNL d   1       9.037   5.853 -12.133  0.00  0.00     0.346 N 
BRANCH  14  15
ATOM     15  C   UNL d   1       8.662   4.964 -13.222  0.00  0.00     0.336 C 
BRANCH  15  16
ATOM     16  C   UNL d   1       9.771   4.369 -14.033  0.00  0.00     0.102 A 
ATOM     17  N   UNL d   1      10.709   5.183 -14.672  0.00  0.00    -0.241 NA
ATOM     18  C   UNL d   1      11.585   4.500 -15.412  0.00  0.00     0.110 A 
ATOM     19  S   UNL d   1      11.340   2.751 -15.309  0.00  0.00    -0.066 SA
ATOM     20  C   UNL d   1      10.002   3.031 -14.230  0.00  0.00     0.054 A 
BRANCH  18  21
ATOM     21  C   UNL d   1      12.649   5.090 -16.230  0.00  0.00     0.024 A 
ATOM     22  C   UNL d   1      12.872   6.486 -16.191  0.00  0.00     0.002 A 
ATOM     23  C   UNL d   1      13.899   7.066 -16.960  0.00  0.00     0.000 A 
ATOM     24  C   UNL d   1      14.710   6.257 -17.778  0.00  0.00     0.000 A 
ATOM     25  C   UNL d   1      14.488   4.870 -17.832  0.00  0.00     0.000 A 
ATOM     26  C   UNL d   1      13.459   4.289 -17.070  0.00  0.00     0.002 A 
ENDBRANCH  18  21
ENDBRANCH  15  16
ENDBRANCH  14  15
ENDBRANCH   1  14
TORSDOF 7
