REMARK  6 active torsions:
REMARK  status: ('A' for Active; 'I' for Inactive)
REMARK       I    between atoms: C_2  and  N_3 
REMARK    1  A    between atoms: C_2  and  C_26 
REMARK    2  A    between atoms: N_3  and  C_4 
REMARK    3  A    between atoms: C_7  and  C_8 
REMARK    4  A    between atoms: C_8  and  C_9 
REMARK    5  A    between atoms: C_9  and  N_10 
REMARK    6  A    between atoms: N_13  and  C_14 
ROOT
ATOM      1  C   UNL d   1       5.651  -0.296 -16.133  0.00  0.00     0.106 C 
ATOM      2  C   UNL d   1       5.721  -0.427 -14.600  0.00  0.00     0.024 C 
ATOM      3  C   UNL d   1       6.016   0.932 -13.942  0.00  0.00     0.002 C 
ATOM      4  C   UNL d   1       7.315   1.565 -14.490  0.00  0.00     0.002 C 
ATOM      5  C   UNL d   1       7.274   1.646 -16.034  0.00  0.00     0.002 C 
ATOM      6  C   UNL d   1       6.962   0.298 -16.681  0.00  0.00     0.024 C 
ENDROOT
BRANCH   4   7
ATOM      7  C   UNL d   1       7.590   2.958 -13.875  0.00  0.00     0.035 C 
BRANCH   7   8
ATOM      8  C   UNL d   1       9.098   3.240 -13.716  0.00  0.00     0.250 C 
BRANCH   8   9
ATOM      9  N   UNL d   1       9.711   3.542 -15.014  0.00  0.00     0.141 N 
ATOM     10  C   UNL d   1       9.600   4.974 -15.290  0.00  0.00     0.274 C 
ATOM     11  C   UNL d   1      10.165   5.297 -16.686  0.00  0.00     0.137 C 
ATOM     12  N   UNL d   1      11.532   4.816 -16.803  0.00  0.00    -0.344 N 
ATOM     13  C   UNL d   1      11.733   3.420 -16.424  0.00  0.00     0.137 C 
ATOM     14  C   UNL d   1      11.118   3.142 -15.035  0.00  0.00     0.274 C 
BRANCH  12  15
ATOM     15  C   UNL d   1      12.597   5.646 -17.225  0.00  0.00     0.068 A 
ATOM     16  C   UNL d   1      12.494   6.527 -18.338  0.00  0.00     0.084 A 
ATOM     17  C   UNL d   1      13.600   7.343 -18.696  0.00  0.00     0.070 A 
ATOM     18 CL   UNL d   1      11.085   6.600 -19.347  0.00  0.00    -0.080 Cl
ATOM     19  C   UNL d   1      14.797   7.266 -17.971  0.00  0.00     0.012 A 
ATOM     20 CL   UNL d   1      13.505   8.412 -20.043  0.00  0.00    -0.081 Cl
ATOM     21  C   UNL d   1      14.914   6.385 -16.886  0.00  0.00     0.002 A 
ATOM     22  C   UNL d   1      13.815   5.579 -16.518  0.00  0.00     0.018 A 
ENDBRANCH  12  15
ENDBRANCH   8   9
ENDBRANCH   7   8
ENDBRANCH   4   7
BRANCH   1  23
ATOM     23  N   UNL d   1       5.420  -1.607 -16.714  0.00  0.00    -0.240 NA
ATOM     24  C   UNL d   1       4.956  -1.840 -17.945  0.00  0.00     0.250 C 
ATOM     25  O   UNL d   1       4.497  -0.946 -18.658  0.00  0.00    -0.271 OA
BRANCH  24  26
ATOM     26  C   UNL d   1       5.098  -3.274 -18.489  0.00  0.00     0.073 C 
ATOM     27  C   UNL d   1       3.761  -3.719 -19.147  0.00  0.00     0.009 C 
ATOM     28  C   UNL d   1       3.902  -5.141 -19.725  0.00  0.00     0.001 C 
ATOM     29  C   UNL d   1       5.013  -5.148 -20.799  0.00  0.00     0.000 C 
ATOM     30  C   UNL d   1       4.261  -6.133 -18.594  0.00  0.00     0.000 C 
ATOM     31  C   UNL d   1       6.348  -4.737 -20.152  0.00  0.00     0.001 C 
ATOM     32  C   UNL d   1       6.714  -5.726 -19.024  0.00  0.00     0.000 C 
ATOM     33  C   UNL d   1       6.212  -3.313 -19.573  0.00  0.00     0.009 C 
ATOM     34  C   UNL d   1       5.599  -5.718 -17.960  0.00  0.00     0.001 C 
ATOM     35  C   UNL d   1       5.470  -4.304 -17.375  0.00  0.00     0.009 C 
ENDBRANCH  24  26
ENDBRANCH   1  23
TORSDOF 6
