REMARK  7 active torsions:
REMARK  status: ('A' for Active; 'I' for Inactive)
REMARK    1  A    between atoms: C_2  and  C_3 
REMARK    2  A    between atoms: C_2  and  C_20 
REMARK    3  A    between atoms: C_3  and  C_4 
REMARK    4  A    between atoms: C_4  and  N_5 
REMARK    5  A    between atoms: C_7  and  C_8 
REMARK    6  A    between atoms: C_20  and  N_21 
REMARK    7  A    between atoms: N_24  and  C_25 
ROOT
ATOM      1  O   UNL d   1       5.791   4.868 -12.212  0.00  0.00    -0.221 OA
ATOM      2  C   UNL d   1       7.173   4.644 -12.122  0.00  0.00     0.188 C 
ENDROOT
BRANCH   2   3
ATOM      3  C   UNL d   1       7.747   5.732 -11.197  0.00  0.00     0.061 C 
BRANCH   3   4
ATOM      4  C   UNL d   1       9.198   5.464 -10.755  0.00  0.00     0.132 C 
BRANCH   4   5
ATOM      5  N   UNL d   1       9.699   6.461  -9.821  0.00  0.00    -0.230 N 
ATOM      6  N   UNL d   1      10.117   7.665 -10.274  0.00  0.00    -0.064 NA
ATOM      7  N   UNL d   1      10.540   8.337  -9.250  0.00  0.00    -0.129 NA
ATOM      8  C   UNL d   1      10.382   7.576  -8.088  0.00  0.00     0.123 A 
ATOM      9  C   UNL d   1       9.851   6.369  -8.452  0.00  0.00     0.118 A 
BRANCH   8  10
ATOM     10  C   UNL d   1      10.772   8.079  -6.768  0.00  0.00     0.021 A 
ATOM     11  C   UNL d   1      11.153   7.189  -5.750  0.00  0.00     0.002 A 
ATOM     12  C   UNL d   1      11.521   7.683  -4.484  0.00  0.00     0.000 A 
ATOM     13  C   UNL d   1      11.495   9.074  -4.218  0.00  0.00     0.000 A 
ATOM     14  C   UNL d   1      11.917   6.784  -3.477  0.00  0.00     0.000 A 
ATOM     15  C   UNL d   1      11.096   9.966  -5.220  0.00  0.00     0.000 A 
ATOM     16  C   UNL d   1      11.873   9.555  -2.952  0.00  0.00     0.000 A 
ATOM     17  C   UNL d   1      10.745   9.463  -6.486  0.00  0.00     0.002 A 
ATOM     18  C   UNL d   1      12.265   8.650  -1.952  0.00  0.00     0.000 A 
ATOM     19  C   UNL d   1      12.285   7.269  -2.211  0.00  0.00     0.000 A 
ENDBRANCH   8  10
ENDBRANCH   4   5
ENDBRANCH   3   4
ENDBRANCH   2   3
BRANCH   2  20
ATOM     20  C   UNL d   1       7.755   4.720 -13.541  0.00  0.00     0.283 C 
BRANCH  20  21
ATOM     21  N   UNL d   1       8.614   3.596 -13.902  0.00  0.00     0.144 N 
ATOM     22  C   UNL d   1       9.569   3.981 -14.940  0.00  0.00     0.274 C 
ATOM     23  C   UNL d   1      10.520   2.824 -15.304  0.00  0.00     0.137 C 
ATOM     24  N   UNL d   1       9.744   1.653 -15.690  0.00  0.00    -0.344 N 
ATOM     25  C   UNL d   1       8.710   1.229 -14.749  0.00  0.00     0.137 C 
ATOM     26  C   UNL d   1       7.824   2.443 -14.380  0.00  0.00     0.274 C 
BRANCH  24  27
ATOM     27  C   UNL d   1       9.925   1.022 -16.936  0.00  0.00     0.068 A 
ATOM     28  C   UNL d   1       9.880   1.722 -18.177  0.00  0.00     0.084 A 
ATOM     29  C   UNL d   1      10.110   1.027 -19.391  0.00  0.00     0.070 A 
ATOM     30 CL   UNL d   1       9.486   3.406 -18.293  0.00  0.00    -0.080 Cl
ATOM     31  C   UNL d   1      10.372  -0.348 -19.380  0.00  0.00     0.012 A 
ATOM     32 CL   UNL d   1      10.044   1.858 -20.903  0.00  0.00    -0.081 Cl
ATOM     33  C   UNL d   1      10.402  -1.046 -18.166  0.00  0.00     0.002 A 
ATOM     34  C   UNL d   1      10.180  -0.366 -16.947  0.00  0.00     0.018 A 
ENDBRANCH  24  27
ENDBRANCH  20  21
ENDBRANCH   2  20
TORSDOF 7
