REMARK  7 active torsions:
REMARK  status: ('A' for Active; 'I' for Inactive)
REMARK    1  A    between atoms: S_2  and  N_4 
REMARK    2  A    between atoms: S_2  and  C_22 
REMARK    3  A    between atoms: N_4  and  C_5 
REMARK    4  A    between atoms: N_8  and  C_9 
REMARK    5  A    between atoms: C_9  and  C_10 
REMARK    6  A    between atoms: C_10  and  C_11 
REMARK    7  A    between atoms: C_11  and  C_12 
ROOT
ATOM      1  C   UNL d   1       8.506   5.459 -12.530  0.00  0.00     0.151 C 
ATOM      2  C   UNL d   1       8.064   6.924 -12.349  0.00  0.00     0.063 C 
ATOM      3  C   UNL d   1       9.092   7.537 -11.389  0.00  0.00     0.252 C 
ATOM      4  N   UNL d   1       9.485   6.385 -10.579  0.00  0.00     0.139 N 
ATOM      5  C   UNL d   1       9.699   5.352 -11.587  0.00  0.00     0.275 C 
ENDROOT
BRANCH   1   6
ATOM      6  N   UNL d   1       8.918   5.202 -13.921  0.00  0.00    -0.184 NA
BRANCH   6   7
ATOM      7  S   UNL d   1       9.777   3.830 -14.537  0.00  0.00     0.287 S 
ATOM      8  O   UNL d   1      10.364   4.226 -15.842  0.00  0.00    -0.198 OA
ATOM      9  O   UNL d   1      10.608   3.245 -13.494  0.00  0.00    -0.198 OA
BRANCH   7  10
ATOM     10  C   UNL d   1       8.524   2.650 -14.887  0.00  0.00     0.134 A 
ATOM     11  S   UNL d   1       8.685   1.654 -16.288  0.00  0.00    -0.074 SA
ATOM     12  C   UNL d   1       7.207   0.821 -15.880  0.00  0.00     0.031 A 
ATOM     13  C   UNL d   1       6.649   1.307 -14.653  0.00  0.00     0.007 A 
ATOM     14  C   UNL d   1       6.596  -0.191 -16.623  0.00  0.00     0.018 A 
ATOM     15  C   UNL d   1       7.409   2.409 -14.123  0.00  0.00     0.020 A 
ATOM     16  C   UNL d   1       5.462   0.679 -14.196  0.00  0.00     0.001 A 
ATOM     17  C   UNL d   1       4.839  -0.339 -14.948  0.00  0.00     0.011 A 
ATOM     18  C   UNL d   1       5.405  -0.769 -16.163  0.00  0.00     0.058 A 
ATOM     19 CL   UNL d   1       4.653  -1.990 -17.110  0.00  0.00    -0.082 Cl
ENDBRANCH   7  10
ENDBRANCH   6   7
ENDBRANCH   1   6
BRANCH   4  20
ATOM     20  C   UNL d   1      10.713   6.600  -9.825  0.00  0.00     0.251 C 
BRANCH  20  21
ATOM     21  C   UNL d   1      10.687   7.757  -8.835  0.00  0.00     0.042 C 
BRANCH  21  22
ATOM     22  C   UNL d   1      10.151   7.328  -7.471  0.00  0.00     0.050 C 
BRANCH  22  23
ATOM     23  C   UNL d   1      10.639   8.273  -6.418  0.00  0.00     0.088 A 
ATOM     24  C   UNL d   1      11.201   8.023  -5.154  0.00  0.00     0.041 A 
ATOM     25  C   UNL d   1      11.476   9.241  -4.535  0.00  0.00     0.126 A 
ATOM     26  C   UNL d   1      11.471   6.814  -4.485  0.00  0.00     0.003 A 
ATOM     27  O   UNL d   1      11.086  10.213  -5.436  0.00  0.00    -0.211 OA
ATOM     28  C   UNL d   1      12.016   9.327  -3.245  0.00  0.00     0.027 A 
ATOM     29  N   UNL d   1      10.582   9.582  -6.609  0.00  0.00    -0.131 NA
ATOM     30  C   UNL d   1      12.289   8.125  -2.569  0.00  0.00     0.002 A 
ATOM     31  C   UNL d   1      12.020   6.875  -3.182  0.00  0.00     0.000 A 
ENDBRANCH  22  23
ENDBRANCH  21  22
ENDBRANCH  20  21
ENDBRANCH   4  20
TORSDOF 7
