REMARK  7 active torsions:
REMARK  status: ('A' for Active; 'I' for Inactive)
REMARK    1  A    between atoms: C_1  and  C_9 
REMARK    2  A    between atoms: C_2  and  C_3 
REMARK    3  A    between atoms: C_9  and  N_10 
REMARK    4  A    between atoms: N_10  and  C_11 
REMARK    5  A    between atoms: N_10  and  C_17 
REMARK    6  A    between atoms: N_20  and  C_21 
REMARK    7  A    between atoms: C_21  and  C_22 
ROOT
ATOM      1  N   UNL d   1       9.845   2.949 -14.986  0.00  0.00    -0.339 N 
ENDROOT
BRANCH   1   2
ATOM      2  C   UNL d   1       9.810   1.482 -14.869  0.00  0.00     0.179 C 
BRANCH   2   3
ATOM      3  C   UNL d   1       8.582   0.894 -15.415  0.00  0.00    -0.061 C 
ATOM      4  C   UNL d   1       7.546   0.409 -15.866  0.00  0.00    -0.062 C 
BRANCH   4   5
ATOM      5  C   UNL d   1       6.318  -0.134 -16.409  0.00  0.00     0.042 A 
ATOM      6  C   UNL d   1       6.006   0.065 -17.771  0.00  0.00     0.008 A 
ATOM      7  C   UNL d   1       4.817  -0.480 -18.303  0.00  0.00     0.001 A 
ATOM      8  C   UNL d   1       3.957  -1.218 -17.480  0.00  0.00     0.000 A 
ATOM      9  C   UNL d   1       4.263  -1.416 -16.116  0.00  0.00     0.001 A 
ATOM     10  C   UNL d   1       5.448  -0.870 -15.583  0.00  0.00     0.008 A 
ENDBRANCH   4   5
ENDBRANCH   2   3
ENDBRANCH   1   2
BRANCH   1  11
ATOM     11  C   UNL d   1      10.998   3.475 -15.601  0.00  0.00     0.057 A 
ATOM     12  C   UNL d   1      11.757   4.575 -15.079  0.00  0.00     0.017 A 
ATOM     13  C   UNL d   1      12.822   5.138 -15.752  0.00  0.00     0.002 A 
ATOM     14  C   UNL d   1      13.264   4.585 -16.973  0.00  0.00     0.000 A 
ATOM     15  C   UNL d   1      12.565   3.474 -17.503  0.00  0.00     0.002 A 
ATOM     16  C   UNL d   1      11.447   2.931 -16.845  0.00  0.00     0.017 A 
ENDBRANCH   1  11
BRANCH   1  17
ATOM     17  C   UNL d   1       9.140   3.707 -13.932  0.00  0.00     0.086 C 
ATOM     18  C   UNL d   1       9.935   3.705 -12.614  0.00  0.00     0.058 C 
ATOM     19  C   UNL d   1       9.319   4.593 -11.552  0.00  0.00     0.253 C 
ATOM     20  N   UNL d   1       9.245   5.955 -12.072  0.00  0.00     0.141 N 
ATOM     21  C   UNL d   1       8.280   5.992 -13.180  0.00  0.00     0.253 C 
ATOM     22  C   UNL d   1       8.798   5.137 -14.356  0.00  0.00     0.058 C 
BRANCH  20  23
ATOM     23  C   UNL d   1       8.747   6.811 -11.008  0.00  0.00     0.277 C 
BRANCH  23  24
ATOM     24  C   UNL d   1       9.731   7.069  -9.881  0.00  0.00     0.011 A 
ATOM     25  C   UNL d   1       9.612   6.369  -8.664  0.00  0.00    -0.002 A 
ATOM     26  C   UNL d   1      10.510   6.630  -7.614  0.00  0.00    -0.000 A 
ATOM     27  C   UNL d   1      11.519   7.600  -7.779  0.00  0.00    -0.000 A 
ATOM     28  C   UNL d   1      11.631   8.308  -8.989  0.00  0.00    -0.000 A 
ATOM     29  C   UNL d   1      10.732   8.047 -10.039  0.00  0.00    -0.002 A 
ENDBRANCH  23  24
ENDBRANCH  20  23
ENDBRANCH   1  17
TORSDOF 7
