REMARK  3 active torsions:
REMARK  status: ('A' for Active; 'I' for Inactive)
REMARK    1  A    between atoms: C_2  and  C_3 
REMARK    2  A    between atoms: N_11  and  C_12 
REMARK    3  A    between atoms: C_12  and  C_13 
ROOT
ATOM      1  O   UNL d   1      12.468   7.995  -8.827  0.00  0.00    -0.221 OA
ATOM      2  C   UNL d   1      11.186   7.850  -8.213  0.00  0.00     0.149 C 
ATOM      3  C   UNL d   1      10.359   8.963  -8.877  0.00  0.00     0.070 C 
ATOM      4  C   UNL d   1      10.124   8.762 -10.375  0.00  0.00     0.254 C 
ATOM      5  N   UNL d   1       9.502   7.490 -10.671  0.00  0.00     0.142 N 
ATOM      6  C   UNL d   1      10.263   6.411 -10.137  0.00  0.00     0.254 C 
ATOM      7  C   UNL d   1      10.469   6.540  -8.644  0.00  0.00     0.070 C 
ENDROOT
BRANCH   5   8
ATOM      8  C   UNL d   1       9.147   7.368 -12.075  0.00  0.00     0.283 C 
BRANCH   8   9
ATOM      9  C   UNL d   1       8.419   6.114 -12.407  0.00  0.00     0.040 A 
ATOM     10  S   UNL d   1       9.047   5.044 -13.624  0.00  0.00    -0.089 SA
ATOM     11  C   UNL d   1       7.671   3.963 -13.448  0.00  0.00     0.029 A 
ATOM     12  C   UNL d   1       6.815   4.416 -12.394  0.00  0.00     0.006 A 
ATOM     13  C   UNL d   1       7.397   2.779 -14.164  0.00  0.00     0.006 A 
ATOM     14  C   UNL d   1       7.285   5.646 -11.800  0.00  0.00     0.005 A 
ATOM     15  C   UNL d   1       5.702   3.615 -12.098  0.00  0.00     0.001 A 
ATOM     16  C   UNL d   1       5.437   2.423 -12.791  0.00  0.00     0.000 A 
ATOM     17  C   UNL d   1       6.266   2.009 -13.842  0.00  0.00     0.001 A 
ENDBRANCH   8   9
ENDBRANCH   5   8
BRANCH   2  18
ATOM     18  C   UNL d   1      11.281   7.969  -6.676  0.00  0.00     0.005 A 
ATOM     19  C   UNL d   1      11.397   6.818  -5.854  0.00  0.00    -0.002 A 
ATOM     20  C   UNL d   1      11.483   6.926  -4.467  0.00  0.00    -0.000 A 
ATOM     21  C   UNL d   1      11.519   8.192  -3.866  0.00  0.00    -0.000 A 
ATOM     22  C   UNL d   1      11.421   9.346  -4.657  0.00  0.00    -0.000 A 
ATOM     23  C   UNL d   1      11.320   9.241  -6.053  0.00  0.00    -0.002 A 
ENDBRANCH   2  18
TORSDOF 3
