REMARK  2 active torsions:
REMARK  status: ('A' for Active; 'I' for Inactive)
REMARK    1  A    between atoms: O_2  and  C_3 
REMARK    2  A    between atoms: C_9  and  N_10 
ROOT
ATOM      1  C   UNL d   1       6.381   0.180 -18.746  0.00  0.00     0.094 A 
ATOM      2  C   UNL d   1       5.255  -0.211 -17.980  0.00  0.00     0.026 A 
ATOM      3  C   UNL d   1       5.262  -0.029 -16.586  0.00  0.00     0.021 A 
ATOM      4  C   UNL d   1       6.393   0.513 -15.932  0.00  0.00     0.084 A 
ATOM      5  C   UNL d   1       7.546   0.859 -16.681  0.00  0.00     0.053 A 
ATOM      6  C   UNL d   1       7.498   0.741 -18.091  0.00  0.00     0.029 A 
ATOM      7  C   UNL d   1       8.851   1.278 -16.050  0.00  0.00     0.142 C 
ATOM      8  N   UNL d   1       8.944   2.099 -15.045  0.00  0.00    -0.227 NA
ATOM      9  C   UNL d   1       7.872   2.666 -14.339  0.00  0.00     0.101 A 
ATOM     10  C   UNL d   1       8.108   3.943 -13.780  0.00  0.00     0.021 A 
ATOM     11  C   UNL d   1       7.150   4.573 -12.963  0.00  0.00     0.002 A 
ATOM     12  C   UNL d   1       5.939   3.921 -12.676  0.00  0.00     0.002 A 
ATOM     13  C   UNL d   1       5.693   2.644 -13.209  0.00  0.00     0.021 A 
ATOM     14  C   UNL d   1       6.642   2.014 -14.040  0.00  0.00     0.099 A 
ATOM     15  N   UNL d   1       6.305   0.763 -14.565  0.00  0.00    -0.244 NA
ENDROOT
BRANCH   7  16
ATOM     16  N   UNL d   1       9.980   0.696 -16.624  0.00  0.00    -0.330 N 
ATOM     17  C   UNL d   1      11.260   1.390 -16.761  0.00  0.00     0.138 C 
ATOM     18  C   UNL d   1      11.758   1.298 -18.215  0.00  0.00     0.274 C 
ATOM     19  N   UNL d   1      11.893  -0.109 -18.617  0.00  0.00     0.143 N 
ATOM     20  C   UNL d   1      10.581  -0.762 -18.531  0.00  0.00     0.274 C 
ATOM     21  C   UNL d   1      12.351  -0.168 -20.000  0.00  0.00     0.286 C 
ATOM     22  C   UNL d   1      10.040  -0.689 -17.088  0.00  0.00     0.138 C 
ENDBRANCH   7  16
BRANCH   1  23
ATOM     23  O   UNL d   1       6.489   0.026 -20.110  0.00  0.00    -0.328 OA
ATOM     24  C   UNL d   1       5.362  -0.455 -20.826  0.00  0.00     0.181 C 
ENDBRANCH   1  23
TORSDOF 2
