REMARK  6 active torsions:
REMARK  status: ('A' for Active; 'I' for Inactive)
REMARK    1  A    between atoms: C_2  and  C_3 
REMARK    2  A    between atoms: N_13  and  C_14 
REMARK    3  A    between atoms: C_14  and  C_15 
REMARK    4  A    between atoms: C_15  and  C_17 
REMARK    5  A    between atoms: C_17  and  N_18 
REMARK    6  A    between atoms: N_21  and  C_22 
ROOT
ATOM      1  C   UNL d   1       9.354   6.635 -11.634  0.00  0.00     0.208 C 
ATOM      2  O   UNL d   1       9.815   7.963 -11.932  0.00  0.00    -0.219 OA
ENDROOT
BRANCH   1   3
ATOM      3  C   UNL d   1      10.206   6.113 -10.493  0.00  0.00     0.148 C 
BRANCH   3   4
ATOM      4  N   UNL d   1       9.805   6.593  -9.198  0.00  0.00    -0.247 N 
ATOM      5  C   UNL d   1       8.903   5.955  -8.432  0.00  0.00     0.348 A 
ATOM      6  N   UNL d   1       8.773   6.682  -7.304  0.00  0.00    -0.209 NA
ATOM      7  O   UNL d   1       8.318   4.911  -8.687  0.00  0.00    -0.245 OA
ATOM      8  C   UNL d   1       9.646   7.838  -7.274  0.00  0.00     0.179 A 
ATOM      9  C   UNL d   1       8.838   9.109  -7.277  0.00  0.00     0.039 C 
ATOM     10  C   UNL d   1      10.307   7.676  -8.617  0.00  0.00     0.265 A 
ATOM     11  O   UNL d   1      11.162   8.456  -9.066  0.00  0.00    -0.269 OA
BRANCH   8  12
ATOM     12  C   UNL d   1      10.664   7.818  -6.139  0.00  0.00     0.006 A 
ATOM     13  C   UNL d   1      11.311   9.001  -5.653  0.00  0.00     0.000 A 
ATOM     14  C   UNL d   1      12.184   8.932  -4.562  0.00  0.00     0.029 A 
ATOM     15  C   UNL d   1      12.428   7.700  -3.945  0.00  0.00     0.140 A 
ATOM     16  C   UNL d   1      11.839   6.544  -4.432  0.00  0.00     0.029 A 
ATOM     17  F   UNL d   1      13.325   7.592  -2.939  0.00  0.00    -0.204 F 
ATOM     18  C   UNL d   1      10.981   6.594  -5.539  0.00  0.00     0.000 A 
ENDBRANCH   8  12
ENDBRANCH   3   4
ENDBRANCH   1   3
BRANCH   1  19
ATOM     19  C   UNL d   1       9.581   5.762 -12.875  0.00  0.00     0.285 C 
BRANCH  19  20
ATOM     20  N   UNL d   1       8.924   4.450 -12.981  0.00  0.00     0.144 N 
ATOM     21  C   UNL d   1       9.615   3.615 -13.983  0.00  0.00     0.274 C 
ATOM     22  C   UNL d   1       8.982   2.233 -14.138  0.00  0.00     0.137 C 
ATOM     23  N   UNL d   1       7.543   2.344 -14.329  0.00  0.00    -0.344 N 
ATOM     24  C   UNL d   1       6.764   3.258 -13.488  0.00  0.00     0.137 C 
ATOM     25  C   UNL d   1       7.517   4.599 -13.389  0.00  0.00     0.274 C 
BRANCH  23  26
ATOM     26  C   UNL d   1       6.942   1.574 -15.322  0.00  0.00     0.068 A 
ATOM     27  C   UNL d   1       5.920   0.634 -15.037  0.00  0.00     0.084 A 
ATOM     28  C   UNL d   1       5.319  -0.092 -16.083  0.00  0.00     0.070 A 
ATOM     29 CL   UNL d   1       5.383   0.393 -13.405  0.00  0.00    -0.080 Cl
ATOM     30  C   UNL d   1       5.729   0.114 -17.424  0.00  0.00     0.012 A 
ATOM     31 CL   UNL d   1       4.043  -1.212 -15.768  0.00  0.00    -0.081 Cl
ATOM     32  C   UNL d   1       6.762   1.038 -17.703  0.00  0.00     0.002 A 
ATOM     33  C   UNL d   1       7.366   1.745 -16.660  0.00  0.00     0.018 A 
ENDBRANCH  23  26
ENDBRANCH  19  20
ENDBRANCH   1  19
TORSDOF 6
