REMARK  1 active torsions:
REMARK  status: ('A' for Active; 'I' for Inactive)
REMARK    1  A    between atoms: C_4  and  C_5 
ROOT
ATOM      1  C   UNL d   1       8.771   5.800  -8.138  0.00  0.00     0.031 C 
ATOM      2  C   UNL d   1       9.680   6.926  -7.786  0.00  0.00    -0.016 A 
ATOM      3  C   UNL d   1      10.313   6.986  -6.484  0.00  0.00     0.011 A 
ATOM      4  C   UNL d   1      11.116   8.008  -6.161  0.00  0.00     0.070 A 
ATOM      5  N   UNL d   1      11.334   8.972  -7.166  0.00  0.00    -0.153 N 
ATOM      6  O   UNL d   1      12.221   9.981  -6.820  0.00  0.00    -0.077 OA
ATOM      7  C   UNL d   1      10.805   8.978  -8.424  0.00  0.00     0.286 A 
ATOM      8  O   UNL d   1      11.063   9.791  -9.306  0.00  0.00    -0.265 OA
ATOM      9  C   UNL d   1       9.889   7.902  -8.689  0.00  0.00     0.059 A 
ENDROOT
BRANCH   4  10
ATOM     10  C   UNL d   1      11.821   8.174  -4.797  0.00  0.00     0.041 C 
ATOM     11  C   UNL d   1      11.316   9.370  -4.001  0.00  0.00     0.006 C 
ATOM     12  C   UNL d   1      12.057   9.423  -2.680  0.00  0.00     0.000 C 
ATOM     13  C   UNL d   1      12.014   8.109  -1.903  0.00  0.00     0.000 C 
ATOM     14  C   UNL d   1      12.582   6.958  -2.695  0.00  0.00     0.000 C 
ATOM     15  C   UNL d   1      11.791   6.840  -3.997  0.00  0.00     0.006 C 
ENDBRANCH   4  10
TORSDOF 1
