REMARK  7 active torsions:
REMARK  status: ('A' for Active; 'I' for Inactive)
REMARK    1  A    between atoms: C_5  and  C_6 
REMARK    2  A    between atoms: C_6  and  C_7 
REMARK    3  A    between atoms: C_7  and  C_8 
REMARK    4  A    between atoms: C_8  and  C_9 
REMARK    5  A    between atoms: C_9  and  N_10 
REMARK    6  A    between atoms: N_13  and  C_14 
REMARK    7  A    between atoms: C_17  and  C_18 
ROOT
ATOM      1  N   UNL d   1       8.786   4.038 -14.433  0.00  0.00     0.141 N 
ATOM      2  C   UNL d   1       9.740   5.126 -14.191  0.00  0.00     0.274 C 
ATOM      3  C   UNL d   1       9.130   6.174 -13.238  0.00  0.00     0.138 C 
ATOM      4  N   UNL d   1       8.757   5.545 -11.964  0.00  0.00    -0.330 N 
ATOM      5  C   UNL d   1       7.845   4.423 -12.159  0.00  0.00     0.138 C 
ATOM      6  C   UNL d   1       8.501   3.438 -13.128  0.00  0.00     0.274 C 
ENDROOT
BRANCH   4   7
ATOM      7  C   UNL d   1       9.170   6.034 -10.714  0.00  0.00     0.140 A 
ATOM      8  N   UNL d   1       9.855   7.206 -10.706  0.00  0.00    -0.227 NA
ATOM      9  C   UNL d   1      10.272   7.735  -9.537  0.00  0.00     0.101 A 
ATOM     10  C   UNL d   1      10.061   7.115  -8.289  0.00  0.00     0.019 A 
ATOM     11  C   UNL d   1       9.351   5.902  -8.299  0.00  0.00     0.005 A 
ATOM     12  C   UNL d   1       8.916   5.342  -9.504  0.00  0.00     0.037 A 
BRANCH  10  13
ATOM     13  C   UNL d   1      10.548   7.699  -7.028  0.00  0.00     0.002 A 
ATOM     14  C   UNL d   1      10.549   9.095  -6.828  0.00  0.00     0.000 A 
ATOM     15  C   UNL d   1      11.011   9.655  -5.624  0.00  0.00     0.000 A 
ATOM     16  C   UNL d   1      11.470   8.820  -4.586  0.00  0.00     0.000 A 
ATOM     17  C   UNL d   1      11.466   7.423  -4.768  0.00  0.00     0.000 A 
ATOM     18  C   UNL d   1      11.016   6.877  -5.981  0.00  0.00     0.000 A 
ENDBRANCH  10  13
ENDBRANCH   4   7
BRANCH   1  19
ATOM     19  C   UNL d   1       9.370   3.036 -15.321  0.00  0.00     0.250 C 
BRANCH  19  20
ATOM     20  C   UNL d   1       8.321   2.012 -15.810  0.00  0.00     0.036 C 
BRANCH  20  21
ATOM     21  C   UNL d   1       8.973   0.860 -16.571  0.00  0.00     0.007 C 
BRANCH  21  22
ATOM     22  C   UNL d   1       7.940  -0.186 -17.050  0.00  0.00     0.026 C 
BRANCH  22  23
ATOM     23  C   UNL d   1       7.162   0.222 -18.290  0.00  0.00    -0.022 A 
ATOM     24  C   UNL d   1       5.756   0.086 -18.331  0.00  0.00    -0.002 A 
ATOM     25  C   UNL d   1       5.050   0.444 -19.496  0.00  0.00     0.029 A 
ATOM     26  C   UNL d   1       5.739   0.950 -20.616  0.00  0.00     0.140 A 
ATOM     27  F   UNL d   1       5.058   1.329 -21.721  0.00  0.00    -0.204 F 
ATOM     28  C   UNL d   1       7.139   1.077 -20.580  0.00  0.00     0.029 A 
ATOM     29  C   UNL d   1       7.849   0.696 -19.430  0.00  0.00    -0.002 A 
ENDBRANCH  22  23
ENDBRANCH  21  22
ENDBRANCH  20  21
ENDBRANCH  19  20
ENDBRANCH   1  19
TORSDOF 7
