REMARK  8 active torsions:
REMARK  status: ('A' for Active; 'I' for Inactive)
REMARK    1  A    between atoms: C_6  and  C_7 
REMARK    2  A    between atoms: C_10  and  S_11 
REMARK    3  A    between atoms: S_11  and  C_12 
REMARK    4  A    between atoms: C_12  and  C_13 
REMARK    5  A    between atoms: C_13  and  C_14 
REMARK    6  A    between atoms: C_14  and  N_15 
REMARK    7  A    between atoms: C_20  and  C_21 
REMARK    8  A    between atoms: C_24  and  C_25 
ROOT
ATOM      1  N   UNL d   1      11.996   4.489 -16.697  0.00  0.00     0.137 N 
ATOM      2  C   UNL d   1      13.027   3.729 -17.408  0.00  0.00     0.250 C 
ATOM      3  C   UNL d   1      12.548   2.267 -17.173  0.00  0.00     0.038 C 
ATOM      4  C   UNL d   1      11.053   2.358 -16.972  0.00  0.00     0.038 A 
ATOM      5  C   UNL d   1      10.116   1.307 -17.494  0.00  0.00     0.007 A 
ATOM      6  C   UNL d   1      10.306   1.465 -16.013  0.00  0.00     0.026 A 
ATOM      7  C   UNL d   1      10.760   3.844 -17.109  0.00  0.00     0.251 C 
ENDROOT
BRANCH   1   8
ATOM      8  C   UNL d   1      11.959   5.887 -17.072  0.00  0.00     0.251 C 
BRANCH   8   9
ATOM      9  C   UNL d   1      13.114   6.658 -16.412  0.00  0.00     0.047 C 
BRANCH   9  10
ATOM     10  C   UNL d   1      13.291   8.061 -17.030  0.00  0.00     0.067 C 
BRANCH  10  11
ATOM     11  S   UNL d   1      13.863   8.025 -18.761  0.00  0.00    -0.075 SA
BRANCH  11  12
ATOM     12  C   UNL d   1      15.539   7.509 -18.569  0.00  0.00     0.193 A 
ATOM     13  N   UNL d   1      15.923   6.433 -17.893  0.00  0.00    -0.122 NA
ATOM     14  N   UNL d   1      17.294   6.416 -17.986  0.00  0.00    -0.126 NA
ATOM     15  C   UNL d   1      17.634   7.494 -18.718  0.00  0.00     0.191 A 
ATOM     16  N   UNL d   1      16.564   8.199 -19.141  0.00  0.00    -0.287 N 
ATOM     17  C   UNL d   1      16.502   9.390 -19.987  0.00  0.00     0.134 C 
BRANCH  15  18
ATOM     18  C   UNL d   1      19.031   7.767 -19.018  0.00  0.00     0.151 A 
ATOM     19  C   UNL d   1      19.820   8.883 -18.971  0.00  0.00     0.087 A 
ATOM     20  C   UNL d   1      19.491  10.298 -18.552  0.00  0.00     0.054 C 
ATOM     21  N   UNL d   1      21.094   8.527 -19.388  0.00  0.00    -0.221 NA
ATOM     22  C   UNL d   1      21.012   7.226 -19.658  0.00  0.00     0.225 A 
ATOM     23  O   UNL d   1      19.783   6.697 -19.439  0.00  0.00    -0.282 OA
ENDBRANCH  15  18
ENDBRANCH  11  12
ENDBRANCH  10  11
ENDBRANCH   9  10
ENDBRANCH   8   9
ENDBRANCH   1   8
BRANCH   6  24
ATOM     24  C   UNL d   1       9.234   2.028 -15.135  0.00  0.00     0.005 A 
ATOM     25  C   UNL d   1       9.525   3.026 -14.170  0.00  0.00     0.136 A 
ATOM     26  C   UNL d   1       8.510   3.650 -13.459  0.00  0.00     0.033 A 
ATOM     27  F   UNL d   1      10.813   3.427 -13.988  0.00  0.00    -0.205 F 
ATOM     28  C   UNL d   1       7.156   3.269 -13.635  0.00  0.00     0.074 A 
ATOM     29  C   UNL d   1       6.869   2.244 -14.561  0.00  0.00     0.004 A 
ATOM     30  C   UNL d   1       7.883   1.626 -15.303  0.00  0.00    -0.002 A 
BRANCH  28  31
ATOM     31  C   UNL d   1       6.037   3.918 -12.828  0.00  0.00     0.419 C 
ATOM     32  F   UNL d   1       5.458   2.995 -12.056  0.00  0.00    -0.166 F 
ATOM     33  F   UNL d   1       6.482   4.913 -12.056  0.00  0.00    -0.166 F 
ATOM     34  F   UNL d   1       5.106   4.406 -13.633  0.00  0.00    -0.166 F 
ENDBRANCH  28  31
ENDBRANCH   6  24
TORSDOF 8
