REMARK  7 active torsions:
REMARK  status: ('A' for Active; 'I' for Inactive)
REMARK    1  A    between atoms: O_2  and  C_3 
REMARK    2  A    between atoms: C_7  and  C_8 
REMARK    3  A    between atoms: C_9  and  C_10 
REMARK       I    between atoms: C_10  and  N_12 
REMARK    4  A    between atoms: N_12  and  C_13 
REMARK    5  A    between atoms: C_16  and  C_17 
REMARK    6  A    between atoms: C_17  and  C_18 
REMARK    7  A    between atoms: C_18  and  N_19 
ROOT
ATOM      1  N   UNL d   1       5.585  -0.044 -16.823  0.00  0.00     0.146 N 
ATOM      2  C   UNL d   1       6.671  -0.546 -17.682  0.00  0.00     0.277 C 
ATOM      3  C   UNL d   1       5.963  -1.473 -18.621  0.00  0.00     0.009 A 
ATOM      4  C   UNL d   1       6.382  -1.968 -19.860  0.00  0.00    -0.002 A 
ATOM      5  C   UNL d   1       5.516  -2.863 -20.527  0.00  0.00     0.010 A 
ATOM      6  C   UNL d   1       4.274  -3.252 -19.951  0.00  0.00     0.068 A 
ATOM      7  C   UNL d   1       3.401  -4.182 -20.660  0.00  0.00     0.101 C 
ATOM      8  N   UNL d   1       2.707  -4.919 -21.228  0.00  0.00    -0.191 NA
ATOM      9  C   UNL d   1       3.886  -2.736 -18.689  0.00  0.00     0.008 A 
ATOM     10  C   UNL d   1       4.759  -1.838 -18.053  0.00  0.00     0.009 A 
ATOM     11  C   UNL d   1       4.630  -1.163 -16.718  0.00  0.00     0.277 C 
ENDROOT
BRANCH   1  12
ATOM     12  C   UNL d   1       6.035   0.466 -15.532  0.00  0.00     0.251 C 
BRANCH  12  13
ATOM     13  C   UNL d   1       7.039   1.625 -15.712  0.00  0.00     0.035 C 
BRANCH  13  14
ATOM     14  C   UNL d   1       7.421   2.310 -14.393  0.00  0.00     0.002 C 
ATOM     15  C   UNL d   1       8.747   3.086 -14.539  0.00  0.00     0.002 C 
ATOM     16  C   UNL d   1       9.145   3.784 -13.232  0.00  0.00     0.024 C 
ATOM     17  C   UNL d   1       8.018   4.706 -12.723  0.00  0.00     0.107 C 
ATOM     18  C   UNL d   1       6.678   3.959 -12.582  0.00  0.00     0.024 C 
ATOM     19  C   UNL d   1       6.298   3.237 -13.877  0.00  0.00     0.002 C 
BRANCH  17  20
ATOM     20  N   UNL d   1       8.386   5.278 -11.430  0.00  0.00    -0.236 NA
ATOM     21  C   UNL d   1       9.114   6.389 -11.272  0.00  0.00     0.275 C 
ATOM     22  O   UNL d   1       9.452   7.104 -12.213  0.00  0.00    -0.266 OA
BRANCH  21  23
ATOM     23  C   UNL d   1       9.456   6.600  -9.880  0.00  0.00     0.062 C 
ATOM     24  C   UNL d   1      10.212   7.648  -9.513  0.00  0.00     0.005 C 
BRANCH  24  25
ATOM     25  C   UNL d   1      10.652   7.942  -8.139  0.00  0.00     0.002 A 
ATOM     26  C   UNL d   1      11.137   9.231  -7.870  0.00  0.00     0.000 A 
ATOM     27  C   UNL d   1      11.534   9.607  -6.575  0.00  0.00     0.002 A 
ATOM     28  C   UNL d   1      11.463   8.680  -5.524  0.00  0.00     0.024 A 
ATOM     29  C   UNL d   1      11.001   7.370  -5.775  0.00  0.00     0.094 A 
ATOM     30  C   UNL d   1      10.572   7.015  -7.074  0.00  0.00     0.024 A 
BRANCH  29  31
ATOM     31  O   UNL d   1      10.952   6.394  -4.805  0.00  0.00    -0.328 OA
ATOM     32  C   UNL d   1      11.587   6.643  -3.562  0.00  0.00     0.181 C 
ENDBRANCH  29  31
ENDBRANCH  24  25
ENDBRANCH  21  23
ENDBRANCH  17  20
ENDBRANCH  13  14
ENDBRANCH  12  13
ENDBRANCH   1  12
TORSDOF 7
