REMARK  6 active torsions:
REMARK  status: ('A' for Active; 'I' for Inactive)
REMARK    1  A    between atoms: C_2  and  C_5 
REMARK    2  A    between atoms: C_8  and  C_9 
REMARK    3  A    between atoms: C_9  and  S_10 
REMARK    4  A    between atoms: S_10  and  C_11 
REMARK    5  A    between atoms: N_19  and  C_20 
REMARK    6  A    between atoms: C_20  and  C_21 
ROOT
ATOM      1  C   UNL d   1       9.502   4.820 -13.700  0.00  0.00     0.172 A 
ATOM      2  N   UNL d   1      10.454   5.187 -12.886  0.00  0.00    -0.221 NA
ATOM      3  C   UNL d   1       9.799   5.560 -11.720  0.00  0.00     0.099 A 
ATOM      4  C   UNL d   1      10.225   6.124 -10.470  0.00  0.00     0.021 C 
ATOM      5  C   UNL d   1       9.410   6.089  -9.363  0.00  0.00     0.002 C 
ATOM      6  C   UNL d   1       8.104   5.674  -9.518  0.00  0.00     0.002 C 
ATOM      7  C   UNL d   1       7.574   5.361 -10.807  0.00  0.00     0.019 C 
ATOM      8  C   UNL d   1       8.417   5.217 -11.859  0.00  0.00     0.080 A 
ATOM      9  N   UNL d   1       8.275   4.764 -13.159  0.00  0.00    -0.303 N 
ENDROOT
BRANCH   1  10
ATOM     10  S   UNL d   1       9.932   4.476 -15.383  0.00  0.00    -0.072 SA
BRANCH  10  11
ATOM     11  C   UNL d   1      11.148   3.159 -15.021  0.00  0.00     0.091 C 
BRANCH  11  12
ATOM     12  C   UNL d   1      11.406   2.341 -16.273  0.00  0.00    -0.011 A 
ATOM     13  C   UNL d   1      10.821   1.069 -16.462  0.00  0.00    -0.004 A 
ATOM     14  C   UNL d   1      11.068   0.340 -17.644  0.00  0.00     0.004 A 
ATOM     15  C   UNL d   1      11.911   0.871 -18.644  0.00  0.00     0.071 A 
ATOM     16  C   UNL d   1      12.515   2.130 -18.437  0.00  0.00     0.004 A 
ATOM     17  C   UNL d   1      12.261   2.860 -17.263  0.00  0.00    -0.004 A 
BRANCH  15  18
ATOM     18  C   UNL d   1      12.163   0.088 -19.924  0.00  0.00     0.419 C 
ATOM     19  F   UNL d   1      13.017  -0.904 -19.671  0.00  0.00    -0.166 F 
ATOM     20  F   UNL d   1      12.675   0.863 -20.881  0.00  0.00    -0.166 F 
ATOM     21  F   UNL d   1      11.021  -0.428 -20.378  0.00  0.00    -0.166 F 
ENDBRANCH  15  18
ENDBRANCH  11  12
ENDBRANCH  10  11
ENDBRANCH   1  10
BRANCH   9  22
ATOM     22  C   UNL d   1       6.999   4.373 -13.730  0.00  0.00     0.135 C 
BRANCH  22  23
ATOM     23  C   UNL d   1       6.782   2.883 -13.787  0.00  0.00     0.001 A 
ATOM     24  C   UNL d   1       5.644   2.324 -13.153  0.00  0.00    -0.002 A 
ATOM     25  C   UNL d   1       5.464   0.934 -13.192  0.00  0.00     0.011 A 
ATOM     26  C   UNL d   1       6.399   0.131 -13.852  0.00  0.00     0.058 A 
ATOM     27  C   UNL d   1       7.534   0.664 -14.464  0.00  0.00     0.011 A 
ATOM     28 CL   UNL d   1       6.212  -1.535 -14.039  0.00  0.00    -0.082 Cl
ATOM     29  C   UNL d   1       7.704   2.045 -14.465  0.00  0.00    -0.002 A 
ENDBRANCH  22  23
ENDBRANCH   9  22
TORSDOF 6
