REMARK  5 active torsions:
REMARK  status: ('A' for Active; 'I' for Inactive)
REMARK    1  A    between atoms: C_2  and  C_4 
REMARK    2  A    between atoms: C_4  and  C_5 
REMARK    3  A    between atoms: C_5  and  C_6 
REMARK    4  A    between atoms: C_6  and  C_7 
REMARK    5  A    between atoms: C_7  and  C_8 
ROOT
ATOM      1  C   UNL d   1      10.035   6.280  -8.244  0.00  0.00     0.002 C 
ENDROOT
BRANCH   1   2
ATOM      2  C   UNL d   1       9.141   6.101  -9.475  0.00  0.00     0.011 C 
BRANCH   2   3
ATOM      3  C   UNL d   1       9.621   6.940 -10.671  0.00  0.00     0.098 C 
BRANCH   3   4
ATOM      4  C   UNL d   1       8.925   6.550 -11.969  0.00  0.00     0.185 C 
ATOM      5  O   UNL d   1       9.457   5.847 -12.832  0.00  0.00    -0.647 OA
ATOM      6  O   UNL d   1       7.676   7.092 -12.040  0.00  0.00    -0.647 OA
ENDBRANCH   3   4
ENDBRANCH   2   3
ENDBRANCH   1   2
BRANCH   1   7
ATOM      7  C   UNL d   1      10.053   7.720  -7.698  0.00  0.00     0.012 C 
BRANCH   7   8
ATOM      8  C   UNL d   1      11.092   7.933  -6.589  0.00  0.00     0.059 C 
ATOM      9  S   UNL d   1      11.092   9.656  -6.016  0.00  0.00    -0.083 SA
ATOM     10  S   UNL d   1      11.585   9.307  -4.086  0.00  0.00    -0.082 SA
ATOM     11  C   UNL d   1      11.735   7.513  -4.197  0.00  0.00     0.070 C 
ATOM     12  C   UNL d   1      10.880   7.021  -5.369  0.00  0.00     0.024 C 
ENDBRANCH   7   8
ENDBRANCH   1   7
TORSDOF 5
