REMARK  6 active torsions:
REMARK  status: ('A' for Active; 'I' for Inactive)
REMARK    1  A    between atoms: O_2  and  C_3 
REMARK    2  A    between atoms: N_11  and  C_12 
REMARK    3  A    between atoms: C_12  and  C_13 
REMARK    4  A    between atoms: C_18  and  C_19 
REMARK    5  A    between atoms: C_19  and  N_20 
REMARK       I    between atoms: N_20  and  C_21 
REMARK    6  A    between atoms: C_21  and  C_23 
ROOT
ATOM      1  C   UNL d   1       8.806   3.005 -14.117  0.00  0.00     0.009 C 
ATOM      2  C   UNL d   1       8.988   3.983 -13.110  0.00  0.00    -0.003 C 
ATOM      3  C   UNL d   1       7.908   4.662 -12.549  0.00  0.00    -0.000 C 
ATOM      4  C   UNL d   1       6.577   4.289 -12.838  0.00  0.00    -0.000 C 
ATOM      5  C   UNL d   1       6.377   3.244 -13.761  0.00  0.00    -0.003 C 
ATOM      6  C   UNL d   1       7.467   2.603 -14.413  0.00  0.00     0.000 C 
ENDROOT
BRANCH   1   7
ATOM      7  C   UNL d   1       9.991   2.308 -14.812  0.00  0.00     0.277 C 
BRANCH   7   8
ATOM      8  N   UNL d   1      10.849   3.207 -15.591  0.00  0.00     0.146 N 
ATOM      9  C   UNL d   1      11.716   2.405 -16.477  0.00  0.00     0.277 C 
ATOM     10  C   UNL d   1      12.724   3.265 -17.238  0.00  0.00     0.009 A 
ATOM     11  C   UNL d   1      13.061   4.540 -16.754  0.00  0.00    -0.020 A 
ATOM     12  C   UNL d   1      13.376   2.777 -18.383  0.00  0.00     0.027 A 
ATOM     13  C   UNL d   1      14.026   5.335 -17.387  0.00  0.00     0.022 A 
ATOM     14  C   UNL d   1      12.368   5.077 -15.527  0.00  0.00     0.061 C 
ATOM     15  C   UNL d   1      14.689   4.853 -18.538  0.00  0.00     0.119 A 
ATOM     16  C   UNL d   1      14.352   3.565 -19.024  0.00  0.00     0.153 A 
ATOM     17  O   UNL d   1      14.980   3.062 -20.118  0.00  0.00    -0.188 OA
ATOM     18  C   UNL d   1      11.689   4.006 -14.718  0.00  0.00     0.256 C 
BRANCH  15  19
ATOM     19  O   UNL d   1      15.644   5.596 -19.203  0.00  0.00    -0.326 OA
ATOM     20  C   UNL d   1      15.922   6.898 -18.704  0.00  0.00     0.181 C 
ENDBRANCH  15  19
ENDBRANCH   7   8
ENDBRANCH   1   7
BRANCH   6  21
ATOM     21  C   UNL d   1       7.171   1.451 -15.331  0.00  0.00     0.155 C 
BRANCH  21  22
ATOM     22  N   UNL d   1       7.315   1.803 -16.744  0.00  0.00    -0.229 NA
ATOM     23  C   UNL d   1       6.931   1.093 -17.814  0.00  0.00     0.276 C 
ATOM     24  O   UNL d   1       7.118   1.528 -18.946  0.00  0.00    -0.266 OA
BRANCH  23  25
ATOM     25  C   UNL d   1       6.285  -0.264 -17.606  0.00  0.00     0.069 C 
ATOM     26  C   UNL d   1       6.712  -1.423 -18.334  0.00  0.00     0.073 C 
ATOM     27  C   UNL d   1       6.105  -2.687 -18.055  0.00  0.00     0.069 C 
ATOM     28 CL   UNL d   1       7.943  -1.359 -19.566  0.00  0.00    -0.081 Cl
ATOM     29  C   UNL d   1       5.140  -2.805 -17.020  0.00  0.00     0.012 C 
ATOM     30 CL   UNL d   1       6.525  -4.114 -18.959  0.00  0.00    -0.082 Cl
ATOM     31  C   UNL d   1       4.722  -1.660 -16.328  0.00  0.00     0.001 C 
ATOM     32  C   UNL d   1       5.222  -0.400 -16.684  0.00  0.00     0.006 C 
ENDBRANCH  23  25
ENDBRANCH  21  22
ENDBRANCH   6  21
TORSDOF 6
