REMARK  7 active torsions:
REMARK  status: ('A' for Active; 'I' for Inactive)
REMARK    1  A    between atoms: C_4  and  C_5 
REMARK    2  A    between atoms: C_9  and  C_10 
REMARK       I    between atoms: C_10  and  N_12 
REMARK    3  A    between atoms: N_12  and  C_13 
REMARK    4  A    between atoms: C_16  and  C_17 
REMARK    5  A    between atoms: C_17  and  C_18 
REMARK    6  A    between atoms: C_18  and  N_19 
REMARK    7  A    between atoms: C_25  and  S_26 
ROOT
ATOM      1  C   UNL d   1      10.884   2.638 -16.081  0.00  0.00     0.107 C 
ATOM      2  C   UNL d   1      10.745   1.966 -14.690  0.00  0.00     0.024 C 
ATOM      3  C   UNL d   1       9.505   2.521 -13.982  0.00  0.00     0.002 C 
ATOM      4  C   UNL d   1       9.644   4.009 -13.762  0.00  0.00     0.002 C 
ATOM      5  C   UNL d   1       9.788   4.621 -15.162  0.00  0.00     0.002 C 
ATOM      6  C   UNL d   1      11.028   4.128 -15.934  0.00  0.00     0.024 C 
ENDROOT
BRANCH   4   7
ATOM      7  C   UNL d   1       8.424   4.537 -12.981  0.00  0.00     0.035 C 
BRANCH   7   8
ATOM      8  C   UNL d   1       8.612   5.995 -12.512  0.00  0.00     0.250 C 
BRANCH   8   9
ATOM      9  N   UNL d   1       9.450   6.082 -11.314  0.00  0.00     0.138 N 
ATOM     10  C   UNL d   1       9.879   7.476 -11.164  0.00  0.00     0.255 C 
ATOM     11  C   UNL d   1      11.074   7.636 -10.219  0.00  0.00     0.061 C 
ATOM     12  C   UNL d   1      10.741   7.586  -8.748  0.00  0.00    -0.023 A 
ATOM     13  C   UNL d   1      10.005   6.563  -8.174  0.00  0.00    -0.024 A 
ATOM     14  C   UNL d   1      11.216   8.659  -7.930  0.00  0.00     0.006 A 
ATOM     15  C   UNL d   1       9.478   5.346  -8.917  0.00  0.00     0.061 C 
ATOM     16  C   UNL d   1       9.726   6.622  -6.780  0.00  0.00    -0.004 A 
ATOM     17  C   UNL d   1       8.649   5.663 -10.154  0.00  0.00     0.255 C 
ATOM     18  C   UNL d   1      10.223   7.641  -5.972  0.00  0.00     0.011 A 
ATOM     19  C   UNL d   1      10.953   8.677  -6.557  0.00  0.00     0.084 A 
BRANCH  19  20
ATOM     20  S   UNL d   1      11.581   9.989  -5.555  0.00  0.00     0.191 S 
ATOM     21  C   UNL d   1      13.156   9.379  -4.867  0.00  0.00     0.145 C 
ATOM     22  O   UNL d   1      11.883  11.107  -6.439  0.00  0.00    -0.222 OA
ATOM     23  O   UNL d   1      10.672  10.172  -4.395  0.00  0.00    -0.222 OA
ENDBRANCH  19  20
ENDBRANCH   8   9
ENDBRANCH   7   8
ENDBRANCH   4   7
BRANCH   1  24
ATOM     24  N   UNL d   1      11.984   2.077 -16.834  0.00  0.00    -0.236 NA
ATOM     25  C   UNL d   1      11.890   1.142 -17.800  0.00  0.00     0.275 C 
ATOM     26  O   UNL d   1      12.903   0.883 -18.456  0.00  0.00    -0.266 OA
BRANCH  25  27
ATOM     27  C   UNL d   1      10.570   0.423 -18.088  0.00  0.00     0.058 A 
ATOM     28  C   UNL d   1      10.398  -0.236 -19.346  0.00  0.00     0.005 A 
ATOM     29  C   UNL d   1       9.162  -0.874 -19.634  0.00  0.00     0.000 A 
ATOM     30  C   UNL d   1       8.077  -0.844 -18.709  0.00  0.00     0.002 A 
ATOM     31  C   UNL d   1       8.263  -0.195 -17.454  0.00  0.00     0.025 A 
ATOM     32  C   UNL d   1       9.489   0.417 -17.159  0.00  0.00     0.007 A 
BRANCH  31  33
ATOM     33  C   UNL d   1       7.191  -0.071 -16.443  0.00  0.00     0.126 A 
ATOM     34  C   UNL d   1       7.231   0.258 -15.093  0.00  0.00     0.044 A 
ATOM     35  C   UNL d   1       5.852   0.207 -14.714  0.00  0.00     0.088 A 
ATOM     36  C   UNL d   1       5.246   0.485 -13.359  0.00  0.00     0.055 C 
ATOM     37  N   UNL d   1       5.056  -0.197 -15.700  0.00  0.00    -0.131 NA
ATOM     38  O   UNL d   1       5.888  -0.357 -16.823  0.00  0.00    -0.211 OA
ENDBRANCH  31  33
ENDBRANCH  25  27
ENDBRANCH   1  24
TORSDOF 7
