REMARK  5 active torsions:
REMARK  status: ('A' for Active; 'I' for Inactive)
REMARK    1  A    between atoms: C_2  and  C_3 
REMARK    2  A    between atoms: C_4  and  C_5 
REMARK    3  A    between atoms: N_13  and  C_14 
REMARK    4  A    between atoms: C_14  and  C_15 
REMARK    5  A    between atoms: C_15  and  C_16 
ROOT
ATOM      1  C   UNL d   1       9.327   5.886  -8.463  0.00  0.00     0.005 C 
ATOM      2  C   UNL d   1       9.855   7.125  -8.432  0.00  0.00    -0.022 C 
ATOM      3  C   UNL d   1       9.989   7.894  -9.730  0.00  0.00     0.061 C 
ATOM      4  C   UNL d   1       9.851   6.995 -10.972  0.00  0.00     0.255 C 
ATOM      5  N   UNL d   1       8.691   6.117 -10.870  0.00  0.00     0.142 N 
ATOM      6  C   UNL d   1       8.835   5.202  -9.729  0.00  0.00     0.276 C 
ENDROOT
BRANCH   5   7
ATOM      7  C   UNL d   1       8.451   5.380 -12.103  0.00  0.00     0.257 C 
BRANCH   7   8
ATOM      8  C   UNL d   1       6.971   4.953 -12.213  0.00  0.00     0.081 C 
BRANCH   8   9
ATOM      9  C   UNL d   1       6.777   3.725 -13.047  0.00  0.00     0.063 A 
ATOM     10  C   UNL d   1       7.542   3.238 -14.077  0.00  0.00     0.018 A 
ATOM     11  C   UNL d   1       6.962   1.986 -14.471  0.00  0.00     0.037 A 
ATOM     12  C   UNL d   1       7.227   0.999 -15.441  0.00  0.00     0.005 A 
ATOM     13  C   UNL d   1       5.860   1.723 -13.616  0.00  0.00     0.162 A 
ATOM     14  C   UNL d   1       6.393  -0.131 -15.512  0.00  0.00     0.021 A 
ATOM     15  C   UNL d   1       5.337  -0.273 -14.589  0.00  0.00     0.101 A 
ATOM     16  N   UNL d   1       5.056   0.620 -13.614  0.00  0.00    -0.225 NA
ATOM     17  N   UNL d   1       5.758   2.820 -12.786  0.00  0.00    -0.231 NA
ENDBRANCH   8   9
ENDBRANCH   7   8
ENDBRANCH   5   7
BRANCH   2  18
ATOM     18  C   UNL d   1      10.299   7.736  -7.190  0.00  0.00    -0.004 C 
ATOM     19  C   UNL d   1      10.934   7.080  -6.201  0.00  0.00    -0.000 C 
BRANCH  19  20
ATOM     20  C   UNL d   1      11.419   7.664  -4.938  0.00  0.00    -0.000 A 
ATOM     21  C   UNL d   1      11.857   6.791  -3.919  0.00  0.00    -0.000 A 
ATOM     22  C   UNL d   1      12.298   7.288  -2.679  0.00  0.00    -0.000 A 
ATOM     23  C   UNL d   1      12.296   8.673  -2.439  0.00  0.00     0.000 A 
ATOM     24  C   UNL d   1      11.847   9.553  -3.436  0.00  0.00    -0.000 A 
ATOM     25  C   UNL d   1      11.412   9.056  -4.682  0.00  0.00    -0.000 A 
ENDBRANCH  19  20
ENDBRANCH   2  18
TORSDOF 5
