REMARK  7 active torsions:
REMARK  status: ('A' for Active; 'I' for Inactive)
REMARK       I    between atoms: C_2  and  N_3 
REMARK    1  A    between atoms: C_2  and  C_23 
REMARK    2  A    between atoms: N_3  and  C_4 
REMARK    3  A    between atoms: C_4  and  C_5 
REMARK    4  A    between atoms: C_5  and  C_6 
REMARK    5  A    between atoms: C_6  and  C_8 
REMARK    6  A    between atoms: C_8  and  N_9 
REMARK    7  A    between atoms: N_12  and  C_13 
ROOT
ATOM      1  C   UNL d   1       9.209   4.816 -12.228  0.00  0.00     0.064 C 
ENDROOT
BRANCH   1   2
ATOM      2  C   UNL d   1       9.031   6.311 -11.892  0.00  0.00     0.132 C 
BRANCH   2   3
ATOM      3  N   UNL d   1       9.416   6.560 -10.511  0.00  0.00    -0.234 NA
ATOM      4  C   UNL d   1       9.883   7.712 -10.024  0.00  0.00     0.275 C 
ATOM      5  O   UNL d   1       9.976   8.753 -10.678  0.00  0.00    -0.266 OA
BRANCH   4   6
ATOM      6  C   UNL d   1      10.250   7.666  -8.564  0.00  0.00     0.057 A 
ATOM      7  C   UNL d   1      10.349   8.863  -7.818  0.00  0.00     0.001 A 
ATOM      8  C   UNL d   1      10.810   8.818  -6.490  0.00  0.00    -0.018 A 
ATOM      9  C   UNL d   1      11.212   7.617  -5.925  0.00  0.00    -0.004 A 
ATOM     10  C   UNL d   1      10.998   9.954  -5.499  0.00  0.00     0.053 A 
ATOM     11  C   UNL d   1      11.194   6.448  -6.670  0.00  0.00    -0.000 A 
ATOM     12  C   UNL d   1      11.660   7.830  -4.564  0.00  0.00    -0.004 A 
ATOM     13  C   UNL d   1      10.663   6.452  -7.972  0.00  0.00     0.005 A 
ATOM     14  C   UNL d   1      11.540   9.189  -4.306  0.00  0.00    -0.018 A 
ATOM     15  C   UNL d   1      12.116   6.931  -3.588  0.00  0.00    -0.000 A 
ATOM     16  C   UNL d   1      11.870   9.707  -3.047  0.00  0.00    -0.004 A 
ATOM     17  C   UNL d   1      12.326   8.821  -2.054  0.00  0.00    -0.000 A 
ATOM     18  C   UNL d   1      12.453   7.439  -2.318  0.00  0.00    -0.000 A 
ENDBRANCH   4   6
ENDBRANCH   2   3
ENDBRANCH   1   2
BRANCH   1  19
ATOM     19  C   UNL d   1       9.756   4.569 -13.649  0.00  0.00     0.196 C 
ATOM     20  F   UNL d   1      11.026   4.973 -13.685  0.00  0.00    -0.235 F 
BRANCH  19  21
ATOM     21  C   UNL d   1       9.768   3.084 -14.039  0.00  0.00     0.285 C 
BRANCH  21  22
ATOM     22  N   UNL d   1       8.963   2.892 -15.245  0.00  0.00     0.144 N 
ATOM     23  C   UNL d   1       9.812   3.009 -16.438  0.00  0.00     0.274 C 
ATOM     24  C   UNL d   1       8.999   2.802 -17.732  0.00  0.00     0.137 C 
ATOM     25  N   UNL d   1       8.253   1.547 -17.655  0.00  0.00    -0.344 N 
ATOM     26  C   UNL d   1       7.483   1.341 -16.435  0.00  0.00     0.137 C 
ATOM     27  C   UNL d   1       8.363   1.563 -15.203  0.00  0.00     0.274 C 
BRANCH  25  28
ATOM     28  C   UNL d   1       8.277   0.591 -18.686  0.00  0.00     0.068 A 
ATOM     29  C   UNL d   1       7.096  -0.021 -19.221  0.00  0.00     0.084 A 
ATOM     30  C   UNL d   1       7.201  -1.000 -20.241  0.00  0.00     0.070 A 
ATOM     31 CL   UNL d   1       5.489   0.453 -18.753  0.00  0.00    -0.080 Cl
ATOM     32  C   UNL d   1       8.457  -1.376 -20.732  0.00  0.00     0.012 A 
ATOM     33 CL   UNL d   1       5.784  -1.721 -20.900  0.00  0.00    -0.081 Cl
ATOM     34  C   UNL d   1       9.624  -0.789 -20.228  0.00  0.00     0.002 A 
ATOM     35  C   UNL d   1       9.535   0.190 -19.212  0.00  0.00     0.018 A 
ENDBRANCH  25  28
ENDBRANCH  21  22
ENDBRANCH  19  21
ENDBRANCH   1  19
TORSDOF 7
