REMARK  7 active torsions:
REMARK  status: ('A' for Active; 'I' for Inactive)
REMARK    1  A    between atoms: C_6  and  C_7 
REMARK    2  A    between atoms: C_10  and  S_11 
REMARK    3  A    between atoms: S_11  and  C_12 
REMARK    4  A    between atoms: C_12  and  C_13 
REMARK    5  A    between atoms: C_13  and  C_14 
REMARK    6  A    between atoms: C_14  and  N_15 
REMARK    7  A    between atoms: C_19  and  C_20 
ROOT
ATOM      1  C   UNL d   1       8.464   5.837 -11.178  0.00  0.00     0.047 C 
ENDROOT
BRANCH   1   2
ATOM      2  C   UNL d   1       8.089   4.412 -11.571  0.00  0.00     0.067 C 
BRANCH   2   3
ATOM      3  S   UNL d   1       7.225   4.344 -13.167  0.00  0.00    -0.075 SA
BRANCH   3   4
ATOM      4  C   UNL d   1       8.534   3.656 -14.129  0.00  0.00     0.193 A 
ATOM      5  N   UNL d   1       9.725   4.237 -14.274  0.00  0.00    -0.122 NA
ATOM      6  N   UNL d   1      10.435   3.406 -15.106  0.00  0.00    -0.126 NA
ATOM      7  C   UNL d   1       9.627   2.377 -15.396  0.00  0.00     0.191 A 
ATOM      8  N   UNL d   1       8.414   2.494 -14.805  0.00  0.00    -0.287 N 
ATOM      9  C   UNL d   1       7.271   1.595 -14.874  0.00  0.00     0.134 C 
BRANCH   7  10
ATOM     10  C   UNL d   1      10.053   1.282 -16.277  0.00  0.00     0.151 A 
ATOM     11  C   UNL d   1      11.160   1.103 -17.076  0.00  0.00     0.087 A 
ATOM     12  C   UNL d   1      12.335   1.999 -17.308  0.00  0.00     0.054 C 
ATOM     13  N   UNL d   1      11.055  -0.126 -17.715  0.00  0.00    -0.221 NA
ATOM     14  C   UNL d   1       9.900  -0.625 -17.291  0.00  0.00     0.225 A 
ATOM     15  O   UNL d   1       9.247   0.179 -16.410  0.00  0.00    -0.282 OA
ENDBRANCH   7  10
ENDBRANCH   3   4
ENDBRANCH   2   3
ENDBRANCH   1   2
BRANCH   1  16
ATOM     16  C   UNL d   1       9.304   5.883  -9.893  0.00  0.00     0.251 C 
BRANCH  16  17
ATOM     17  N   UNL d   1       9.638   7.230  -9.435  0.00  0.00     0.143 N 
ATOM     18  C   UNL d   1      10.060   7.197  -8.048  0.00  0.00     0.284 C 
ATOM     19  C   UNL d   1      10.458   8.580  -7.485  0.00  0.00     0.171 C 
ATOM     20  O   UNL d   1      11.458   9.152  -8.317  0.00  0.00    -0.348 OA
ATOM     21  C   UNL d   1      11.052   9.232  -9.682  0.00  0.00     0.178 C 
ATOM     22  C   UNL d   1      10.682   7.848 -10.224  0.00  0.00     0.282 C 
BRANCH  19  23
ATOM     23  C   UNL d   1      10.943   8.527  -6.026  0.00  0.00     0.007 A 
ATOM     24  C   UNL d   1      11.367   7.312  -5.443  0.00  0.00    -0.001 A 
ATOM     25  C   UNL d   1      11.855   7.291  -4.119  0.00  0.00     0.006 A 
ATOM     26  C   UNL d   1      11.919   8.473  -3.376  0.00  0.00     0.035 A 
ATOM     27  C   UNL d   1      11.459   9.685  -3.920  0.00  0.00     0.006 A 
ATOM     28 BR   UNL d   1      12.649   8.395  -1.644  0.00  0.00    -0.049 Br
ATOM     29  C   UNL d   1      10.986   9.713  -5.252  0.00  0.00    -0.001 A 
ENDBRANCH  19  23
ENDBRANCH  16  17
ENDBRANCH   1  16
TORSDOF 7
