REMARK  4 active torsions:
REMARK  status: ('A' for Active; 'I' for Inactive)
REMARK    1  A    between atoms: C_4  and  C_5 
REMARK    2  A    between atoms: C_13  and  C_14 
REMARK    3  A    between atoms: N_17  and  C_18 
REMARK    4  A    between atoms: C_18  and  C_19 
ROOT
ATOM      1  N   UNL d   1       6.909   7.577 -13.034  0.00  0.00     0.062 N 
ATOM      2  C   UNL d   1       7.832   6.610 -12.816  0.00  0.00     0.768 C 
ATOM      3  N   UNL d   1       8.185   5.775 -13.818  0.00  0.00    -0.058 NA
ATOM      4  C   UNL d   1       9.186   4.926 -13.620  0.00  0.00     0.101 C 
ATOM      5  C   UNL d   1       9.730   4.741 -12.323  0.00  0.00     0.035 C 
ATOM      6  C   UNL d   1       9.197   5.626 -11.356  0.00  0.00     0.079 C 
ATOM      7  N   UNL d   1       8.331   6.601 -11.643  0.00  0.00    -0.062 NA
ENDROOT
BRANCH   6   8
ATOM      8  C   UNL d   1       9.616   5.595  -9.919  0.00  0.00     0.045 C 
ATOM      9  C   UNL d   1      10.491   6.801  -9.573  0.00  0.00     0.041 C 
ATOM     10  C   UNL d   1      10.933   6.729  -8.121  0.00  0.00     0.251 C 
ATOM     11  N   UNL d   1       9.704   6.954  -7.357  0.00  0.00     0.141 N 
ATOM     12  C   UNL d   1       8.864   5.774  -7.612  0.00  0.00     0.251 C 
ATOM     13  C   UNL d   1       8.401   5.563  -9.020  0.00  0.00     0.041 C 
BRANCH  11  14
ATOM     14  C   UNL d   1       9.952   6.936  -5.906  0.00  0.00     0.277 C 
BRANCH  14  15
ATOM     15  C   UNL d   1      10.947   7.929  -5.424  0.00  0.00     0.011 C 
ATOM     16  C   UNL d   1      11.689   7.691  -4.223  0.00  0.00    -0.002 C 
ATOM     17  C   UNL d   1      12.725   8.551  -3.876  0.00  0.00    -0.000 C 
ATOM     18  C   UNL d   1      13.039   9.578  -4.772  0.00  0.00    -0.000 C 
ATOM     19  C   UNL d   1      12.254   9.866  -5.899  0.00  0.00    -0.000 C 
ATOM     20  C   UNL d   1      11.180   9.069  -6.225  0.00  0.00    -0.002 C 
ENDBRANCH  14  15
ENDBRANCH  11  14
ENDBRANCH   6   8
BRANCH   4  21
ATOM     21  C   UNL d   1       9.718   4.164 -14.773  0.00  0.00     0.018 A 
ATOM     22  C   UNL d   1      10.201   2.851 -14.579  0.00  0.00     0.002 A 
ATOM     23  C   UNL d   1      10.675   2.082 -15.662  0.00  0.00     0.011 A 
ATOM     24  C   UNL d   1      10.682   2.620 -16.962  0.00  0.00     0.058 A 
ATOM     25  C   UNL d   1      10.209   3.930 -17.174  0.00  0.00     0.011 A 
ATOM     26 CL   UNL d   1      11.264   1.676 -18.275  0.00  0.00    -0.082 Cl
ATOM     27  C   UNL d   1       9.742   4.693 -16.080  0.00  0.00     0.002 A 
ENDBRANCH   4  21
TORSDOF 4
