REMARK  4 active torsions:
REMARK  status: ('A' for Active; 'I' for Inactive)
REMARK    1  A    between atoms: O_2  and  C_3 
REMARK    2  A    between atoms: C_3  and  C_4 
REMARK    3  A    between atoms: N_13  and  C_14 
REMARK    4  A    between atoms: C_14  and  C_15 
ROOT
ATOM      1  C   UNL d   1       8.982   5.353 -11.792  0.00  0.00     0.116 C 
ATOM      2  C   UNL d   1       9.506   6.698 -11.319  0.00  0.00     0.067 C 
ATOM      3  C   UNL d   1       9.321   6.873  -9.827  0.00  0.00     0.253 C 
ATOM      4  N   UNL d   1       9.951   5.848  -9.005  0.00  0.00     0.142 N 
ATOM      5  C   UNL d   1       9.267   4.583  -9.327  0.00  0.00     0.253 C 
ATOM      6  C   UNL d   1       9.467   4.317 -10.826  0.00  0.00     0.067 C 
ENDROOT
BRANCH   4   7
ATOM      7  C   UNL d   1       9.707   6.191  -7.601  0.00  0.00     0.278 C 
BRANCH   7   8
ATOM      8  C   UNL d   1      10.355   7.403  -6.946  0.00  0.00     0.032 A 
ATOM      9  C   UNL d   1      10.989   7.472  -5.643  0.00  0.00     0.017 A 
ATOM     10  C   UNL d   1      11.463   8.786  -5.430  0.00  0.00     0.081 A 
ATOM     11  C   UNL d   1      11.213   6.575  -4.579  0.00  0.00     0.001 A 
ATOM     12  N   UNL d   1      11.137   9.482  -6.561  0.00  0.00    -0.244 NA
ATOM     13  C   UNL d   1      12.111   9.162  -4.248  0.00  0.00     0.019 A 
ATOM     14  C   UNL d   1      10.453   8.684  -7.444  0.00  0.00     0.097 A 
ATOM     15  C   UNL d   1      12.319   8.240  -3.212  0.00  0.00     0.002 A 
ATOM     16  C   UNL d   1      11.867   6.928  -3.378  0.00  0.00     0.000 A 
ENDBRANCH   7   8
ENDBRANCH   4   7
BRANCH   1  17
ATOM     17  O   UNL d   1       7.546   5.389 -11.703  0.00  0.00    -0.352 OA
ATOM     18  C   UNL d   1       6.847   4.188 -12.047  0.00  0.00     0.175 C 
ENDBRANCH   1  17
BRANCH   1  19
ATOM     19  C   UNL d   1       9.480   5.005 -13.205  0.00  0.00     0.002 A 
ATOM     20  C   UNL d   1       8.670   5.428 -14.255  0.00  0.00    -0.001 A 
ATOM     21  C   UNL d   1       9.085   5.143 -15.566  0.00  0.00     0.011 A 
ATOM     22  C   UNL d   1      10.232   4.386 -15.908  0.00  0.00     0.058 A 
ATOM     23  C   UNL d   1      11.036   3.934 -14.851  0.00  0.00     0.011 A 
ATOM     24 CL   UNL d   1      10.672   4.153 -17.576  0.00  0.00    -0.082 Cl
ATOM     25  C   UNL d   1      10.651   4.266 -13.530  0.00  0.00    -0.001 A 
ENDBRANCH   1  19
TORSDOF 4
