REMARK  7 active torsions:
REMARK  status: ('A' for Active; 'I' for Inactive)
REMARK    1  A    between atoms: C_2  and  C_3 
REMARK       I    between atoms: C_2  and  N_7 
REMARK    2  A    between atoms: C_3  and  C_4 
REMARK    3  A    between atoms: N_7  and  C_8 
REMARK    4  A    between atoms: C_11  and  C_12 
REMARK    5  A    between atoms: C_12  and  C_13 
REMARK    6  A    between atoms: C_13  and  N_14 
REMARK    7  A    between atoms: N_17  and  C_18 
ROOT
ATOM      1  N   UNL d   1       8.715   4.622 -12.988  0.00  0.00     0.141 N 
ATOM      2  C   UNL d   1       7.377   4.341 -12.443  0.00  0.00     0.274 C 
ATOM      3  C   UNL d   1       6.446   3.848 -13.565  0.00  0.00     0.138 C 
ATOM      4  N   UNL d   1       7.046   2.721 -14.256  0.00  0.00    -0.330 N 
ATOM      5  C   UNL d   1       8.422   2.872 -14.685  0.00  0.00     0.138 C 
ATOM      6  C   UNL d   1       9.286   3.393 -13.538  0.00  0.00     0.274 C 
ENDROOT
BRANCH   1   7
ATOM      7  C   UNL d   1       9.618   5.056 -11.941  0.00  0.00     0.250 C 
BRANCH   7   8
ATOM      8  C   UNL d   1       9.296   6.481 -11.475  0.00  0.00     0.035 C 
BRANCH   8   9
ATOM      9  C   UNL d   1      10.139   6.911 -10.269  0.00  0.00     0.002 C 
ATOM     10  C   UNL d   1      10.101   8.440 -10.099  0.00  0.00     0.002 C 
ATOM     11  C   UNL d   1      10.903   8.886  -8.868  0.00  0.00     0.024 C 
ATOM     12  C   UNL d   1      10.390   8.201  -7.587  0.00  0.00     0.106 C 
ATOM     13  C   UNL d   1      10.412   6.664  -7.768  0.00  0.00     0.024 C 
ATOM     14  C   UNL d   1       9.639   6.217  -8.994  0.00  0.00     0.002 C 
BRANCH  12  15
ATOM     15  N   UNL d   1      11.194   8.666  -6.457  0.00  0.00    -0.240 NA
ATOM     16  C   UNL d   1      11.220   8.167  -5.218  0.00  0.00     0.251 C 
ATOM     17  O   UNL d   1      10.713   7.096  -4.896  0.00  0.00    -0.271 OA
BRANCH  16  18
ATOM     18  C   UNL d   1      11.894   9.026  -4.146  0.00  0.00     0.090 C 
BRANCH  18  19
ATOM     19  C   UNL d   1      12.566   8.180  -3.081  0.00  0.00     0.009 A 
ATOM     20  C   UNL d   1      12.575   8.630  -1.638  0.00  0.00     0.001 A 
ATOM     21  C   UNL d   1      11.758   7.430  -2.036  0.00  0.00     0.001 A 
ENDBRANCH  18  19
ENDBRANCH  16  18
ENDBRANCH  12  15
ENDBRANCH   8   9
ENDBRANCH   7   8
ENDBRANCH   1   7
BRANCH   4  22
ATOM     22  C   UNL d   1       6.335   1.507 -14.467  0.00  0.00     0.138 A 
ATOM     23  C   UNL d   1       6.467   0.749 -15.648  0.00  0.00     0.036 A 
ATOM     24  C   UNL d   1       5.700  -0.392 -15.824  0.00  0.00     0.095 A 
ATOM     25  C   UNL d   1       7.233   1.001 -16.913  0.00  0.00     0.064 C 
ATOM     26  C   UNL d   1       4.812  -0.810 -14.822  0.00  0.00     0.045 A 
ATOM     27  O   UNL d   1       5.881  -0.983 -17.044  0.00  0.00    -0.331 OA
ATOM     28  C   UNL d   1       4.746  -0.001 -13.670  0.00  0.00     0.103 A 
ATOM     29  N   UNL d   1       5.484   1.124 -13.496  0.00  0.00    -0.228 NA
ATOM     30  C   UNL d   1       6.947  -0.288 -17.703  0.00  0.00     0.154 C 
ENDBRANCH   4  22
TORSDOF 7
