REMARK  1 active torsions:
REMARK  status: ('A' for Active; 'I' for Inactive)
REMARK    1  A    between atoms: O_2  and  C_3 
ROOT
ATOM      1  C   UNL d   1      10.044   6.848  -7.946  0.00  0.00     0.090 A 
ATOM      2  C   UNL d   1      10.265   7.046  -9.332  0.00  0.00     0.024 A 
ATOM      3  C   UNL d   1      11.162   8.023  -9.759  0.00  0.00     0.002 A 
ATOM      4  C   UNL d   1      11.850   8.790  -8.824  0.00  0.00    -0.004 A 
ATOM      5  C   UNL d   1      11.642   8.636  -7.441  0.00  0.00    -0.022 A 
ATOM      6  C   UNL d   1      10.758   7.616  -6.994  0.00  0.00    -0.004 A 
ATOM      7  C   UNL d   1      10.521   7.398  -5.502  0.00  0.00     0.030 C 
ATOM      8  C   UNL d   1      11.536   8.093  -4.567  0.00  0.00     0.044 C 
ATOM      9  C   UNL d   1      11.860   9.520  -5.023  0.00  0.00     0.307 C 
ATOM     10  N   UNL d   1      10.676  10.338  -4.909  0.00  0.00     0.616 N 
ATOM     11  C   UNL d   1      12.368   9.557  -6.471  0.00  0.00     0.065 C 
ENDROOT
BRANCH   1  12
ATOM     12  O   UNL d   1       9.122   5.945  -7.469  0.00  0.00    -0.328 OA
ATOM     13  C   UNL d   1       8.476   5.102  -8.414  0.00  0.00     0.181 C 
ENDBRANCH   1  12
TORSDOF 1
