REMARK  2 active torsions:
REMARK  status: ('A' for Active; 'I' for Inactive)
REMARK    1  A    between atoms: C_2  and  C_4 
REMARK    2  A    between atoms: C_6  and  C_7 
ROOT
ATOM      1  C   UNL d   1      10.879   7.771  -8.608  0.00  0.00     0.090 A 
ATOM      2  C   UNL d   1      11.430   8.024  -7.339  0.00  0.00     0.008 A 
ATOM      3  C   UNL d   1      10.809   7.524  -6.188  0.00  0.00     0.003 A 
ATOM      4  C   UNL d   1       9.620   6.789  -6.327  0.00  0.00     0.002 A 
ATOM      5  C   UNL d   1       9.045   6.562  -7.583  0.00  0.00     0.028 A 
ATOM      6  C   UNL d   1       9.669   7.044  -8.740  0.00  0.00     0.137 A 
ATOM      7  O   UNL d   1       9.083   6.788  -9.946  0.00  0.00    -0.190 OA
ENDROOT
BRANCH   3   8
ATOM      8  C   UNL d   1      11.398   7.766  -4.873  0.00  0.00     0.028 A 
ATOM      9  C   UNL d   1      11.517   9.077  -4.362  0.00  0.00     0.142 A 
ATOM     10  C   UNL d   1      12.070   9.280  -3.092  0.00  0.00     0.059 A 
ATOM     11  F   UNL d   1      11.079  10.143  -5.072  0.00  0.00    -0.204 F 
ATOM     12  C   UNL d   1      12.500   8.183  -2.335  0.00  0.00     0.142 A 
ATOM     13  C   UNL d   1      12.373   6.873  -2.816  0.00  0.00     0.030 A 
ATOM     14  F   UNL d   1      13.057   8.389  -1.142  0.00  0.00    -0.204 F 
ATOM     15  C   UNL d   1      11.826   6.676  -4.089  0.00  0.00     0.004 A 
ENDBRANCH   3   8
BRANCH   1  16
ATOM     16  C   UNL d   1      11.566   8.337  -9.787  0.00  0.00     0.213 C 
ATOM     17  O   UNL d   1      10.935   8.791 -10.729  0.00  0.00    -0.644 OA
ATOM     18  O   UNL d   1      12.921   8.388  -9.659  0.00  0.00    -0.644 OA
ENDBRANCH   1  16
TORSDOF 2
