REMARK  8 active torsions:
REMARK  status: ('A' for Active; 'I' for Inactive)
REMARK    1  A    between atoms: O_2  and  C_3 
REMARK    2  A    between atoms: C_8  and  N_9 
REMARK    3  A    between atoms: N_12  and  C_13 
REMARK    4  A    between atoms: C_13  and  C_14 
REMARK    5  A    between atoms: C_14  and  C_16 
REMARK    6  A    between atoms: C_16  and  C_17 
REMARK    7  A    between atoms: C_17  and  N_18 
REMARK       I    between atoms: N_18  and  C_19 
REMARK    8  A    between atoms: C_19  and  C_21 
ROOT
ATOM      1  C   UNL d   1       8.908   7.784 -12.420  0.00  0.00     0.188 C 
ATOM      2  O   UNL d   1       7.879   8.778 -12.437  0.00  0.00    -0.221 OA
ENDROOT
BRANCH   1   3
ATOM      3  C   UNL d   1       8.211   6.460 -12.743  0.00  0.00     0.283 C 
BRANCH   3   4
ATOM      4  N   UNL d   1       9.136   5.337 -12.926  0.00  0.00     0.144 N 
ATOM      5  C   UNL d   1      10.013   5.478 -14.106  0.00  0.00     0.274 C 
ATOM      6  C   UNL d   1      11.008   4.325 -14.291  0.00  0.00     0.137 C 
ATOM      7  N   UNL d   1      10.281   3.074 -14.283  0.00  0.00    -0.343 N 
ATOM      8  C   UNL d   1       9.400   2.915 -13.139  0.00  0.00     0.137 C 
ATOM      9  C   UNL d   1       8.401   4.085 -13.034  0.00  0.00     0.274 C 
BRANCH   7  10
ATOM     10  C   UNL d   1      10.361   2.137 -15.343  0.00  0.00     0.079 A 
ATOM     11  C   UNL d   1       9.251   1.371 -15.792  0.00  0.00     0.110 A 
ATOM     12  C   UNL d   1       9.451   0.375 -16.779  0.00  0.00     0.026 A 
ATOM     13  C   UNL d   1      10.711   0.210 -17.391  0.00  0.00     0.002 A 
ATOM     14  C   UNL d   1      11.779   1.032 -16.998  0.00  0.00     0.002 A 
ATOM     15  C   UNL d   1      11.609   1.970 -15.971  0.00  0.00     0.019 A 
BRANCH  11  16
ATOM     16  O   UNL d   1       7.990   1.676 -15.298  0.00  0.00    -0.327 OA
ATOM     17  C   UNL d   1       6.922   0.767 -15.555  0.00  0.00     0.181 C 
ENDBRANCH  11  16
ENDBRANCH   7  10
ENDBRANCH   3   4
ENDBRANCH   1   3
BRANCH   1  18
ATOM     18  C   UNL d   1       9.555   7.863 -11.026  0.00  0.00     0.061 C 
BRANCH  18  19
ATOM     19  C   UNL d   1       9.587   6.582 -10.162  0.00  0.00     0.132 C 
BRANCH  19  20
ATOM     20  N   UNL d   1      10.048   6.784  -8.794  0.00  0.00    -0.234 NA
ATOM     21  C   UNL d   1      10.532   7.878  -8.169  0.00  0.00     0.276 C 
ATOM     22  O   UNL d   1      10.666   8.996  -8.670  0.00  0.00    -0.266 OA
BRANCH  21  23
ATOM     23  C   UNL d   1      10.928   7.689  -6.751  0.00  0.00     0.077 A 
ATOM     24  C   UNL d   1      10.933   8.812  -5.916  0.00  0.00     0.008 A 
ATOM     25  C   UNL d   1      11.422   8.646  -4.617  0.00  0.00     0.018 A 
ATOM     26  C   UNL d   1      11.856   7.363  -4.200  0.00  0.00     0.081 A 
ATOM     27  C   UNL d   1      11.451   9.740  -3.753  0.00  0.00     0.002 A 
ATOM     28  N   UNL d   1      11.857   6.312  -5.015  0.00  0.00    -0.244 NA
ATOM     29  C   UNL d   1      12.326   7.184  -2.894  0.00  0.00     0.019 A 
ATOM     30  C   UNL d   1      11.410   6.464  -6.268  0.00  0.00     0.104 A 
ATOM     31  C   UNL d   1      12.372   8.272  -2.022  0.00  0.00     0.002 A 
ATOM     32  C   UNL d   1      11.948   9.530  -2.463  0.00  0.00     0.000 A 
ENDBRANCH  21  23
ENDBRANCH  19  20
ENDBRANCH  18  19
ENDBRANCH   1  18
TORSDOF 8
