REMARK  6 active torsions:
REMARK  status: ('A' for Active; 'I' for Inactive)
REMARK       I    between atoms: C_2  and  N_4 
REMARK    1  A    between atoms: N_16  and  C_17 
REMARK    2  A    between atoms: C_17  and  C_18 
REMARK    3  A    between atoms: C_18  and  C_19 
REMARK    4  A    between atoms: C_19  and  S_20 
REMARK    5  A    between atoms: S_20  and  C_21 
REMARK    6  A    between atoms: C_24  and  C_25 
ROOT
ATOM      1  C   UNL d   1      13.679   3.958 -18.686  0.00  0.00     0.047 C 
ENDROOT
BRANCH   1   2
ATOM      2  C   UNL d   1      14.507   2.799 -19.295  0.00  0.00     0.251 C 
BRANCH   2   3
ATOM      3  N   UNL d   1      13.668   1.653 -19.674  0.00  0.00     0.138 N 
ATOM      4  C   UNL d   1      12.870   1.981 -20.861  0.00  0.00     0.255 C 
ATOM      5  C   UNL d   1      12.266   0.750 -21.558  0.00  0.00     0.061 C 
ATOM      6  C   UNL d   1      10.972   0.265 -20.932  0.00  0.00    -0.022 A 
ATOM      7  C   UNL d   1      10.965  -0.232 -19.604  0.00  0.00    -0.022 A 
ATOM      8  C   UNL d   1       9.787   0.253 -21.703  0.00  0.00     0.015 A 
ATOM      9  C   UNL d   1       9.767  -0.760 -19.072  0.00  0.00     0.021 A 
ATOM     10  C   UNL d   1      12.220  -0.228 -18.742  0.00  0.00     0.061 C 
ATOM     11  C   UNL d   1       8.572  -0.726 -19.821  0.00  0.00     0.110 A 
ATOM     12  O   UNL d   1       7.437  -1.226 -19.210  0.00  0.00    -0.327 OA
ATOM     13  C   UNL d   1       8.561  -0.224 -21.156  0.00  0.00     0.084 A 
ATOM     14  C   UNL d   1       6.194  -1.099 -19.902  0.00  0.00     0.173 C 
ATOM     15  C   UNL d   1       6.386  -1.311 -21.409  0.00  0.00     0.141 C 
ATOM     16  N   UNL d   1       7.316  -0.287 -21.894  0.00  0.00    -0.295 N 
ATOM     17  C   UNL d   1       6.950   0.632 -22.815  0.00  0.00     0.238 C 
ATOM     18  C   UNL d   1       5.481   1.129 -22.880  0.00  0.00     0.098 C 
ATOM     19  O   UNL d   1       7.739   1.137 -23.609  0.00  0.00    -0.272 OA
ATOM     20  C   UNL d   1      12.833   1.176 -18.556  0.00  0.00     0.255 C 
ENDBRANCH   2   3
ENDBRANCH   1   2
BRANCH   1  21
ATOM     21  C   UNL d   1      14.474   5.082 -17.997  0.00  0.00     0.067 C 
BRANCH  21  22
ATOM     22  S   UNL d   1      13.327   6.292 -17.238  0.00  0.00    -0.075 SA
BRANCH  22  23
ATOM     23  C   UNL d   1      12.371   5.215 -16.194  0.00  0.00     0.193 A 
ATOM     24  N   UNL d   1      11.277   4.533 -16.611  0.00  0.00    -0.289 N 
ATOM     25  C   UNL d   1      10.946   3.835 -15.506  0.00  0.00     0.167 A 
ATOM     26  C   UNL d   1      10.668   4.467 -17.938  0.00  0.00     0.134 C 
ATOM     27  N   UNL d   1      11.737   4.105 -14.463  0.00  0.00    -0.128 NA
ATOM     28  N   UNL d   1      12.658   5.018 -14.919  0.00  0.00    -0.122 NA
BRANCH  25  29
ATOM     29  C   UNL d   1       9.844   2.889 -15.425  0.00  0.00     0.037 A 
ATOM     30  C   UNL d   1       8.680   3.152 -14.659  0.00  0.00     0.021 A 
ATOM     31  C   UNL d   1       7.613   2.212 -14.640  0.00  0.00     0.081 A 
ATOM     32  C   UNL d   1       8.538   4.350 -13.918  0.00  0.00     0.003 A 
ATOM     33  C   UNL d   1       7.752   1.009 -15.372  0.00  0.00     0.019 A 
ATOM     34  N   UNL d   1       6.478   2.429 -13.957  0.00  0.00    -0.250 NA
ATOM     35  C   UNL d   1       8.909   0.712 -16.124  0.00  0.00     0.002 A 
ATOM     36  C   UNL d   1       9.944   1.671 -16.141  0.00  0.00     0.003 A 
ATOM     37  C   UNL d   1       6.362   3.557 -13.236  0.00  0.00     0.059 A 
ATOM     38  C   UNL d   1       5.097   3.683 -12.436  0.00  0.00     0.052 C 
ATOM     39  C   UNL d   1       7.358   4.548 -13.185  0.00  0.00     0.015 A 
ENDBRANCH  25  29
ENDBRANCH  22  23
ENDBRANCH  21  22
ENDBRANCH   1  21
TORSDOF 6
