REMARK  3 active torsions:
REMARK  status: ('A' for Active; 'I' for Inactive)
REMARK    1  A    between atoms: C_6  and  N_7 
REMARK    2  A    between atoms: N_10  and  C_11 
REMARK    3  A    between atoms: C_11  and  C_12 
ROOT
ATOM      1  N   UNL d   1      11.198   7.857  -7.608  0.00  0.00    -0.344 N 
ATOM      2  C   UNL d   1      10.346   6.705  -7.843  0.00  0.00     0.137 C 
ATOM      3  C   UNL d   1       9.463   6.946  -9.070  0.00  0.00     0.275 C 
ATOM      4  N   UNL d   1      10.294   7.282 -10.238  0.00  0.00     0.146 N 
ATOM      5  C   UNL d   1      11.044   8.518  -9.959  0.00  0.00     0.275 C 
ATOM      6  C   UNL d   1      11.974   8.318  -8.747  0.00  0.00     0.137 C 
ENDROOT
BRANCH   1   7
ATOM      7  C   UNL d   1      11.235   8.493  -6.347  0.00  0.00     0.068 A 
ATOM      8  C   UNL d   1      11.058   9.878  -6.253  0.00  0.00     0.018 A 
ATOM      9  C   UNL d   1      11.052  10.495  -4.991  0.00  0.00     0.002 A 
ATOM     10  C   UNL d   1      11.343   9.789  -3.811  0.00  0.00     0.012 A 
ATOM     11  C   UNL d   1      11.562   8.420  -3.894  0.00  0.00     0.070 A 
ATOM     12 CL   UNL d   1      11.926   7.513  -2.461  0.00  0.00    -0.081 Cl
ATOM     13  C   UNL d   1      11.476   7.795  -5.141  0.00  0.00     0.084 A 
ATOM     14 CL   UNL d   1      11.860   6.171  -5.198  0.00  0.00    -0.080 Cl
ENDBRANCH   1   7
BRANCH   4  15
ATOM     15  C   UNL d   1       9.459   7.479 -11.415  0.00  0.00     0.283 C 
BRANCH  15  16
ATOM     16  C   UNL d   1       8.860   6.211 -11.949  0.00  0.00     0.041 A 
ATOM     17  S   UNL d   1       7.129   5.986 -12.053  0.00  0.00    -0.089 SA
ATOM     18  C   UNL d   1       7.329   4.390 -12.722  0.00  0.00     0.035 A 
ATOM     19  C   UNL d   1       8.651   4.065 -12.856  0.00  0.00     0.007 A 
ATOM     20  C   UNL d   1       9.518   5.102 -12.413  0.00  0.00     0.005 A 
ENDBRANCH  15  16
ENDBRANCH   4  15
TORSDOF 3
