REMARK  6 active torsions:
REMARK  status: ('A' for Active; 'I' for Inactive)
REMARK       I    between atoms: C_2  and  N_3 
REMARK    1  A    between atoms: C_2  and  C_27 
REMARK    2  A    between atoms: N_3  and  C_4 
REMARK    3  A    between atoms: C_7  and  C_8 
REMARK    4  A    between atoms: C_8  and  C_9 
REMARK    5  A    between atoms: C_9  and  N_10 
REMARK    6  A    between atoms: N_13  and  C_14 
ROOT
ATOM      1  C   UNL d   1      10.013   6.843 -10.599  0.00  0.00     0.250 C 
ENDROOT
BRANCH   1   2
ATOM      2  C   UNL d   1       8.934   6.739 -11.668  0.00  0.00     0.035 C 
BRANCH   2   3
ATOM      3  C   UNL d   1       8.607   5.279 -12.018  0.00  0.00     0.002 C 
ATOM      4  C   UNL d   1       7.274   5.220 -12.768  0.00  0.00     0.002 C 
ATOM      5  C   UNL d   1       6.928   3.810 -13.265  0.00  0.00     0.024 C 
ATOM      6  C   UNL d   1       8.086   3.253 -14.118  0.00  0.00     0.106 C 
ATOM      7  C   UNL d   1       9.411   3.269 -13.361  0.00  0.00     0.024 C 
ATOM      8  C   UNL d   1       9.726   4.683 -12.902  0.00  0.00     0.002 C 
BRANCH   6   9
ATOM      9  N   UNL d   1       7.771   1.918 -14.604  0.00  0.00    -0.238 NA
ATOM     10  C   UNL d   1       7.461   1.574 -15.872  0.00  0.00     0.279 C 
ATOM     11  O   UNL d   1       7.495   2.354 -16.813  0.00  0.00    -0.268 OA
BRANCH  10  12
ATOM     12  C   UNL d   1       7.064   0.114 -16.083  0.00  0.00     0.195 C 
ATOM     13  O   UNL d   1       6.519  -0.085 -17.385  0.00  0.00    -0.347 OA
ATOM     14  C   UNL d   1       5.856  -1.343 -17.357  0.00  0.00     0.143 C 
ATOM     15  C   UNL d   1       5.149  -1.360 -16.004  0.00  0.00     0.035 C 
ATOM     16  C   UNL d   1       5.939  -0.370 -15.159  0.00  0.00     0.042 C 
ENDBRANCH  10  12
ENDBRANCH   6   9
ENDBRANCH   2   3
ENDBRANCH   1   2
BRANCH   1  17
ATOM     17  N   UNL d   1      10.507   8.200 -10.420  0.00  0.00     0.141 N 
ATOM     18  C   UNL d   1      11.819   8.191  -9.746  0.00  0.00     0.274 C 
ATOM     19  C   UNL d   1      11.698   7.608  -8.335  0.00  0.00     0.138 C 
ATOM     20  N   UNL d   1      10.666   8.316  -7.593  0.00  0.00    -0.330 N 
ATOM     21  C   UNL d   1       9.372   8.569  -8.225  0.00  0.00     0.138 C 
ATOM     22  C   UNL d   1       9.596   9.077  -9.671  0.00  0.00     0.274 C 
BRANCH  20  23
ATOM     23  C   UNL d   1      10.964   8.823  -6.341  0.00  0.00     0.138 A 
ATOM     24  C   UNL d   1      11.342   8.001  -5.279  0.00  0.00     0.036 A 
ATOM     25  C   UNL d   1      11.603   8.556  -4.027  0.00  0.00     0.095 A 
ATOM     26  C   UNL d   1      11.490   6.534  -5.209  0.00  0.00     0.064 C 
ATOM     27  C   UNL d   1      11.451   9.913  -3.826  0.00  0.00     0.045 A 
ATOM     28  O   UNL d   1      11.957   7.640  -3.088  0.00  0.00    -0.331 OA
ATOM     29  C   UNL d   1      11.059  10.656  -4.954  0.00  0.00     0.103 A 
ATOM     30  N   UNL d   1      10.851  10.148  -6.189  0.00  0.00    -0.228 NA
ATOM     31  C   UNL d   1      11.718   6.367  -3.688  0.00  0.00     0.154 C 
ENDBRANCH  20  23
ENDBRANCH   1  17
TORSDOF 6
