REMARK  7 active torsions:
REMARK  status: ('A' for Active; 'I' for Inactive)
REMARK    1  A    between atoms: C_2  and  C_4 
REMARK    2  A    between atoms: C_2  and  S_17 
REMARK    3  A    between atoms: C_4  and  C_5 
REMARK    4  A    between atoms: C_5  and  C_6 
REMARK    5  A    between atoms: C_6  and  N_7 
REMARK    6  A    between atoms: C_11  and  C_12 
REMARK    7  A    between atoms: S_17  and  C_20 
ROOT
ATOM      1  C   UNL d   1      10.098   7.808  -9.094  0.00  0.00     0.017 C 
ENDROOT
BRANCH   1   2
ATOM      2  C   UNL d   1      10.085   7.734  -7.532  0.00  0.00     0.099 C 
ATOM      3  C   UNL d   1       8.720   8.194  -6.996  0.00  0.00     0.016 C 
ATOM      4  C   UNL d   1      10.321   6.300  -7.037  0.00  0.00     0.016 C 
BRANCH   2   5
ATOM      5  S   UNL d   1      11.429   8.888  -6.850  0.00  0.00     0.188 S 
ATOM      6  O   UNL d   1      12.661   8.685  -7.631  0.00  0.00    -0.222 OA
ATOM      7  O   UNL d   1      10.887  10.246  -6.763  0.00  0.00    -0.222 OA
BRANCH   5   8
ATOM      8  C   UNL d   1      11.684   8.428  -5.119  0.00  0.00     0.084 A 
ATOM      9  C   UNL d   1      11.928   7.089  -4.739  0.00  0.00     0.011 A 
ATOM     10  C   UNL d   1      12.066   6.710  -3.422  0.00  0.00     0.001 A 
ATOM     11  C   UNL d   1      12.044   7.681  -2.402  0.00  0.00     0.000 A 
ATOM     12  C   UNL d   1      11.859   9.038  -2.758  0.00  0.00     0.001 A 
ATOM     13  C   UNL d   1      11.648   9.421  -4.109  0.00  0.00     0.011 A 
ENDBRANCH   5   8
ENDBRANCH   2   5
ENDBRANCH   1   2
BRANCH   1  14
ATOM     14  C   UNL d   1       9.935   6.449  -9.856  0.00  0.00     0.036 C 
BRANCH  14  15
ATOM     15  C   UNL d   1       9.141   6.587 -11.145  0.00  0.00     0.250 C 
BRANCH  15  16
ATOM     16  N   UNL d   1       8.644   5.287 -11.596  0.00  0.00     0.137 N 
ATOM     17  C   UNL d   1       9.357   4.922 -12.812  0.00  0.00     0.259 C 
ATOM     18  C   UNL d   1       8.897   3.558 -13.350  0.00  0.00     0.129 C 
ATOM     19  C   UNL d   1       7.372   3.565 -13.582  0.00  0.00     0.013 C 
ATOM     20  C   UNL d   1       6.630   4.055 -12.336  0.00  0.00     0.036 C 
ATOM     21  C   UNL d   1       7.205   5.398 -11.869  0.00  0.00     0.250 C 
BRANCH  18  22
ATOM     22  C   UNL d   1       9.668   3.176 -14.626  0.00  0.00     0.400 C 
ATOM     23  F   UNL d   1       9.477   4.092 -15.575  0.00  0.00    -0.170 F 
ATOM     24  F   UNL d   1      10.972   3.099 -14.364  0.00  0.00    -0.170 F 
ATOM     25  F   UNL d   1       9.251   1.992 -15.072  0.00  0.00    -0.170 F 
ENDBRANCH  18  22
ENDBRANCH  15  16
ENDBRANCH  14  15
ENDBRANCH   1  14
TORSDOF 7
