REMARK  2 active torsions:
REMARK  status: ('A' for Active; 'I' for Inactive)
REMARK    1  A    between atoms: C_2  and  C_3 
REMARK    2  A    between atoms: C_3  and  N_4 
ROOT
ATOM      1  N   UNL d   1       9.918   4.614 -13.964  0.00  0.00     0.142 N 
ATOM      2  C   UNL d   1       9.517   4.721 -15.370  0.00  0.00     0.255 C 
ATOM      3  C   UNL d   1      10.713   5.205 -16.208  0.00  0.00     0.061 C 
ATOM      4  C   UNL d   1      10.523   4.952 -17.696  0.00  0.00    -0.024 A 
ATOM      5  C   UNL d   1       9.875   5.938 -18.472  0.00  0.00    -0.004 A 
ATOM      6  C   UNL d   1       9.688   5.753 -19.854  0.00  0.00    -0.000 A 
ATOM      7  C   UNL d   1      10.142   4.572 -20.468  0.00  0.00    -0.000 A 
ATOM      8  C   UNL d   1      10.780   3.578 -19.700  0.00  0.00    -0.004 A 
ATOM      9  C   UNL d   1      10.977   3.753 -18.311  0.00  0.00    -0.022 A 
ATOM     10  C   UNL d   1      11.669   2.636 -17.529  0.00  0.00     0.052 C 
ATOM     11  C   UNL d   1      10.688   1.707 -16.868  0.00  0.00    -0.015 A 
ATOM     12  C   UNL d   1       9.870   0.812 -17.630  0.00  0.00     0.003 A 
ATOM     13  C   UNL d   1       9.037   0.044 -16.863  0.00  0.00     0.035 A 
ATOM     14  S   UNL d   1       9.245   0.386 -15.175  0.00  0.00    -0.091 SA
ATOM     15  C   UNL d   1      10.449   1.601 -15.512  0.00  0.00     0.006 A 
ATOM     16  C   UNL d   1      11.061   2.338 -14.358  0.00  0.00     0.068 C 
ATOM     17  C   UNL d   1      10.081   3.214 -13.539  0.00  0.00     0.256 C 
ENDROOT
BRANCH   1  18
ATOM     18  C   UNL d   1       8.935   5.320 -13.130  0.00  0.00     0.277 C 
BRANCH  18  19
ATOM     19  C   UNL d   1       9.225   5.333 -11.635  0.00  0.00     0.009 C 
ATOM     20  C   UNL d   1       9.156   6.429 -10.865  0.00  0.00    -0.003 C 
ENDBRANCH  18  19
ENDBRANCH   1  18
TORSDOF 2
