REMARK  4 active torsions:
REMARK  status: ('A' for Active; 'I' for Inactive)
REMARK    1  A    between atoms: C_7  and  C_8 
REMARK    2  A    between atoms: N_12  and  C_13 
REMARK    3  A    between atoms: C_13  and  C_14 
REMARK    4  A    between atoms: C_14  and  C_15 
ROOT
ATOM      1  N   UNL d   1      13.127   7.001 -16.172  0.00  0.00    -0.191 NA
ATOM      2  C   UNL d   1      12.547   6.074 -15.787  0.00  0.00     0.101 C 
ATOM      3  C   UNL d   1      11.820   4.905 -15.307  0.00  0.00     0.068 A 
ATOM      4  C   UNL d   1      12.180   3.606 -15.727  0.00  0.00     0.010 A 
ATOM      5  C   UNL d   1      11.458   2.492 -15.248  0.00  0.00     0.000 A 
ATOM      6  C   UNL d   1      10.391   2.663 -14.347  0.00  0.00    -0.004 A 
ATOM      7  C   UNL d   1      10.025   3.950 -13.932  0.00  0.00    -0.020 A 
ATOM      8  C   UNL d   1      10.747   5.066 -14.404  0.00  0.00     0.006 A 
ENDROOT
BRANCH   7   9
ATOM      9  C   UNL d   1       8.859   4.146 -12.968  0.00  0.00     0.056 C 
ATOM     10  C   UNL d   1       9.360   4.798 -11.678  0.00  0.00     0.255 C 
ATOM     11  N   UNL d   1       8.293   5.080 -10.728  0.00  0.00     0.138 N 
ATOM     12  C   UNL d   1       7.290   5.954 -11.315  0.00  0.00     0.250 C 
ATOM     13  C   UNL d   1       6.668   5.313 -12.558  0.00  0.00     0.036 C 
ATOM     14  C   UNL d   1       7.758   5.012 -13.588  0.00  0.00     0.008 C 
BRANCH  11  15
ATOM     15  C   UNL d   1       8.809   5.637  -9.470  0.00  0.00     0.255 C 
BRANCH  15  16
ATOM     16  C   UNL d   1       9.852   6.778  -9.647  0.00  0.00     0.062 C 
BRANCH  16  17
ATOM     17  C   UNL d   1      10.336   7.421  -8.374  0.00  0.00    -0.020 A 
ATOM     18  C   UNL d   1      10.540   6.651  -7.209  0.00  0.00    -0.004 A 
ATOM     19  C   UNL d   1      11.052   7.252  -6.046  0.00  0.00    -0.000 A 
ATOM     20  C   UNL d   1      11.381   8.624  -6.053  0.00  0.00    -0.000 A 
ATOM     21  C   UNL d   1      11.205   9.384  -7.227  0.00  0.00    -0.000 A 
ATOM     22  C   UNL d   1      10.687   8.779  -8.389  0.00  0.00    -0.004 A 
ENDBRANCH  16  17
ENDBRANCH  15  16
ENDBRANCH  11  15
ENDBRANCH   7   9
TORSDOF 4
