REMARK  3 active torsions:
REMARK  status: ('A' for Active; 'I' for Inactive)
REMARK    1  A    between atoms: C_5  and  C_6 
REMARK    2  A    between atoms: C_6  and  N_7 
REMARK    3  A    between atoms: C_10  and  C_11 
ROOT
ATOM      1  N   UNL d   1       9.694   6.037 -11.996  0.00  0.00     0.141 N 
ATOM      2  C   UNL d   1       9.702   5.176 -10.821  0.00  0.00     0.251 C 
ATOM      3  C   UNL d   1      10.254   5.924  -9.620  0.00  0.00     0.036 C 
ATOM      4  C   UNL d   1       9.456   7.240  -9.401  0.00  0.00     0.011 C 
ATOM      5  C   UNL d   1       9.503   8.111 -10.685  0.00  0.00     0.036 C 
ATOM      6  C   UNL d   1       9.003   7.354 -11.912  0.00  0.00     0.251 C 
ENDROOT
BRANCH   4   7
ATOM      7  C   UNL d   1       9.897   8.073  -8.155  0.00  0.00     0.062 C 
ATOM      8  C   UNL d   1       9.880   7.233  -6.864  0.00  0.00     0.172 C 
ATOM      9  C   UNL d   1      10.826   7.577  -5.767  0.00  0.00     0.031 A 
ATOM     10  O   UNL d   1       9.017   6.380  -6.762  0.00  0.00    -0.291 OA
ATOM     11  C   UNL d   1      11.643   8.722  -5.854  0.00  0.00    -0.019 A 
ATOM     12  C   UNL d   1      10.927   6.801  -4.598  0.00  0.00     0.003 A 
ATOM     13  C   UNL d   1      11.727   9.504  -7.127  0.00  0.00     0.027 C 
ATOM     14  C   UNL d   1      12.488   9.111  -4.795  0.00  0.00    -0.004 A 
ATOM     15  C   UNL d   1      11.278   8.738  -8.354  0.00  0.00     0.012 C 
ATOM     16  C   UNL d   1      12.550   8.333  -3.622  0.00  0.00    -0.000 A 
ATOM     17  C   UNL d   1      11.771   7.166  -3.531  0.00  0.00     0.000 A 
ENDBRANCH   4   7
BRANCH   1  18
ATOM     18  C   UNL d   1       9.380   5.297 -13.213  0.00  0.00     0.277 C 
BRANCH  18  19
ATOM     19  C   UNL d   1       8.103   4.516 -13.154  0.00  0.00     0.011 A 
ATOM     20  C   UNL d   1       7.954   3.443 -14.057  0.00  0.00    -0.003 A 
ATOM     21  C   UNL d   1       6.807   2.652 -14.022  0.00  0.00    -0.004 A 
ATOM     22  C   UNL d   1       5.839   2.926 -13.042  0.00  0.00    -0.022 A 
ATOM     23  C   UNL d   1       4.668   2.044 -12.827  0.00  0.00     0.031 C 
ATOM     24  C   UNL d   1       5.967   3.993 -12.124  0.00  0.00    -0.004 A 
ATOM     25  C   UNL d   1       7.083   4.839 -12.223  0.00  0.00    -0.003 A 
ENDBRANCH  18  19
ENDBRANCH   1  18
TORSDOF 3
