REMARK  3 active torsions:
REMARK  status: ('A' for Active; 'I' for Inactive)
REMARK    1  A    between atoms: C_5  and  C_6 
REMARK    2  A    between atoms: N_10  and  C_11 
REMARK    3  A    between atoms: C_11  and  C_12 
ROOT
ATOM      1  C   UNL d   1       8.430   5.722 -11.635  0.00  0.00     0.149 C 
ATOM      2  O   UNL d   1       7.616   6.810 -12.026  0.00  0.00    -0.221 OA
ATOM      3  C   UNL d   1       8.321   5.358 -10.127  0.00  0.00     0.070 C 
ATOM      4  C   UNL d   1       8.877   6.386  -9.107  0.00  0.00     0.254 C 
ATOM      5  N   UNL d   1      10.245   6.731  -9.464  0.00  0.00     0.142 N 
ATOM      6  C   UNL d   1      10.332   7.258 -10.827  0.00  0.00     0.254 C 
ATOM      7  C   UNL d   1       9.857   6.187 -11.867  0.00  0.00     0.070 C 
ENDROOT
BRANCH   5   8
ATOM      8  C   UNL d   1      10.778   7.784  -8.608  0.00  0.00     0.278 C 
BRANCH   8   9
ATOM      9  C   UNL d   1      11.115   7.465  -7.209  0.00  0.00     0.032 A 
ATOM     10  C   UNL d   1      11.171   8.341  -6.090  0.00  0.00     0.017 A 
ATOM     11  C   UNL d   1      11.547   7.583  -4.943  0.00  0.00     0.081 A 
ATOM     12  C   UNL d   1      10.940   9.714  -5.909  0.00  0.00     0.001 A 
ATOM     13  N   UNL d   1      11.712   6.316  -5.396  0.00  0.00    -0.244 NA
ATOM     14  C   UNL d   1      11.714   8.150  -3.671  0.00  0.00     0.019 A 
ATOM     15  C   UNL d   1      11.484   6.241  -6.759  0.00  0.00     0.097 A 
ATOM     16  C   UNL d   1      11.463   9.521  -3.523  0.00  0.00     0.002 A 
ATOM     17  C   UNL d   1      11.068  10.283  -4.637  0.00  0.00     0.000 A 
ENDBRANCH   8   9
ENDBRANCH   5   8
BRANCH   1  18
ATOM     18  C   UNL d   1       8.002   4.511 -12.506  0.00  0.00     0.005 A 
ATOM     19  C   UNL d   1       6.656   4.071 -12.448  0.00  0.00     0.000 A 
ATOM     20  C   UNL d   1       6.218   2.971 -13.238  0.00  0.00     0.027 A 
ATOM     21  C   UNL d   1       7.135   2.305 -14.055  0.00  0.00     0.131 A 
ATOM     22  O   UNL d   1       6.737   1.236 -14.814  0.00  0.00    -0.190 OA
ATOM     23  C   UNL d   1       8.476   2.726 -14.121  0.00  0.00     0.027 A 
ATOM     24  C   UNL d   1       8.898   3.829 -13.341  0.00  0.00     0.000 A 
ENDBRANCH   1  18
TORSDOF 3
