REMARK  6 active torsions:
REMARK  status: ('A' for Active; 'I' for Inactive)
REMARK    1  A    between atoms: C_2  and  C_4 
REMARK       I    between atoms: C_4  and  N_6 
REMARK    2  A    between atoms: N_6  and  C_7 
REMARK    3  A    between atoms: C_10  and  C_11 
REMARK    4  A    between atoms: C_11  and  C_12 
REMARK    5  A    between atoms: C_12  and  N_13 
REMARK    6  A    between atoms: N_16  and  C_17 
ROOT
ATOM      1  N   UNL d   1       7.997   5.051 -11.839  0.00  0.00     0.141 N 
ATOM      2  C   UNL d   1       6.709   4.341 -11.853  0.00  0.00     0.274 C 
ATOM      3  C   UNL d   1       6.277   4.033 -13.300  0.00  0.00     0.137 C 
ATOM      4  N   UNL d   1       7.338   3.324 -14.007  0.00  0.00    -0.343 N 
ATOM      5  C   UNL d   1       8.657   3.941 -13.934  0.00  0.00     0.137 C 
ATOM      6  C   UNL d   1       9.022   4.215 -12.472  0.00  0.00     0.274 C 
ENDROOT
BRANCH   1   7
ATOM      7  C   UNL d   1       8.390   5.329 -10.464  0.00  0.00     0.250 C 
BRANCH   7   8
ATOM      8  C   UNL d   1       9.416   6.478 -10.402  0.00  0.00     0.035 C 
BRANCH   8   9
ATOM      9  C   UNL d   1       9.964   6.722  -8.988  0.00  0.00     0.002 C 
ATOM     10  C   UNL d   1      11.103   7.758  -9.029  0.00  0.00     0.002 C 
ATOM     11  C   UNL d   1      11.658   8.037  -7.628  0.00  0.00     0.024 C 
ATOM     12  C   UNL d   1      10.542   8.472  -6.655  0.00  0.00     0.106 C 
ATOM     13  C   UNL d   1       9.371   7.470  -6.632  0.00  0.00     0.024 C 
ATOM     14  C   UNL d   1       8.860   7.188  -8.029  0.00  0.00     0.002 C 
BRANCH  12  15
ATOM     15  N   UNL d   1      11.058   8.693  -5.309  0.00  0.00    -0.238 NA
ATOM     16  C   UNL d   1      11.543   7.747  -4.492  0.00  0.00     0.282 C 
ATOM     17  O   UNL d   1      11.694   6.572  -4.822  0.00  0.00    -0.268 OA
BRANCH  16  18
ATOM     18  C   UNL d   1      11.916   8.204  -3.085  0.00  0.00     0.232 C 
ATOM     19  C   UNL d   1      12.430   7.052  -2.221  0.00  0.00     0.046 C 
ATOM     20  O   UNL d   1      12.894   9.196  -3.189  0.00  0.00    -0.213 OA
ENDBRANCH  16  18
ENDBRANCH  12  15
ENDBRANCH   8   9
ENDBRANCH   7   8
ENDBRANCH   1   7
BRANCH   4  21
ATOM     21  C   UNL d   1       7.119   2.117 -14.698  0.00  0.00     0.081 A 
ATOM     22  C   UNL d   1       7.866   1.774 -15.846  0.00  0.00     0.135 A 
ATOM     23  C   UNL d   1       7.635   0.604 -16.544  0.00  0.00     0.121 A 
ATOM     24  O   UNL d   1       8.857   2.472 -16.465  0.00  0.00    -0.298 OA
ATOM     25  C   UNL d   1       6.643  -0.303 -16.156  0.00  0.00     0.026 A 
ATOM     26  O   UNL d   1       8.489   0.530 -17.598  0.00  0.00    -0.299 OA
ATOM     27  C   UNL d   1       5.886  -0.001 -15.001  0.00  0.00     0.004 A 
ATOM     28  C   UNL d   1       6.127   1.194 -14.280  0.00  0.00     0.019 A 
ATOM     29  C   UNL d   1       9.271   1.693 -17.550  0.00  0.00     0.304 A 
ENDBRANCH   4  21
TORSDOF 6
