REMARK  10 active torsions:
REMARK  status: ('A' for Active; 'I' for Inactive)
REMARK       I    between atoms: C_2  and  N_3 
REMARK    1  A    between atoms: C_2  and  C_24 
REMARK    2  A    between atoms: N_3  and  C_4 
REMARK    3  A    between atoms: C_4  and  C_5 
REMARK    4  A    between atoms: C_5  and  C_6 
REMARK    5  A    between atoms: C_6  and  C_7 
REMARK    6  A    between atoms: C_7  and  N_8 
REMARK    7  A    between atoms: N_11  and  C_12 
REMARK    8  A    between atoms: C_17  and  O_18 
REMARK    9  A    between atoms: O_18  and  C_19 
REMARK   10  A    between atoms: C_19  and  C_20 
ROOT
ATOM      1  N   UNL d   1       9.124   3.435 -13.445  0.00  0.00     0.141 N 
ATOM      2  C   UNL d   1       9.800   2.300 -14.102  0.00  0.00     0.274 C 
ATOM      3  C   UNL d   1       8.901   1.040 -14.198  0.00  0.00     0.137 C 
ATOM      4  N   UNL d   1       7.612   1.389 -14.753  0.00  0.00    -0.343 N 
ATOM      5  C   UNL d   1       6.946   2.557 -14.222  0.00  0.00     0.137 C 
ATOM      6  C   UNL d   1       7.929   3.730 -14.235  0.00  0.00     0.274 C 
ENDROOT
BRANCH   1   7
ATOM      7  C   UNL d   1      10.022   4.592 -13.450  0.00  0.00     0.251 C 
BRANCH   7   8
ATOM      8  C   UNL d   1       9.434   5.830 -12.726  0.00  0.00     0.037 C 
BRANCH   8   9
ATOM      9  C   UNL d   1       9.686   5.784 -11.218  0.00  0.00     0.029 C 
BRANCH   9  10
ATOM     10  C   UNL d   1       8.876   6.783 -10.438  0.00  0.00     0.129 C 
BRANCH  10  11
ATOM     11  N   UNL d   1       9.481   7.041  -9.133  0.00  0.00    -0.233 NA
ATOM     12  C   UNL d   1      10.085   8.179  -8.751  0.00  0.00     0.294 C 
ATOM     13  O   UNL d   1      10.225   9.162  -9.477  0.00  0.00    -0.264 OA
BRANCH  12  14
ATOM     14  C   UNL d   1      10.527   8.169  -7.321  0.00  0.00     0.160 A 
ATOM     15  N   UNL d   1      10.694   9.262  -6.599  0.00  0.00    -0.160 NA
ATOM     16  N   UNL d   1      11.146   8.813  -5.384  0.00  0.00    -0.228 N 
ATOM     17  C   UNL d   1      11.263   7.414  -5.371  0.00  0.00     0.085 A 
ATOM     18  C   UNL d   1      11.459   9.585  -4.312  0.00  0.00     0.101 A 
ATOM     19  C   UNL d   1      10.876   6.987  -6.609  0.00  0.00     0.045 A 
ATOM     20  C   UNL d   1      11.735   6.790  -4.188  0.00  0.00     0.019 A 
ATOM     21  C   UNL d   1      12.051   7.570  -3.100  0.00  0.00     0.003 A 
ATOM     22  C   UNL d   1      11.912   8.980  -3.159  0.00  0.00     0.021 A 
ENDBRANCH  12  14
ENDBRANCH  10  11
ENDBRANCH   9  10
ENDBRANCH   8   9
ENDBRANCH   7   8
ENDBRANCH   1   7
BRANCH   4  23
ATOM     23  C   UNL d   1       7.034   0.599 -15.746  0.00  0.00     0.079 A 
ATOM     24  C   UNL d   1       5.728   0.089 -15.624  0.00  0.00     0.110 A 
ATOM     25  C   UNL d   1       5.187  -0.666 -16.689  0.00  0.00     0.026 A 
ATOM     26  C   UNL d   1       5.954  -0.932 -17.836  0.00  0.00     0.002 A 
ATOM     27  C   UNL d   1       7.257  -0.421 -17.949  0.00  0.00     0.002 A 
ATOM     28  C   UNL d   1       7.793   0.346 -16.900  0.00  0.00     0.019 A 
BRANCH  24  29
ATOM     29  O   UNL d   1       5.042   0.354 -14.452  0.00  0.00    -0.326 OA
BRANCH  29  30
ATOM     30  C   UNL d   1       3.673   0.014 -14.395  0.00  0.00     0.187 C 
BRANCH  30  31
ATOM     31  C   UNL d   1       3.495  -1.470 -14.232  0.00  0.00     0.226 C 
ATOM     32  F   UNL d   1       2.644  -1.572 -13.208  0.00  0.00    -0.232 F 
ENDBRANCH  30  31
ENDBRANCH  29  30
ENDBRANCH  24  29
ENDBRANCH   4  23
TORSDOF 10
