REMARK  6 active torsions:
REMARK  status: ('A' for Active; 'I' for Inactive)
REMARK    1  A    between atoms: C_2  and  C_3 
REMARK    2  A    between atoms: C_2  and  C_21 
REMARK    3  A    between atoms: C_3  and  C_4 
REMARK    4  A    between atoms: C_4  and  C_5 
REMARK    5  A    between atoms: C_5  and  N_6 
REMARK    6  A    between atoms: C_9  and  C_11 
ROOT
ATOM      1  N   UNL d   1       9.553   6.045 -10.987  0.00  0.00     0.137 N 
ATOM      2  C   UNL d   1       8.614   6.586 -11.959  0.00  0.00     0.253 C 
ATOM      3  C   UNL d   1       8.901   5.916 -13.293  0.00  0.00     0.070 C 
ATOM      4  C   UNL d   1       8.768   4.375 -13.288  0.00  0.00     0.149 C 
ATOM      5  O   UNL d   1       7.419   4.064 -12.999  0.00  0.00    -0.221 OA
ATOM      6  C   UNL d   1       9.639   3.872 -12.139  0.00  0.00     0.070 C 
ATOM      7  C   UNL d   1       9.351   4.606 -10.832  0.00  0.00     0.253 C 
ENDROOT
BRANCH   1   8
ATOM      8  C   UNL d   1       9.279   6.652  -9.714  0.00  0.00     0.251 C 
BRANCH   8   9
ATOM      9  C   UNL d   1      10.043   7.981  -9.512  0.00  0.00     0.043 C 
BRANCH   9  10
ATOM     10  C   UNL d   1      10.174   8.461  -8.059  0.00  0.00     0.071 C 
BRANCH  10  11
ATOM     11  C   UNL d   1      10.769   7.460  -7.045  0.00  0.00     0.173 C 
ATOM     12  O   UNL d   1      11.013   6.304  -7.381  0.00  0.00    -0.291 OA
BRANCH  11  13
ATOM     13  C   UNL d   1      11.063   7.911  -5.666  0.00  0.00     0.035 A 
ATOM     14  C   UNL d   1      11.056   9.286  -5.295  0.00  0.00     0.005 A 
ATOM     15  C   UNL d   1      11.473   9.624  -3.998  0.00  0.00     0.030 A 
ATOM     16  C   UNL d   1      11.894   8.640  -3.080  0.00  0.00     0.140 A 
ATOM     17  C   UNL d   1      11.880   7.267  -3.434  0.00  0.00     0.030 A 
ATOM     18  F   UNL d   1      12.300   8.971  -1.840  0.00  0.00    -0.204 F 
ATOM     19  C   UNL d   1      11.455   6.938  -4.730  0.00  0.00     0.005 A 
ENDBRANCH  11  13
ENDBRANCH  10  11
ENDBRANCH   9  10
ENDBRANCH   8   9
ENDBRANCH   1   8
BRANCH   4  20
ATOM     20  C   UNL d   1       9.228   3.711 -14.589  0.00  0.00     0.007 A 
ATOM     21  C   UNL d   1       9.508   4.471 -15.753  0.00  0.00     0.009 A 
ATOM     22  C   UNL d   1       9.869   3.853 -16.962  0.00  0.00     0.058 A 
ATOM     23  C   UNL d   1       9.982   2.456 -17.020  0.00  0.00     0.023 A 
ATOM     24 CL   UNL d   1      10.118   4.835 -18.364  0.00  0.00    -0.082 Cl
ATOM     25  C   UNL d   1       9.732   1.681 -15.864  0.00  0.00     0.058 A 
ATOM     26  C   UNL d   1       9.355   2.313 -14.662  0.00  0.00     0.009 A 
ATOM     27 CL   UNL d   1       9.868  -0.036 -15.912  0.00  0.00    -0.082 Cl
ENDBRANCH   4  20
TORSDOF 6
