REMARK  7 active torsions:
REMARK  status: ('A' for Active; 'I' for Inactive)
REMARK    1  A    between atoms: C_2  and  C_3 
REMARK    2  A    between atoms: C_3  and  N_4 
REMARK    3  A    between atoms: N_4  and  C_5 
REMARK    4  A    between atoms: N_4  and  C_19 
REMARK    5  A    between atoms: C_5  and  C_6 
REMARK    6  A    between atoms: C_6  and  N_7 
REMARK       I    between atoms: N_7  and  C_8 
REMARK       I    between atoms: C_8  and  N_10 
REMARK    7  A    between atoms: N_11  and  C_12 
ROOT
ATOM      1  C   UNL d   1       9.029   5.936  -9.079  0.00  0.00     0.276 C 
ENDROOT
BRANCH   1   2
ATOM      2  N   UNL d   1      10.114   6.908  -8.836  0.00  0.00     0.138 N 
BRANCH   2   3
ATOM      3  C   UNL d   1      10.129   7.921  -9.929  0.00  0.00     0.250 C 
BRANCH   3   4
ATOM      4  C   UNL d   1      11.379   8.825  -9.953  0.00  0.00     0.035 C 
ATOM      5  C   UNL d   1      12.692   8.063  -9.568  0.00  0.00     0.002 C 
ENDBRANCH   3   4
ENDBRANCH   2   3
BRANCH   2   6
ATOM      6  C   UNL d   1       9.956   7.536  -7.513  0.00  0.00     0.228 C 
ATOM      7  C   UNL d   1      10.229   6.544  -6.340  0.00  0.00     0.060 C 
ATOM      8  C   UNL d   1      11.052   7.356  -5.367  0.00  0.00    -0.024 A 
ATOM      9  C   UNL d   1      11.381   8.591  -5.862  0.00  0.00    -0.024 A 
ATOM     10  C   UNL d   1      11.475   6.978  -4.075  0.00  0.00    -0.004 A 
ATOM     11  C   UNL d   1      10.832   8.777  -7.207  0.00  0.00     0.060 C 
ATOM     12  C   UNL d   1      12.232   9.488  -5.212  0.00  0.00    -0.004 A 
ATOM     13  C   UNL d   1      12.660   9.132  -3.908  0.00  0.00    -0.000 A 
ATOM     14  C   UNL d   1      12.251   7.896  -3.346  0.00  0.00    -0.000 A 
ENDBRANCH   2   6
ENDBRANCH   1   2
BRANCH   1  15
ATOM     15  C   UNL d   1       9.245   5.159 -10.388  0.00  0.00     0.166 C 
BRANCH  15  16
ATOM     16  N   UNL d   1       7.947   4.743 -11.012  0.00  0.00    -0.214 NA
ATOM     17  C   UNL d   1       7.785   4.545 -12.293  0.00  0.00     0.382 C 
ATOM     18  O   UNL d   1       6.688   4.210 -12.794  0.00  0.00    -0.241 OA
ATOM     19  N   UNL d   1       9.007   4.665 -13.158  0.00  0.00    -0.088 NA
ATOM     20  N   UNL d   1       8.884   4.396 -14.363  0.00  0.00    -0.144 NA
BRANCH  20  21
ATOM     21  C   UNL d   1      10.069   4.473 -15.133  0.00  0.00     0.103 A 
ATOM     22  C   UNL d   1      11.332   4.262 -14.527  0.00  0.00     0.023 A 
ATOM     23  C   UNL d   1      12.507   4.354 -15.292  0.00  0.00     0.031 A 
ATOM     24  C   UNL d   1      12.438   4.647 -16.664  0.00  0.00     0.140 A 
ATOM     25  C   UNL d   1      11.186   4.853 -17.277  0.00  0.00     0.031 A 
ATOM     26  F   UNL d   1      13.572   4.731 -17.397  0.00  0.00    -0.204 F 
ATOM     27  C   UNL d   1      10.005   4.764 -16.512  0.00  0.00     0.023 A 
ENDBRANCH  20  21
ENDBRANCH  15  16
ENDBRANCH   1  15
TORSDOF 7
