REMARK  2 active torsions:
REMARK  status: ('A' for Active; 'I' for Inactive)
REMARK    1  A    between atoms: N_2  and  C_3 
REMARK    2  A    between atoms: C_3  and  C_4 
ROOT
ATOM      1  C   UNL d   1      11.082   7.565  -7.225  0.00  0.00     0.150 C 
ATOM      2  C   UNL d   1      12.274   8.050  -8.111  0.00  0.00     0.033 C 
ATOM      3  C   UNL d   1      11.965   8.127  -9.611  0.00  0.00     0.003 C 
ATOM      4  C   UNL d   1      10.721   8.983  -9.876  0.00  0.00     0.008 C 
ATOM      5  C   UNL d   1       9.478   8.572  -9.065  0.00  0.00     0.067 C 
ATOM      6  C   UNL d   1       9.793   8.333  -7.586  0.00  0.00     0.174 C 
ATOM      7  O   UNL d   1       8.997   8.671  -6.720  0.00  0.00    -0.294 OA
ENDROOT
BRANCH   1   8
ATOM      8  N   UNL d   1      10.902   6.125  -7.479  0.00  0.00    -0.286 NA
ATOM      9  C   UNL d   1       9.991   5.663  -8.518  0.00  0.00     0.146 C 
ENDBRANCH   1   8
BRANCH   1  10
ATOM     10  C   UNL d   1      11.422   7.790  -5.718  0.00  0.00     0.015 A 
ATOM     11  C   UNL d   1      11.594   9.074  -5.124  0.00  0.00     0.056 A 
ATOM     12  C   UNL d   1      11.890   9.213  -3.744  0.00  0.00     0.011 A 
ATOM     13 CL   UNL d   1      11.457  10.539  -6.034  0.00  0.00    -0.083 Cl
ATOM     14  C   UNL d   1      12.030   8.084  -2.918  0.00  0.00     0.001 A 
ATOM     15  C   UNL d   1      11.861   6.811  -3.477  0.00  0.00    -0.000 A 
ATOM     16  C   UNL d   1      11.561   6.672  -4.844  0.00  0.00    -0.001 A 
ENDBRANCH   1  10
TORSDOF 2
