REMARK  3 active torsions:
REMARK  status: ('A' for Active; 'I' for Inactive)
REMARK    1  A    between atoms: N_2  and  C_4 
REMARK    2  A    between atoms: C_4  and  C_5 
REMARK    3  A    between atoms: C_5  and  C_6 
ROOT
ATOM      1  C   UNL d   1       9.409   3.955 -13.980  0.00  0.00     0.142 C 
ATOM      2  C   UNL d   1       9.122   2.621 -14.661  0.00  0.00     0.055 C 
ATOM      3  C   UNL d   1       9.913   2.793 -15.945  0.00  0.00     0.113 C 
ATOM      4  C   UNL d   1      10.088   1.530 -16.800  0.00  0.00    -0.009 A 
ATOM      5  C   UNL d   1       8.959   0.693 -16.968  0.00  0.00    -0.003 A 
ATOM      6  C   UNL d   1       9.025  -0.465 -17.763  0.00  0.00    -0.000 A 
ATOM      7  C   UNL d   1      10.223  -0.805 -18.408  0.00  0.00    -0.000 A 
ATOM      8  C   UNL d   1      11.350   0.022 -18.267  0.00  0.00    -0.004 A 
ATOM      9  C   UNL d   1      11.298   1.195 -17.480  0.00  0.00    -0.020 A 
ATOM     10  C   UNL d   1      12.577   2.017 -17.383  0.00  0.00     0.053 C 
ATOM     11  C   UNL d   1      12.412   3.521 -17.508  0.00  0.00    -0.005 A 
ATOM     12  C   UNL d   1      13.003   4.224 -18.577  0.00  0.00    -0.003 A 
ATOM     13  C   UNL d   1      12.896   5.627 -18.647  0.00  0.00    -0.000 A 
ATOM     14  C   UNL d   1      12.202   6.330 -17.643  0.00  0.00     0.001 A 
ATOM     15  C   UNL d   1      11.612   5.632 -16.573  0.00  0.00     0.013 A 
ATOM     16  C   UNL d   1      11.713   4.226 -16.504  0.00  0.00     0.058 A 
ATOM     17  N   UNL d   1      11.104   3.484 -15.487  0.00  0.00    -0.142 NA
ATOM     18  O   UNL d   1      10.772   4.215 -14.299  0.00  0.00    -0.281 OA
ENDROOT
BRANCH   1  19
ATOM     19  C   UNL d   1       9.206   3.937 -12.461  0.00  0.00     0.067 C 
BRANCH  19  20
ATOM     20  C   UNL d   1       9.465   5.296 -11.806  0.00  0.00     0.253 C 
BRANCH  20  21
ATOM     21  N   UNL d   1       8.515   6.316 -12.232  0.00  0.00     0.141 N 
ATOM     22  C   UNL d   1       8.975   7.615 -11.747  0.00  0.00     0.285 C 
ATOM     23  C   UNL d   1       7.189   6.058 -11.669  0.00  0.00     0.285 C 
ENDBRANCH  20  21
ENDBRANCH  19  20
ENDBRANCH   1  19
TORSDOF 3
