REMARK  5 active torsions:
REMARK  status: ('A' for Active; 'I' for Inactive)
REMARK    1  A    between atoms: C_2  and  C_3 
REMARK    2  A    between atoms: N_13  and  C_14 
REMARK    3  A    between atoms: C_14  and  C_15 
REMARK    4  A    between atoms: C_15  and  C_17 
REMARK    5  A    between atoms: C_17  and  N_18 
ROOT
ATOM      1  C   UNL d   1       8.083   4.212  -9.490  0.00  0.00     0.039 C 
ATOM      2  C   UNL d   1       8.596   5.383 -10.289  0.00  0.00     0.179 C 
ATOM      3  N   UNL d   1       7.445   5.988 -10.860  0.00  0.00    -0.209 NA
ATOM      4  C   UNL d   1       7.452   6.188 -12.162  0.00  0.00     0.348 C 
ATOM      5  O   UNL d   1       6.585   6.741 -12.821  0.00  0.00    -0.245 OA
ATOM      6  N   UNL d   1       8.546   5.571 -12.626  0.00  0.00    -0.247 N 
ATOM      7  C   UNL d   1       9.203   4.995 -11.629  0.00  0.00     0.265 C 
ATOM      8  O   UNL d   1      10.067   4.153 -11.809  0.00  0.00    -0.269 OA
ENDROOT
BRANCH   6   9
ATOM      9  C   UNL d   1       8.921   5.373 -14.018  0.00  0.00     0.148 C 
BRANCH   9  10
ATOM     10  C   UNL d   1       8.758   3.965 -14.598  0.00  0.00     0.208 C 
ATOM     11  O   UNL d   1       9.882   3.819 -15.440  0.00  0.00    -0.219 OA
BRANCH  10  12
ATOM     12  C   UNL d   1       8.608   2.790 -13.627  0.00  0.00     0.285 C 
BRANCH  12  13
ATOM     13  N   UNL d   1       7.902   1.621 -14.045  0.00  0.00     0.144 N 
ATOM     14  C   UNL d   1       6.455   1.790 -13.906  0.00  0.00     0.277 C 
ATOM     15  C   UNL d   1       5.723   0.572 -14.393  0.00  0.00     0.007 A 
ATOM     16  C   UNL d   1       6.332  -0.285 -15.352  0.00  0.00    -0.022 A 
ATOM     17  C   UNL d   1       4.420   0.323 -13.943  0.00  0.00    -0.003 A 
ATOM     18  C   UNL d   1       7.775  -0.077 -15.787  0.00  0.00     0.061 C 
ATOM     19  C   UNL d   1       5.586  -1.350 -15.871  0.00  0.00    -0.004 A 
ATOM     20  C   UNL d   1       8.258   1.297 -15.433  0.00  0.00     0.255 C 
ATOM     21  C   UNL d   1       4.266  -1.575 -15.452  0.00  0.00    -0.000 A 
ATOM     22  C   UNL d   1       3.681  -0.749 -14.479  0.00  0.00    -0.000 A 
ENDBRANCH  12  13
ENDBRANCH  10  12
ENDBRANCH   9  10
ENDBRANCH   6   9
BRANCH   2  23
ATOM     23  C   UNL d   1       9.527   6.258  -9.450  0.00  0.00     0.006 A 
ATOM     24  C   UNL d   1       9.793   5.936  -8.100  0.00  0.00     0.000 A 
ATOM     25  C   UNL d   1      10.663   6.705  -7.322  0.00  0.00     0.029 A 
ATOM     26  C   UNL d   1      11.284   7.815  -7.911  0.00  0.00     0.140 A 
ATOM     27  C   UNL d   1      11.047   8.131  -9.260  0.00  0.00     0.029 A 
ATOM     28  F   UNL d   1      12.113   8.586  -7.181  0.00  0.00    -0.204 F 
ATOM     29  C   UNL d   1      10.167   7.361 -10.029  0.00  0.00     0.000 A 
ENDBRANCH   2  23
TORSDOF 5
