REMARK  2 active torsions:
REMARK  status: ('A' for Active; 'I' for Inactive)
REMARK    1  A    between atoms: N_5  and  C_6 
REMARK    2  A    between atoms: C_18  and  C_19 
ROOT
ATOM      1  C   UNL d   1       6.544   0.080 -16.675  0.00  0.00     0.246 C 
ATOM      2  C   UNL d   1       6.116  -0.692 -17.962  0.00  0.00     0.065 C 
ATOM      3  C   UNL d   1       6.212   0.057 -19.245  0.00  0.00    -0.014 A 
ATOM      4  C   UNL d   1       5.050   0.537 -19.879  0.00  0.00    -0.004 A 
ATOM      5  C   UNL d   1       5.162   1.200 -21.116  0.00  0.00    -0.000 A 
ATOM      6  C   UNL d   1       6.429   1.365 -21.715  0.00  0.00     0.001 A 
ATOM      7  C   UNL d   1       7.591   0.875 -21.087  0.00  0.00     0.006 A 
ATOM      8  C   UNL d   1       7.468   0.207 -19.852  0.00  0.00     0.025 A 
ATOM      9  S   UNL d   1       8.870  -0.442 -19.015  0.00  0.00    -0.087 SA
ATOM     10  C   UNL d   1       8.907   0.735 -17.689  0.00  0.00     0.027 A 
ATOM     11  C   UNL d   1      10.034   1.583 -17.651  0.00  0.00     0.006 A 
ATOM     12  C   UNL d   1      10.133   2.608 -16.715  0.00  0.00     0.002 A 
ATOM     13  C   UNL d   1       9.143   2.799 -15.741  0.00  0.00     0.017 A 
ATOM     14  C   UNL d   1       7.966   1.990 -15.823  0.00  0.00    -0.000 A 
ATOM     15  C   UNL d   1       7.835   0.938 -16.760  0.00  0.00     0.015 A 
ENDROOT
BRANCH   1  16
ATOM     16  N   UNL d   1       6.576  -0.793 -15.487  0.00  0.00     0.144 N 
ATOM     17  C   UNL d   1       5.638  -1.938 -15.529  0.00  0.00     0.286 C 
ATOM     18  C   UNL d   1       4.200  -1.460 -15.407  0.00  0.00     0.286 C 
ATOM     19  N   UNL d   1       4.040  -0.758 -14.145  0.00  0.00     0.143 N 
ATOM     20  C   UNL d   1       2.702  -0.294 -14.057  0.00  0.00     0.285 C 
ATOM     21  C   UNL d   1       4.988   0.360 -14.033  0.00  0.00     0.286 C 
ATOM     22  C   UNL d   1       6.446  -0.130 -14.179  0.00  0.00     0.286 C 
ENDBRANCH   1  16
BRANCH  13  23
ATOM     23  C   UNL d   1       9.264   3.794 -14.671  0.00  0.00     0.080 A 
ATOM     24  N   UNL d   1      10.477   4.246 -14.138  0.00  0.00    -0.249 N 
ATOM     25  N   UNL d   1      10.254   5.185 -13.182  0.00  0.00    -0.168 NA
ATOM     26  C   UNL d   1      11.865   3.891 -14.407  0.00  0.00     0.154 C 
ATOM     27  C   UNL d   1       8.940   5.304 -13.087  0.00  0.00     0.122 A 
ATOM     28  C   UNL d   1       8.264   4.447 -13.992  0.00  0.00     0.041 A 
ENDBRANCH  13  23
TORSDOF 2
