REMARK  7 active torsions:
REMARK  status: ('A' for Active; 'I' for Inactive)
REMARK       I    between atoms: C_2  and  N_3 
REMARK    1  A    between atoms: C_2  and  C_22 
REMARK    2  A    between atoms: N_3  and  C_4 
REMARK    3  A    between atoms: C_4  and  C_5 
REMARK    4  A    between atoms: C_5  and  C_6 
REMARK    5  A    between atoms: C_6  and  C_7 
REMARK    6  A    between atoms: C_7  and  N_8 
REMARK    7  A    between atoms: N_11  and  C_12 
ROOT
ATOM      1  C   UNL d   1       9.208   6.289 -11.708  0.00  0.00     0.129 C 
ENDROOT
BRANCH   1   2
ATOM      2  N   UNL d   1       9.580   6.550 -10.331  0.00  0.00    -0.234 NA
ATOM      3  C   UNL d   1      10.042   7.718  -9.865  0.00  0.00     0.275 C 
ATOM      4  O   UNL d   1      10.130   8.742 -10.547  0.00  0.00    -0.266 OA
BRANCH   3   5
ATOM      5  C   UNL d   1      10.439   7.713  -8.415  0.00  0.00     0.057 A 
ATOM      6  C   UNL d   1      10.553   8.944  -7.728  0.00  0.00     0.001 A 
ATOM      7  C   UNL d   1      10.960   8.932  -6.383  0.00  0.00    -0.018 A 
ATOM      8  C   UNL d   1      11.278   7.734  -5.744  0.00  0.00    -0.004 A 
ATOM      9  C   UNL d   1      11.141  10.116  -5.451  0.00  0.00     0.053 A 
ATOM     10  C   UNL d   1      11.220   6.516  -6.415  0.00  0.00    -0.000 A 
ATOM     11  C   UNL d   1      11.665   8.010  -4.380  0.00  0.00    -0.004 A 
ATOM     12  C   UNL d   1      10.774   6.505  -7.747  0.00  0.00     0.005 A 
ATOM     13  C   UNL d   1      11.582   9.389  -4.194  0.00  0.00    -0.018 A 
ATOM     14  C   UNL d   1      12.042   7.144  -3.334  0.00  0.00    -0.000 A 
ATOM     15  C   UNL d   1      11.864   9.965  -2.953  0.00  0.00    -0.004 A 
ATOM     16  C   UNL d   1      12.272   9.114  -1.906  0.00  0.00    -0.000 A 
ATOM     17  C   UNL d   1      12.341   7.716  -2.079  0.00  0.00    -0.000 A 
ENDBRANCH   3   5
ENDBRANCH   1   2
BRANCH   1  18
ATOM     18  C   UNL d   1       9.576   4.846 -12.088  0.00  0.00     0.029 C 
BRANCH  18  19
ATOM     19  C   UNL d   1      10.186   4.754 -13.508  0.00  0.00     0.037 C 
BRANCH  19  20
ATOM     20  C   UNL d   1      10.206   3.344 -14.108  0.00  0.00     0.251 C 
BRANCH  20  21
ATOM     21  N   UNL d   1       9.002   3.119 -14.905  0.00  0.00     0.141 N 
ATOM     22  C   UNL d   1       9.329   2.196 -15.996  0.00  0.00     0.274 C 
ATOM     23  C   UNL d   1       8.098   1.963 -16.881  0.00  0.00     0.137 C 
ATOM     24  N   UNL d   1       6.976   1.488 -16.080  0.00  0.00    -0.344 N 
ATOM     25  C   UNL d   1       6.673   2.291 -14.900  0.00  0.00     0.137 C 
ATOM     26  C   UNL d   1       7.938   2.527 -14.081  0.00  0.00     0.274 C 
BRANCH  24  27
ATOM     27  C   UNL d   1       6.218   0.360 -16.400  0.00  0.00     0.068 A 
ATOM     28  C   UNL d   1       5.777   0.054 -17.730  0.00  0.00     0.084 A 
ATOM     29  C   UNL d   1       5.044  -1.116 -17.976  0.00  0.00     0.070 A 
ATOM     30 CL   UNL d   1       6.061   1.115 -19.072  0.00  0.00    -0.080 Cl
ATOM     31  C   UNL d   1       4.721  -1.987 -16.927  0.00  0.00     0.012 A 
ATOM     32 CL   UNL d   1       4.521  -1.497 -19.574  0.00  0.00    -0.081 Cl
ATOM     33  C   UNL d   1       5.115  -1.689 -15.616  0.00  0.00     0.002 A 
ATOM     34  C   UNL d   1       5.852  -0.527 -15.351  0.00  0.00     0.018 A 
ENDBRANCH  24  27
ENDBRANCH  20  21
ENDBRANCH  19  20
ENDBRANCH  18  19
ENDBRANCH   1  18
TORSDOF 7
