REMARK  8 active torsions:
REMARK  status: ('A' for Active; 'I' for Inactive)
REMARK    1  A    between atoms: C_3  and  S_4 
REMARK    2  A    between atoms: S_4  and  C_5 
REMARK    3  A    between atoms: C_5  and  C_6 
REMARK    4  A    between atoms: C_6  and  C_7 
REMARK    5  A    between atoms: C_7  and  N_8 
REMARK    6  A    between atoms: C_12  and  C_13 
REMARK    7  A    between atoms: C_16  and  C_17 
REMARK    8  A    between atoms: C_26  and  C_27 
ROOT
ATOM      1  N   UNL d   1       9.034   2.473 -14.789  0.00  0.00     0.137 N 
ATOM      2  C   UNL d   1       9.690   1.214 -14.440  0.00  0.00     0.251 C 
ATOM      3  C   UNL d   1       9.653   0.435 -15.728  0.00  0.00     0.039 A 
ATOM      4  C   UNL d   1      10.722   0.551 -16.791  0.00  0.00     0.008 A 
ATOM      5  C   UNL d   1       9.499   1.443 -16.822  0.00  0.00     0.052 A 
ATOM      6  C   UNL d   1       9.468   2.792 -16.148  0.00  0.00     0.254 C 
ENDROOT
BRANCH   1   7
ATOM      7  C   UNL d   1       9.369   3.515 -13.821  0.00  0.00     0.251 C 
BRANCH   7   8
ATOM      8  C   UNL d   1       8.444   4.733 -13.983  0.00  0.00     0.047 C 
BRANCH   8   9
ATOM      9  C   UNL d   1       8.738   5.813 -12.943  0.00  0.00     0.067 C 
BRANCH   9  10
ATOM     10  S   UNL d   1       8.332   5.263 -11.261  0.00  0.00    -0.075 SA
BRANCH  10  11
ATOM     11  C   UNL d   1       9.213   6.485 -10.340  0.00  0.00     0.193 A 
ATOM     12  N   UNL d   1       9.331   6.436  -9.000  0.00  0.00    -0.289 N 
ATOM     13  C   UNL d   1       8.716   5.481  -8.103  0.00  0.00     0.134 C 
ATOM     14  C   UNL d   1      10.141   7.492  -8.741  0.00  0.00     0.167 A 
ATOM     15  N   UNL d   1      10.466   8.169  -9.846  0.00  0.00    -0.128 NA
ATOM     16  N   UNL d   1       9.857   7.515 -10.885  0.00  0.00    -0.122 NA
BRANCH  14  17
ATOM     17  C   UNL d   1      10.649   7.922  -7.433  0.00  0.00     0.036 A 
ATOM     18  C   UNL d   1      10.784   7.023  -6.349  0.00  0.00     0.003 A 
ATOM     19  C   UNL d   1      11.206   7.474  -5.084  0.00  0.00     0.000 A 
ATOM     20  C   UNL d   1      11.548   8.825  -4.894  0.00  0.00     0.000 A 
ATOM     21  C   UNL d   1      11.468   9.724  -5.977  0.00  0.00     0.000 A 
ATOM     22  C   UNL d   1      11.020   9.273  -7.235  0.00  0.00     0.003 A 
ENDBRANCH  14  17
ENDBRANCH  10  11
ENDBRANCH   9  10
ENDBRANCH   8   9
ENDBRANCH   7   8
ENDBRANCH   1   7
BRANCH   5  23
ATOM     23  C   UNL d   1       8.432   1.254 -17.869  0.00  0.00    -0.021 A 
ATOM     24  C   UNL d   1       7.104   0.967 -17.500  0.00  0.00    -0.004 A 
ATOM     25  C   UNL d   1       6.122   0.748 -18.486  0.00  0.00     0.004 A 
ATOM     26  C   UNL d   1       6.461   0.823 -19.855  0.00  0.00     0.071 A 
ATOM     27  C   UNL d   1       7.789   1.109 -20.223  0.00  0.00     0.004 A 
ATOM     28  C   UNL d   1       8.770   1.325 -19.234  0.00  0.00    -0.004 A 
BRANCH  26  29
ATOM     29  C   UNL d   1       5.409   0.591 -20.930  0.00  0.00     0.419 C 
ATOM     30  F   UNL d   1       5.594   1.431 -21.949  0.00  0.00    -0.166 F 
ATOM     31  F   UNL d   1       5.491  -0.660 -21.381  0.00  0.00    -0.166 F 
ATOM     32  F   UNL d   1       4.188   0.795 -20.441  0.00  0.00    -0.166 F 
ENDBRANCH  26  29
ENDBRANCH   5  23
TORSDOF 8
