REMARK  2 active torsions:
REMARK  status: ('A' for Active; 'I' for Inactive)
REMARK    1  A    between atoms: C_2  and  P_4 
REMARK    2  A    between atoms: C_2  and  P_8 
ROOT
ATOM      1  C   UNL d   1      10.791   7.288  -7.009  0.00  0.00     0.063 C 
ATOM      2  C   UNL d   1       9.751   7.516  -8.122  0.00  0.00     0.328 C 
ATOM      3  O   UNL d   1       8.771   8.364  -7.562  0.00  0.00    -0.197 OA
ENDROOT
BRANCH   2   4
ATOM      4  P   UNL d   1      10.560   8.296  -9.600  0.00  0.00     0.314 P 
ATOM      5  O   UNL d   1      11.119   9.629  -9.298  0.00  0.00    -0.637 OA
ATOM      6  O   UNL d   1      11.664   7.201 -10.036  0.00  0.00    -0.637 OA
ATOM      7  O   UNL d   1       9.475   8.278 -10.816  0.00  0.00    -0.637 OA
ENDBRANCH   2   4
BRANCH   2   8
ATOM      8  P   UNL d   1       9.060   5.878  -8.704  0.00  0.00     0.314 P 
ATOM      9  O   UNL d   1      10.014   4.753  -8.824  0.00  0.00    -0.637 OA
ATOM     10  O   UNL d   1       7.863   5.637  -7.632  0.00  0.00    -0.637 OA
ATOM     11  O   UNL d   1       8.268   6.199 -10.081  0.00  0.00    -0.637 OA
ENDBRANCH   2   8
TORSDOF 2
