REMARK  5 active torsions:
REMARK  status: ('A' for Active; 'I' for Inactive)
REMARK       I    between atoms: C_2  and  N_3 
REMARK    1  A    between atoms: C_2  and  C_22 
REMARK    2  A    between atoms: N_3  and  C_4 
REMARK    3  A    between atoms: C_4  and  C_5 
REMARK    4  A    between atoms: C_5  and  N_6 
REMARK    5  A    between atoms: N_9  and  C_10 
ROOT
ATOM      1  N   UNL d   1       7.923   5.281 -11.753  0.00  0.00     0.143 N 
ATOM      2  C   UNL d   1       8.927   4.410 -12.374  0.00  0.00     0.274 C 
ATOM      3  C   UNL d   1       8.508   4.035 -13.802  0.00  0.00     0.137 C 
ATOM      4  N   UNL d   1       7.180   3.427 -13.808  0.00  0.00    -0.343 N 
ATOM      5  C   UNL d   1       6.156   4.199 -13.112  0.00  0.00     0.137 C 
ATOM      6  C   UNL d   1       6.640   4.565 -11.699  0.00  0.00     0.274 C 
ENDROOT
BRANCH   1   7
ATOM      7  C   UNL d   1       8.335   5.630 -10.396  0.00  0.00     0.277 C 
BRANCH   7   8
ATOM      8  C   UNL d   1       9.427   6.725 -10.388  0.00  0.00     0.164 C 
BRANCH   8   9
ATOM      9  N   UNL d   1       9.857   7.007  -9.026  0.00  0.00    -0.232 NA
ATOM     10  C   UNL d   1      10.481   8.123  -8.620  0.00  0.00     0.275 C 
ATOM     11  O   UNL d   1      10.718   9.080  -9.359  0.00  0.00    -0.266 OA
BRANCH  10  12
ATOM     12  C   UNL d   1      10.859   8.158  -7.160  0.00  0.00     0.058 A 
ATOM     13  C   UNL d   1      11.057   6.960  -6.429  0.00  0.00     0.007 A 
ATOM     14  C   UNL d   1      11.434   7.003  -5.073  0.00  0.00     0.030 A 
ATOM     15  C   UNL d   1      11.639   8.241  -4.437  0.00  0.00     0.140 A 
ATOM     16  C   UNL d   1      11.456   9.436  -5.155  0.00  0.00     0.030 A 
ATOM     17  F   UNL d   1      12.003   8.281  -3.133  0.00  0.00    -0.204 F 
ATOM     18  C   UNL d   1      11.079   9.395  -6.510  0.00  0.00     0.007 A 
ENDBRANCH  10  12
ENDBRANCH   8   9
ENDBRANCH   7   8
ENDBRANCH   1   7
BRANCH   4  19
ATOM     19  C   UNL d   1       6.914   2.183 -14.428  0.00  0.00     0.081 A 
ATOM     20  C   UNL d   1       7.637   1.744 -15.558  0.00  0.00     0.137 A 
ATOM     21  C   UNL d   1       7.399   0.504 -16.198  0.00  0.00     0.110 A 
ATOM     22  O   UNL d   1       8.650   2.385 -16.255  0.00  0.00    -0.266 OA
ATOM     23  C   UNL d   1       6.379  -0.323 -15.682  0.00  0.00     0.021 A 
ATOM     24  N   UNL d   1       8.272   0.358 -17.260  0.00  0.00    -0.196 NA
ATOM     25  C   UNL d   1       5.636   0.085 -14.558  0.00  0.00     0.003 A 
ATOM     26  C   UNL d   1       5.901   1.323 -13.933  0.00  0.00     0.019 A 
ATOM     27  C   UNL d   1       8.975   1.496 -17.231  0.00  0.00     0.323 A 
ATOM     28  O   UNL d   1       9.975   1.869 -18.066  0.00  0.00    -0.141 OA
ENDBRANCH   4  19
TORSDOF 5
