REMARK  6 active torsions:
REMARK  status: ('A' for Active; 'I' for Inactive)
REMARK    1  A    between atoms: O_2  and  N_3 
REMARK    2  A    between atoms: C_4  and  C_5 
REMARK    3  A    between atoms: C_4  and  C_19 
REMARK    4  A    between atoms: C_5  and  C_6 
REMARK    5  A    between atoms: C_6  and  N_7 
REMARK    6  A    between atoms: N_10  and  C_11 
ROOT
ATOM      1  C   UNL d   1      10.239   1.260 -14.870  0.00  0.00     0.257 C 
ENDROOT
BRANCH   1   2
ATOM      2  C   UNL d   1      11.304   2.296 -15.300  0.00  0.00     0.083 C 
BRANCH   2   3
ATOM      3  C   UNL d   1      10.914   3.733 -14.973  0.00  0.00     0.087 C 
ATOM      4  N   UNL d   1      10.645   4.047 -13.769  0.00  0.00    -0.136 NA
BRANCH   4   5
ATOM      5  O   UNL d   1      10.258   5.386 -13.635  0.00  0.00    -0.234 OA
ATOM      6  C   UNL d   1       9.388   5.481 -12.523  0.00  0.00     0.211 C 
ENDBRANCH   4   5
BRANCH   3   7
ATOM      7  C   UNL d   1      10.886   4.663 -16.126  0.00  0.00     0.016 A 
ATOM      8  C   UNL d   1      11.902   5.631 -16.284  0.00  0.00     0.002 A 
ATOM      9  C   UNL d   1      11.892   6.497 -17.399  0.00  0.00     0.011 A 
ATOM     10  C   UNL d   1      10.874   6.391 -18.370  0.00  0.00     0.058 A 
ATOM     11  C   UNL d   1       9.859   5.427 -18.216  0.00  0.00     0.011 A 
ATOM     12 CL   UNL d   1      10.836   7.480 -19.711  0.00  0.00    -0.082 Cl
ATOM     13  C   UNL d   1       9.857   4.585 -17.089  0.00  0.00     0.002 A 
ENDBRANCH   3   7
ENDBRANCH   2   3
ENDBRANCH   1   2
BRANCH   1  14
ATOM     14  N   UNL d   1       8.935   1.488 -15.493  0.00  0.00     0.141 N 
ATOM     15  C   UNL d   1       7.935   0.625 -14.857  0.00  0.00     0.274 C 
ATOM     16  C   UNL d   1       6.539   0.938 -15.424  0.00  0.00     0.138 C 
ATOM     17  N   UNL d   1       6.555   0.806 -16.878  0.00  0.00    -0.330 N 
ATOM     18  C   UNL d   1       7.603   1.551 -17.555  0.00  0.00     0.138 C 
ATOM     19  C   UNL d   1       8.969   1.208 -16.932  0.00  0.00     0.274 C 
BRANCH  17  20
ATOM     20  C   UNL d   1       5.669  -0.020 -17.588  0.00  0.00     0.140 A 
ATOM     21  N   UNL d   1       5.380   0.328 -18.865  0.00  0.00    -0.227 NA
ATOM     22  C   UNL d   1       4.513  -0.430 -19.565  0.00  0.00     0.101 A 
ATOM     23  C   UNL d   1       3.897  -1.576 -19.034  0.00  0.00     0.021 A 
ATOM     24  C   UNL d   1       4.204  -1.946 -17.713  0.00  0.00     0.005 A 
ATOM     25  C   UNL d   1       5.109  -1.162 -16.978  0.00  0.00     0.037 A 
ENDBRANCH  17  20
ENDBRANCH   1  14
TORSDOF 6
