REMARK  10 active torsions:
REMARK  status: ('A' for Active; 'I' for Inactive)
REMARK    1  A    between atoms: C_9  and  C_10 
REMARK    2  A    between atoms: C_10  and  C_12 
REMARK    3  A    between atoms: C_12  and  N_13 
REMARK    4  A    between atoms: N_13  and  C_14 
REMARK    5  A    between atoms: C_14  and  C_15 
REMARK    6  A    between atoms: C_15  and  C_16 
REMARK    7  A    between atoms: C_20  and  C_21 
REMARK    8  A    between atoms: C_21  and  N_22 
REMARK    9  A    between atoms: N_22  and  C_23 
REMARK   10  A    between atoms: C_23  and  C_24 
ROOT
ATOM      1  C   UNL d   1       8.639   4.520 -12.957  0.00  0.00     0.052 C 
ENDROOT
BRANCH   1   2
ATOM      2  C   UNL d   1       7.220   4.039 -12.722  0.00  0.00     0.125 C 
BRANCH   2   3
ATOM      3  N   UNL d   1       6.928   2.925 -13.586  0.00  0.00    -0.292 NA
BRANCH   3   4
ATOM      4  C   UNL d   1       5.816   2.050 -13.267  0.00  0.00     0.157 C 
BRANCH   4   5
ATOM      5  C   UNL d   1       5.893   0.692 -13.998  0.00  0.00     0.199 C 
ATOM      6  O   UNL d   1       6.667  -0.225 -13.246  0.00  0.00    -0.216 OA
BRANCH   5   7
ATOM      7  C   UNL d   1       6.314   0.719 -15.490  0.00  0.00     0.018 C 
ATOM      8  C   UNL d   1       7.439   1.482 -15.960  0.00  0.00     0.001 C 
ATOM      9  C   UNL d   1       7.719   1.610 -17.334  0.00  0.00     0.029 C 
ATOM     10  C   UNL d   1       7.010   0.891 -18.302  0.00  0.00     0.149 C 
ATOM     11  C   UNL d   1       5.978   0.054 -17.838  0.00  0.00     0.116 A 
ATOM     12  O   UNL d   1       7.371   0.972 -19.610  0.00  0.00    -0.189 OA
ATOM     13  N   UNL d   1       5.216  -0.803 -18.648  0.00  0.00    -0.200 NA
ATOM     14  C   UNL d   1       5.632  -0.025 -16.474  0.00  0.00     0.052 A 
ATOM     15  C   UNL d   1       4.246  -1.573 -18.005  0.00  0.00     0.311 A 
ATOM     16  O   UNL d   1       3.438  -2.352 -18.540  0.00  0.00    -0.258 OA
ATOM     17  S   UNL d   1       4.348  -1.208 -16.229  0.00  0.00    -0.024 SA
ENDBRANCH   5   7
ENDBRANCH   4   5
ENDBRANCH   3   4
ENDBRANCH   2   3
ENDBRANCH   1   2
BRANCH   1  18
ATOM     18  C   UNL d   1       9.058   5.527 -11.927  0.00  0.00    -0.020 A 
ATOM     19  C   UNL d   1       9.404   5.109 -10.629  0.00  0.00    -0.006 A 
ATOM     20  C   UNL d   1       9.760   6.055  -9.634  0.00  0.00     0.013 A 
ATOM     21  C   UNL d   1       9.797   7.425  -9.972  0.00  0.00    -0.002 A 
ATOM     22  C   UNL d   1       9.452   7.839 -11.280  0.00  0.00    -0.001 A 
ATOM     23  C   UNL d   1       9.078   6.898 -12.247  0.00  0.00    -0.004 A 
BRANCH  20  24
ATOM     24  C   UNL d   1      10.054   5.563  -8.230  0.00  0.00     0.317 C 
BRANCH  24  25
ATOM     25  N   UNL d   1      10.101   6.632  -7.239  0.00  0.00     0.349 N 
BRANCH  25  26
ATOM     26  C   UNL d   1      11.394   6.645  -6.569  0.00  0.00     0.319 C 
BRANCH  26  27
ATOM     27  C   UNL d   1      11.444   7.689  -5.475  0.00  0.00     0.041 A 
ATOM     28  C   UNL d   1      11.094   9.035  -5.729  0.00  0.00     0.138 A 
ATOM     29  C   UNL d   1      11.133   9.982  -4.691  0.00  0.00     0.029 A 
ATOM     30  F   UNL d   1      10.721   9.443  -6.969  0.00  0.00    -0.204 F 
ATOM     31  C   UNL d   1      11.555   9.591  -3.406  0.00  0.00     0.002 A 
ATOM     32  C   UNL d   1      11.913   8.255  -3.145  0.00  0.00    -0.000 A 
ATOM     33  C   UNL d   1      11.864   7.306  -4.177  0.00  0.00    -0.000 A 
ENDBRANCH  26  27
ENDBRANCH  25  26
ENDBRANCH  24  25
ENDBRANCH  20  24
ENDBRANCH   1  18
TORSDOF 10
