REMARK  1 active torsions:
REMARK  status: ('A' for Active; 'I' for Inactive)
REMARK    1  A    between atoms: C_5  and  N_6 
ROOT
ATOM      1  C   UNL d   1      12.539   7.107  -2.078  0.00  0.00     0.000 A 
ATOM      2  C   UNL d   1      12.538   6.230  -3.168  0.00  0.00     0.000 A 
ATOM      3  C   UNL d   1      12.067   6.620  -4.425  0.00  0.00     0.001 A 
ATOM      4  C   UNL d   1      11.594   7.926  -4.630  0.00  0.00     0.015 A 
ATOM      5  C   UNL d   1      11.157   8.380  -5.916  0.00  0.00     0.056 A 
ATOM      6  C   UNL d   1      10.682   9.696  -6.040  0.00  0.00     0.017 A 
ATOM      7  C   UNL d   1      10.659  10.528  -4.916  0.00  0.00     0.002 A 
ATOM      8  C   UNL d   1      11.133  10.096  -3.676  0.00  0.00     0.000 A 
ATOM      9  C   UNL d   1      11.605   8.800  -3.514  0.00  0.00     0.001 A 
ATOM     10  C   UNL d   1      12.073   8.414  -2.243  0.00  0.00     0.000 A 
ENDROOT
BRANCH   5  11
ATOM     11  N   UNL d   1      11.156   7.598  -7.067  0.00  0.00    -0.344 N 
ATOM     12  C   UNL d   1      11.787   8.024  -8.305  0.00  0.00     0.140 C 
ATOM     13  C   UNL d   1      10.802   7.837  -9.481  0.00  0.00     0.314 C 
ATOM     14  N   UNL d   1      10.264   6.473  -9.534  0.00  0.00     0.343 N 
ATOM     15  C   UNL d   1       9.547   6.181  -8.296  0.00  0.00     0.314 C 
ATOM     16  C   UNL d   1      10.503   6.312  -7.102  0.00  0.00     0.140 C 
ENDBRANCH   5  11
TORSDOF 1
