REMARK  7 active torsions:
REMARK  status: ('A' for Active; 'I' for Inactive)
REMARK    1  A    between atoms: O_2  and  C_3 
REMARK    2  A    between atoms: C_9  and  C_10 
REMARK    3  A    between atoms: C_12  and  C_13 
REMARK    4  A    between atoms: C_13  and  N_14 
REMARK    5  A    between atoms: N_14  and  C_15 
REMARK    6  A    between atoms: N_18  and  C_19 
REMARK    7  A    between atoms: C_19  and  C_20 
ROOT
ATOM      1  C   UNL d   1       9.163   5.915 -11.580  0.00  0.00     0.338 C 
ENDROOT
BRANCH   1   2
ATOM      2  C   UNL d   1       8.361   5.012 -12.457  0.00  0.00     0.122 A 
ATOM      3  N   UNL d   1       8.946   4.013 -13.216  0.00  0.00    -0.222 NA
ATOM      4  C   UNL d   1       7.937   3.417 -13.852  0.00  0.00     0.184 A 
ATOM      5  O   UNL d   1       6.727   3.976 -13.553  0.00  0.00    -0.286 OA
ATOM      6  C   UNL d   1       7.011   4.979 -12.664  0.00  0.00     0.141 A 
BRANCH   4   7
ATOM      7  C   UNL d   1       7.963   2.275 -14.772  0.00  0.00     0.064 A 
ATOM      8  C   UNL d   1       9.146   1.911 -15.473  0.00  0.00     0.098 A 
ATOM      9  C   UNL d   1       9.105   0.798 -16.354  0.00  0.00     0.025 A 
ATOM     10  C   UNL d   1       7.917   0.071 -16.544  0.00  0.00     0.009 A 
ATOM     11  C   UNL d   1       6.751   0.434 -15.848  0.00  0.00     0.035 A 
ATOM     12 BR   UNL d   1       5.148  -0.561 -16.093  0.00  0.00    -0.049 Br
ATOM     13  C   UNL d   1       6.777   1.532 -14.970  0.00  0.00     0.012 A 
BRANCH   8  14
ATOM     14  O   UNL d   1      10.285   2.663 -15.277  0.00  0.00    -0.328 OA
ATOM     15  C   UNL d   1      11.483   2.281 -15.935  0.00  0.00     0.181 C 
ENDBRANCH   8  14
ENDBRANCH   4   7
ENDBRANCH   1   2
BRANCH   1  16
ATOM     16  N   UNL d   1       9.221   5.633 -10.153  0.00  0.00     0.344 N 
BRANCH  16  17
ATOM     17  C   UNL d   1      10.188   6.487  -9.478  0.00  0.00     0.261 C 
ATOM     18  C   UNL d   1       9.646   7.910  -9.263  0.00  0.00     0.071 C 
ATOM     19  C   UNL d   1      10.594   8.741  -8.387  0.00  0.00     0.253 C 
ATOM     20  N   UNL d   1      10.816   8.088  -7.097  0.00  0.00     0.141 N 
ATOM     21  C   UNL d   1      11.478   6.796  -7.329  0.00  0.00     0.253 C 
ATOM     22  C   UNL d   1      10.510   5.893  -8.109  0.00  0.00     0.071 C 
BRANCH  20  23
ATOM     23  C   UNL d   1      11.617   8.953  -6.234  0.00  0.00     0.277 C 
BRANCH  23  24
ATOM     24  C   UNL d   1      11.816   8.425  -4.815  0.00  0.00     0.011 A 
ATOM     25  C   UNL d   1      11.212   7.232  -4.380  0.00  0.00    -0.002 A 
ATOM     26  C   UNL d   1      11.469   6.743  -3.099  0.00  0.00    -0.000 A 
ATOM     27  C   UNL d   1      12.271   7.452  -2.207  0.00  0.00    -0.000 A 
ATOM     28  C   UNL d   1      12.831   8.674  -2.596  0.00  0.00    -0.000 A 
ATOM     29  C   UNL d   1      12.642   9.125  -3.916  0.00  0.00    -0.002 A 
ENDBRANCH  23  24
ENDBRANCH  20  23
ENDBRANCH  16  17
ENDBRANCH   1  16
TORSDOF 7
