REMARK  7 active torsions:
REMARK  status: ('A' for Active; 'I' for Inactive)
REMARK    1  A    between atoms: C_8  and  O_9 
REMARK    2  A    between atoms: O_9  and  C_10 
REMARK    3  A    between atoms: C_10  and  C_11 
REMARK    4  A    between atoms: C_11  and  C_12 
REMARK    5  A    between atoms: C_12  and  C_13 
REMARK    6  A    between atoms: C_13  and  N_14 
REMARK    7  A    between atoms: N_17  and  C_18 
ROOT
ATOM      1  N   UNL d   1       8.952   4.963 -12.795  0.00  0.00     0.141 N 
ATOM      2  C   UNL d   1       7.627   4.728 -12.220  0.00  0.00     0.274 C 
ATOM      3  C   UNL d   1       6.697   4.215 -13.312  0.00  0.00     0.137 C 
ATOM      4  N   UNL d   1       7.272   3.056 -13.984  0.00  0.00    -0.343 N 
ATOM      5  C   UNL d   1       8.661   3.167 -14.419  0.00  0.00     0.137 C 
ATOM      6  C   UNL d   1       9.520   3.687 -13.265  0.00  0.00     0.274 C 
ENDROOT
BRANCH   1   7
ATOM      7  C   UNL d   1       9.822   5.497 -11.772  0.00  0.00     0.251 C 
BRANCH   7   8
ATOM      8  C   UNL d   1       9.569   6.951 -11.369  0.00  0.00     0.038 C 
BRANCH   8   9
ATOM      9  C   UNL d   1      10.579   7.431 -10.311  0.00  0.00     0.035 C 
BRANCH   9  10
ATOM     10  C   UNL d   1      10.121   8.768  -9.689  0.00  0.00     0.149 C 
BRANCH  10  11
ATOM     11  O   UNL d   1      11.052   9.214  -8.711  0.00  0.00    -0.331 OA
BRANCH  11  12
ATOM     12  C   UNL d   1      11.002   8.609  -7.481  0.00  0.00     0.096 A 
ATOM     13  C   UNL d   1      10.162   7.496  -7.224  0.00  0.00     0.024 A 
ATOM     14  C   UNL d   1      10.223   6.833  -6.011  0.00  0.00    -0.001 A 
ATOM     15  C   UNL d   1      11.084   7.264  -5.000  0.00  0.00    -0.004 A 
ATOM     16  C   UNL d   1      11.217   6.499  -3.709  0.00  0.00     0.038 C 
ATOM     17  C   UNL d   1      11.854   8.434  -5.187  0.00  0.00     0.082 A 
ATOM     18  C   UNL d   1      11.534   7.398  -2.521  0.00  0.00     0.095 C 
ATOM     19  C   UNL d   1      12.596   8.411  -2.869  0.00  0.00     0.256 C 
ATOM     20  O   UNL d   1      13.319   8.790  -1.970  0.00  0.00    -0.270 OA
ATOM     21  N   UNL d   1      12.653   8.890  -4.134  0.00  0.00    -0.212 NA
ATOM     22  C   UNL d   1      11.849   9.074  -6.445  0.00  0.00     0.043 A 
ENDBRANCH  11  12
ENDBRANCH  10  11
ENDBRANCH   9  10
ENDBRANCH   8   9
ENDBRANCH   7   8
ENDBRANCH   1   7
BRANCH   4  23
ATOM     23  C   UNL d   1       6.534   1.892 -14.156  0.00  0.00     0.081 A 
ATOM     24  C   UNL d   1       6.593   1.159 -15.367  0.00  0.00     0.134 A 
ATOM     25  C   UNL d   1       5.842  -0.016 -15.519  0.00  0.00     0.143 A 
ATOM     26  O   UNL d   1       7.362   1.652 -16.399  0.00  0.00    -0.325 OA
ATOM     27  C   UNL d   1       5.000  -0.449 -14.482  0.00  0.00     0.155 A 
ATOM     28  O   UNL d   1       5.868  -0.750 -16.684  0.00  0.00    -0.324 OA
ATOM     29  C   UNL d   1       4.935   0.287 -13.286  0.00  0.00     0.031 A 
ATOM     30  O   UNL d   1       4.232  -1.553 -14.648  0.00  0.00    -0.188 OA
ATOM     31  C   UNL d   1       5.688   1.440 -13.123  0.00  0.00     0.021 A 
ATOM     32  C   UNL d   1       6.960  -0.425 -17.535  0.00  0.00     0.182 C 
ATOM     33  C   UNL d   1       7.069   1.101 -17.666  0.00  0.00     0.182 C 
ENDBRANCH   4  23
TORSDOF 7
