REMARK  7 active torsions:
REMARK  status: ('A' for Active; 'I' for Inactive)
REMARK    1  A    between atoms: C_9  and  C_10 
REMARK    2  A    between atoms: C_10  and  C_11 
REMARK    3  A    between atoms: C_11  and  C_12 
REMARK    4  A    between atoms: C_12  and  C_13 
REMARK    5  A    between atoms: C_13  and  N_14 
REMARK    6  A    between atoms: N_17  and  C_18 
REMARK    7  A    between atoms: C_23  and  C_24 
ROOT
ATOM      1  N   UNL d   1       5.598  -6.187 -16.768  0.00  0.00    -0.191 NA
ATOM      2  C   UNL d   1       5.465  -5.140 -17.243  0.00  0.00     0.101 C 
ATOM      3  C   UNL d   1       5.316  -3.821 -17.841  0.00  0.00     0.068 A 
ATOM      4  C   UNL d   1       5.004  -3.687 -19.211  0.00  0.00     0.012 A 
ATOM      5  C   UNL d   1       4.913  -2.406 -19.789  0.00  0.00     0.020 A 
ATOM      6  C   UNL d   1       5.151  -1.275 -18.990  0.00  0.00     0.081 A 
ATOM      7  N   UNL d   1       5.148   0.074 -19.270  0.00  0.00    -0.244 NA
ATOM      8  C   UNL d   1       5.459   0.802 -18.136  0.00  0.00     0.095 A 
ATOM      9  C   UNL d   1       5.682  -0.050 -17.088  0.00  0.00    -0.002 A 
ATOM     10  C   UNL d   1       5.470  -1.377 -17.603  0.00  0.00     0.016 A 
ATOM     11  C   UNL d   1       5.514  -2.673 -17.049  0.00  0.00     0.011 A 
ENDROOT
BRANCH   9  12
ATOM     12  C   UNL d   1       6.036   0.363 -15.686  0.00  0.00     0.028 C 
BRANCH  12  13
ATOM     13  C   UNL d   1       7.225   1.350 -15.604  0.00  0.00     0.007 C 
BRANCH  13  14
ATOM     14  C   UNL d   1       7.072   2.385 -14.485  0.00  0.00     0.036 C 
BRANCH  14  15
ATOM     15  C   UNL d   1       8.374   3.170 -14.237  0.00  0.00     0.250 C 
BRANCH  15  16
ATOM     16  N   UNL d   1       8.118   4.405 -13.502  0.00  0.00     0.141 N 
ATOM     17  C   UNL d   1       9.303   5.261 -13.599  0.00  0.00     0.274 C 
ATOM     18  C   UNL d   1       9.080   6.577 -12.834  0.00  0.00     0.137 C 
ATOM     19  N   UNL d   1       8.808   6.295 -11.441  0.00  0.00    -0.344 N 
ATOM     20  C   UNL d   1       7.657   5.411 -11.277  0.00  0.00     0.137 C 
ATOM     21  C   UNL d   1       7.888   4.120 -12.082  0.00  0.00     0.274 C 
BRANCH  19  22
ATOM     22  C   UNL d   1       9.474   6.936 -10.373  0.00  0.00     0.056 A 
ATOM     23  C   UNL d   1       9.429   6.407  -9.056  0.00  0.00     0.019 A 
ATOM     24  C   UNL d   1      10.109   7.030  -7.984  0.00  0.00     0.026 A 
ATOM     25  C   UNL d   1      10.863   8.185  -8.275  0.00  0.00     0.100 A 
ATOM     26  C   UNL d   1      10.252   6.805  -6.580  0.00  0.00     0.032 A 
ATOM     27  C   UNL d   1      10.954   8.736  -9.556  0.00  0.00     0.026 A 
ATOM     28  O   UNL d   1      11.441   8.657  -7.120  0.00  0.00    -0.302 OA
ATOM     29  C   UNL d   1      10.223   8.124 -10.594  0.00  0.00     0.019 A 
ATOM     30  C   UNL d   1      11.078   7.798  -6.111  0.00  0.00     0.159 A 
BRANCH  30  31
ATOM     31  C   UNL d   1      11.583   8.073  -4.761  0.00  0.00     0.320 C 
ATOM     32  N   UNL d   1      11.654   7.020  -3.950  0.00  0.00    -0.101 N 
ATOM     33  O   UNL d   1      11.976   9.190  -4.429  0.00  0.00    -0.261 OA
ENDBRANCH  30  31
ENDBRANCH  19  22
ENDBRANCH  15  16
ENDBRANCH  14  15
ENDBRANCH  13  14
ENDBRANCH  12  13
ENDBRANCH   9  12
TORSDOF 7
