REMARK  7 active torsions:
REMARK  status: ('A' for Active; 'I' for Inactive)
REMARK    1  A    between atoms: O_2  and  C_3 
REMARK    2  A    between atoms: C_8  and  N_9 
REMARK    3  A    between atoms: N_12  and  C_13 
REMARK    4  A    between atoms: C_13  and  C_14 
REMARK    5  A    between atoms: C_14  and  C_15 
REMARK    6  A    between atoms: C_15  and  O_16 
REMARK    7  A    between atoms: O_16  and  C_17 
ROOT
ATOM      1  N   UNL d   1       7.798   4.799 -12.784  0.00  0.00    -0.343 N 
ATOM      2  C   UNL d   1       8.102   6.089 -13.356  0.00  0.00     0.137 C 
ATOM      3  C   UNL d   1       9.336   6.709 -12.675  0.00  0.00     0.274 C 
ATOM      4  N   UNL d   1       9.132   6.772 -11.234  0.00  0.00     0.141 N 
ATOM      5  C   UNL d   1       8.957   5.418 -10.723  0.00  0.00     0.274 C 
ATOM      6  C   UNL d   1       7.695   4.766 -11.340  0.00  0.00     0.137 C 
ENDROOT
BRANCH   4   7
ATOM      7  C   UNL d   1      10.257   7.470 -10.609  0.00  0.00     0.253 C 
BRANCH   7   8
ATOM      8  C   UNL d   1       9.986   7.895  -9.158  0.00  0.00     0.068 C 
BRANCH   8   9
ATOM      9  C   UNL d   1      11.218   8.589  -8.547  0.00  0.00     0.151 C 
BRANCH   9  10
ATOM     10  O   UNL d   1      10.881   9.154  -7.280  0.00  0.00    -0.331 OA
BRANCH  10  11
ATOM     11  C   UNL d   1      11.157   8.451  -6.128  0.00  0.00     0.090 A 
ATOM     12  C   UNL d   1      11.225   9.177  -4.915  0.00  0.00     0.000 A 
ATOM     13  C   UNL d   1      11.593   8.568  -3.700  0.00  0.00    -0.007 A 
ATOM     14  C   UNL d   1      10.912  10.631  -4.904  0.00  0.00     0.033 C 
ATOM     15  C   UNL d   1      11.890   7.201  -3.682  0.00  0.00    -0.022 A 
ATOM     16  C   UNL d   1      11.823   6.480  -4.882  0.00  0.00    -0.002 A 
ATOM     17  C   UNL d   1      12.296   6.512  -2.396  0.00  0.00     0.031 C 
ATOM     18  C   UNL d   1      11.397   7.062  -6.089  0.00  0.00     0.024 A 
ENDBRANCH  10  11
ENDBRANCH   9  10
ENDBRANCH   8   9
ENDBRANCH   7   8
ENDBRANCH   4   7
BRANCH   1  19
ATOM     19  C   UNL d   1       7.737   3.638 -13.563  0.00  0.00     0.079 A 
ATOM     20  C   UNL d   1       8.874   3.136 -14.251  0.00  0.00     0.110 A 
ATOM     21  C   UNL d   1       8.754   1.951 -15.013  0.00  0.00     0.026 A 
ATOM     22  C   UNL d   1       7.517   1.274 -15.086  0.00  0.00     0.002 A 
ATOM     23  C   UNL d   1       6.393   1.768 -14.391  0.00  0.00     0.002 A 
ATOM     24  C   UNL d   1       6.513   2.953 -13.639  0.00  0.00     0.019 A 
BRANCH  20  25
ATOM     25  O   UNL d   1      10.070   3.828 -14.116  0.00  0.00    -0.327 OA
ATOM     26  C   UNL d   1      11.247   3.231 -14.637  0.00  0.00     0.181 C 
ENDBRANCH  20  25
ENDBRANCH   1  19
TORSDOF 7
