REMARK  7 active torsions:
REMARK  status: ('A' for Active; 'I' for Inactive)
REMARK    1  A    between atoms: C_2  and  C_3 
REMARK    2  A    between atoms: N_13  and  C_14 
REMARK    3  A    between atoms: C_14  and  C_15 
REMARK    4  A    between atoms: C_15  and  C_17 
REMARK    5  A    between atoms: C_17  and  N_18 
REMARK    6  A    between atoms: C_21  and  O_22 
REMARK    7  A    between atoms: O_22  and  C_23 
ROOT
ATOM      1  C   UNL d   1       8.200   4.454 -13.122  0.00  0.00     0.208 C 
ATOM      2  O   UNL d   1       6.977   4.085 -13.717  0.00  0.00    -0.219 OA
ENDROOT
BRANCH   1   3
ATOM      3  C   UNL d   1       9.198   3.275 -13.262  0.00  0.00     0.148 C 
BRANCH   3   4
ATOM      4  N   UNL d   1      10.004   3.388 -14.472  0.00  0.00    -0.247 N 
ATOM      5  C   UNL d   1      11.120   4.132 -14.564  0.00  0.00     0.348 A 
ATOM      6  N   UNL d   1      11.590   4.045 -15.808  0.00  0.00    -0.209 NA
ATOM      7  O   UNL d   1      11.633   4.779 -13.650  0.00  0.00    -0.245 OA
ATOM      8  C   UNL d   1      10.741   3.255 -16.683  0.00  0.00     0.179 A 
ATOM      9  C   UNL d   1      11.548   2.050 -17.210  0.00  0.00     0.039 C 
ATOM     10  C   UNL d   1       9.704   2.820 -15.654  0.00  0.00     0.265 A 
ATOM     11  O   UNL d   1       8.752   2.088 -15.901  0.00  0.00    -0.269 OA
BRANCH   8  12
ATOM     12  C   UNL d   1      10.067   4.094 -17.789  0.00  0.00     0.006 A 
ATOM     13  C   UNL d   1       9.619   3.480 -18.987  0.00  0.00     0.000 A 
ATOM     14  C   UNL d   1       9.024   4.239 -20.010  0.00  0.00     0.029 A 
ATOM     15  C   UNL d   1       8.830   5.622 -19.846  0.00  0.00     0.140 A 
ATOM     16  C   UNL d   1       9.250   6.248 -18.660  0.00  0.00     0.029 A 
ATOM     17  F   UNL d   1       8.222   6.338 -20.820  0.00  0.00    -0.204 F 
ATOM     18  C   UNL d   1       9.867   5.490 -17.641  0.00  0.00     0.000 A 
ENDBRANCH   8  12
ENDBRANCH   3   4
ENDBRANCH   1   3
BRANCH   1  19
ATOM     19  C   UNL d   1       7.865   4.774 -11.655  0.00  0.00     0.285 C 
BRANCH  19  20
ATOM     20  N   UNL d   1       8.943   5.400 -10.902  0.00  0.00     0.140 N 
ATOM     21  C   UNL d   1       9.175   6.787 -11.325  0.00  0.00     0.253 C 
ATOM     22  C   UNL d   1      10.317   7.442 -10.541  0.00  0.00     0.066 C 
ATOM     23  C   UNL d   1      10.114   7.384  -9.006  0.00  0.00     0.125 C 
ATOM     24  C   UNL d   1       9.732   5.944  -8.623  0.00  0.00     0.066 C 
ATOM     25  C   UNL d   1       8.616   5.395  -9.482  0.00  0.00     0.253 C 
BRANCH  23  26
ATOM     26  O   UNL d   1      11.348   7.789  -8.398  0.00  0.00    -0.333 OA
BRANCH  26  27
ATOM     27  C   UNL d   1      11.393   7.938  -7.029  0.00  0.00     0.094 A 
ATOM     28  C   UNL d   1      11.357   6.825  -6.157  0.00  0.00     0.025 A 
ATOM     29  C   UNL d   1      11.469   6.991  -4.767  0.00  0.00     0.013 A 
ATOM     30  C   UNL d   1      11.697   8.274  -4.234  0.00  0.00     0.058 A 
ATOM     31  C   UNL d   1      11.742   9.390  -5.089  0.00  0.00     0.013 A 
ATOM     32 CL   UNL d   1      11.937   8.446  -2.537  0.00  0.00    -0.082 Cl
ATOM     33  C   UNL d   1      11.601   9.223  -6.485  0.00  0.00     0.025 A 
ENDBRANCH  26  27
ENDBRANCH  23  26
ENDBRANCH  19  20
ENDBRANCH   1  19
TORSDOF 7
