REMARK  6 active torsions:
REMARK  status: ('A' for Active; 'I' for Inactive)
REMARK    1  A    between atoms: O_2  and  C_3 
REMARK    2  A    between atoms: C_8  and  N_9 
REMARK    3  A    between atoms: N_12  and  C_13 
REMARK    4  A    between atoms: C_13  and  C_14 
REMARK    5  A    between atoms: C_14  and  N_15 
REMARK       I    between atoms: N_15  and  C_16 
REMARK    6  A    between atoms: C_16  and  C_18 
ROOT
ATOM      1  N   UNL d   1       7.309   3.433 -14.057  0.00  0.00    -0.343 N 
ATOM      2  C   UNL d   1       6.256   4.145 -13.340  0.00  0.00     0.137 C 
ATOM      3  C   UNL d   1       6.734   4.442 -11.907  0.00  0.00     0.274 C 
ATOM      4  N   UNL d   1       7.993   5.203 -11.939  0.00  0.00     0.143 N 
ATOM      5  C   UNL d   1       9.026   4.415 -12.629  0.00  0.00     0.274 C 
ATOM      6  C   UNL d   1       8.600   4.096 -14.074  0.00  0.00     0.137 C 
ENDROOT
BRANCH   4   7
ATOM      7  C   UNL d   1       8.401   5.496 -10.569  0.00  0.00     0.277 C 
BRANCH   7   8
ATOM      8  C   UNL d   1       9.424   6.646 -10.530  0.00  0.00     0.164 C 
BRANCH   8   9
ATOM      9  N   UNL d   1       9.805   6.947  -9.157  0.00  0.00    -0.231 NA
ATOM     10  C   UNL d   1      10.239   8.137  -8.720  0.00  0.00     0.294 C 
ATOM     11  O   UNL d   1      10.300   9.142  -9.426  0.00  0.00    -0.264 OA
BRANCH  10  12
ATOM     12  C   UNL d   1      10.634   8.137  -7.280  0.00  0.00     0.160 A 
ATOM     13  N   UNL d   1      10.761   9.233  -6.556  0.00  0.00    -0.160 NA
ATOM     14  N   UNL d   1      11.191   8.798  -5.332  0.00  0.00    -0.228 N 
ATOM     15  C   UNL d   1      11.329   7.401  -5.306  0.00  0.00     0.085 A 
ATOM     16  C   UNL d   1      11.458   9.585  -4.255  0.00  0.00     0.101 A 
ATOM     17  C   UNL d   1      10.986   6.962  -6.550  0.00  0.00     0.045 A 
ATOM     18  C   UNL d   1      11.775   6.794  -4.104  0.00  0.00     0.019 A 
ATOM     19  C   UNL d   1      12.045   7.585  -3.011  0.00  0.00     0.003 A 
ATOM     20  C   UNL d   1      11.887   8.993  -3.088  0.00  0.00     0.021 A 
ENDBRANCH  10  12
ENDBRANCH   8   9
ENDBRANCH   7   8
ENDBRANCH   4   7
BRANCH   1  21
ATOM     21  C   UNL d   1       7.091   2.205 -14.723  0.00  0.00     0.079 A 
ATOM     22  C   UNL d   1       6.332   1.185 -14.103  0.00  0.00     0.110 A 
ATOM     23  C   UNL d   1       6.114  -0.041 -14.783  0.00  0.00     0.026 A 
ATOM     24  C   UNL d   1       6.627  -0.239 -16.074  0.00  0.00     0.002 A 
ATOM     25  C   UNL d   1       7.387   0.770 -16.688  0.00  0.00     0.002 A 
ATOM     26  C   UNL d   1       7.630   1.983 -16.011  0.00  0.00     0.019 A 
BRANCH  22  27
ATOM     27  O   UNL d   1       5.849   1.454 -12.845  0.00  0.00    -0.327 OA
ATOM     28  C   UNL d   1       5.458   0.385 -12.038  0.00  0.00     0.181 C 
ENDBRANCH  22  27
ENDBRANCH   1  21
TORSDOF 6
