REMARK  2 active torsions:
REMARK  status: ('A' for Active; 'I' for Inactive)
REMARK    1  A    between atoms: C_5  and  C_6 
REMARK    2  A    between atoms: C_6  and  C_7 
ROOT
ATOM      1  C   UNL d   1       9.763   7.672  -7.212  0.00  0.00     0.283 C 
ATOM      2  N   UNL d   1       9.984   9.109  -7.173  0.00  0.00     0.342 N 
ATOM      3  C   UNL d   1      11.093   9.494  -8.056  0.00  0.00     0.295 C 
ATOM      4  C   UNL d   1      10.599   9.336  -9.474  0.00  0.00     0.064 C 
ATOM      5  C   UNL d   1       9.959   7.984  -9.723  0.00  0.00    -0.020 A 
ATOM      6  C   UNL d   1       9.738   7.567 -11.038  0.00  0.00     0.025 A 
ATOM      7  C   UNL d   1       9.086   6.351 -11.273  0.00  0.00     0.156 A 
ATOM      8  O   UNL d   1       8.864   5.929 -12.544  0.00  0.00    -0.188 OA
ATOM      9  C   UNL d   1       8.609   5.573 -10.202  0.00  0.00     0.156 A 
ATOM     10  O   UNL d   1       7.850   4.478 -10.489  0.00  0.00    -0.188 OA
ATOM     11  C   UNL d   1       8.852   5.969  -8.870  0.00  0.00     0.027 A 
ATOM     12  C   UNL d   1       9.525   7.187  -8.633  0.00  0.00     0.010 A 
ENDROOT
BRANCH   1  13
ATOM     13  C   UNL d   1      10.960   6.930  -6.575  0.00  0.00     0.067 C 
BRANCH  13  14
ATOM     14  C   UNL d   1      11.459   7.458  -5.218  0.00  0.00    -0.020 A 
ATOM     15  C   UNL d   1      11.426   6.593  -4.094  0.00  0.00    -0.002 A 
ATOM     16  C   UNL d   1      11.856   7.003  -2.809  0.00  0.00     0.027 A 
ATOM     17  C   UNL d   1      12.394   8.307  -2.658  0.00  0.00     0.131 A 
ATOM     18  O   UNL d   1      12.907   8.784  -1.480  0.00  0.00    -0.190 OA
ATOM     19  C   UNL d   1      12.459   9.161  -3.772  0.00  0.00     0.027 A 
ATOM     20  C   UNL d   1      12.028   8.761  -5.052  0.00  0.00    -0.002 A 
ENDBRANCH  13  14
ENDBRANCH   1  13
TORSDOF 2
