REMARK  3 active torsions:
REMARK  status: ('A' for Active; 'I' for Inactive)
REMARK    1  A    between atoms: C_2  and  C_3 
REMARK    2  A    between atoms: C_3  and  N_4 
REMARK    3  A    between atoms: C_7  and  C_8 
ROOT
ATOM      1  N   UNL d   1      10.214   7.112  -9.004  0.00  0.00     0.137 N 
ATOM      2  C   UNL d   1       9.121   7.561  -8.139  0.00  0.00     0.251 C 
ATOM      3  C   UNL d   1       9.554   7.511  -6.670  0.00  0.00     0.040 C 
ATOM      4  C   UNL d   1      10.834   8.337  -6.438  0.00  0.00     0.026 C 
ATOM      5  C   UNL d   1      11.918   7.906  -7.429  0.00  0.00     0.040 C 
ATOM      6  C   UNL d   1      11.406   7.952  -8.863  0.00  0.00     0.251 C 
ENDROOT
BRANCH   4   7
ATOM      7  C   UNL d   1      11.342   8.207  -5.006  0.00  0.00    -0.022 A 
ATOM      8  C   UNL d   1      11.564   6.930  -4.453  0.00  0.00    -0.004 A 
ATOM      9  C   UNL d   1      12.019   6.793  -3.132  0.00  0.00    -0.000 A 
ATOM     10  C   UNL d   1      12.266   7.939  -2.352  0.00  0.00    -0.000 A 
ATOM     11  C   UNL d   1      12.056   9.217  -2.902  0.00  0.00    -0.000 A 
ATOM     12  C   UNL d   1      11.591   9.356  -4.225  0.00  0.00    -0.004 A 
ENDBRANCH   4   7
BRANCH   1  13
ATOM     13  C   UNL d   1       9.754   7.056 -10.395  0.00  0.00     0.250 C 
BRANCH  13  14
ATOM     14  C   UNL d   1       9.646   8.445 -11.059  0.00  0.00     0.035 C 
ATOM     15  C   UNL d   1       9.034   8.396 -12.441  0.00  0.00     0.002 C 
ENDBRANCH  13  14
ENDBRANCH   1  13
TORSDOF 3
