REMARK  10 active torsions:
REMARK  status: ('A' for Active; 'I' for Inactive)
REMARK    1  A    between atoms: O_2  and  C_3 
REMARK    2  A    between atoms: C_7  and  C_8 
REMARK       I    between atoms: C_8  and  N_10 
REMARK    3  A    between atoms: N_10  and  C_11 
REMARK    4  A    between atoms: C_11  and  C_12 
REMARK    5  A    between atoms: C_12  and  C_13 
REMARK    6  A    between atoms: C_13  and  C_14 
REMARK    7  A    between atoms: C_14  and  C_15 
REMARK    8  A    between atoms: C_15  and  N_16 
REMARK    9  A    between atoms: N_19  and  C_20 
REMARK   10  A    between atoms: C_25  and  O_26 
ROOT
ATOM      1  C   UNL d   1       9.856   4.343 -12.445  0.00  0.00     0.035 C 
ENDROOT
BRANCH   1   2
ATOM      2  C   UNL d   1       9.170   5.491 -11.684  0.00  0.00     0.004 C 
BRANCH   2   3
ATOM      3  C   UNL d   1       9.991   5.999 -10.489  0.00  0.00     0.026 C 
BRANCH   3   4
ATOM      4  C   UNL d   1       9.285   7.102  -9.707  0.00  0.00     0.129 C 
BRANCH   4   5
ATOM      5  N   UNL d   1      10.114   7.576  -8.608  0.00  0.00    -0.234 NA
ATOM      6  C   UNL d   1       9.926   7.267  -7.317  0.00  0.00     0.275 C 
ATOM      7  O   UNL d   1       9.119   6.425  -6.926  0.00  0.00    -0.266 OA
BRANCH   6   8
ATOM      8  C   UNL d   1      10.804   8.002  -6.349  0.00  0.00     0.059 A 
ATOM      9  C   UNL d   1      11.330   9.273  -6.676  0.00  0.00     0.005 A 
ATOM     10  C   UNL d   1      12.130   9.961  -5.755  0.00  0.00     0.002 A 
ATOM     11  C   UNL d   1      12.393   9.406  -4.488  0.00  0.00     0.024 A 
ATOM     12  C   UNL d   1      11.857   8.147  -4.131  0.00  0.00     0.094 A 
ATOM     13  C   UNL d   1      11.072   7.451  -5.076  0.00  0.00     0.029 A 
BRANCH  12  14
ATOM     14  O   UNL d   1      12.075   7.549  -2.909  0.00  0.00    -0.328 OA
ATOM     15  C   UNL d   1      12.572   8.357  -1.848  0.00  0.00     0.181 C 
ENDBRANCH  12  14
ENDBRANCH   6   8
ENDBRANCH   4   5
ENDBRANCH   3   4
ENDBRANCH   2   3
ENDBRANCH   1   2
BRANCH   1  16
ATOM     16  C   UNL d   1       8.969   3.788 -13.572  0.00  0.00     0.250 C 
BRANCH  16  17
ATOM     17  N   UNL d   1       9.584   2.626 -14.216  0.00  0.00     0.141 N 
ATOM     18  C   UNL d   1       8.539   1.787 -14.812  0.00  0.00     0.274 C 
ATOM     19  C   UNL d   1       9.156   0.515 -15.433  0.00  0.00     0.137 C 
ATOM     20  N   UNL d   1      10.171   0.880 -16.413  0.00  0.00    -0.343 N 
ATOM     21  C   UNL d   1      11.187   1.810 -15.933  0.00  0.00     0.137 C 
ATOM     22  C   UNL d   1      10.520   3.038 -15.269  0.00  0.00     0.274 C 
BRANCH  20  23
ATOM     23  C   UNL d   1      10.123   0.469 -17.759  0.00  0.00     0.079 A 
ATOM     24  C   UNL d   1       8.912   0.477 -18.504  0.00  0.00     0.110 A 
ATOM     25  C   UNL d   1       8.925   0.020 -19.848  0.00  0.00     0.026 A 
ATOM     26  C   UNL d   1      10.120  -0.413 -20.451  0.00  0.00     0.002 A 
ATOM     27  C   UNL d   1      11.318  -0.403 -19.719  0.00  0.00     0.002 A 
ATOM     28  C   UNL d   1      11.317   0.035 -18.380  0.00  0.00     0.019 A 
BRANCH  24  29
ATOM     29  O   UNL d   1       7.772   0.970 -17.896  0.00  0.00    -0.327 OA
ATOM     30  C   UNL d   1       6.526   0.811 -18.550  0.00  0.00     0.181 C 
ENDBRANCH  24  29
ENDBRANCH  20  23
ENDBRANCH  16  17
ENDBRANCH   1  16
TORSDOF 10
