REMARK  7 active torsions:
REMARK  status: ('A' for Active; 'I' for Inactive)
REMARK    1  A    between atoms: C_2  and  C_3 
REMARK    2  A    between atoms: C_2  and  N_12 
REMARK    3  A    between atoms: C_3  and  C_4 
REMARK    4  A    between atoms: C_4  and  C_5 
REMARK    5  A    between atoms: N_12  and  C_13 
REMARK    6  A    between atoms: C_13  and  C_14 
REMARK    7  A    between atoms: C_14  and  C_15 
ROOT
ATOM      1  C   UNL d   1       9.833   4.333  -9.274  0.00  0.00     0.038 C 
ATOM      2  C   UNL d   1       9.786   5.805  -9.716  0.00  0.00     0.257 C 
ENDROOT
BRANCH   2   3
ATOM      3  C   UNL d   1       9.836   6.788  -8.533  0.00  0.00     0.041 C 
BRANCH   3   4
ATOM      4  C   UNL d   1      11.221   6.839  -7.888  0.00  0.00     0.028 C 
BRANCH   4   5
ATOM      5  C   UNL d   1      11.282   7.708  -6.660  0.00  0.00    -0.022 A 
ATOM      6  C   UNL d   1      11.205   9.108  -6.784  0.00  0.00    -0.002 A 
ATOM      7  C   UNL d   1      11.282   9.911  -5.626  0.00  0.00     0.027 A 
ATOM      8  C   UNL d   1      11.462   9.282  -4.378  0.00  0.00     0.131 A 
ATOM      9  C   UNL d   1      11.538   7.897  -4.258  0.00  0.00     0.027 A 
ATOM     10  O   UNL d   1      11.540   9.989  -3.222  0.00  0.00    -0.190 OA
ATOM     11  C   UNL d   1      11.439   7.095  -5.405  0.00  0.00    -0.002 A 
ENDBRANCH   4   5
ENDBRANCH   3   4
ENDBRANCH   2   3
BRANCH   2  12
ATOM     12  N   UNL d   1       8.503   5.978 -10.377  0.00  0.00     0.337 N 
BRANCH  12  13
ATOM     13  C   UNL d   1       8.492   5.510 -11.758  0.00  0.00     0.295 C 
BRANCH  13  14
ATOM     14  C   UNL d   1       7.031   5.210 -12.174  0.00  0.00     0.065 C 
BRANCH  14  15
ATOM     15  C   UNL d   1       6.908   3.985 -13.073  0.00  0.00    -0.018 A 
ATOM     16  C   UNL d   1       5.877   3.038 -12.853  0.00  0.00     0.025 A 
ATOM     17  C   UNL d   1       5.860   1.820 -13.572  0.00  0.00     0.156 A 
ATOM     18  C   UNL d   1       6.813   1.589 -14.597  0.00  0.00     0.156 A 
ATOM     19  O   UNL d   1       4.973   0.844 -13.237  0.00  0.00    -0.188 OA
ATOM     20  C   UNL d   1       7.825   2.533 -14.823  0.00  0.00     0.029 A 
ATOM     21  O   UNL d   1       6.805   0.459 -15.367  0.00  0.00    -0.188 OA
ATOM     22  C   UNL d   1       7.885   3.718 -14.060  0.00  0.00    -0.002 A 
ENDBRANCH  14  15
ENDBRANCH  13  14
ENDBRANCH  12  13
ENDBRANCH   2  12
TORSDOF 7
