REMARK  7 active torsions:
REMARK  status: ('A' for Active; 'I' for Inactive)
REMARK    1  A    between atoms: O_2  and  C_3 
REMARK    2  A    between atoms: C_10  and  N_11 
REMARK       I    between atoms: N_11  and  C_12 
REMARK    3  A    between atoms: C_12  and  C_14 
REMARK    4  A    between atoms: C_14  and  C_15 
REMARK    5  A    between atoms: C_15  and  N_16 
REMARK    6  A    between atoms: N_19  and  C_20 
REMARK    7  A    between atoms: C_25  and  O_26 
ROOT
ATOM      1  C   UNL d   1       8.317   5.095  -9.631  0.00  0.00     0.125 C 
ENDROOT
BRANCH   1   2
ATOM      2  C   UNL d   1       8.238   5.487 -11.102  0.00  0.00     0.253 C 
ATOM      3  N   UNL d   1       7.365   4.774 -11.813  0.00  0.00    -0.240 NA
ATOM      4  O   UNL d   1       8.927   6.390 -11.575  0.00  0.00    -0.271 OA
BRANCH   3   5
ATOM      5  C   UNL d   1       7.043   5.050 -13.204  0.00  0.00     0.111 C 
ATOM      6  C   UNL d   1       8.287   4.849 -14.116  0.00  0.00     0.051 C 
ATOM      7  C   UNL d   1       8.541   3.384 -14.430  0.00  0.00    -0.022 A 
ATOM      8  C   UNL d   1       7.584   2.366 -14.196  0.00  0.00    -0.026 A 
ATOM      9  C   UNL d   1       9.808   3.069 -14.949  0.00  0.00     0.020 A 
ATOM     10  C   UNL d   1       7.945   1.020 -14.460  0.00  0.00    -0.003 A 
ATOM     11  C   UNL d   1       6.225   2.662 -13.579  0.00  0.00     0.028 C 
ATOM     12  C   UNL d   1       9.221   0.712 -14.969  0.00  0.00     0.024 A 
ATOM     13  C   UNL d   1      10.155   1.728 -15.248  0.00  0.00     0.094 A 
ATOM     14  C   UNL d   1       5.858   4.154 -13.620  0.00  0.00     0.029 C 
BRANCH  13  15
ATOM     15  O   UNL d   1      11.363   1.361 -15.787  0.00  0.00    -0.328 OA
ATOM     16  C   UNL d   1      12.087   2.330 -16.536  0.00  0.00     0.181 C 
ENDBRANCH  13  15
ENDBRANCH   3   5
ENDBRANCH   1   2
BRANCH   1  17
ATOM     17  C   UNL d   1       9.644   5.428  -8.975  0.00  0.00     0.260 C 
BRANCH  17  18
ATOM     18  N   UNL d   1       9.821   6.869  -8.784  0.00  0.00     0.142 N 
ATOM     19  C   UNL d   1       9.002   7.519  -7.760  0.00  0.00     0.274 C 
ATOM     20  C   UNL d   1       9.288   6.951  -6.371  0.00  0.00     0.137 C 
ATOM     21  N   UNL d   1      10.710   6.912  -6.093  0.00  0.00    -0.343 N 
ATOM     22  C   UNL d   1      11.616   6.514  -7.156  0.00  0.00     0.137 C 
ATOM     23  C   UNL d   1      11.203   7.192  -8.499  0.00  0.00     0.274 C 
BRANCH  21  24
ATOM     24  C   UNL d   1      11.226   7.518  -4.921  0.00  0.00     0.079 A 
ATOM     25  C   UNL d   1      11.369   8.913  -4.829  0.00  0.00     0.110 A 
ATOM     26  C   UNL d   1      11.777   9.472  -3.592  0.00  0.00     0.026 A 
ATOM     27  C   UNL d   1      12.103   8.650  -2.489  0.00  0.00     0.002 A 
ATOM     28  C   UNL d   1      11.963   7.242  -2.612  0.00  0.00     0.002 A 
ATOM     29  C   UNL d   1      11.535   6.710  -3.841  0.00  0.00     0.019 A 
BRANCH  25  30
ATOM     30  O   UNL d   1      11.066   9.664  -5.951  0.00  0.00    -0.327 OA
ATOM     31  C   UNL d   1      11.710  10.903  -6.049  0.00  0.00     0.181 C 
ENDBRANCH  25  30
ENDBRANCH  21  24
ENDBRANCH  17  18
ENDBRANCH   1  17
TORSDOF 7
