REMARK  1 active torsions:
REMARK  status: ('A' for Active; 'I' for Inactive)
REMARK    1  A    between atoms: C_9  and  C_10 
ROOT
ATOM      1  C   UNL d   1       6.446   5.517 -12.169  0.00  0.00     0.031 C 
ATOM      2  C   UNL d   1       7.378   4.539 -12.852  0.00  0.00    -0.020 A 
ATOM      3  C   UNL d   1       8.762   4.566 -12.592  0.00  0.00    -0.003 A 
ATOM      4  C   UNL d   1       9.618   3.653 -13.236  0.00  0.00     0.020 A 
ATOM      5  C   UNL d   1       9.104   2.711 -14.149  0.00  0.00     0.099 A 
ATOM      6  C   UNL d   1       7.706   2.668 -14.411  0.00  0.00     0.099 A 
ATOM      7  C   UNL d   1       6.862   3.580 -13.746  0.00  0.00     0.016 A 
ATOM      8  N   UNL d   1       7.069   1.699 -15.188  0.00  0.00    -0.244 NA
ATOM      9  C   UNL d   1       7.532   1.129 -16.239  0.00  0.00     0.079 C 
ATOM     10  C   UNL d   1       8.813   1.541 -16.913  0.00  0.00     0.037 A 
ATOM     11  C   UNL d   1       8.858   1.633 -18.325  0.00  0.00     0.033 A 
ATOM     12  C   UNL d   1      10.077   1.865 -19.002  0.00  0.00     0.140 A 
ATOM     13  F   UNL d   1      10.089   1.905 -20.352  0.00  0.00    -0.204 F 
ATOM     14  C   UNL d   1      11.263   2.032 -18.268  0.00  0.00     0.031 A 
ATOM     15  C   UNL d   1      11.228   1.995 -16.863  0.00  0.00     0.021 A 
ATOM     16  C   UNL d   1      10.008   1.784 -16.191  0.00  0.00     0.083 A 
ATOM     17  N   UNL d   1      10.013   1.881 -14.800  0.00  0.00    -0.244 NA
ENDROOT
BRANCH   9  18
ATOM     18  C   UNL d   1       6.690   0.025 -16.810  0.00  0.00    -0.005 C 
ATOM     19  C   UNL d   1       5.327  -0.279 -16.185  0.00  0.00     0.063 C 
ATOM     20  C   UNL d   1       4.776  -1.674 -16.545  0.00  0.00     0.255 C 
ATOM     21  N   UNL d   1       4.899  -1.875 -17.978  0.00  0.00     0.144 N 
ATOM     22  C   UNL d   1       6.301  -1.939 -18.364  0.00  0.00     0.276 C 
ATOM     23  C   UNL d   1       4.244  -3.115 -18.377  0.00  0.00     0.286 C 
ATOM     24  C   UNL d   1       7.125  -0.809 -17.774  0.00  0.00     0.006 C 
ENDBRANCH   9  18
TORSDOF 1
