REMARK  8 active torsions:
REMARK  status: ('A' for Active; 'I' for Inactive)
REMARK    1  A    between atoms: O_2  and  C_3 
REMARK    2  A    between atoms: C_9  and  C_10 
REMARK    3  A    between atoms: C_12  and  C_13 
REMARK    4  A    between atoms: C_13  and  N_14 
REMARK    5  A    between atoms: N_14  and  C_15 
REMARK    6  A    between atoms: C_15  and  C_16 
REMARK    7  A    between atoms: N_19  and  C_20 
REMARK    8  A    between atoms: C_20  and  C_21 
ROOT
ATOM      1  C   UNL d   1       8.030   4.587 -11.853  0.00  0.00     0.338 C 
ENDROOT
BRANCH   1   2
ATOM      2  C   UNL d   1       8.985   4.594 -13.001  0.00  0.00     0.122 A 
ATOM      3  N   UNL d   1       9.223   3.478 -13.768  0.00  0.00    -0.222 NA
ATOM      4  C   UNL d   1      10.191   3.826 -14.620  0.00  0.00     0.184 A 
ATOM      5  O   UNL d   1      10.592   5.114 -14.450  0.00  0.00    -0.286 OA
ATOM      6  C   UNL d   1       9.800   5.583 -13.461  0.00  0.00     0.141 A 
BRANCH   4   7
ATOM      7  C   UNL d   1      10.852   3.060 -15.665  0.00  0.00     0.064 A 
ATOM      8  C   UNL d   1      10.436   1.744 -15.970  0.00  0.00     0.098 A 
ATOM      9  C   UNL d   1      11.123   1.042 -16.986  0.00  0.00     0.025 A 
ATOM     10  C   UNL d   1      12.191   1.642 -17.677  0.00  0.00     0.009 A 
ATOM     11  C   UNL d   1      12.595   2.952 -17.371  0.00  0.00     0.035 A 
ATOM     12 BR   UNL d   1      14.052   3.756 -18.293  0.00  0.00    -0.049 Br
ATOM     13  C   UNL d   1      11.921   3.664 -16.368  0.00  0.00     0.012 A 
BRANCH   8  14
ATOM     14  O   UNL d   1       9.385   1.210 -15.256  0.00  0.00    -0.328 OA
ATOM     15  C   UNL d   1       9.035  -0.138 -15.452  0.00  0.00     0.181 C 
ENDBRANCH   8  14
ENDBRANCH   4   7
ENDBRANCH   1   2
BRANCH   1  16
ATOM     16  N   UNL d   1       8.035   5.647 -10.874  0.00  0.00     0.346 N 
BRANCH  16  17
ATOM     17  C   UNL d   1       9.376   5.994 -10.403  0.00  0.00     0.293 C 
BRANCH  17  18
ATOM     18  C   UNL d   1       9.316   6.900  -9.183  0.00  0.00     0.071 C 
ATOM     19  C   UNL d   1      10.677   7.447  -8.801  0.00  0.00     0.253 C 
ATOM     20  N   UNL d   1      10.526   7.644  -7.361  0.00  0.00     0.141 N 
ATOM     21  C   UNL d   1       9.864   6.411  -6.952  0.00  0.00     0.251 C 
ATOM     22  C   UNL d   1       8.761   6.211  -7.952  0.00  0.00     0.039 C 
BRANCH  20  23
ATOM     23  C   UNL d   1      11.836   7.717  -6.759  0.00  0.00     0.277 C 
BRANCH  23  24
ATOM     24  C   UNL d   1      11.791   7.914  -5.242  0.00  0.00     0.011 A 
ATOM     25  C   UNL d   1      11.793   9.214  -4.712  0.00  0.00    -0.002 A 
ATOM     26  C   UNL d   1      11.848   9.395  -3.321  0.00  0.00    -0.000 A 
ATOM     27  C   UNL d   1      11.875   8.279  -2.459  0.00  0.00    -0.000 A 
ATOM     28  C   UNL d   1      11.887   6.977  -2.994  0.00  0.00    -0.000 A 
ATOM     29  C   UNL d   1      11.837   6.798  -4.383  0.00  0.00    -0.002 A 
ENDBRANCH  23  24
ENDBRANCH  20  23
ENDBRANCH  17  18
ENDBRANCH  16  17
ENDBRANCH   1  16
TORSDOF 8
