REMARK  7 active torsions:
REMARK  status: ('A' for Active; 'I' for Inactive)
REMARK    1  A    between atoms: C_2  and  C_5 
REMARK    2  A    between atoms: C_8  and  O_9 
REMARK    3  A    between atoms: O_9  and  C_10 
REMARK    4  A    between atoms: C_10  and  C_11 
REMARK    5  A    between atoms: C_11  and  N_12 
REMARK    6  A    between atoms: N_12  and  C_13 
REMARK    7  A    between atoms: C_13  and  C_14 
ROOT
ATOM      1  C   UNL d   1      11.379   4.181 -15.930  0.00  0.00     0.235 A 
ATOM      2  N   UNL d   1      10.721   4.945 -15.055  0.00  0.00    -0.220 NA
ATOM      3  C   UNL d   1       9.602   4.180 -14.749  0.00  0.00     0.123 A 
ATOM      4  C   UNL d   1       8.512   4.451 -13.880  0.00  0.00     0.114 A 
ATOM      5  C   UNL d   1       7.495   3.470 -13.731  0.00  0.00     0.037 A 
ATOM      6  C   UNL d   1       7.545   2.254 -14.439  0.00  0.00     0.061 A 
ATOM      7 CL   UNL d   1       6.280   1.098 -14.239  0.00  0.00    -0.082 Cl
ATOM      8  C   UNL d   1       8.616   1.978 -15.311  0.00  0.00     0.032 A 
ATOM      9  C   UNL d   1       9.630   2.940 -15.455  0.00  0.00     0.103 A 
ATOM     10  N   UNL d   1      10.793   3.001 -16.205  0.00  0.00    -0.222 NA
ENDROOT
BRANCH   4  11
ATOM     11  O   UNL d   1       8.492   5.682 -13.257  0.00  0.00    -0.327 OA
BRANCH  11  12
ATOM     12  C   UNL d   1       7.632   5.909 -12.145  0.00  0.00     0.187 C 
BRANCH  12  13
ATOM     13  C   UNL d   1       8.285   5.340 -10.872  0.00  0.00     0.323 C 
BRANCH  13  14
ATOM     14  N   UNL d   1       9.056   6.389 -10.225  0.00  0.00     0.347 N 
BRANCH  14  15
ATOM     15  C   UNL d   1       9.521   5.928  -8.923  0.00  0.00     0.317 C 
BRANCH  15  16
ATOM     16  C   UNL d   1      10.276   7.012  -8.180  0.00  0.00     0.014 A 
ATOM     17  C   UNL d   1      11.389   7.638  -8.780  0.00  0.00    -0.002 A 
ATOM     18  C   UNL d   1      12.100   8.633  -8.084  0.00  0.00    -0.000 A 
ATOM     19  C   UNL d   1      11.689   9.023  -6.795  0.00  0.00    -0.000 A 
ATOM     20  C   UNL d   1      10.575   8.405  -6.197  0.00  0.00    -0.000 A 
ATOM     21  C   UNL d   1       9.868   7.401  -6.887  0.00  0.00    -0.002 A 
ENDBRANCH  15  16
ENDBRANCH  14  15
ENDBRANCH  13  14
ENDBRANCH  12  13
ENDBRANCH  11  12
ENDBRANCH   4  11
BRANCH   1  22
ATOM     22  C   UNL d   1      12.664   4.583 -16.587  0.00  0.00     0.453 C 
ATOM     23  F   UNL d   1      12.455   5.564 -17.464  0.00  0.00    -0.163 F 
ATOM     24  F   UNL d   1      13.215   3.553 -17.234  0.00  0.00    -0.163 F 
ATOM     25  F   UNL d   1      13.524   5.014 -15.668  0.00  0.00    -0.163 F 
ENDBRANCH   1  22
TORSDOF 7
