REMARK  3 active torsions:
REMARK  status: ('A' for Active; 'I' for Inactive)
REMARK    1  A    between atoms: N_2  and  N_3 
REMARK       I    between atoms: N_2  and  C_5 
REMARK       I    between atoms: C_5  and  N_7 
REMARK    2  A    between atoms: N_7  and  C_8 
REMARK    3  A    between atoms: C_12  and  C_13 
ROOT
ATOM      1  C   UNL d   1       9.566   7.810  -8.075  0.00  0.00     0.200 C 
ATOM      2  C   UNL d   1      10.540   7.851  -9.259  0.00  0.00     0.295 C 
ATOM      3  O   UNL d   1      10.923   9.184  -9.527  0.00  0.00    -0.188 OA
ATOM      4  O   UNL d   1       9.892   7.301 -10.383  0.00  0.00    -0.325 OA
ATOM      5  C   UNL d   1       9.585   5.916 -10.258  0.00  0.00     0.184 C 
ATOM      6  C   UNL d   1       8.540   5.748  -9.141  0.00  0.00     0.214 C 
ATOM      7  O   UNL d   1       8.300   4.371  -8.888  0.00  0.00    -0.218 OA
ATOM      8  C   UNL d   1       9.075   6.356  -7.838  0.00  0.00     0.212 C 
ATOM      9  O   UNL d   1       8.065   6.391  -6.839  0.00  0.00    -0.218 OA
ENDROOT
BRANCH   1  10
ATOM     10  N   UNL d   1      10.194   8.362  -6.871  0.00  0.00    -0.212 NA
ATOM     11  C   UNL d   1      11.183   7.794  -6.157  0.00  0.00     0.359 C 
ATOM     12  N   UNL d   1      11.462   8.401  -4.987  0.00  0.00    -0.198 N 
ATOM     13  O   UNL d   1      11.764   6.774  -6.536  0.00  0.00    -0.244 OA
ATOM     14  C   UNL d   1      12.336   7.758  -3.995  0.00  0.00     0.154 C 
BRANCH  12  15
ATOM     15  N   UNL d   1      11.068   9.682  -4.752  0.00  0.00     0.064 NA
ATOM     16  O   UNL d   1      11.234  10.046  -3.604  0.00  0.00    -0.076 OA
ENDBRANCH  12  15
ENDBRANCH   1  10
BRANCH   5  17
ATOM     17  C   UNL d   1       9.045   5.431 -11.628  0.00  0.00     0.214 C 
ATOM     18  O   UNL d   1      10.062   5.193 -12.590  0.00  0.00    -0.218 OA
ENDBRANCH   5  17
TORSDOF 3
