REMARK  6 active torsions:
REMARK  status: ('A' for Active; 'I' for Inactive)
REMARK    1  A    between atoms: C_7  and  C_8 
REMARK    2  A    between atoms: C_8  and  C_10 
REMARK    3  A    between atoms: C_10  and  C_11 
REMARK    4  A    between atoms: C_11  and  C_12 
REMARK    5  A    between atoms: C_12  and  N_13 
REMARK    6  A    between atoms: C_16  and  C_17 
ROOT
ATOM      1  N   UNL d   1      10.078   6.389  -9.596  0.00  0.00     0.137 N 
ATOM      2  C   UNL d   1       8.962   6.418  -8.658  0.00  0.00     0.251 C 
ATOM      3  C   UNL d   1       9.469   6.665  -7.253  0.00  0.00     0.040 C 
ATOM      4  C   UNL d   1      10.287   7.962  -7.164  0.00  0.00     0.026 C 
ATOM      5  C   UNL d   1      11.372   7.981  -8.244  0.00  0.00     0.040 C 
ATOM      6  C   UNL d   1      10.770   7.675  -9.630  0.00  0.00     0.251 C 
ENDROOT
BRANCH   1   7
ATOM      7  C   UNL d   1       9.567   6.120 -10.943  0.00  0.00     0.251 C 
BRANCH   7   8
ATOM      8  C   UNL d   1       9.070   4.682 -11.121  0.00  0.00     0.043 C 
BRANCH   8   9
ATOM      9  C   UNL d   1       8.512   4.413 -12.512  0.00  0.00     0.071 C 
BRANCH   9  10
ATOM     10  C   UNL d   1       9.581   4.087 -13.567  0.00  0.00     0.173 C 
ATOM     11  O   UNL d   1      10.532   4.862 -13.657  0.00  0.00    -0.291 OA
BRANCH  10  12
ATOM     12  C   UNL d   1       9.419   2.860 -14.433  0.00  0.00     0.030 A 
ATOM     13  C   UNL d   1      10.480   2.351 -15.245  0.00  0.00    -0.019 A 
ATOM     14  C   UNL d   1      10.276   1.211 -16.059  0.00  0.00    -0.004 A 
ATOM     15  C   UNL d   1      11.865   2.991 -15.301  0.00  0.00     0.031 C 
ATOM     16  C   UNL d   1       9.035   0.549 -16.071  0.00  0.00    -0.005 A 
ATOM     17  C   UNL d   1       7.983   1.035 -15.275  0.00  0.00    -0.022 A 
ATOM     18  C   UNL d   1       6.640   0.340 -15.266  0.00  0.00     0.031 C 
ATOM     19  C   UNL d   1       8.169   2.191 -14.475  0.00  0.00    -0.002 A 
ENDBRANCH  10  12
ENDBRANCH   9  10
ENDBRANCH   8   9
ENDBRANCH   7   8
ENDBRANCH   1   7
BRANCH   4  20
ATOM     20  C   UNL d   1      10.911   8.150  -5.772  0.00  0.00    -0.022 A 
ATOM     21  C   UNL d   1      10.933   9.432  -5.184  0.00  0.00    -0.003 A 
ATOM     22  C   UNL d   1      11.462   9.586  -3.890  0.00  0.00     0.011 A 
ATOM     23  C   UNL d   1      11.988   8.482  -3.204  0.00  0.00     0.058 A 
ATOM     24  C   UNL d   1      11.968   7.209  -3.779  0.00  0.00     0.011 A 
ATOM     25 CL   UNL d   1      12.659   8.673  -1.640  0.00  0.00    -0.082 Cl
ATOM     26  C   UNL d   1      11.449   7.045  -5.081  0.00  0.00    -0.003 A 
ENDBRANCH   4  20
TORSDOF 6
