REMARK  4 active torsions:
REMARK  status: ('A' for Active; 'I' for Inactive)
REMARK    1  A    between atoms: C_5  and  N_6 
REMARK    2  A    between atoms: N_9  and  C_10 
REMARK    3  A    between atoms: C_10  and  C_11 
REMARK    4  A    between atoms: C_11  and  C_12 
ROOT
ATOM      1  N   UNL d   1       8.107   5.178 -12.400  0.00  0.00    -0.343 N 
ATOM      2  C   UNL d   1       8.588   6.545 -12.262  0.00  0.00     0.137 C 
ATOM      3  C   UNL d   1       9.642   6.660 -11.147  0.00  0.00     0.274 C 
ATOM      4  N   UNL d   1       9.103   6.179  -9.873  0.00  0.00     0.141 N 
ATOM      5  C   UNL d   1       8.661   4.789 -10.012  0.00  0.00     0.274 C 
ATOM      6  C   UNL d   1       7.597   4.669 -11.131  0.00  0.00     0.137 C 
ENDROOT
BRANCH   4   7
ATOM      7  C   UNL d   1      10.116   6.316  -8.824  0.00  0.00     0.255 C 
BRANCH   7   8
ATOM      8  C   UNL d   1       9.488   7.017  -7.606  0.00  0.00     0.063 C 
BRANCH   8   9
ATOM      9  C   UNL d   1      10.430   7.958  -6.914  0.00  0.00     0.000 A 
ATOM     10  C   UNL d   1      11.076   7.803  -5.641  0.00  0.00     0.015 A 
ATOM     11  C   UNL d   1      11.842   8.969  -5.374  0.00  0.00     0.081 A 
ATOM     12  C   UNL d   1      11.087   6.788  -4.663  0.00  0.00     0.001 A 
ATOM     13  N   UNL d   1      11.677   9.779  -6.476  0.00  0.00    -0.244 NA
ATOM     14  C   UNL d   1      12.588   9.113  -4.187  0.00  0.00     0.019 A 
ATOM     15  C   UNL d   1      10.850   9.166  -7.406  0.00  0.00     0.095 A 
ATOM     16  C   UNL d   1      12.570   8.083  -3.228  0.00  0.00     0.002 A 
ATOM     17  C   UNL d   1      11.826   6.920  -3.470  0.00  0.00     0.000 A 
ENDBRANCH   8   9
ENDBRANCH   7   8
ENDBRANCH   4   7
BRANCH   1  18
ATOM     18  C   UNL d   1       8.830   4.288 -13.214  0.00  0.00     0.081 A 
ATOM     19  C   UNL d   1       8.192   3.188 -13.846  0.00  0.00     0.132 A 
ATOM     20  C   UNL d   1       8.954   2.290 -14.659  0.00  0.00     0.118 A 
ATOM     21  O   UNL d   1       6.836   2.996 -13.673  0.00  0.00    -0.325 OA
ATOM     22  C   UNL d   1      10.338   2.473 -14.819  0.00  0.00     0.026 A 
ATOM     23  O   UNL d   1       8.352   1.237 -15.315  0.00  0.00    -0.326 OA
ATOM     24  C   UNL d   1      10.968   3.565 -14.199  0.00  0.00     0.004 A 
ATOM     25  C   UNL d   1      10.220   4.475 -13.407  0.00  0.00     0.019 A 
ATOM     26  C   UNL d   1       6.934   1.318 -15.399  0.00  0.00     0.181 C 
ATOM     27  C   UNL d   1       6.366   1.695 -14.022  0.00  0.00     0.182 C 
ENDBRANCH   1  18
TORSDOF 4
