REMARK  3 active torsions:
REMARK  status: ('A' for Active; 'I' for Inactive)
REMARK    1  A    between atoms: C_6  and  N_7 
REMARK    2  A    between atoms: N_10  and  C_11 
REMARK    3  A    between atoms: C_11  and  C_12 
ROOT
ATOM      1  N   UNL d   1       7.782   3.583 -13.812  0.00  0.00    -0.344 N 
ATOM      2  C   UNL d   1       6.658   4.245 -13.127  0.00  0.00     0.137 C 
ATOM      3  C   UNL d   1       6.993   4.520 -11.649  0.00  0.00     0.275 C 
ATOM      4  N   UNL d   1       8.230   5.290 -11.553  0.00  0.00     0.145 N 
ATOM      5  C   UNL d   1       9.326   4.528 -12.138  0.00  0.00     0.275 C 
ATOM      6  C   UNL d   1       9.068   4.242 -13.632  0.00  0.00     0.137 C 
ENDROOT
BRANCH   4   7
ATOM      7  C   UNL d   1       8.549   5.567 -10.146  0.00  0.00     0.277 C 
BRANCH   7   8
ATOM      8  C   UNL d   1       9.484   6.690  -9.801  0.00  0.00     0.018 A 
ATOM      9  C   UNL d   1       9.894   7.045  -8.459  0.00  0.00     0.004 A 
ATOM     10  C   UNL d   1      10.767   8.177  -8.420  0.00  0.00     0.029 A 
ATOM     11  C   UNL d   1       9.573   6.456  -7.220  0.00  0.00     0.000 A 
ATOM     12  S   UNL d   1      11.050   8.785 -10.036  0.00  0.00    -0.087 SA
ATOM     13  C   UNL d   1      11.290   8.680  -7.216  0.00  0.00     0.006 A 
ATOM     14  C   UNL d   1      10.003   7.576 -10.706  0.00  0.00     0.033 A 
ATOM     15  C   UNL d   1      10.954   8.061  -6.000  0.00  0.00     0.001 A 
ATOM     16  C   UNL d   1      10.096   6.946  -6.008  0.00  0.00     0.000 A 
ENDBRANCH   7   8
ENDBRANCH   4   7
BRANCH   1  17
ATOM     17  C   UNL d   1       7.625   2.398 -14.553  0.00  0.00     0.068 A 
ATOM     18  C   UNL d   1       6.701   1.441 -14.092  0.00  0.00     0.018 A 
ATOM     19  C   UNL d   1       6.486   0.232 -14.793  0.00  0.00     0.002 A 
ATOM     20  C   UNL d   1       7.195  -0.008 -15.970  0.00  0.00     0.012 A 
ATOM     21  C   UNL d   1       8.126   0.915 -16.453  0.00  0.00     0.070 A 
ATOM     22 CL   UNL d   1       8.976   0.563 -17.915  0.00  0.00    -0.081 Cl
ATOM     23  C   UNL d   1       8.350   2.135 -15.751  0.00  0.00     0.084 A 
ATOM     24 CL   UNL d   1       9.464   3.256 -16.461  0.00  0.00    -0.080 Cl
ENDBRANCH   1  17
TORSDOF 3
