REMARK  7 active torsions:
REMARK  status: ('A' for Active; 'I' for Inactive)
REMARK    1  A    between atoms: C_7  and  O_8 
REMARK    2  A    between atoms: O_8  and  C_9 
REMARK    3  A    between atoms: C_9  and  C_10 
REMARK    4  A    between atoms: C_10  and  C_11 
REMARK    5  A    between atoms: C_11  and  C_12 
REMARK    6  A    between atoms: C_12  and  N_13 
REMARK    7  A    between atoms: N_16  and  C_17 
ROOT
ATOM      1  N   UNL d   1      10.252   6.874  -9.604  0.00  0.00     0.141 N 
ATOM      2  C   UNL d   1       9.458   6.620  -8.394  0.00  0.00     0.274 C 
ATOM      3  C   UNL d   1      10.374   6.582  -7.190  0.00  0.00     0.137 C 
ATOM      4  N   UNL d   1      11.132   7.811  -7.117  0.00  0.00    -0.344 N 
ATOM      5  C   UNL d   1      11.832   8.256  -8.304  0.00  0.00     0.137 C 
ATOM      6  C   UNL d   1      10.874   8.205  -9.506  0.00  0.00     0.274 C 
ENDROOT
BRANCH   1   7
ATOM      7  C   UNL d   1       9.412   6.842 -10.785  0.00  0.00     0.251 C 
BRANCH   7   8
ATOM      8  C   UNL d   1       8.693   5.490 -10.956  0.00  0.00     0.038 C 
BRANCH   8   9
ATOM      9  C   UNL d   1       8.113   5.352 -12.360  0.00  0.00     0.035 C 
BRANCH   9  10
ATOM     10  C   UNL d   1       7.894   3.884 -12.722  0.00  0.00     0.149 C 
BRANCH  10  11
ATOM     11  O   UNL d   1       7.679   3.682 -14.107  0.00  0.00    -0.331 OA
BRANCH  11  12
ATOM     12  C   UNL d   1       8.790   3.319 -14.835  0.00  0.00     0.090 A 
ATOM     13  C   UNL d   1       8.710   2.127 -15.611  0.00  0.00     0.000 A 
ATOM     14  C   UNL d   1       7.457   1.277 -15.542  0.00  0.00     0.033 C 
ATOM     15  C   UNL d   1       9.784   1.722 -16.438  0.00  0.00    -0.004 A 
ATOM     16  C   UNL d   1      10.920   2.546 -16.483  0.00  0.00     0.007 A 
ATOM     17  C   UNL d   1      12.200   2.394 -17.262  0.00  0.00     0.155 A 
ATOM     18  C   UNL d   1      10.997   3.708 -15.745  0.00  0.00     0.057 A 
ATOM     19  N   UNL d   1      12.948   3.601 -16.871  0.00  0.00    -0.229 NA
ATOM     20  C   UNL d   1      12.288   4.382 -15.998  0.00  0.00     0.275 A 
ATOM     21  O   UNL d   1      12.655   5.435 -15.490  0.00  0.00    -0.266 OA
ATOM     22  C   UNL d   1       9.955   4.132 -14.916  0.00  0.00     0.028 A 
ENDBRANCH  11  12
ENDBRANCH  10  11
ENDBRANCH   9  10
ENDBRANCH   8   9
ENDBRANCH   7   8
ENDBRANCH   1   7
BRANCH   4  23
ATOM     23  C   UNL d   1      11.132   8.576  -5.953  0.00  0.00     0.056 A 
ATOM     24  C   UNL d   1      11.484   8.042  -4.672  0.00  0.00     0.015 A 
ATOM     25  C   UNL d   1      11.518   8.866  -3.527  0.00  0.00     0.001 A 
ATOM     26  C   UNL d   1      11.860   6.718  -4.503  0.00  0.00     0.001 A 
ATOM     27  C   UNL d   1      11.115  10.160  -3.650  0.00  0.00     0.000 A 
ATOM     28  C   UNL d   1      11.909   8.411  -2.257  0.00  0.00     0.000 A 
ATOM     29  C   UNL d   1      10.667  10.664  -4.860  0.00  0.00     0.002 A 
ATOM     30  C   UNL d   1      10.720   9.912  -6.036  0.00  0.00     0.017 A 
ATOM     31  C   UNL d   1      12.277   7.083  -2.125  0.00  0.00     0.000 A 
ATOM     32  C   UNL d   1      12.256   6.278  -3.247  0.00  0.00     0.000 A 
ENDBRANCH   4  23
TORSDOF 7
