REMARK  7 active torsions:
REMARK  status: ('A' for Active; 'I' for Inactive)
REMARK    1  A    between atoms: N_10  and  C_11 
REMARK    2  A    between atoms: N_14  and  C_15 
REMARK    3  A    between atoms: C_15  and  C_16 
REMARK    4  A    between atoms: C_16  and  C_17 
REMARK    5  A    between atoms: C_17  and  C_18 
REMARK    6  A    between atoms: C_18  and  C_19 
REMARK    7  A    between atoms: C_18  and  C_26 
ROOT
ATOM      1  C   UNL d   1       8.623   4.582 -12.058  0.00  0.00     0.250 C 
ENDROOT
BRANCH   1   2
ATOM      2  N   UNL d   1       9.355   5.427 -11.136  0.00  0.00     0.137 N 
ATOM      3  C   UNL d   1       9.217   4.906  -9.782  0.00  0.00     0.252 C 
ATOM      4  C   UNL d   1      10.029   5.760  -8.816  0.00  0.00     0.058 C 
ATOM      5  C   UNL d   1       9.581   7.227  -8.781  0.00  0.00     0.094 C 
ATOM      6  C   UNL d   1       9.548   7.691 -10.269  0.00  0.00     0.058 C 
ATOM      7  C   UNL d   1       8.787   6.758 -11.207  0.00  0.00     0.252 C 
BRANCH   5   8
ATOM      8  N   UNL d   1      10.476   8.061  -7.930  0.00  0.00    -0.281 N 
ATOM      9  C   UNL d   1      11.146   9.186  -8.274  0.00  0.00     0.350 A 
ATOM     10  O   UNL d   1      11.137   9.747  -9.366  0.00  0.00    -0.244 OA
ATOM     11  N   UNL d   1      11.855   9.629  -7.217  0.00  0.00    -0.191 NA
ATOM     12  C   UNL d   1      11.655   8.791  -6.128  0.00  0.00     0.102 A 
ATOM     13  C   UNL d   1      10.801   7.814  -6.572  0.00  0.00     0.082 A 
ATOM     14  C   UNL d   1      12.209   8.857  -4.843  0.00  0.00     0.021 C 
ATOM     15  C   UNL d   1      10.411   6.802  -5.698  0.00  0.00     0.019 C 
ATOM     16  C   UNL d   1      11.029   6.766  -4.431  0.00  0.00     0.002 C 
ATOM     17  C   UNL d   1      11.885   7.795  -3.975  0.00  0.00     0.002 C 
ENDBRANCH   5   8
ENDBRANCH   1   2
BRANCH   1  18
ATOM     18  C   UNL d   1       9.230   4.667 -13.461  0.00  0.00     0.036 C 
BRANCH  18  19
ATOM     19  C   UNL d   1       9.186   3.313 -14.178  0.00  0.00     0.011 C 
BRANCH  19  20
ATOM     20  C   UNL d   1       9.544   3.383 -15.683  0.00  0.00     0.045 C 
BRANCH  20  21
ATOM     21  C   UNL d   1       9.630   2.029 -16.378  0.00  0.00    -0.018 A 
ATOM     22  C   UNL d   1      10.097   0.879 -15.702  0.00  0.00    -0.002 A 
ATOM     23  C   UNL d   1      10.156  -0.353 -16.367  0.00  0.00     0.029 A 
ATOM     24  C   UNL d   1       9.779  -0.452 -17.715  0.00  0.00     0.140 A 
ATOM     25  C   UNL d   1       9.324   0.685 -18.403  0.00  0.00     0.029 A 
ATOM     26  F   UNL d   1       9.858  -1.641 -18.352  0.00  0.00    -0.204 F 
ATOM     27  C   UNL d   1       9.248   1.923 -17.736  0.00  0.00    -0.002 A 
ENDBRANCH  20  21
BRANCH  20  28
ATOM     28  C   UNL d   1      10.754   4.253 -15.999  0.00  0.00    -0.018 A 
ATOM     29  C   UNL d   1      12.008   3.959 -15.429  0.00  0.00    -0.002 A 
ATOM     30  C   UNL d   1      13.114   4.776 -15.720  0.00  0.00     0.029 A 
ATOM     31  C   UNL d   1      12.992   5.878 -16.582  0.00  0.00     0.140 A 
ATOM     32  C   UNL d   1      11.746   6.172 -17.159  0.00  0.00     0.029 A 
ATOM     33  F   UNL d   1      14.074   6.646 -16.852  0.00  0.00    -0.204 F 
ATOM     34  C   UNL d   1      10.630   5.362 -16.867  0.00  0.00    -0.002 A 
ENDBRANCH  20  28
ENDBRANCH  19  20
ENDBRANCH  18  19
ENDBRANCH   1  18
TORSDOF 7
