REMARK  9 active torsions:
REMARK  status: ('A' for Active; 'I' for Inactive)
REMARK    1  A    between atoms: C_2  and  O_3 
REMARK    2  A    between atoms: O_3  and  C_4 
REMARK    3  A    between atoms: C_4  and  C_5 
REMARK    4  A    between atoms: C_5  and  C_6 
REMARK       I    between atoms: C_6  and  N_8 
REMARK    5  A    between atoms: N_8  and  C_9 
REMARK    6  A    between atoms: C_12  and  C_13 
REMARK    7  A    between atoms: C_13  and  C_14 
REMARK    8  A    between atoms: C_14  and  N_15 
REMARK    9  A    between atoms: C_18  and  C_19 
ROOT
ATOM      1  C   UNL d   1       7.239   2.264 -14.351  0.00  0.00     0.250 C 
ENDROOT
BRANCH   1   2
ATOM      2  C   UNL d   1       8.605   2.828 -13.909  0.00  0.00     0.035 C 
BRANCH   2   3
ATOM      3  C   UNL d   1       8.501   3.856 -12.761  0.00  0.00     0.002 C 
ATOM      4  C   UNL d   1       9.743   3.875 -11.868  0.00  0.00     0.002 C 
ATOM      5  C   UNL d   1       9.487   4.843 -10.683  0.00  0.00     0.024 C 
ATOM      6  C   UNL d   1       9.367   6.263 -11.242  0.00  0.00     0.106 C 
ATOM      7  C   UNL d   1       8.118   6.313 -12.155  0.00  0.00     0.024 C 
ATOM      8  C   UNL d   1       8.230   5.263 -13.291  0.00  0.00     0.002 C 
BRANCH   6   9
ATOM      9  N   UNL d   1       9.239   7.202 -10.141  0.00  0.00    -0.240 NA
ATOM     10  C   UNL d   1      10.170   7.566  -9.245  0.00  0.00     0.254 C 
ATOM     11  O   UNL d   1      11.361   7.277  -9.355  0.00  0.00    -0.271 OA
BRANCH  10  12
ATOM     12  C   UNL d   1       9.674   8.380  -8.044  0.00  0.00     0.122 C 
BRANCH  12  13
ATOM     13  C   UNL d   1      10.839   8.795  -7.143  0.00  0.00     0.152 C 
BRANCH  13  14
ATOM     14  O   UNL d   1      10.354   9.507  -6.018  0.00  0.00    -0.354 OA
BRANCH  14  15
ATOM     15  C   UNL d   1      11.383   9.947  -5.131  0.00  0.00     0.142 C 
ATOM     16  C   UNL d   1      11.898   8.822  -4.215  0.00  0.00     0.035 C 
ENDBRANCH  14  15
ENDBRANCH  13  14
ENDBRANCH  12  13
ENDBRANCH  10  12
ENDBRANCH   6   9
ENDBRANCH   2   3
ENDBRANCH   1   2
BRANCH   1  17
ATOM     17  N   UNL d   1       7.366   1.375 -15.498  0.00  0.00     0.137 N 
ATOM     18  C   UNL d   1       6.178   0.531 -15.574  0.00  0.00     0.251 C 
ATOM     19  C   UNL d   1       6.314  -0.458 -16.736  0.00  0.00     0.040 C 
ATOM     20  C   UNL d   1       6.575   0.236 -18.092  0.00  0.00     0.028 C 
ATOM     21  C   UNL d   1       7.742   1.227 -17.929  0.00  0.00     0.040 C 
ATOM     22  C   UNL d   1       7.514   2.149 -16.723  0.00  0.00     0.251 C 
BRANCH  20  23
ATOM     23  C   UNL d   1       6.837  -0.737 -19.248  0.00  0.00     0.002 A 
ATOM     24  C   UNL d   1       6.460  -0.408 -20.567  0.00  0.00     0.115 A 
ATOM     25  C   UNL d   1       6.690  -1.256 -21.634  0.00  0.00     0.119 A 
ATOM     26  O   UNL d   1       5.853   0.724 -21.027  0.00  0.00    -0.300 OA
ATOM     27  C   UNL d   1       7.309  -2.512 -21.457  0.00  0.00     0.026 A 
ATOM     28  O   UNL d   1       6.245  -0.692 -22.787  0.00  0.00    -0.300 OA
ATOM     29  C   UNL d   1       7.685  -2.860 -20.139  0.00  0.00     0.002 A 
ATOM     30  C   UNL d   1       7.483  -1.981 -19.050  0.00  0.00    -0.002 A 
ATOM     31  C   UNL d   1       5.707   0.549 -22.417  0.00  0.00     0.304 A 
ENDBRANCH  20  23
ENDBRANCH   1  17
TORSDOF 9
