REMARK  7 active torsions:
REMARK  status: ('A' for Active; 'I' for Inactive)
REMARK    1  A    between atoms: C_2  and  O_4 
REMARK    2  A    between atoms: O_4  and  C_5 
REMARK    3  A    between atoms: C_10  and  C_11 
REMARK    4  A    between atoms: N_14  and  C_15 
REMARK    5  A    between atoms: C_18  and  N_19 
REMARK    6  A    between atoms: N_19  and  S_20 
REMARK    7  A    between atoms: S_20  and  C_23 
ROOT
ATOM      1  C   UNL d   1       8.440   5.589 -10.662  0.00  0.00     0.219 C 
ATOM      2  C   UNL d   1       8.707   4.806  -9.361  0.00  0.00     0.035 C 
ATOM      3  C   UNL d   1       8.820   5.797  -8.188  0.00  0.00     0.027 C 
ATOM      4  C   UNL d   1       9.939   6.802  -8.411  0.00  0.00     0.116 C 
ATOM      5  C   UNL d   1       9.742   7.624  -9.672  0.00  0.00     0.027 C 
ATOM      6  C   UNL d   1       9.503   6.711 -10.875  0.00  0.00     0.035 C 
ENDROOT
BRANCH   1   7
ATOM      7  N   UNL d   1       8.303   4.638 -11.776  0.00  0.00     0.135 N 
ATOM      8  C   UNL d   1       9.567   4.324 -12.441  0.00  0.00     0.251 C 
ATOM      9  C   UNL d   1       9.452   3.218 -13.463  0.00  0.00     0.040 C 
ATOM     10  C   UNL d   1       8.350   3.534 -14.466  0.00  0.00     0.028 C 
ATOM     11  C   UNL d   1       7.053   3.972 -13.723  0.00  0.00     0.040 C 
ATOM     12  C   UNL d   1       7.326   5.110 -12.744  0.00  0.00     0.251 C 
BRANCH  10  13
ATOM     13  C   UNL d   1       8.119   2.353 -15.417  0.00  0.00    -0.000 A 
ATOM     14  C   UNL d   1       8.583   2.385 -16.762  0.00  0.00     0.090 A 
ATOM     15  C   UNL d   1       8.301   1.260 -17.592  0.00  0.00     0.024 A 
ATOM     16  C   UNL d   1       7.624   0.133 -17.087  0.00  0.00     0.002 A 
ATOM     17  C   UNL d   1       7.183   0.119 -15.758  0.00  0.00    -0.000 A 
ATOM     18  C   UNL d   1       7.446   1.214 -14.927  0.00  0.00    -0.002 A 
BRANCH  14  19
ATOM     19  O   UNL d   1       9.264   3.510 -17.198  0.00  0.00    -0.334 OA
BRANCH  19  20
ATOM     20  C   UNL d   1       9.815   3.531 -18.516  0.00  0.00     0.121 C 
ATOM     21  C   UNL d   1      11.050   2.621 -18.640  0.00  0.00     0.033 C 
ATOM     22  C   UNL d   1      10.205   4.996 -18.821  0.00  0.00     0.033 C 
ENDBRANCH  19  20
ENDBRANCH  14  19
ENDBRANCH  10  13
ENDBRANCH   1   7
BRANCH   4  23
ATOM     23  N   UNL d   1       9.971   7.697  -7.254  0.00  0.00    -0.187 NA
BRANCH  23  24
ATOM     24  S   UNL d   1      11.378   8.583  -6.981  0.00  0.00     0.281 S 
ATOM     25  O   UNL d   1      12.447   7.969  -7.757  0.00  0.00    -0.199 OA
ATOM     26  O   UNL d   1      11.037   9.983  -7.212  0.00  0.00    -0.199 OA
BRANCH  24  27
ATOM     27  C   UNL d   1      11.637   8.402  -5.233  0.00  0.00     0.107 A 
ATOM     28  C   UNL d   1      11.830   7.120  -4.681  0.00  0.00     0.045 A 
ATOM     29  C   UNL d   1      12.072   7.007  -3.299  0.00  0.00     0.168 A 
ATOM     30  C   UNL d   1      12.094   8.152  -2.489  0.00  0.00     0.167 A 
ATOM     31  F   UNL d   1      12.315   5.804  -2.741  0.00  0.00    -0.202 F 
ATOM     32  C   UNL d   1      11.861   9.425  -3.036  0.00  0.00     0.033 A 
ATOM     33  F   UNL d   1      12.360   8.036  -1.173  0.00  0.00    -0.202 F 
ATOM     34  C   UNL d   1      11.627   9.552  -4.416  0.00  0.00     0.015 A 
ENDBRANCH  24  27
ENDBRANCH  23  24
ENDBRANCH   4  23
TORSDOF 7
