REMARK  7 active torsions:
REMARK  status: ('A' for Active; 'I' for Inactive)
REMARK    1  A    between atoms: C_2  and  C_3 
REMARK    2  A    between atoms: N_13  and  C_14 
REMARK    3  A    between atoms: C_14  and  C_15 
REMARK    4  A    between atoms: C_15  and  C_17 
REMARK    5  A    between atoms: C_17  and  N_18 
REMARK    6  A    between atoms: C_21  and  O_22 
REMARK    7  A    between atoms: O_22  and  C_23 
ROOT
ATOM      1  C   UNL d   1       9.831   2.897 -16.034  0.00  0.00     0.208 C 
ATOM      2  O   UNL d   1      10.395   1.760 -16.657  0.00  0.00    -0.219 OA
ENDROOT
BRANCH   1   3
ATOM      3  C   UNL d   1       9.808   2.652 -14.510  0.00  0.00     0.148 C 
BRANCH   3   4
ATOM      4  N   UNL d   1       9.002   3.661 -13.795  0.00  0.00    -0.247 N 
ATOM      5  C   UNL d   1       7.673   3.604 -13.582  0.00  0.00     0.348 A 
ATOM      6  N   UNL d   1       7.328   4.612 -12.760  0.00  0.00    -0.209 NA
ATOM      7  O   UNL d   1       6.891   2.754 -14.014  0.00  0.00    -0.245 OA
ATOM      8  C   UNL d   1       8.440   5.507 -12.481  0.00  0.00     0.179 A 
ATOM      9  C   UNL d   1       8.124   6.867 -13.065  0.00  0.00     0.039 C 
ATOM     10  C   UNL d   1       9.512   4.776 -13.251  0.00  0.00     0.265 A 
ATOM     11  O   UNL d   1      10.675   5.176 -13.359  0.00  0.00    -0.269 OA
BRANCH   8  12
ATOM     12  C   UNL d   1       8.863   5.648 -11.028  0.00  0.00     0.006 A 
ATOM     13  C   UNL d   1       8.302   4.809 -10.055  0.00  0.00     0.000 A 
ATOM     14  C   UNL d   1       8.665   4.977  -8.712  0.00  0.00     0.029 A 
ATOM     15  C   UNL d   1       9.560   5.997  -8.328  0.00  0.00     0.140 A 
ATOM     16  C   UNL d   1      10.138   6.823  -9.302  0.00  0.00     0.029 A 
ATOM     17  F   UNL d   1       9.855   6.222  -7.027  0.00  0.00    -0.204 F 
ATOM     18  C   UNL d   1       9.791   6.644 -10.647  0.00  0.00     0.000 A 
ENDBRANCH   8  12
ENDBRANCH   3   4
ENDBRANCH   1   3
BRANCH   1  19
ATOM     19  C   UNL d   1      10.644   4.159 -16.459  0.00  0.00     0.285 C 
BRANCH  19  20
ATOM     20  N   UNL d   1      10.374   4.709 -17.779  0.00  0.00     0.140 N 
ATOM     21  C   UNL d   1       9.018   5.175 -17.894  0.00  0.00     0.253 C 
ATOM     22  C   UNL d   1       8.640   5.662 -19.274  0.00  0.00     0.066 C 
ATOM     23  C   UNL d   1       9.514   6.854 -19.663  0.00  0.00     0.125 C 
ATOM     24  C   UNL d   1      10.999   6.407 -19.518  0.00  0.00     0.066 C 
ATOM     25  C   UNL d   1      11.269   5.815 -18.110  0.00  0.00     0.253 C 
BRANCH  23  26
ATOM     26  O   UNL d   1       9.317   7.245 -21.023  0.00  0.00    -0.333 OA
BRANCH  26  27
ATOM     27  C   UNL d   1       8.200   7.959 -21.412  0.00  0.00     0.094 A 
ATOM     28  C   UNL d   1       7.015   8.149 -20.654  0.00  0.00     0.025 A 
ATOM     29  C   UNL d   1       5.922   8.838 -21.216  0.00  0.00     0.013 A 
ATOM     30  C   UNL d   1       6.019   9.418 -22.497  0.00  0.00     0.058 A 
ATOM     31  C   UNL d   1       7.212   9.278 -23.237  0.00  0.00     0.013 A 
ATOM     32 CL   UNL d   1       4.693  10.330 -23.124  0.00  0.00    -0.082 Cl
ATOM     33  C   UNL d   1       8.283   8.523 -22.701  0.00  0.00     0.025 A 
ENDBRANCH  26  27
ENDBRANCH  23  26
ENDBRANCH  19  20
ENDBRANCH   1  19
TORSDOF 7
