REMARK  1 active torsions:
REMARK  status: ('A' for Active; 'I' for Inactive)
REMARK    1  A    between atoms: O_2  and  C_3 
ROOT
ATOM      1  C   UNL d   1       5.885   0.333 -14.456  0.00  0.00     0.094 A 
ATOM      2  C   UNL d   1       6.994   0.636 -15.256  0.00  0.00     0.024 A 
ATOM      3  C   UNL d   1       7.646   1.877 -15.136  0.00  0.00    -0.000 A 
ATOM      4  C   UNL d   1       7.208   2.852 -14.205  0.00  0.00     0.009 A 
ATOM      5  C   UNL d   1       6.089   2.544 -13.399  0.00  0.00    -0.020 A 
ATOM      6  C   UNL d   1       5.466   1.282 -13.503  0.00  0.00     0.020 A 
ATOM      7  C   UNL d   1       5.574   3.537 -12.379  0.00  0.00     0.061 C 
ATOM      8  C   UNL d   1       6.134   4.956 -12.535  0.00  0.00     0.256 C 
ATOM      9  N   UNL d   1       7.564   4.979 -12.823  0.00  0.00     0.144 N 
ATOM     10  C   UNL d   1       8.331   4.397 -11.749  0.00  0.00     0.256 C 
ATOM     11  C   UNL d   1       9.820   4.596 -11.960  0.00  0.00     0.061 C 
ATOM     12  C   UNL d   1      10.302   4.384 -13.389  0.00  0.00    -0.022 A 
ATOM     13  C   UNL d   1      11.677   4.383 -13.711  0.00  0.00    -0.004 A 
ATOM     14  C   UNL d   1      12.102   4.348 -15.049  0.00  0.00    -0.000 A 
ATOM     15  C   UNL d   1      11.153   4.313 -16.085  0.00  0.00    -0.000 A 
ATOM     16  C   UNL d   1       9.783   4.278 -15.769  0.00  0.00    -0.002 A 
ATOM     17  C   UNL d   1       9.355   4.282 -14.421  0.00  0.00     0.009 A 
ATOM     18  C   UNL d   1       7.880   4.240 -14.060  0.00  0.00     0.263 C 
ENDROOT
BRANCH   1  19
ATOM     19  O   UNL d   1       5.262  -0.881 -14.642  0.00  0.00    -0.328 OA
ATOM     20  C   UNL d   1       3.846  -0.856 -14.709  0.00  0.00     0.181 C 
ENDBRANCH   1  19
TORSDOF 1
