REMARK  10 active torsions:
REMARK  status: ('A' for Active; 'I' for Inactive)
REMARK    1  A    between atoms: C_2  and  C_3 
REMARK    2  A    between atoms: C_7  and  O_8 
REMARK    3  A    between atoms: C_10  and  C_11 
REMARK       I    between atoms: C_11  and  N_13 
REMARK    4  A    between atoms: N_13  and  C_14 
REMARK    5  A    between atoms: C_14  and  C_15 
REMARK    6  A    between atoms: C_17  and  O_18 
REMARK    7  A    between atoms: O_18  and  C_19 
REMARK    8  A    between atoms: C_19  and  C_20 
REMARK    9  A    between atoms: C_20  and  C_21 
REMARK   10  A    between atoms: C_21  and  C_22 
ROOT
ATOM      1  C   UNL d   1       9.058   4.001 -13.669  0.00  0.00     0.165 C 
ENDROOT
BRANCH   1   2
ATOM      2  N   UNL d   1       9.985   4.032 -14.783  0.00  0.00    -0.232 NA
ATOM      3  C   UNL d   1      11.321   4.071 -14.817  0.00  0.00     0.279 C 
ATOM      4  O   UNL d   1      12.046   4.321 -13.834  0.00  0.00    -0.265 OA
BRANCH   3   5
ATOM      5  C   UNL d   1      11.947   3.840 -16.143  0.00  0.00     0.106 A 
ATOM      6  C   UNL d   1      11.769   2.597 -16.816  0.00  0.00     0.111 A 
ATOM      7  C   UNL d   1      12.483   2.320 -17.995  0.00  0.00     0.080 A 
ATOM      8  C   UNL d   1      13.363   3.295 -18.526  0.00  0.00     0.011 A 
ATOM      9 CL   UNL d   1      12.341   0.787 -18.788  0.00  0.00    -0.080 Cl
ATOM     10  C   UNL d   1      13.525   4.540 -17.881  0.00  0.00     0.004 A 
ATOM     11  C   UNL d   1      12.824   4.818 -16.694  0.00  0.00     0.134 A 
ATOM     12  O   UNL d   1      12.988   6.032 -16.079  0.00  0.00    -0.190 OA
BRANCH   6  13
ATOM     13  O   UNL d   1      10.948   1.632 -16.276  0.00  0.00    -0.327 OA
ATOM     14  C   UNL d   1       9.632   1.620 -16.812  0.00  0.00     0.181 C 
ENDBRANCH   6  13
BRANCH  10  15
ATOM     15  C   UNL d   1      14.461   5.581 -18.479  0.00  0.00     0.029 C 
ATOM     16  C   UNL d   1      15.772   5.735 -17.693  0.00  0.00     0.005 C 
ENDBRANCH  10  15
ENDBRANCH   3   5
ENDBRANCH   1   2
BRANCH   1  17
ATOM     17  C   UNL d   1       9.447   4.975 -12.542  0.00  0.00     0.283 C 
ATOM     18  N   UNL d   1       8.900   6.300 -12.760  0.00  0.00     0.342 N 
ATOM     19  C   UNL d   1       9.153   6.968 -11.511  0.00  0.00     0.319 C 
ATOM     20  C   UNL d   1       8.821   5.912 -10.444  0.00  0.00     0.153 C 
ATOM     21  C   UNL d   1       9.006   4.568 -11.154  0.00  0.00     0.070 C 
BRANCH  20  22
ATOM     22  O   UNL d   1       9.698   6.014  -9.340  0.00  0.00    -0.354 OA
BRANCH  22  23
ATOM     23  C   UNL d   1       9.470   7.214  -8.617  0.00  0.00     0.143 C 
BRANCH  23  24
ATOM     24  C   UNL d   1      10.394   7.198  -7.418  0.00  0.00     0.037 C 
BRANCH  24  25
ATOM     25  C   UNL d   1      10.356   8.502  -6.598  0.00  0.00     0.029 C 
BRANCH  25  26
ATOM     26  C   UNL d   1      11.060   8.408  -5.248  0.00  0.00    -0.022 A 
ATOM     27  C   UNL d   1      11.249   9.584  -4.489  0.00  0.00    -0.004 A 
ATOM     28  C   UNL d   1      11.868   9.520  -3.224  0.00  0.00    -0.000 A 
ATOM     29  C   UNL d   1      12.292   8.285  -2.698  0.00  0.00    -0.000 A 
ATOM     30  C   UNL d   1      12.100   7.112  -3.447  0.00  0.00    -0.000 A 
ATOM     31  C   UNL d   1      11.492   7.166  -4.708  0.00  0.00    -0.004 A 
ENDBRANCH  25  26
ENDBRANCH  24  25
ENDBRANCH  23  24
ENDBRANCH  22  23
ENDBRANCH  20  22
ENDBRANCH   1  17
TORSDOF 10
