REMARK  6 active torsions:
REMARK  status: ('A' for Active; 'I' for Inactive)
REMARK       I    between atoms: C_2  and  N_3 
REMARK    1  A    between atoms: C_2  and  C_30 
REMARK    2  A    between atoms: N_3  and  C_4 
REMARK    3  A    between atoms: C_10  and  C_11 
REMARK    4  A    between atoms: C_11  and  C_12 
REMARK    5  A    between atoms: C_12  and  N_13 
REMARK    6  A    between atoms: N_16  and  C_17 
ROOT
ATOM      1  C   UNL d   1       8.700   1.073 -14.421  0.00  0.00     0.129 C 
ATOM      2  C   UNL d   1       9.925   0.409 -15.098  0.00  0.00     0.034 C 
ATOM      3  C   UNL d   1      10.871   1.542 -15.546  0.00  0.00     0.028 C 
ATOM      4  C   UNL d   1      10.342   2.756 -14.843  0.00  0.00    -0.024 A 
ATOM      5  C   UNL d   1      10.936   4.029 -14.775  0.00  0.00    -0.005 A 
ATOM      6  C   UNL d   1      10.242   5.044 -14.081  0.00  0.00    -0.005 A 
ATOM      7  C   UNL d   1       8.978   4.794 -13.482  0.00  0.00    -0.020 A 
ATOM      8  C   UNL d   1       8.424   3.500 -13.547  0.00  0.00    -0.007 A 
ATOM      9  C   UNL d   1       9.131   2.495 -14.223  0.00  0.00    -0.004 A 
ENDROOT
BRANCH   7  10
ATOM     10  C   UNL d   1       8.191   5.901 -12.796  0.00  0.00     0.062 C 
BRANCH  10  11
ATOM     11  C   UNL d   1       8.042   5.677 -11.266  0.00  0.00     0.255 C 
BRANCH  11  12
ATOM     12  N   UNL d   1       9.271   5.871 -10.486  0.00  0.00     0.141 N 
ATOM     13  C   UNL d   1       8.904   5.731  -9.068  0.00  0.00     0.274 C 
ATOM     14  C   UNL d   1      10.112   5.952  -8.145  0.00  0.00     0.138 C 
ATOM     15  N   UNL d   1      10.755   7.232  -8.407  0.00  0.00    -0.329 N 
ATOM     16  C   UNL d   1      11.057   7.459  -9.814  0.00  0.00     0.138 C 
ATOM     17  C   UNL d   1       9.819   7.222 -10.688  0.00  0.00     0.274 C 
BRANCH  15  18
ATOM     18  C   UNL d   1      11.017   8.200  -7.399  0.00  0.00     0.148 A 
ATOM     19  C   UNL d   1      11.329   7.852  -6.021  0.00  0.00     0.042 A 
ATOM     20  C   UNL d   1      11.586   9.038  -5.274  0.00  0.00     0.050 A 
ATOM     21  C   UNL d   1      11.481   6.626  -5.331  0.00  0.00     0.004 A 
ATOM     22  S   UNL d   1      11.498  10.387  -6.375  0.00  0.00     0.015 SA
ATOM     23  C   UNL d   1      11.889   9.021  -3.891  0.00  0.00     0.008 A 
ATOM     24  N   UNL d   1      11.059   9.470  -7.709  0.00  0.00    -0.192 NA
ATOM     25  C   UNL d   1      11.980   7.782  -3.233  0.00  0.00     0.001 A 
ATOM     26  C   UNL d   1      11.793   6.597  -3.959  0.00  0.00     0.000 A 
ENDBRANCH  15  18
ENDBRANCH  11  12
ENDBRANCH  10  11
ENDBRANCH   7  10
BRANCH   1  27
ATOM     27  N   UNL d   1       7.543   1.012 -15.299  0.00  0.00    -0.232 NA
ATOM     28  C   UNL d   1       6.438   0.286 -15.086  0.00  0.00     0.277 C 
ATOM     29  O   UNL d   1       6.136  -0.191 -13.993  0.00  0.00    -0.266 OA
BRANCH  28  30
ATOM     30  C   UNL d   1       5.636  -0.023 -16.324  0.00  0.00     0.077 A 
ATOM     31  C   UNL d   1       5.837   0.659 -17.546  0.00  0.00     0.104 A 
ATOM     32  N   UNL d   1       5.178   0.374 -18.689  0.00  0.00    -0.242 NA
ATOM     33  C   UNL d   1       4.252  -0.609 -18.654  0.00  0.00     0.099 A 
ATOM     34  C   UNL d   1       3.967  -1.349 -17.493  0.00  0.00     0.021 A 
ATOM     35  C   UNL d   1       4.669  -1.055 -16.308  0.00  0.00     0.008 A 
ENDBRANCH  28  30
ENDBRANCH   1  27
TORSDOF 6
