REMARK  4 active torsions:
REMARK  status: ('A' for Active; 'I' for Inactive)
REMARK    1  A    between atoms: C_3  and  C_4 
REMARK    2  A    between atoms: N_12  and  C_13 
REMARK    3  A    between atoms: N_16  and  C_17 
REMARK    4  A    between atoms: C_17  and  C_18 
ROOT
ATOM      1  C   UNL d   1       9.328   6.887  -9.496  0.00  0.00     0.109 C 
ATOM      2  C   UNL d   1       9.576   5.423  -9.823  0.00  0.00     0.060 C 
ATOM      3  C   UNL d   1       8.732   4.977 -11.029  0.00  0.00     0.253 C 
ATOM      4  N   UNL d   1       9.026   5.787 -12.210  0.00  0.00     0.141 N 
ATOM      5  C   UNL d   1       8.627   7.165 -11.945  0.00  0.00     0.253 C 
ATOM      6  C   UNL d   1       9.460   7.734 -10.790  0.00  0.00     0.060 C 
ENDROOT
BRANCH   1   7
ATOM      7  N   UNL d   1      10.220   7.377  -8.449  0.00  0.00    -0.257 N 
ATOM      8  C   UNL d   1      10.062   7.280  -7.078  0.00  0.00     0.057 A 
ATOM      9  C   UNL d   1       8.896   6.603  -6.449  0.00  0.00     0.052 C 
ATOM     10  C   UNL d   1      11.139   7.918  -6.537  0.00  0.00     0.034 A 
ATOM     11  C   UNL d   1      11.928   8.350  -7.636  0.00  0.00     0.121 A 
ATOM     12  N   UNL d   1      11.385   7.993  -8.781  0.00  0.00    -0.168 NA
BRANCH  10  13
ATOM     13  C   UNL d   1      11.466   8.101  -5.124  0.00  0.00     0.003 A 
ATOM     14  C   UNL d   1      11.490   9.397  -4.578  0.00  0.00     0.000 A 
ATOM     15  C   UNL d   1      11.856   9.595  -3.238  0.00  0.00     0.000 A 
ATOM     16  C   UNL d   1      12.218   8.501  -2.428  0.00  0.00     0.000 A 
ATOM     17  C   UNL d   1      12.204   7.200  -2.964  0.00  0.00     0.000 A 
ATOM     18  C   UNL d   1      11.826   7.006  -4.309  0.00  0.00     0.000 A 
ENDBRANCH  10  13
ENDBRANCH   1   7
BRANCH   4  19
ATOM     19  C   UNL d   1       8.260   5.294 -13.354  0.00  0.00     0.277 C 
BRANCH  19  20
ATOM     20  C   UNL d   1       8.710   3.937 -13.859  0.00  0.00     0.012 A 
ATOM     21  C   UNL d   1       7.765   2.912 -14.060  0.00  0.00     0.009 A 
ATOM     22  C   UNL d   1       8.180   1.648 -14.526  0.00  0.00     0.058 A 
ATOM     23  C   UNL d   1       9.541   1.410 -14.806  0.00  0.00     0.011 A 
ATOM     24 CL   UNL d   1       7.021   0.386 -14.736  0.00  0.00    -0.082 Cl
ATOM     25  C   UNL d   1      10.490   2.434 -14.606  0.00  0.00     0.001 A 
ATOM     26  C   UNL d   1      10.073   3.695 -14.137  0.00  0.00    -0.002 A 
ENDBRANCH  19  20
ENDBRANCH   4  19
TORSDOF 4
