REMARK  6 active torsions:
REMARK  status: ('A' for Active; 'I' for Inactive)
REMARK    1  A    between atoms: C_2  and  C_3 
REMARK    2  A    between atoms: C_3  and  N_4 
REMARK    3  A    between atoms: N_4  and  C_5 
REMARK    4  A    between atoms: N_4  and  C_8 
REMARK    5  A    between atoms: C_5  and  C_6 
REMARK    6  A    between atoms: C_12  and  C_13 
ROOT
ATOM      1  C   UNL d   1      11.116   7.582  -7.128  0.00  0.00     0.224 C 
ATOM      2  C   UNL d   1      10.684   8.731  -8.038  0.00  0.00     0.038 C 
ATOM      3  C   UNL d   1      10.457   8.367  -9.443  0.00  0.00     0.028 C 
ATOM      4  C   UNL d   1       9.651   7.100  -9.609  0.00  0.00    -0.021 A 
ATOM      5  C   UNL d   1       9.053   6.828 -10.850  0.00  0.00     0.055 A 
ATOM      6  C   UNL d   1       8.362   5.629 -11.099  0.00  0.00     0.004 A 
ATOM      7  C   UNL d   1       8.222   4.757 -10.036  0.00  0.00    -0.000 A 
ATOM      8  C   UNL d   1       8.759   5.020  -8.783  0.00  0.00    -0.004 A 
ATOM      9  C   UNL d   1       9.493   6.190  -8.543  0.00  0.00    -0.024 A 
ATOM     10  C   UNL d   1      10.001   6.507  -7.161  0.00  0.00     0.053 C 
ATOM     11  C   UNL d   1       8.820   6.895  -6.272  0.00  0.00     0.007 C 
ENDROOT
BRANCH   1  12
ATOM     12  N   UNL d   1      11.448   8.028  -5.750  0.00  0.00     0.135 N 
BRANCH  12  13
ATOM     13  C   UNL d   1      11.950   6.883  -4.950  0.00  0.00     0.250 C 
BRANCH  13  14
ATOM     14  C   UNL d   1      12.610   7.256  -3.594  0.00  0.00     0.035 C 
ATOM     15  C   UNL d   1      11.593   7.915  -2.660  0.00  0.00     0.002 C 
ENDBRANCH  13  14
ENDBRANCH  12  13
BRANCH  12  16
ATOM     16  C   UNL d   1      12.312   9.222  -5.765  0.00  0.00     0.250 C 
BRANCH  16  17
ATOM     17  C   UNL d   1      11.586  10.568  -5.848  0.00  0.00     0.035 C 
ATOM     18  C   UNL d   1      10.697  10.765  -4.640  0.00  0.00     0.002 C 
ENDBRANCH  16  17
ENDBRANCH  12  16
ENDBRANCH   1  12
BRANCH   5  19
ATOM     19  C   UNL d   1       9.156   7.767 -11.954  0.00  0.00     0.296 C 
ATOM     20  N   UNL d   1       8.628   8.982 -11.889  0.00  0.00    -0.102 N 
ATOM     21  O   UNL d   1       9.828   7.372 -12.842  0.00  0.00    -0.264 OA
ENDBRANCH   5  19
TORSDOF 6
