REMARK  6 active torsions:
REMARK  status: ('A' for Active; 'I' for Inactive)
REMARK    1  A    between atoms: C_2  and  C_3 
REMARK    2  A    between atoms: C_7  and  O_8 
REMARK    3  A    between atoms: C_10  and  C_11 
REMARK       I    between atoms: C_11  and  N_13 
REMARK    4  A    between atoms: N_13  and  C_14 
REMARK    5  A    between atoms: C_14  and  C_15 
REMARK    6  A    between atoms: N_19  and  C_20 
ROOT
ATOM      1  C   UNL d   1      10.235   6.927  -7.722  0.00  0.00    -0.009 A 
ATOM      2  C   UNL d   1      10.670   8.248  -8.028  0.00  0.00     0.026 A 
ATOM      3  C   UNL d   1      10.614   8.715  -9.337  0.00  0.00     0.153 A 
ATOM      4  O   UNL d   1      11.046   9.980  -9.631  0.00  0.00    -0.188 OA
ATOM      5  C   UNL d   1      10.150   7.907 -10.367  0.00  0.00     0.125 A 
ATOM      6  C   UNL d   1       9.716   6.594 -10.093  0.00  0.00     0.092 A 
ATOM      7  C   UNL d   1       9.746   6.098  -8.770  0.00  0.00     0.060 A 
ATOM      8 CL   UNL d   1       9.149   4.465  -8.479  0.00  0.00    -0.083 Cl
ENDROOT
BRANCH   6   9
ATOM      9  C   UNL d   1       9.213   5.778 -11.223  0.00  0.00     0.278 C 
ATOM     10  O   UNL d   1       9.860   5.602 -12.249  0.00  0.00    -0.265 OA
ATOM     11  N   UNL d   1       8.023   5.222 -11.014  0.00  0.00    -0.232 NA
BRANCH  11  12
ATOM     12  C   UNL d   1       7.678   4.060 -11.774  0.00  0.00     0.162 C 
BRANCH  12  13
ATOM     13  C   UNL d   1       6.928   4.463 -13.038  0.00  0.00     0.243 C 
ATOM     14  N   UNL d   1       6.847   3.396 -14.041  0.00  0.00     0.137 N 
ATOM     15  C   UNL d   1       5.838   2.487 -13.550  0.00  0.00     0.250 C 
ATOM     16  C   UNL d   1       4.775   3.399 -12.938  0.00  0.00     0.037 C 
ATOM     17  C   UNL d   1       5.480   4.723 -12.629  0.00  0.00     0.037 C 
BRANCH  14  18
ATOM     18  C   UNL d   1       8.072   2.704 -14.455  0.00  0.00     0.250 C 
ATOM     19  C   UNL d   1       9.097   3.699 -15.021  0.00  0.00     0.037 C 
ENDBRANCH  14  18
ENDBRANCH  12  13
ENDBRANCH  11  12
ENDBRANCH   6   9
BRANCH   5  20
ATOM     20  O   UNL d   1      10.150   8.385 -11.628  0.00  0.00    -0.326 OA
ATOM     21  C   UNL d   1       8.906   8.790 -12.140  0.00  0.00     0.181 C 
ENDBRANCH   5  20
BRANCH   1  22
ATOM     22  C   UNL d   1      10.279   6.438  -6.290  0.00  0.00     0.027 C 
ATOM     23  C   UNL d   1      10.663   7.479  -5.238  0.00  0.00     0.005 C 
ENDBRANCH   1  22
TORSDOF 6
