REMARK  7 active torsions:
REMARK  status: ('A' for Active; 'I' for Inactive)
REMARK       I    between atoms: C_2  and  N_3 
REMARK    1  A    between atoms: C_2  and  C_22 
REMARK    2  A    between atoms: N_3  and  C_4 
REMARK    3  A    between atoms: C_4  and  C_5 
REMARK    4  A    between atoms: C_5  and  C_6 
REMARK    5  A    between atoms: C_6  and  C_7 
REMARK    6  A    between atoms: C_7  and  N_8 
REMARK    7  A    between atoms: C_25  and  C_26 
ROOT
ATOM      1  C   UNL d   1       9.391   4.066 -12.825  0.00  0.00     0.029 C 
ENDROOT
BRANCH   1   2
ATOM      2  C   UNL d   1       8.465   5.127 -12.205  0.00  0.00     0.129 C 
BRANCH   2   3
ATOM      3  N   UNL d   1       9.021   5.608 -10.948  0.00  0.00    -0.234 NA
ATOM      4  C   UNL d   1       9.454   6.856 -10.719  0.00  0.00     0.275 C 
ATOM      5  O   UNL d   1       9.469   7.739 -11.580  0.00  0.00    -0.266 OA
BRANCH   4   6
ATOM      6  C   UNL d   1       9.959   7.112  -9.329  0.00  0.00     0.058 A 
ATOM      7  C   UNL d   1      11.033   7.999  -9.111  0.00  0.00     0.005 A 
ATOM      8  C   UNL d   1      11.475   8.278  -7.802  0.00  0.00     0.000 A 
ATOM      9  C   UNL d   1      10.842   7.694  -6.683  0.00  0.00     0.000 A 
ATOM     10  C   UNL d   1       9.751   6.827  -6.905  0.00  0.00     0.000 A 
ATOM     11  C   UNL d   1       9.308   6.540  -8.209  0.00  0.00     0.005 A 
BRANCH   9  12
ATOM     12  C   UNL d   1      11.301   7.984  -5.314  0.00  0.00     0.000 A 
ATOM     13  C   UNL d   1      11.668   6.935  -4.442  0.00  0.00     0.000 A 
ATOM     14  C   UNL d   1      12.122   7.200  -3.134  0.00  0.00     0.000 A 
ATOM     15  C   UNL d   1      12.200   8.527  -2.677  0.00  0.00     0.000 A 
ATOM     16  C   UNL d   1      11.821   9.581  -3.529  0.00  0.00     0.000 A 
ATOM     17  C   UNL d   1      11.384   9.312  -4.842  0.00  0.00     0.000 A 
ENDBRANCH   9  12
ENDBRANCH   4   6
ENDBRANCH   2   3
ENDBRANCH   1   2
BRANCH   1  18
ATOM     18  C   UNL d   1       8.894   3.611 -14.201  0.00  0.00     0.037 C 
BRANCH  18  19
ATOM     19  C   UNL d   1       9.706   2.424 -14.771  0.00  0.00     0.250 C 
BRANCH  19  20
ATOM     20  N   UNL d   1       9.163   1.908 -16.040  0.00  0.00     0.135 N 
ATOM     21  C   UNL d   1       8.120   0.922 -15.909  0.00  0.00     0.224 C 
ATOM     22  C   UNL d   1       8.033   0.392 -17.336  0.00  0.00     0.055 C 
ATOM     23  C   UNL d   1       6.706   1.387 -15.505  0.00  0.00     0.038 C 
ATOM     24  C   UNL d   1       9.503   0.136 -17.638  0.00  0.00     0.042 C 
ATOM     25  C   UNL d   1       7.028  -0.742 -17.495  0.00  0.00    -0.022 A 
ATOM     26  C   UNL d   1      10.197   1.234 -16.805  0.00  0.00     0.251 C 
ATOM     27  C   UNL d   1       5.889  -0.795 -16.647  0.00  0.00    -0.001 A 
ATOM     28  C   UNL d   1       7.211  -1.741 -18.476  0.00  0.00    -0.004 A 
ATOM     29  C   UNL d   1       4.946  -1.842 -16.780  0.00  0.00     0.127 A 
ATOM     30  C   UNL d   1       5.695   0.235 -15.538  0.00  0.00     0.030 C 
ATOM     31  C   UNL d   1       5.136  -2.821 -17.771  0.00  0.00     0.027 A 
ATOM     32  O   UNL d   1       3.867  -1.923 -15.949  0.00  0.00    -0.191 OA
ATOM     33  C   UNL d   1       6.263  -2.772 -18.609  0.00  0.00     0.002 A 
ENDBRANCH  19  20
ENDBRANCH  18  19
ENDBRANCH   1  18
TORSDOF 7
