REMARK  6 active torsions:
REMARK  status: ('A' for Active; 'I' for Inactive)
REMARK    1  A    between atoms: C_6  and  C_7 
REMARK    2  A    between atoms: C_10  and  S_11 
REMARK    3  A    between atoms: S_11  and  C_12 
REMARK    4  A    between atoms: C_12  and  C_13 
REMARK    5  A    between atoms: C_13  and  C_14 
REMARK    6  A    between atoms: C_14  and  N_15 
ROOT
ATOM      1  C   UNL d   1      10.856   4.358 -16.677  0.00  0.00     0.047 C 
ENDROOT
BRANCH   1   2
ATOM      2  C   UNL d   1      11.472   4.428 -15.274  0.00  0.00     0.067 C 
BRANCH   2   3
ATOM      3  S   UNL d   1      11.439   2.823 -14.445  0.00  0.00    -0.075 SA
BRANCH   3   4
ATOM      4  C   UNL d   1       9.696   2.602 -14.365  0.00  0.00     0.193 A 
ATOM      5  N   UNL d   1       8.840   3.520 -13.912  0.00  0.00    -0.122 NA
ATOM      6  N   UNL d   1       7.594   2.965 -14.089  0.00  0.00    -0.128 NA
ATOM      7  C   UNL d   1       7.797   1.765 -14.646  0.00  0.00     0.174 A 
ATOM      8  N   UNL d   1       9.108   1.476 -14.804  0.00  0.00    -0.288 N 
ATOM      9  C   UNL d   1       9.739   0.278 -15.332  0.00  0.00     0.134 C 
BRANCH   7  10
ATOM     10  C   UNL d   1       6.693   0.876 -14.992  0.00  0.00     0.080 A 
ATOM     11  C   UNL d   1       6.432   0.208 -16.170  0.00  0.00     0.069 A 
ATOM     12  N   UNL d   1       5.257  -0.543 -16.116  0.00  0.00    -0.247 NA
ATOM     13  C   UNL d   1       7.231   0.210 -17.443  0.00  0.00     0.053 C 
ATOM     14  C   UNL d   1       4.640  -0.470 -14.936  0.00  0.00     0.088 A 
ATOM     15  C   UNL d   1       3.365  -1.177 -14.640  0.00  0.00     0.059 C 
ATOM     16  S   UNL d   1       5.474   0.554 -13.778  0.00  0.00    -0.068 SA
ENDBRANCH   7  10
ENDBRANCH   3   4
ENDBRANCH   2   3
ENDBRANCH   1   2
BRANCH   1  17
ATOM     17  C   UNL d   1      10.841   5.722 -17.372  0.00  0.00     0.251 C 
BRANCH  17  18
ATOM     18  N   UNL d   1       9.924   5.684 -18.507  0.00  0.00     0.137 N 
ATOM     19  C   UNL d   1       9.675   7.019 -19.026  0.00  0.00     0.254 C 
ATOM     20  C   UNL d   1       9.053   6.761 -20.416  0.00  0.00     0.052 C 
ATOM     21  C   UNL d   1       9.550   5.350 -20.794  0.00  0.00     0.041 C 
ATOM     22  C   UNL d   1       9.467   7.783 -21.433  0.00  0.00    -0.022 A 
ATOM     23  C   UNL d   1       7.496   6.909 -20.408  0.00  0.00     0.011 C 
ATOM     24  C   UNL d   1      10.470   4.959 -19.645  0.00  0.00     0.251 C 
ATOM     25  C   UNL d   1       8.402   8.501 -21.959  0.00  0.00    -0.026 A 
ATOM     26  C   UNL d   1      10.778   7.976 -21.918  0.00  0.00     0.025 A 
ATOM     27  C   UNL d   1       7.112   8.112 -21.291  0.00  0.00     0.026 C 
ATOM     28  C   UNL d   1       8.569   9.399 -23.016  0.00  0.00    -0.002 A 
ATOM     29  C   UNL d   1       9.867   9.582 -23.524  0.00  0.00     0.029 A 
ATOM     30  C   UNL d   1      10.966   8.880 -22.973  0.00  0.00     0.140 A 
ATOM     31  F   UNL d   1      12.198   9.050 -23.482  0.00  0.00    -0.204 F 
ENDBRANCH  17  18
ENDBRANCH   1  17
TORSDOF 6
