REMARK  7 active torsions:
REMARK  status: ('A' for Active; 'I' for Inactive)
REMARK    1  A    between atoms: C_2  and  C_3 
REMARK       I    between atoms: N_7  and  C_8 
REMARK       I    between atoms: C_8  and  N_10 
REMARK    2  A    between atoms: N_10  and  C_11 
REMARK    3  A    between atoms: C_11  and  C_12 
REMARK    4  A    between atoms: C_12  and  C_13 
REMARK    5  A    between atoms: C_16  and  S_17 
REMARK    6  A    between atoms: S_17  and  N_20 
REMARK       I    between atoms: N_20  and  C_21 
REMARK       I    between atoms: C_21  and  N_23 
REMARK    7  A    between atoms: N_23  and  C_24 
ROOT
ATOM      1  C   UNL d   1       9.339   2.909 -14.925  0.00  0.00    -0.020 A 
ATOM      2  C   UNL d   1       9.510   3.387 -16.240  0.00  0.00    -0.004 A 
ATOM      3  C   UNL d   1       9.087   2.611 -17.336  0.00  0.00     0.013 A 
ATOM      4  C   UNL d   1       8.490   1.352 -17.116  0.00  0.00     0.105 A 
ATOM      5  C   UNL d   1       8.325   0.863 -15.803  0.00  0.00     0.013 A 
ATOM      6  C   UNL d   1       8.745   1.647 -14.708  0.00  0.00    -0.004 A 
ENDROOT
BRANCH   1   7
ATOM      7  C   UNL d   1       9.775   3.759 -13.745  0.00  0.00     0.053 C 
BRANCH   7   8
ATOM      8  C   UNL d   1       8.787   4.907 -13.469  0.00  0.00     0.135 C 
BRANCH   8   9
ATOM      9  N   UNL d   1       9.166   5.660 -12.273  0.00  0.00    -0.218 NA
ATOM     10  C   UNL d   1       8.704   5.409 -11.038  0.00  0.00     0.348 C 
ATOM     11  N   UNL d   1       9.273   6.176 -10.069  0.00  0.00    -0.244 N 
ATOM     12  O   UNL d   1       7.870   4.523 -10.840  0.00  0.00    -0.245 OA
ATOM     13  C   UNL d   1      10.129   7.337 -10.343  0.00  0.00     0.136 A 
ATOM     14  C   UNL d   1       9.063   6.047  -8.729  0.00  0.00     0.260 A 
ATOM     15  C   UNL d   1      10.404   7.857  -8.969  0.00  0.00    -0.021 A 
ATOM     16  C   UNL d   1       9.797   7.100  -8.050  0.00  0.00     0.028 A 
ATOM     17  C   UNL d   1      11.284   9.076  -8.784  0.00  0.00     0.028 C 
ATOM     18  O   UNL d   1       8.398   5.174  -8.171  0.00  0.00    -0.267 OA
BRANCH  16  19
ATOM     19  C   UNL d   1       9.793   7.276  -6.534  0.00  0.00     0.031 C 
ATOM     20  C   UNL d   1      11.178   7.077  -5.906  0.00  0.00     0.005 C 
ENDBRANCH  16  19
ENDBRANCH   8   9
ENDBRANCH   7   8
ENDBRANCH   1   7
BRANCH   4  21
ATOM     21  S   UNL d   1       7.928   0.359 -18.502  0.00  0.00     0.289 S 
ATOM     22  O   UNL d   1       8.106  -1.065 -18.179  0.00  0.00    -0.198 OA
ATOM     23  O   UNL d   1       6.608   0.874 -18.898  0.00  0.00    -0.198 OA
BRANCH  21  24
ATOM     24  N   UNL d   1       9.015   0.779 -19.769  0.00  0.00    -0.101 NA
ATOM     25  C   UNL d   1      10.370   0.449 -19.765  0.00  0.00     0.374 C 
ATOM     26  O   UNL d   1      10.844  -0.320 -18.931  0.00  0.00    -0.242 OA
ATOM     27  N   UNL d   1      11.097   1.086 -20.692  0.00  0.00    -0.219 NA
BRANCH  27  28
ATOM     28  C   UNL d   1      12.546   0.984 -20.863  0.00  0.00     0.108 C 
ATOM     29  C   UNL d   1      12.975  -0.456 -21.222  0.00  0.00     0.025 C 
ATOM     30  C   UNL d   1      14.495  -0.574 -21.361  0.00  0.00     0.002 C 
ATOM     31  C   UNL d   1      15.216  -0.055 -20.101  0.00  0.00     0.000 C 
ATOM     32  C   UNL d   1      14.815   1.397 -19.788  0.00  0.00     0.002 C 
ATOM     33  C   UNL d   1      16.730  -0.168 -20.265  0.00  0.00     0.000 C 
ATOM     34  C   UNL d   1      13.298   1.536 -19.631  0.00  0.00     0.025 C 
ENDBRANCH  27  28
ENDBRANCH  21  24
ENDBRANCH   4  21
TORSDOF 7
