REMARK  6 active torsions:
REMARK  status: ('A' for Active; 'I' for Inactive)
REMARK    1  A    between atoms: C_2  and  C_5 
REMARK       I    between atoms: C_5  and  N_7 
REMARK    2  A    between atoms: N_7  and  C_8 
REMARK    3  A    between atoms: C_8  and  C_9 
REMARK    4  A    between atoms: C_9  and  C_10 
REMARK    5  A    between atoms: C_10  and  N_11 
REMARK    6  A    between atoms: N_14  and  C_15 
ROOT
ATOM      1  N   UNL d   1       9.489   6.777  -9.552  0.00  0.00     0.141 N 
ATOM      2  C   UNL d   1       8.893   6.313  -8.291  0.00  0.00     0.274 C 
ATOM      3  C   UNL d   1       8.844   7.455  -7.258  0.00  0.00     0.137 C 
ATOM      4  N   UNL d   1      10.161   8.040  -7.079  0.00  0.00    -0.344 N 
ATOM      5  C   UNL d   1      10.865   8.419  -8.289  0.00  0.00     0.137 C 
ATOM      6  C   UNL d   1      10.853   7.244  -9.291  0.00  0.00     0.274 C 
ENDROOT
BRANCH   1   7
ATOM      7  C   UNL d   1       9.492   5.692 -10.529  0.00  0.00     0.253 C 
BRANCH   7   8
ATOM      8  C   UNL d   1       8.089   5.419 -11.127  0.00  0.00     0.062 C 
BRANCH   8   9
ATOM      9  C   UNL d   1       7.873   5.969 -12.544  0.00  0.00     0.131 C 
BRANCH   9  10
ATOM     10  N   UNL d   1       8.842   5.418 -13.487  0.00  0.00    -0.238 NA
ATOM     11  C   UNL d   1       8.755   4.221 -14.086  0.00  0.00     0.250 C 
ATOM     12  O   UNL d   1       7.764   3.501 -13.962  0.00  0.00    -0.271 OA
BRANCH  11  13
ATOM     13  C   UNL d   1       9.942   3.755 -14.966  0.00  0.00     0.073 C 
ATOM     14  C   UNL d   1      11.209   4.621 -14.768  0.00  0.00     0.009 C 
ATOM     15  C   UNL d   1       9.513   3.813 -16.443  0.00  0.00     0.009 C 
ATOM     16  C   UNL d   1      10.284   2.295 -14.599  0.00  0.00     0.009 C 
ENDBRANCH  11  13
ENDBRANCH   9  10
ENDBRANCH   8   9
ENDBRANCH   7   8
ENDBRANCH   1   7
BRANCH   4  17
ATOM     17  C   UNL d   1      10.770   8.117  -5.819  0.00  0.00     0.056 A 
ATOM     18  C   UNL d   1      11.069   6.941  -5.097  0.00  0.00     0.018 A 
ATOM     19  C   UNL d   1      11.675   7.020  -3.830  0.00  0.00     0.013 A 
ATOM     20  C   UNL d   1      11.956   8.273  -3.265  0.00  0.00     0.058 A 
ATOM     21  C   UNL d   1      11.633   9.449  -3.969  0.00  0.00     0.013 A 
ATOM     22 CL   UNL d   1      12.649   8.381  -1.703  0.00  0.00    -0.082 Cl
ATOM     23  C   UNL d   1      11.063   9.374  -5.255  0.00  0.00     0.018 A 
ENDBRANCH   4  17
TORSDOF 6
