REMARK  5 active torsions:
REMARK  status: ('A' for Active; 'I' for Inactive)
REMARK    1  A    between atoms: C_2  and  C_3 
REMARK       I    between atoms: C_2  and  N_12 
REMARK    2  A    between atoms: N_15  and  C_16 
REMARK    3  A    between atoms: C_16  and  C_17 
REMARK    4  A    between atoms: C_17  and  O_18 
REMARK    5  A    between atoms: O_18  and  C_19 
ROOT
ATOM      1  O   UNL d   1      11.349   8.906 -10.321  0.00  0.00    -0.266 OA
ATOM      2  C   UNL d   1      10.759   8.010  -9.731  0.00  0.00     0.275 C 
ATOM      3  N   UNL d   1       9.807   7.245 -10.351  0.00  0.00    -0.311 N 
ATOM      4  C   UNL d   1       9.299   7.550 -11.700  0.00  0.00     0.140 C 
ATOM      5  C   UNL d   1       9.309   6.273 -12.584  0.00  0.00     0.274 C 
ATOM      6  N   UNL d   1       8.620   5.153 -11.969  0.00  0.00     0.144 N 
ATOM      7  C   UNL d   1       9.180   4.901 -10.658  0.00  0.00     0.274 C 
ATOM      8  C   UNL d   1       9.027   6.123  -9.770  0.00  0.00     0.140 C 
ENDROOT
BRANCH   2   9
ATOM      9  C   UNL d   1      11.011   7.880  -8.285  0.00  0.00     0.137 A 
ATOM     10  N   UNL d   1      11.247   9.063  -7.573  0.00  0.00    -0.241 NA
ATOM     11  C   UNL d   1      11.451   8.802  -6.238  0.00  0.00     0.082 A 
ATOM     12  C   UNL d   1      11.333   7.391  -6.106  0.00  0.00     0.019 A 
ATOM     13  C   UNL d   1      11.742   9.617  -5.120  0.00  0.00     0.019 A 
ATOM     14  C   UNL d   1      11.143   6.827  -7.407  0.00  0.00     0.025 A 
ATOM     15  C   UNL d   1      11.475   6.823  -4.831  0.00  0.00     0.002 A 
ATOM     16  C   UNL d   1      11.787   7.615  -3.701  0.00  0.00     0.000 A 
ATOM     17  C   UNL d   1      11.909   9.012  -3.855  0.00  0.00     0.002 A 
ENDBRANCH   2   9
BRANCH   6  18
ATOM     18  C   UNL d   1       8.773   4.016 -12.862  0.00  0.00     0.283 C 
BRANCH  18  19
ATOM     19  C   UNL d   1       7.369   3.701 -13.404  0.00  0.00     0.184 C 
BRANCH  19  20
ATOM     20  O   UNL d   1       7.448   2.683 -14.391  0.00  0.00    -0.327 OA
BRANCH  20  21
ATOM     21  C   UNL d   1       6.607   1.594 -14.426  0.00  0.00     0.113 A 
ATOM     22  C   UNL d   1       5.659   1.296 -13.422  0.00  0.00     0.123 A 
ATOM     23  N   UNL d   1       4.849   0.231 -13.451  0.00  0.00    -0.240 NA
ATOM     24  C   UNL d   1       4.914  -0.613 -14.500  0.00  0.00     0.099 A 
ATOM     25  C   UNL d   1       5.813  -0.427 -15.577  0.00  0.00     0.023 A 
ATOM     26  C   UNL d   1       6.676   0.704 -15.523  0.00  0.00     0.027 A 
ENDBRANCH  20  21
ENDBRANCH  19  20
ENDBRANCH  18  19
ENDBRANCH   6  18
TORSDOF 5
