REMARK  13 active torsions:
REMARK  status: ('A' for Active; 'I' for Inactive)
REMARK    1  A    between atoms: C_2  and  C_3 
REMARK    2  A    between atoms: C_3  and  N_4 
REMARK    3  A    between atoms: N_4  and  C_5 
REMARK    4  A    between atoms: N_16  and  C_17 
REMARK    5  A    between atoms: C_17  and  C_18 
REMARK    6  A    between atoms: C_18  and  C_19 
REMARK    7  A    between atoms: C_19  and  C_20 
REMARK    8  A    between atoms: C_20  and  O_21 
REMARK    9  A    between atoms: O_21  and  C_22 
REMARK   10  A    between atoms: C_22  and  C_23 
REMARK   11  A    between atoms: C_23  and  C_24 
REMARK   12  A    between atoms: C_24  and  C_25 
REMARK   13  A    between atoms: C_25  and  C_26 
ROOT
ATOM      1  C   UNL d   1       8.601  -0.247 -19.024  0.00  0.00     0.283 C 
ATOM      2  C   UNL d   1       9.083   0.902 -19.926  0.00  0.00     0.066 C 
ATOM      3  C   UNL d   1       9.272   2.203 -19.156  0.00  0.00    -0.003 A 
ATOM      4  C   UNL d   1       9.208   3.532 -19.610  0.00  0.00    -0.003 A 
ATOM      5  C   UNL d   1       9.468   4.601 -18.713  0.00  0.00     0.001 A 
ATOM      6  C   UNL d   1       9.797   4.371 -17.340  0.00  0.00     0.019 A 
ATOM      7  C   UNL d   1       9.849   3.037 -16.879  0.00  0.00     0.080 A 
ATOM      8  C   UNL d   1       9.592   2.048 -17.798  0.00  0.00     0.076 A 
ATOM      9  N   UNL d   1       9.710   0.854 -17.102  0.00  0.00    -0.278 N 
ATOM     10  C   UNL d   1      10.031   1.095 -15.807  0.00  0.00     0.332 A 
ATOM     11  O   UNL d   1      10.223   0.245 -14.943  0.00  0.00    -0.246 OA
ATOM     12  N   UNL d   1      10.111   2.424 -15.644  0.00  0.00    -0.280 N 
ATOM     13  C   UNL d   1       9.495  -0.432 -17.765  0.00  0.00     0.147 C 
ENDROOT
BRANCH  12  14
ATOM     14  C   UNL d   1      10.461   3.127 -14.392  0.00  0.00     0.111 C 
BRANCH  14  15
ATOM     15  C   UNL d   1       9.219   3.486 -13.539  0.00  0.00     0.027 C 
BRANCH  15  16
ATOM     16  C   UNL d   1       9.550   4.117 -12.172  0.00  0.00     0.034 C 
BRANCH  16  17
ATOM     17  C   UNL d   1       8.326   4.704 -11.454  0.00  0.00     0.142 C 
BRANCH  17  18
ATOM     18  O   UNL d   1       8.658   5.104 -10.135  0.00  0.00    -0.354 OA
BRANCH  18  19
ATOM     19  C   UNL d   1       9.328   6.354 -10.074  0.00  0.00     0.142 C 
BRANCH  19  20
ATOM     20  C   UNL d   1       9.462   6.792  -8.618  0.00  0.00     0.033 C 
BRANCH  20  21
ATOM     21  C   UNL d   1      10.119   8.179  -8.477  0.00  0.00     0.007 C 
BRANCH  21  22
ATOM     22  C   UNL d   1       9.768   8.902  -7.164  0.00  0.00     0.026 C 
BRANCH  22  23
ATOM     23  C   UNL d   1      10.650   8.504  -5.996  0.00  0.00    -0.022 A 
ATOM     24  C   UNL d   1      10.659   7.173  -5.535  0.00  0.00    -0.004 A 
ATOM     25  C   UNL d   1      11.461   6.796  -4.450  0.00  0.00    -0.000 A 
ATOM     26  C   UNL d   1      12.259   7.758  -3.799  0.00  0.00    -0.000 A 
ATOM     27  C   UNL d   1      12.255   9.091  -4.249  0.00  0.00    -0.000 A 
ATOM     28  C   UNL d   1      11.453   9.468  -5.346  0.00  0.00    -0.004 A 
ENDBRANCH  22  23
ENDBRANCH  21  22
ENDBRANCH  20  21
ENDBRANCH  19  20
ENDBRANCH  18  19
ENDBRANCH  17  18
ENDBRANCH  16  17
ENDBRANCH  15  16
ENDBRANCH  14  15
ENDBRANCH  12  14
BRANCH   1  29
ATOM     29  N   UNL d   1       8.501  -1.484 -19.799  0.00  0.00     0.339 N 
BRANCH  29  30
ATOM     30  C   UNL d   1       7.768  -2.554 -19.120  0.00  0.00     0.290 C 
BRANCH  30  31
ATOM     31  C   UNL d   1       6.274  -2.207 -18.959  0.00  0.00     0.038 C 
ATOM     32  C   UNL d   1       5.487  -3.282 -18.215  0.00  0.00     0.002 C 
ENDBRANCH  30  31
ENDBRANCH  29  30
ENDBRANCH   1  29
TORSDOF 13
