REMARK  7 active torsions:
REMARK  status: ('A' for Active; 'I' for Inactive)
REMARK    1  A    between atoms: O_2  and  C_3 
REMARK    2  A    between atoms: N_11  and  C_12 
REMARK    3  A    between atoms: C_12  and  C_13 
REMARK    4  A    between atoms: C_13  and  C_14 
REMARK    5  A    between atoms: C_14  and  C_15 
REMARK    6  A    between atoms: C_15  and  N_16 
REMARK    7  A    between atoms: N_19  and  C_20 
ROOT
ATOM      1  C   UNL d   1       8.698   2.332 -14.092  0.00  0.00     0.037 C 
ENDROOT
BRANCH   1   2
ATOM      2  C   UNL d   1       8.894   1.583 -15.411  0.00  0.00     0.027 C 
BRANCH   2   3
ATOM      3  C   UNL d   1       7.872   2.009 -16.477  0.00  0.00     0.109 C 
BRANCH   3   4
ATOM      4  N   UNL d   1       7.710   0.979 -17.509  0.00  0.00    -0.293 N 
ATOM      5  C   UNL d   1       8.474   1.055 -18.632  0.00  0.00     0.280 A 
ATOM      6  C   UNL d   1       8.216  -0.027 -19.652  0.00  0.00     0.160 A 
ATOM      7  O   UNL d   1       9.317   1.925 -18.853  0.00  0.00    -0.265 OA
ATOM      8  N   UNL d   1       7.378  -0.977 -19.518  0.00  0.00    -0.238 NA
ATOM      9  C   UNL d   1       6.624  -1.054 -18.340  0.00  0.00     0.098 A 
ATOM     10  C   UNL d   1       5.725  -2.125 -18.170  0.00  0.00     0.023 A 
ATOM     11  C   UNL d   1       6.770  -0.088 -17.311  0.00  0.00     0.082 A 
ATOM     12  C   UNL d   1       4.973  -2.240 -16.988  0.00  0.00     0.026 A 
ATOM     13  C   UNL d   1       5.087  -1.278 -15.970  0.00  0.00     0.096 A 
ATOM     14  C   UNL d   1       6.010  -0.220 -16.122  0.00  0.00     0.043 A 
BRANCH  13  15
ATOM     15  O   UNL d   1       4.327  -1.434 -14.838  0.00  0.00    -0.328 OA
ATOM     16  C   UNL d   1       3.647  -0.274 -14.380  0.00  0.00     0.181 C 
ENDBRANCH  13  15
ENDBRANCH   3   4
ENDBRANCH   2   3
ENDBRANCH   1   2
BRANCH   1  17
ATOM     17  C   UNL d   1       8.940   3.845 -14.197  0.00  0.00     0.251 C 
BRANCH  17  18
ATOM     18  N   UNL d   1       8.568   4.541 -12.973  0.00  0.00     0.141 N 
ATOM     19  C   UNL d   1       9.500   4.201 -11.895  0.00  0.00     0.274 C 
ATOM     20  C   UNL d   1       9.125   4.933 -10.601  0.00  0.00     0.137 C 
ATOM     21  N   UNL d   1       9.119   6.359 -10.853  0.00  0.00    -0.344 N 
ATOM     22  C   UNL d   1       8.279   6.785 -11.962  0.00  0.00     0.137 C 
ATOM     23  C   UNL d   1       8.663   5.984 -13.217  0.00  0.00     0.274 C 
BRANCH  21  24
ATOM     24  C   UNL d   1       9.784   7.273 -10.021  0.00  0.00     0.057 A 
ATOM     25  C   UNL d   1       9.720   7.187  -8.606  0.00  0.00     0.022 A 
ATOM     26  C   UNL d   1      10.469   8.146  -7.850  0.00  0.00     0.031 A 
ATOM     27  C   UNL d   1       9.004   6.291  -7.745  0.00  0.00     0.009 A 
ATOM     28  C   UNL d   1      11.231   9.136  -8.459  0.00  0.00     0.007 A 
ATOM     29  S   UNL d   1      10.288   7.912  -6.134  0.00  0.00    -0.086 SA
ATOM     30  C   UNL d   1      11.268   9.209  -9.853  0.00  0.00     0.002 A 
ATOM     31  C   UNL d   1      10.512   8.314 -10.618  0.00  0.00     0.017 A 
ATOM     32  C   UNL d   1       9.211   6.599  -6.439  0.00  0.00     0.035 A 
ENDBRANCH  21  24
ENDBRANCH  17  18
ENDBRANCH   1  17
TORSDOF 7
