REMARK  1 active torsions:
REMARK  status: ('A' for Active; 'I' for Inactive)
REMARK    1  A    between atoms: C_5  and  C_6 
ROOT
ATOM      1  C   UNL d   1      10.903   9.464  -9.660  0.00  0.00     0.041 C 
ATOM      2  C   UNL d   1      10.334   8.213  -9.097  0.00  0.00     0.286 C 
ATOM      3  C   UNL d   1      11.511   7.472  -8.510  0.00  0.00     0.179 C 
ATOM      4  O   UNL d   1      11.032   6.325  -7.826  0.00  0.00    -0.348 OA
ATOM      5  C   UNL d   1      10.115   6.644  -6.789  0.00  0.00     0.175 C 
ATOM      6  C   UNL d   1       8.892   7.374  -7.380  0.00  0.00     0.324 C 
ATOM      7  N   UNL d   1       9.300   8.555  -8.114  0.00  0.00     0.343 N 
ENDROOT
BRANCH   5   8
ATOM      8  C   UNL d   1      10.799   7.381  -5.634  0.00  0.00     0.026 A 
ATOM      9  C   UNL d   1      11.235   6.671  -4.486  0.00  0.00     0.098 A 
ATOM     10  N   UNL d   1      11.877   7.232  -3.432  0.00  0.00    -0.230 NA
ATOM     11  C   UNL d   1      12.075   8.557  -3.492  0.00  0.00     0.151 A 
ATOM     12  C   UNL d   1      11.707   9.335  -4.589  0.00  0.00     0.033 A 
ATOM     13  N   UNL d   1      12.645   9.175  -2.382  0.00  0.00    -0.080 NA
ATOM     14  C   UNL d   1      11.074   8.749  -5.680  0.00  0.00     0.002 A 
ENDBRANCH   5   8
TORSDOF 1
