REMARK  6 active torsions:
REMARK  status: ('A' for Active; 'I' for Inactive)
REMARK    1  A    between atoms: C_2  and  O_3 
REMARK    2  A    between atoms: O_3  and  C_4 
REMARK    3  A    between atoms: C_4  and  C_6 
REMARK    4  A    between atoms: C_6  and  N_7 
REMARK    5  A    between atoms: N_10  and  C_11 
REMARK    6  A    between atoms: C_11  and  C_12 
ROOT
ATOM      1  C   UNL d   1       9.339   1.855 -16.746  0.00  0.00     0.343 C 
ATOM      2  C   UNL d   1       9.928   2.615 -18.002  0.00  0.00     0.079 C 
ATOM      3  C   UNL d   1      10.856   1.757 -18.816  0.00  0.00    -0.002 A 
ATOM      4  C   UNL d   1      10.966   1.915 -20.220  0.00  0.00    -0.003 A 
ATOM      5  C   UNL d   1      11.861   1.091 -20.942  0.00  0.00    -0.000 A 
ATOM      6  C   UNL d   1      12.639   0.117 -20.271  0.00  0.00     0.002 A 
ATOM      7  C   UNL d   1      12.517  -0.039 -18.875  0.00  0.00     0.019 A 
ATOM      8  C   UNL d   1      11.629   0.775 -18.167  0.00  0.00     0.081 A 
ATOM      9  N   UNL d   1      11.514   0.596 -16.786  0.00  0.00    -0.210 NA
ATOM     10  C   UNL d   1      10.484   1.048 -16.031  0.00  0.00     0.295 C 
ATOM     11  O   UNL d   1      10.450   0.807 -14.849  0.00  0.00    -0.268 OA
ENDROOT
BRANCH   1  12
ATOM     12  C   UNL d   1       8.329   0.833 -17.363  0.00  0.00     0.310 C 
ATOM     13  O   UNL d   1       8.585  -0.372 -17.510  0.00  0.00    -0.262 OA
BRANCH  12  14
ATOM     14  O   UNL d   1       7.187   1.424 -17.760  0.00  0.00    -0.300 OA
BRANCH  14  15
ATOM     15  C   UNL d   1       6.119   0.644 -18.277  0.00  0.00     0.152 C 
ATOM     16  C   UNL d   1       5.446  -0.174 -17.160  0.00  0.00     0.035 C 
ENDBRANCH  14  15
ENDBRANCH  12  14
ENDBRANCH   1  12
BRANCH   1  17
ATOM     17  N   UNL d   1       8.661   2.790 -15.781  0.00  0.00     0.156 N 
ATOM     18  C   UNL d   1       9.604   3.713 -15.097  0.00  0.00     0.287 C 
ATOM     19  C   UNL d   1       8.883   4.713 -14.178  0.00  0.00     0.286 C 
ATOM     20  N   UNL d   1       8.080   4.016 -13.183  0.00  0.00     0.146 N 
ATOM     21  C   UNL d   1       7.110   3.176 -13.861  0.00  0.00     0.286 C 
ATOM     22  C   UNL d   1       7.811   2.148 -14.762  0.00  0.00     0.287 C 
BRANCH  20  23
ATOM     23  C   UNL d   1       7.417   4.939 -12.257  0.00  0.00     0.277 C 
BRANCH  23  24
ATOM     24  C   UNL d   1       8.375   5.675 -11.343  0.00  0.00     0.011 A 
ATOM     25  C   UNL d   1       8.657   5.172 -10.058  0.00  0.00    -0.002 A 
ATOM     26  C   UNL d   1       9.526   5.866  -9.195  0.00  0.00     0.011 A 
ATOM     27  C   UNL d   1      10.112   7.077  -9.613  0.00  0.00     0.058 A 
ATOM     28  C   UNL d   1       9.820   7.586 -10.894  0.00  0.00     0.011 A 
ATOM     29 CL   UNL d   1      11.197   7.929  -8.577  0.00  0.00    -0.082 Cl
ATOM     30  C   UNL d   1       8.970   6.885 -11.762  0.00  0.00    -0.002 A 
ENDBRANCH  23  24
ENDBRANCH  20  23
ENDBRANCH   1  17
TORSDOF 6
