REMARK  6 active torsions:
REMARK  status: ('A' for Active; 'I' for Inactive)
REMARK       I    between atoms: C_2  and  N_3 
REMARK    1  A    between atoms: C_2  and  C_22 
REMARK    2  A    between atoms: N_3  and  C_4 
REMARK    3  A    between atoms: C_4  and  C_5 
REMARK    4  A    between atoms: C_5  and  C_6 
REMARK    5  A    between atoms: C_6  and  C_7 
REMARK    6  A    between atoms: C_7  and  N_8 
ROOT
ATOM      1  N   UNL d   1       8.650   5.312 -11.907  0.00  0.00     0.143 N 
ATOM      2  C   UNL d   1       7.369   5.036 -11.262  0.00  0.00     0.282 C 
ATOM      3  C   UNL d   1       6.263   4.649 -12.254  0.00  0.00     0.178 C 
ATOM      4  O   UNL d   1       6.678   3.555 -13.058  0.00  0.00    -0.348 OA
ATOM      5  C   UNL d   1       7.906   3.807 -13.733  0.00  0.00     0.173 C 
ATOM      6  C   UNL d   1       8.303   2.658 -14.640  0.00  0.00     0.029 A 
ATOM      7  C   UNL d   1       7.309   1.947 -15.341  0.00  0.00     0.000 A 
ATOM      8  C   UNL d   1       7.665   0.885 -16.197  0.00  0.00    -0.000 A 
ATOM      9  C   UNL d   1       9.018   0.534 -16.344  0.00  0.00     0.002 A 
ATOM     10  C   UNL d   1      10.015   1.243 -15.645  0.00  0.00     0.024 A 
ATOM     11  C   UNL d   1       9.669   2.318 -14.801  0.00  0.00     0.092 A 
ATOM     12  O   UNL d   1      10.676   2.983 -14.140  0.00  0.00    -0.329 OA
ATOM     13  C   UNL d   1      10.345   4.221 -13.508  0.00  0.00     0.185 C 
ATOM     14  C   UNL d   1       9.020   4.135 -12.718  0.00  0.00     0.280 C 
ENDROOT
BRANCH   1  15
ATOM     15  C   UNL d   1       9.659   5.665 -10.903  0.00  0.00     0.251 C 
BRANCH  15  16
ATOM     16  C   UNL d   1       9.284   6.803  -9.935  0.00  0.00     0.037 C 
BRANCH  16  17
ATOM     17  C   UNL d   1      10.281   6.983  -8.786  0.00  0.00     0.029 C 
BRANCH  17  18
ATOM     18  C   UNL d   1       9.844   8.095  -7.822  0.00  0.00     0.129 C 
BRANCH  18  19
ATOM     19  N   UNL d   1      10.495   7.931  -6.527  0.00  0.00    -0.234 NA
ATOM     20  C   UNL d   1      11.085   8.892  -5.795  0.00  0.00     0.281 C 
ATOM     21  O   UNL d   1      11.188  10.059  -6.167  0.00  0.00    -0.265 OA
BRANCH  20  22
ATOM     22  C   UNL d   1      11.556   8.492  -4.450  0.00  0.00     0.087 A 
ATOM     23  S   UNL d   1      11.791   6.792  -4.109  0.00  0.00    -0.082 SA
ATOM     24  C   UNL d   1      12.261   7.140  -2.468  0.00  0.00     0.036 A 
ATOM     25  C   UNL d   1      12.267   8.492  -2.225  0.00  0.00     0.008 A 
ATOM     26  C   UNL d   1      11.861   9.258  -3.354  0.00  0.00     0.012 A 
ENDBRANCH  20  22
ENDBRANCH  18  19
ENDBRANCH  17  18
ENDBRANCH  16  17
ENDBRANCH  15  16
ENDBRANCH   1  15
TORSDOF 6
