REMARK  7 active torsions:
REMARK  status: ('A' for Active; 'I' for Inactive)
REMARK    1  A    between atoms: C_3  and  C_4 
REMARK    2  A    between atoms: N_14  and  C_15 
REMARK    3  A    between atoms: C_15  and  C_16 
REMARK    4  A    between atoms: C_16  and  C_17 
REMARK    5  A    between atoms: C_17  and  C_18 
REMARK    6  A    between atoms: C_18  and  N_19 
REMARK    7  A    between atoms: C_23  and  C_24 
ROOT
ATOM      1  C   UNL d   1       9.782   3.902 -14.550  0.00  0.00     0.114 C 
ENDROOT
BRANCH   1   2
ATOM      2  N   UNL d   1       9.558   3.662 -15.960  0.00  0.00    -0.249 N 
ATOM      3  C   UNL d   1      10.029   4.629 -16.871  0.00  0.00     0.265 A 
ATOM      4  O   UNL d   1      10.667   5.608 -16.477  0.00  0.00    -0.267 OA
ATOM      5  C   UNL d   1       9.721   4.381 -18.279  0.00  0.00     0.068 A 
ATOM      6  C   UNL d   1       8.989   3.284 -18.631  0.00  0.00     0.046 A 
ATOM      7  C   UNL d   1       8.673   2.982 -20.104  0.00  0.00     0.044 C 
ATOM      8  N   UNL d   1       8.501   2.369 -17.683  0.00  0.00    -0.285 N 
ATOM      9  C   UNL d   1       8.296   1.533 -20.393  0.00  0.00     0.008 C 
ATOM     10  C   UNL d   1       7.203   1.100 -19.430  0.00  0.00     0.025 C 
ATOM     11  C   UNL d   1       7.719   1.186 -17.993  0.00  0.00     0.110 C 
ATOM     12  C   UNL d   1       8.804   2.529 -16.316  0.00  0.00     0.333 A 
ATOM     13  O   UNL d   1       8.387   1.740 -15.457  0.00  0.00    -0.246 OA
BRANCH   5  14
ATOM     14  C   UNL d   1      10.154   5.379 -19.284  0.00  0.00     0.006 A 
ATOM     15  C   UNL d   1       9.208   6.114 -20.033  0.00  0.00     0.000 A 
ATOM     16  C   UNL d   1       9.641   7.043 -20.998  0.00  0.00     0.000 A 
ATOM     17  C   UNL d   1      11.018   7.253 -21.207  0.00  0.00     0.000 A 
ATOM     18  C   UNL d   1      11.963   6.533 -20.452  0.00  0.00     0.000 A 
ATOM     19  C   UNL d   1      11.534   5.596 -19.493  0.00  0.00     0.000 A 
ENDBRANCH   5  14
ENDBRANCH   1   2
BRANCH   1  20
ATOM     20  C   UNL d   1       8.623   4.664 -13.880  0.00  0.00     0.027 C 
BRANCH  20  21
ATOM     21  C   UNL d   1       8.853   4.753 -12.379  0.00  0.00     0.037 C 
BRANCH  21  22
ATOM     22  C   UNL d   1       8.981   6.198 -11.852  0.00  0.00     0.250 C 
BRANCH  22  23
ATOM     23  N   UNL d   1       9.036   6.259 -10.409  0.00  0.00     0.137 N 
ATOM     24  C   UNL d   1      10.265   5.702  -9.866  0.00  0.00     0.255 C 
ATOM     25  C   UNL d   1      10.437   5.954  -8.370  0.00  0.00     0.057 C 
ATOM     26  C   UNL d   1       9.226   5.405  -7.670  0.00  0.00     0.009 C 
ATOM     27  C   UNL d   1       7.985   5.988  -8.215  0.00  0.00     0.036 C 
ATOM     28  C   UNL d   1       7.875   5.718  -9.724  0.00  0.00     0.250 C 
BRANCH  25  29
ATOM     29  C   UNL d   1      10.708   7.374  -8.034  0.00  0.00     0.000 A 
ATOM     30  C   UNL d   1      11.019   7.902  -6.730  0.00  0.00     0.015 A 
ATOM     31  C   UNL d   1      11.180   9.309  -6.870  0.00  0.00     0.081 A 
ATOM     32  C   UNL d   1      11.178   7.348  -5.438  0.00  0.00     0.001 A 
ATOM     33  N   UNL d   1      11.031   9.578  -8.209  0.00  0.00    -0.244 NA
ATOM     34  C   UNL d   1      11.435  10.139  -5.770  0.00  0.00     0.019 A 
ATOM     35  C   UNL d   1      10.702   8.441  -8.895  0.00  0.00     0.095 A 
ATOM     36  C   UNL d   1      11.579   9.566  -4.491  0.00  0.00     0.002 A 
ATOM     37  C   UNL d   1      11.474   8.172  -4.330  0.00  0.00     0.000 A 
ENDBRANCH  25  29
ENDBRANCH  22  23
ENDBRANCH  21  22
ENDBRANCH  20  21
ENDBRANCH   1  20
TORSDOF 7
