REMARK  7 active torsions:
REMARK  status: ('A' for Active; 'I' for Inactive)
REMARK    1  A    between atoms: C_8  and  O_9 
REMARK    2  A    between atoms: O_9  and  C_10 
REMARK    3  A    between atoms: C_10  and  C_11 
REMARK    4  A    between atoms: C_11  and  C_12 
REMARK    5  A    between atoms: C_12  and  C_13 
REMARK    6  A    between atoms: C_13  and  N_14 
REMARK    7  A    between atoms: N_17  and  C_18 
ROOT
ATOM      1  N   UNL d   1       9.537   5.091 -12.694  0.00  0.00     0.141 N 
ATOM      2  C   UNL d   1      10.759   4.535 -13.308  0.00  0.00     0.274 C 
ATOM      3  C   UNL d   1      10.586   4.347 -14.824  0.00  0.00     0.137 C 
ATOM      4  N   UNL d   1       9.414   3.544 -15.058  0.00  0.00    -0.344 N 
ATOM      5  C   UNL d   1       8.200   3.950 -14.398  0.00  0.00     0.137 C 
ATOM      6  C   UNL d   1       8.442   4.139 -12.908  0.00  0.00     0.274 C 
ENDROOT
BRANCH   1   7
ATOM      7  C   UNL d   1       9.764   5.262 -11.268  0.00  0.00     0.251 C 
BRANCH   7   8
ATOM      8  C   UNL d   1       8.544   5.778 -10.488  0.00  0.00     0.038 C 
BRANCH   8   9
ATOM      9  C   UNL d   1       8.757   5.716  -8.978  0.00  0.00     0.035 C 
BRANCH   9  10
ATOM     10  C   UNL d   1       9.772   6.734  -8.475  0.00  0.00     0.149 C 
BRANCH  10  11
ATOM     11  O   UNL d   1      10.149   6.351  -7.162  0.00  0.00    -0.331 OA
BRANCH  11  12
ATOM     12  C   UNL d   1      10.746   7.269  -6.338  0.00  0.00     0.094 A 
ATOM     13  C   UNL d   1      10.915   8.646  -6.682  0.00  0.00     0.024 A 
ATOM     14  C   UNL d   1      11.465   9.553  -5.757  0.00  0.00    -0.000 A 
ATOM     15  C   UNL d   1      11.856   9.045  -4.508  0.00  0.00     0.007 A 
ATOM     16  C   UNL d   1      12.477   9.740  -3.340  0.00  0.00     0.155 A 
ATOM     17  C   UNL d   1      11.735   7.707  -4.184  0.00  0.00     0.057 A 
ATOM     18  N   UNL d   1      12.641   8.672  -2.360  0.00  0.00    -0.229 NA
ATOM     19  C   UNL d   1      12.246   7.477  -2.813  0.00  0.00     0.275 A 
ATOM     20  O   UNL d   1      12.283   6.399  -2.223  0.00  0.00    -0.266 OA
ATOM     21  C   UNL d   1      11.176   6.795  -5.078  0.00  0.00     0.029 A 
ENDBRANCH  11  12
ENDBRANCH  10  11
ENDBRANCH   9  10
ENDBRANCH   8   9
ENDBRANCH   7   8
ENDBRANCH   1   7
BRANCH   4  22
ATOM     22  C   UNL d   1       9.445   2.412 -15.914  0.00  0.00     0.052 A 
ATOM     23  C   UNL d   1       9.466   2.582 -17.299  0.00  0.00    -0.006 A 
ATOM     24  C   UNL d   1       9.479   1.429 -18.142  0.00  0.00     0.005 A 
ATOM     25  C   UNL d   1       9.427   3.957 -17.953  0.00  0.00     0.060 C 
ATOM     26  C   UNL d   1       9.490   0.150 -17.566  0.00  0.00    -0.002 A 
ATOM     27  C   UNL d   1       9.524   1.605 -19.646  0.00  0.00     0.169 C 
ATOM     28  C   UNL d   1       9.466  -0.008 -16.166  0.00  0.00     0.001 A 
ATOM     29  C   UNL d   1       9.430   1.132 -15.332  0.00  0.00     0.017 A 
ATOM     30  O   UNL d   1       9.139   2.905 -20.081  0.00  0.00    -0.349 OA
ATOM     31  C   UNL d   1       9.856   3.933 -19.416  0.00  0.00     0.147 C 
ENDBRANCH   4  22
TORSDOF 7
