REMARK  8 active torsions:
REMARK  status: ('A' for Active; 'I' for Inactive)
REMARK    1  A    between atoms: S_2  and  N_4 
REMARK    2  A    between atoms: S_2  and  C_25 
REMARK    3  A    between atoms: N_4  and  C_5 
REMARK    4  A    between atoms: C_5  and  C_6 
REMARK    5  A    between atoms: C_6  and  C_7 
REMARK    6  A    between atoms: C_7  and  C_8 
REMARK    7  A    between atoms: C_8  and  N_9 
REMARK    8  A    between atoms: C_12  and  C_13 
ROOT
ATOM      1  C   UNL d   1       9.661   6.376 -11.438  0.00  0.00     0.037 C 
ENDROOT
BRANCH   1   2
ATOM      2  C   UNL d   1       9.880   7.794 -10.841  0.00  0.00     0.029 C 
BRANCH   2   3
ATOM      3  C   UNL d   1      11.042   7.925  -9.865  0.00  0.00     0.139 C 
BRANCH   3   4
ATOM      4  N   UNL d   1      10.774   7.045  -8.720  0.00  0.00    -0.185 NA
BRANCH   4   5
ATOM      5  S   UNL d   1       9.845   7.485  -7.354  0.00  0.00     0.281 S 
ATOM      6  O   UNL d   1       8.955   8.607  -7.777  0.00  0.00    -0.199 OA
ATOM      7  O   UNL d   1       9.306   6.247  -6.895  0.00  0.00    -0.199 OA
BRANCH   5   8
ATOM      8  C   UNL d   1      11.050   8.244  -6.290  0.00  0.00     0.105 C 
ATOM      9  C   UNL d   1      11.486   7.799  -4.976  0.00  0.00     0.012 A 
ATOM     10  C   UNL d   1      12.417   8.593  -4.232  0.00  0.00     0.001 A 
ATOM     11  C   UNL d   1      11.036   6.672  -4.337  0.00  0.00     0.001 A 
ATOM     12  C   UNL d   1      13.021   9.662  -4.854  0.00  0.00     0.000 C 
ATOM     13  C   UNL d   1      12.779   8.366  -2.912  0.00  0.00     0.000 A 
ATOM     14  C   UNL d   1      12.528  10.120  -6.066  0.00  0.00     0.001 C 
ATOM     15  C   UNL d   1      11.557   9.464  -6.798  0.00  0.00     0.013 C 
ATOM     16  C   UNL d   1      12.313   7.227  -2.264  0.00  0.00     0.000 A 
ATOM     17  C   UNL d   1      11.454   6.387  -2.995  0.00  0.00     0.000 A 
ENDBRANCH   5   8
ENDBRANCH   4   5
ENDBRANCH   3   4
ENDBRANCH   2   3
ENDBRANCH   1   2
BRANCH   1  18
ATOM     18  C   UNL d   1       8.374   6.340 -12.271  0.00  0.00     0.251 C 
BRANCH  18  19
ATOM     19  N   UNL d   1       8.286   4.997 -12.824  0.00  0.00     0.142 N 
ATOM     20  C   UNL d   1       8.865   4.955 -14.161  0.00  0.00     0.255 C 
ATOM     21  C   UNL d   1       8.920   3.521 -14.682  0.00  0.00     0.061 C 
ATOM     22  C   UNL d   1       7.581   2.797 -14.507  0.00  0.00    -0.021 C 
ATOM     23  C   UNL d   1       6.671   3.296 -13.639  0.00  0.00     0.005 C 
ATOM     24  C   UNL d   1       6.894   4.557 -12.830  0.00  0.00     0.276 C 
BRANCH  22  25
ATOM     25  C   UNL d   1       7.302   1.567 -15.271  0.00  0.00     0.017 A 
ATOM     26  C   UNL d   1       7.809   1.205 -16.582  0.00  0.00     0.020 A 
ATOM     27  C   UNL d   1       7.250  -0.081 -16.887  0.00  0.00     0.082 A 
ATOM     28  C   UNL d   1       8.672   1.762 -17.573  0.00  0.00     0.013 A 
ATOM     29  N   UNL d   1       6.425  -0.414 -15.819  0.00  0.00    -0.244 NA
ATOM     30  C   UNL d   1       7.574  -0.797 -18.061  0.00  0.00     0.020 A 
ATOM     31  C   UNL d   1       6.465   0.572 -14.839  0.00  0.00     0.099 A 
ATOM     32  C   UNL d   1       8.454  -0.227 -19.006  0.00  0.00     0.013 A 
ATOM     33  C   UNL d   1       8.991   1.056 -18.757  0.00  0.00     0.058 A 
ATOM     34 CL   UNL d   1      10.054   1.787 -19.900  0.00  0.00    -0.082 Cl
ENDBRANCH  22  25
ENDBRANCH  18  19
ENDBRANCH   1  18
TORSDOF 8
