REMARK  11 active torsions:
REMARK  status: ('A' for Active; 'I' for Inactive)
REMARK    1  A    between atoms: C_2  and  C_4 
REMARK    2  A    between atoms: C_8  and  C_9 
REMARK    3  A    between atoms: C_10  and  C_11 
REMARK       I    between atoms: C_11  and  N_13 
REMARK    4  A    between atoms: N_13  and  C_14 
REMARK    5  A    between atoms: C_14  and  C_15 
REMARK    6  A    between atoms: C_15  and  C_16 
REMARK    7  A    between atoms: C_16  and  C_17 
REMARK    8  A    between atoms: C_17  and  N_18 
REMARK    9  A    between atoms: C_24  and  O_25 
REMARK   10  A    between atoms: O_25  and  S_26 
REMARK   11  A    between atoms: S_26  and  C_29 
ROOT
ATOM      1  N   UNL d   1       9.682   2.903 -14.843  0.00  0.00     0.142 N 
ATOM      2  C   UNL d   1      10.862   2.038 -14.786  0.00  0.00     0.255 C 
ATOM      3  C   UNL d   1      11.068   1.348 -16.150  0.00  0.00     0.061 C 
ATOM      4  C   UNL d   1       9.803   0.700 -16.680  0.00  0.00    -0.022 A 
ATOM      5  C   UNL d   1       9.859  -0.231 -17.737  0.00  0.00    -0.002 A 
ATOM      6  C   UNL d   1       8.670  -0.793 -18.243  0.00  0.00     0.025 A 
ATOM      7  C   UNL d   1       7.425  -0.421 -17.694  0.00  0.00     0.113 A 
ATOM      8  C   UNL d   1       7.371   0.502 -16.633  0.00  0.00     0.023 A 
ATOM      9  C   UNL d   1       8.557   1.071 -16.130  0.00  0.00     0.009 A 
ATOM     10  C   UNL d   1       8.498   2.046 -14.964  0.00  0.00     0.277 C 
ENDROOT
BRANCH   1  11
ATOM     11  C   UNL d   1       9.595   3.705 -13.621  0.00  0.00     0.251 C 
BRANCH  11  12
ATOM     12  C   UNL d   1       8.602   4.879 -13.764  0.00  0.00     0.037 C 
BRANCH  12  13
ATOM     13  C   UNL d   1       8.618   5.817 -12.548  0.00  0.00     0.029 C 
BRANCH  13  14
ATOM     14  C   UNL d   1       7.997   5.183 -11.293  0.00  0.00     0.129 C 
BRANCH  14  15
ATOM     15  N   UNL d   1       8.300   5.988 -10.118  0.00  0.00    -0.234 NA
ATOM     16  C   UNL d   1       9.066   5.612  -9.084  0.00  0.00     0.275 C 
ATOM     17  O   UNL d   1       9.461   4.458  -8.933  0.00  0.00    -0.266 OA
BRANCH  16  18
ATOM     18  C   UNL d   1       9.384   6.739  -8.217  0.00  0.00     0.062 C 
ATOM     19  C   UNL d   1      10.267   6.590  -7.209  0.00  0.00     0.005 C 
BRANCH  19  20
ATOM     20  C   UNL d   1      10.725   7.640  -6.283  0.00  0.00     0.000 A 
ATOM     21  C   UNL d   1      10.633   9.015  -6.591  0.00  0.00     0.000 A 
ATOM     22  C   UNL d   1      11.059   9.981  -5.660  0.00  0.00     0.000 A 
ATOM     23  C   UNL d   1      11.564   9.585  -4.407  0.00  0.00     0.003 A 
ATOM     24  C   UNL d   1      11.677   8.215  -4.084  0.00  0.00     0.035 A 
ATOM     25  C   UNL d   1      11.243   7.252  -5.029  0.00  0.00     0.003 A 
BRANCH  24  26
ATOM     26  C   UNL d   1      12.210   7.825  -2.750  0.00  0.00     0.173 C 
ATOM     27  C   UNL d   1      12.170   6.351  -2.377  0.00  0.00     0.077 C 
ATOM     28  O   UNL d   1      12.651   8.626  -1.925  0.00  0.00    -0.291 OA
ENDBRANCH  24  26
ENDBRANCH  19  20
ENDBRANCH  16  18
ENDBRANCH  14  15
ENDBRANCH  13  14
ENDBRANCH  12  13
ENDBRANCH  11  12
ENDBRANCH   1  11
BRANCH   7  29
ATOM     29  O   UNL d   1       6.264  -0.966 -18.163  0.00  0.00    -0.224 OA
BRANCH  29  30
ATOM     30  S   UNL d   1       5.617  -0.269 -19.551  0.00  0.00     0.374 S 
ATOM     31  O   UNL d   1       5.809   1.187 -19.450  0.00  0.00    -0.189 OA
ATOM     32  O   UNL d   1       6.148  -1.016 -20.701  0.00  0.00    -0.189 OA
BRANCH  30  33
ATOM     33  C   UNL d   1       3.838  -0.676 -19.286  0.00  0.00     0.524 C 
ATOM     34  F   UNL d   1       3.103   0.377 -19.630  0.00  0.00    -0.155 F 
ATOM     35  F   UNL d   1       3.516  -1.731 -20.034  0.00  0.00    -0.155 F 
ATOM     36  F   UNL d   1       3.629  -0.951 -17.997  0.00  0.00    -0.155 F 
ENDBRANCH  30  33
ENDBRANCH  29  30
ENDBRANCH   7  29
TORSDOF 11
