REMARK  7 active torsions:
REMARK  status: ('A' for Active; 'I' for Inactive)
REMARK    1  A    between atoms: C_6  and  C_7 
REMARK    2  A    between atoms: C_10  and  S_11 
REMARK    3  A    between atoms: S_11  and  C_12 
REMARK    4  A    between atoms: C_12  and  C_13 
REMARK    5  A    between atoms: C_13  and  C_14 
REMARK    6  A    between atoms: C_14  and  N_16 
REMARK    7  A    between atoms: C_23  and  C_24 
ROOT
ATOM      1  C   UNL d   1      11.604   0.502 -19.930  0.00  0.00     0.220 C 
ATOM      2  C   UNL d   1      11.663   0.330 -18.396  0.00  0.00     0.035 C 
ENDROOT
BRANCH   1   3
ATOM      3  C   UNL d   1      10.164   0.396 -20.474  0.00  0.00     0.045 C 
BRANCH   3   4
ATOM      4  C   UNL d   1       9.639  -1.061 -20.502  0.00  0.00     0.067 C 
BRANCH   4   5
ATOM      5  S   UNL d   1       7.938  -1.210 -21.125  0.00  0.00    -0.075 SA
BRANCH   5   6
ATOM      6  C   UNL d   1       7.083  -0.395 -19.833  0.00  0.00     0.193 A 
ATOM      7  N   UNL d   1       6.755   0.897 -19.866  0.00  0.00    -0.122 NA
ATOM      8  N   UNL d   1       6.138   1.141 -18.639  0.00  0.00    -0.128 NA
ATOM      9  C   UNL d   1       6.169  -0.019 -17.960  0.00  0.00     0.167 A 
ATOM     10  N   UNL d   1       6.726  -1.019 -18.692  0.00  0.00    -0.289 N 
ATOM     11  C   UNL d   1       6.866  -2.422 -18.335  0.00  0.00     0.134 C 
BRANCH   9  12
ATOM     12  C   UNL d   1       5.581  -0.175 -16.624  0.00  0.00     0.037 A 
ATOM     13  C   UNL d   1       5.921   0.663 -15.524  0.00  0.00     0.021 A 
ATOM     14  C   UNL d   1       6.850   1.725 -15.627  0.00  0.00     0.003 C 
ATOM     15  C   UNL d   1       5.247   0.508 -14.263  0.00  0.00     0.081 A 
ATOM     16  C   UNL d   1       6.993   2.632 -14.543  0.00  0.00     0.015 C 
ATOM     17  C   UNL d   1       6.225   2.434 -13.379  0.00  0.00     0.059 C 
ATOM     18  C   UNL d   1       6.237   3.459 -12.249  0.00  0.00     0.052 C 
ATOM     19  N   UNL d   1       5.445   1.345 -13.225  0.00  0.00    -0.250 NA
ATOM     20  C   UNL d   1       4.247  -0.462 -14.156  0.00  0.00     0.019 A 
ATOM     21  C   UNL d   1       3.937  -1.322 -15.236  0.00  0.00     0.002 A 
ATOM     22  C   UNL d   1       4.602  -1.168 -16.456  0.00  0.00     0.003 A 
ENDBRANCH   9  12
ENDBRANCH   5   6
ENDBRANCH   4   5
ENDBRANCH   3   4
ENDBRANCH   1   3
BRANCH   1  23
ATOM     23  N   UNL d   1      12.203   1.758 -20.407  0.00  0.00     0.136 N 
ATOM     24  C   UNL d   1      11.774   2.944 -19.650  0.00  0.00     0.255 C 
ATOM     25  C   UNL d   1      12.023   4.275 -20.387  0.00  0.00     0.062 C 
ATOM     26  C   UNL d   1      13.448   4.804 -20.239  0.00  0.00    -0.016 A 
ATOM     27  C   UNL d   1      14.534   4.047 -20.758  0.00  0.00    -0.022 A 
ATOM     28  C   UNL d   1      13.712   6.037 -19.586  0.00  0.00     0.055 A 
ATOM     29  C   UNL d   1      14.285   2.708 -21.440  0.00  0.00     0.061 C 
ATOM     30  C   UNL d   1      15.859   4.516 -20.642  0.00  0.00     0.017 A 
ATOM     31  C   UNL d   1      13.657   1.639 -20.518  0.00  0.00     0.255 C 
ATOM     32  C   UNL d   1      16.131   5.735 -19.989  0.00  0.00     0.106 A 
ATOM     33  C   UNL d   1      15.045   6.471 -19.480  0.00  0.00     0.125 A 
ATOM     34  N   UNL d   1      17.311   6.399 -19.714  0.00  0.00    -0.217 NA
ATOM     35  O   UNL d   1      15.545   7.628 -18.906  0.00  0.00    -0.284 OA
ATOM     36  C   UNL d   1      16.901   7.517 -19.098  0.00  0.00     0.256 A 
ATOM     37 BR   UNL d   1      12.345   7.131 -18.836  0.00  0.00    -0.047 Br
BRANCH  36  38
ATOM     38  C   UNL d   1      17.796   8.623 -18.606  0.00  0.00     0.458 C 
ATOM     39  F   UNL d   1      17.082   9.609 -18.062  0.00  0.00    -0.163 F 
ATOM     40  F   UNL d   1      18.644   8.158 -17.680  0.00  0.00    -0.163 F 
ATOM     41  F   UNL d   1      18.514   9.127 -19.611  0.00  0.00    -0.163 F 
ENDBRANCH  36  38
ENDBRANCH   1  23
TORSDOF 7
