REMARK  9 active torsions:
REMARK  status: ('A' for Active; 'I' for Inactive)
REMARK       I    between atoms: N_2  and  C_3 
REMARK    1  A    between atoms: C_3  and  C_5 
REMARK    2  A    between atoms: C_7  and  O_8 
REMARK    3  A    between atoms: O_8  and  C_9 
REMARK    4  A    between atoms: C_9  and  C_10 
REMARK    5  A    between atoms: C_10  and  C_11 
REMARK    6  A    between atoms: C_11  and  C_12 
REMARK    7  A    between atoms: C_12  and  N_13 
REMARK    8  A    between atoms: N_16  and  C_17 
REMARK    9  A    between atoms: C_28  and  C_29 
ROOT
ATOM      1  C   UNL d   1       8.934   2.047 -15.976  0.00  0.00     0.035 C 
ENDROOT
BRANCH   1   2
ATOM      2  C   UNL d   1       9.012   0.506 -16.040  0.00  0.00     0.149 C 
BRANCH   2   3
ATOM      3  O   UNL d   1       8.304  -0.011 -17.164  0.00  0.00    -0.331 OA
BRANCH   3   4
ATOM      4  C   UNL d   1       6.991  -0.380 -16.999  0.00  0.00     0.094 A 
ATOM      5  C   UNL d   1       6.315  -1.109 -18.008  0.00  0.00     0.029 A 
ATOM      6  C   UNL d   1       5.004  -1.609 -17.793  0.00  0.00     0.060 A 
ATOM      7  C   UNL d   1       4.353  -1.352 -16.572  0.00  0.00     0.008 A 
ATOM      8  C   UNL d   1       5.006  -0.595 -15.569  0.00  0.00     0.037 A 
ATOM      9  C   UNL d   1       6.304  -0.100 -15.803  0.00  0.00     0.027 A 
BRANCH   6  10
ATOM     10  C   UNL d   1       4.310  -2.401 -18.859  0.00  0.00     0.275 C 
ATOM     11  N   UNL d   1       3.554  -3.426 -18.444  0.00  0.00    -0.232 NA
ATOM     12  C   UNL d   1       2.892  -4.381 -19.302  0.00  0.00     0.155 C 
ATOM     13  O   UNL d   1       4.459  -2.118 -20.056  0.00  0.00    -0.266 OA
ENDBRANCH   6  10
BRANCH   8  14
ATOM     14  C   UNL d   1       4.381  -0.323 -14.258  0.00  0.00     0.173 C 
ATOM     15  C   UNL d   1       3.008  -0.909 -13.984  0.00  0.00     0.077 C 
ATOM     16  O   UNL d   1       4.918   0.345 -13.377  0.00  0.00    -0.291 OA
ENDBRANCH   8  14
ENDBRANCH   3   4
ENDBRANCH   2   3
ENDBRANCH   1   2
BRANCH   1  17
ATOM     17  C   UNL d   1       8.842   2.592 -14.543  0.00  0.00     0.038 C 
BRANCH  17  18
ATOM     18  C   UNL d   1       9.079   4.111 -14.468  0.00  0.00     0.251 C 
BRANCH  18  19
ATOM     19  N   UNL d   1       8.683   4.649 -13.166  0.00  0.00     0.141 N 
ATOM     20  C   UNL d   1       8.704   6.112 -13.235  0.00  0.00     0.274 C 
ATOM     21  C   UNL d   1       8.300   6.754 -11.901  0.00  0.00     0.137 C 
ATOM     22  N   UNL d   1       9.183   6.255 -10.862  0.00  0.00    -0.344 N 
ATOM     23  C   UNL d   1       9.263   4.807 -10.781  0.00  0.00     0.137 C 
ATOM     24  C   UNL d   1       9.654   4.230 -12.151  0.00  0.00     0.274 C 
BRANCH  22  25
ATOM     25  C   UNL d   1       9.805   7.118  -9.952  0.00  0.00     0.068 A 
ATOM     26  C   UNL d   1       9.698   6.920  -8.559  0.00  0.00     0.084 A 
ATOM     27  C   UNL d   1      10.366   7.793  -7.666  0.00  0.00     0.070 A 
ATOM     28 CL   UNL d   1       8.696   5.658  -7.938  0.00  0.00    -0.080 Cl
ATOM     29  C   UNL d   1      11.118   8.871  -8.160  0.00  0.00     0.012 A 
ATOM     30 CL   UNL d   1      10.257   7.571  -5.960  0.00  0.00    -0.081 Cl
ATOM     31  C   UNL d   1      11.198   9.086  -9.546  0.00  0.00     0.002 A 
ATOM     32  C   UNL d   1      10.535   8.220 -10.434  0.00  0.00     0.018 A 
ENDBRANCH  22  25
ENDBRANCH  18  19
ENDBRANCH  17  18
ENDBRANCH   1  17
TORSDOF 9
