REMARK  8 active torsions:
REMARK  status: ('A' for Active; 'I' for Inactive)
REMARK    1  A    between atoms: C_5  and  C_6 
REMARK    2  A    between atoms: C_6  and  C_7 
REMARK    3  A    between atoms: C_7  and  C_9 
REMARK    4  A    between atoms: C_9  and  N_10 
REMARK       I    between atoms: N_10  and  C_11 
REMARK       I    between atoms: C_11  and  N_13 
REMARK       I    between atoms: C_14  and  N_16 
REMARK    5  A    between atoms: N_16  and  C_17 
REMARK    6  A    between atoms: C_17  and  C_18 
REMARK    7  A    between atoms: C_18  and  C_19 
REMARK    8  A    between atoms: C_19  and  C_20 
ROOT
ATOM      1  N   UNL d   1      10.144   3.895 -13.451  0.00  0.00    -0.217 NA
ATOM      2  C   UNL d   1       9.114   4.622 -13.025  0.00  0.00     0.380 C 
ATOM      3  O   UNL d   1       8.109   4.800 -13.729  0.00  0.00    -0.242 OA
ATOM      4  N   UNL d   1       9.394   5.098 -11.755  0.00  0.00     0.001 NA
ATOM      5  C   UNL d   1       8.573   5.888 -11.142  0.00  0.00     0.768 C 
ATOM      6  N   UNL d   1       7.385   6.370 -11.646  0.00  0.00     0.062 N 
ATOM      7  N   UNL d   1       8.791   6.334  -9.852  0.00  0.00    -0.084 NA
ENDROOT
BRANCH   1   8
ATOM      8  C   UNL d   1      10.213   3.250 -14.749  0.00  0.00     0.131 C 
BRANCH   8   9
ATOM      9  C   UNL d   1      11.128   3.995 -15.742  0.00  0.00     0.029 C 
ATOM     10  C   UNL d   1      12.470   4.446 -15.140  0.00  0.00     0.002 C 
BRANCH   9  11
ATOM     11  C   UNL d   1      10.386   5.186 -16.444  0.00  0.00     0.028 C 
BRANCH  11  12
ATOM     12  C   UNL d   1       9.915   4.942 -17.881  0.00  0.00    -0.022 A 
ATOM     13  C   UNL d   1      10.181   3.731 -18.582  0.00  0.00    -0.005 A 
ATOM     14  C   UNL d   1       9.753   3.577 -19.907  0.00  0.00    -0.005 A 
ATOM     15  C   UNL d   1       9.040   4.601 -20.556  0.00  0.00    -0.022 A 
ATOM     16  C   UNL d   1       8.584   4.384 -21.975  0.00  0.00     0.031 C 
ATOM     17  C   UNL d   1       8.758   5.803 -19.872  0.00  0.00    -0.005 A 
ATOM     18  C   UNL d   1       9.198   5.972 -18.543  0.00  0.00    -0.005 A 
ENDBRANCH  11  12
ENDBRANCH   9  11
ENDBRANCH   8   9
ENDBRANCH   1   8
BRANCH   7  19
ATOM     19  C   UNL d   1       9.895   5.926  -8.991  0.00  0.00     0.145 C 
BRANCH  19  20
ATOM     20  C   UNL d   1       9.904   6.704  -7.666  0.00  0.00     0.032 C 
BRANCH  20  21
ATOM     21  C   UNL d   1      11.267   6.621  -6.937  0.00  0.00     0.036 C 
BRANCH  21  22
ATOM     22  C   UNL d   1      11.426   7.595  -5.816  0.00  0.00     0.024 A 
ATOM     23  C   UNL d   1      11.514   8.964  -5.906  0.00  0.00     0.064 A 
ATOM     24  N   UNL d   1      11.711   9.586  -4.676  0.00  0.00    -0.224 NA
ATOM     25  C   UNL d   1      11.489   9.794  -7.146  0.00  0.00     0.052 C 
ATOM     26  C   UNL d   1      11.790   8.709  -3.681  0.00  0.00     0.214 A 
ATOM     27  S   UNL d   1      11.592   7.038  -4.174  0.00  0.00    -0.050 SA
ATOM     28  N   UNL d   1      11.985   9.059  -2.367  0.00  0.00    -0.120 N 
ENDBRANCH  21  22
ENDBRANCH  20  21
ENDBRANCH  19  20
ENDBRANCH   7  19
TORSDOF 8
