REMARK  7 active torsions:
REMARK  status: ('A' for Active; 'I' for Inactive)
REMARK    1  A    between atoms: O_2  and  C_3 
REMARK    2  A    between atoms: C_8  and  N_9 
REMARK    3  A    between atoms: N_12  and  C_13 
REMARK    4  A    between atoms: C_13  and  C_14 
REMARK    5  A    between atoms: C_14  and  C_15 
REMARK    6  A    between atoms: C_15  and  C_16 
REMARK    7  A    between atoms: C_21  and  O_22 
ROOT
ATOM      1  C   UNL d   1       9.390   7.579 -10.642  0.00  0.00     0.250 C 
ENDROOT
BRANCH   1   2
ATOM      2  N   UNL d   1      10.619   8.289 -10.304  0.00  0.00     0.141 N 
ATOM      3  C   UNL d   1      11.619   7.455  -9.662  0.00  0.00     0.274 C 
ATOM      4  C   UNL d   1      11.029   6.852  -8.355  0.00  0.00     0.137 C 
ATOM      5  N   UNL d   1      10.558   7.878  -7.465  0.00  0.00    -0.343 N 
ATOM      6  C   UNL d   1       9.685   8.868  -8.052  0.00  0.00     0.137 C 
ATOM      7  C   UNL d   1      10.279   9.374  -9.392  0.00  0.00     0.274 C 
BRANCH   5   8
ATOM      8  C   UNL d   1      11.097   8.024  -6.184  0.00  0.00     0.079 A 
ATOM      9  C   UNL d   1      11.565   9.267  -5.729  0.00  0.00     0.110 A 
ATOM     10  C   UNL d   1      12.036   9.372  -4.394  0.00  0.00     0.026 A 
ATOM     11  C   UNL d   1      12.067   8.263  -3.529  0.00  0.00     0.002 A 
ATOM     12  C   UNL d   1      11.607   7.026  -3.996  0.00  0.00     0.002 A 
ATOM     13  C   UNL d   1      11.131   6.910  -5.315  0.00  0.00     0.019 A 
BRANCH   9  14
ATOM     14  O   UNL d   1      11.495  10.274  -6.647  0.00  0.00    -0.327 OA
ATOM     15  C   UNL d   1      11.993  11.533  -6.252  0.00  0.00     0.181 C 
ENDBRANCH   9  14
ENDBRANCH   5   8
ENDBRANCH   1   2
BRANCH   1  16
ATOM     16  C   UNL d   1       9.537   6.473 -11.654  0.00  0.00     0.036 C 
BRANCH  16  17
ATOM     17  C   UNL d   1       8.206   5.804 -11.986  0.00  0.00     0.006 C 
BRANCH  17  18
ATOM     18  C   UNL d   1       8.288   4.940 -13.273  0.00  0.00     0.022 C 
ATOM     19  C   UNL d   1       7.162   3.948 -13.368  0.00  0.00    -0.025 C 
ATOM     20  C   UNL d   1       7.312   2.623 -13.879  0.00  0.00    -0.004 C 
ATOM     21  C   UNL d   1       5.911   4.334 -12.838  0.00  0.00    -0.004 C 
ATOM     22  C   UNL d   1       8.690   2.127 -14.304  0.00  0.00     0.028 C 
ATOM     23  C   UNL d   1       6.282   1.665 -13.795  0.00  0.00     0.090 C 
ATOM     24  C   UNL d   1       9.677   3.244 -14.572  0.00  0.00     0.005 C 
ATOM     25  C   UNL d   1       9.660   4.267 -13.451  0.00  0.00     0.005 C 
ATOM     26  C   UNL d   1       5.096   2.073 -13.165  0.00  0.00     0.024 C 
ATOM     27  C   UNL d   1       4.899   3.399 -12.779  0.00  0.00     0.002 C 
BRANCH  23  28
ATOM     28  O   UNL d   1       6.492   0.368 -14.221  0.00  0.00    -0.328 OA
ATOM     29  C   UNL d   1       5.359  -0.502 -14.287  0.00  0.00     0.181 C 
ENDBRANCH  23  28
ENDBRANCH  17  18
ENDBRANCH  16  17
ENDBRANCH   1  16
TORSDOF 7
