REMARK  5 active torsions:
REMARK  status: ('A' for Active; 'I' for Inactive)
REMARK    1  A    between atoms: C_7  and  C_8 
REMARK    2  A    between atoms: C_8  and  C_10 
REMARK    3  A    between atoms: C_10  and  C_11 
REMARK    4  A    between atoms: C_11  and  C_12 
REMARK    5  A    between atoms: C_12  and  N_13 
ROOT
ATOM      1  N   UNL d   1       9.923   4.636 -15.312  0.00  0.00     0.137 N 
ATOM      2  C   UNL d   1       9.689   3.409 -16.032  0.00  0.00     0.252 C 
ATOM      3  C   UNL d   1      10.710   3.297 -17.172  0.00  0.00     0.052 C 
ATOM      4  C   UNL d   1      12.169   3.273 -16.653  0.00  0.00     0.070 C 
ATOM      5  C   UNL d   1      12.395   4.380 -15.640  0.00  0.00     0.072 C 
ATOM      6  C   UNL d   1      11.231   4.600 -14.660  0.00  0.00     0.256 C 
ATOM      7  C   UNL d   1      12.793   5.534 -16.513  0.00  0.00    -0.008 A 
ATOM      8  C   UNL d   1      12.777   6.930 -16.327  0.00  0.00    -0.003 A 
ATOM      9  C   UNL d   1      13.258   7.745 -17.372  0.00  0.00     0.000 A 
ATOM     10  C   UNL d   1      13.764   7.173 -18.565  0.00  0.00     0.007 A 
ATOM     11  C   UNL d   1      13.803   5.773 -18.787  0.00  0.00     0.035 A 
ATOM     12  C   UNL d   1      13.274   5.006 -17.717  0.00  0.00     0.038 A 
ATOM     13  N   UNL d   1      13.120   3.580 -17.710  0.00  0.00    -0.253 NA
ATOM     14  C   UNL d   1      12.994   2.887 -18.988  0.00  0.00     0.077 C 
ATOM     15  C   UNL d   1      14.343   2.465 -19.580  0.00  0.00     0.030 C 
ATOM     16  C   UNL d   1      15.338   3.615 -19.726  0.00  0.00     0.064 C 
ATOM     17  S   UNL d   1      14.542   5.144 -20.268  0.00  0.00    -0.113 SA
ENDROOT
BRANCH   1  18
ATOM     18  C   UNL d   1       8.868   4.912 -14.334  0.00  0.00     0.251 C 
BRANCH  18  19
ATOM     19  C   UNL d   1       8.619   3.797 -13.284  0.00  0.00     0.043 C 
BRANCH  19  20
ATOM     20  C   UNL d   1       7.336   4.053 -12.445  0.00  0.00     0.071 C 
BRANCH  20  21
ATOM     21  C   UNL d   1       7.248   5.468 -11.908  0.00  0.00     0.174 C 
ATOM     22  O   UNL d   1       6.342   6.208 -12.272  0.00  0.00    -0.291 OA
BRANCH  21  23
ATOM     23  C   UNL d   1       8.333   5.883 -10.979  0.00  0.00     0.048 A 
ATOM     24  C   UNL d   1       9.152   7.019 -11.238  0.00  0.00     0.073 A 
ATOM     25  N   UNL d   1       9.035   7.766 -12.408  0.00  0.00    -0.100 NA
ATOM     26  C   UNL d   1      10.127   7.412 -10.290  0.00  0.00     0.014 A 
ATOM     27  C   UNL d   1      10.279   6.712  -9.079  0.00  0.00     0.001 A 
ATOM     28  C   UNL d   1       9.460   5.590  -8.821  0.00  0.00     0.000 A 
ATOM     29  C   UNL d   1       8.513   5.184  -9.771  0.00  0.00     0.004 A 
ENDBRANCH  21  23
ENDBRANCH  20  21
ENDBRANCH  19  20
ENDBRANCH  18  19
ENDBRANCH   1  18
TORSDOF 5
