REMARK  0 active torsions:
REMARK  status: ('A' for Active; 'I' for Inactive)
ROOT
ATOM      1  C   UNL d   1       8.719   5.373 -13.055  0.00  0.00     0.038 C 
ATOM      2  C   UNL d   1       8.580   4.037 -13.706  0.00  0.00     0.003 A 
ATOM      3  S   UNL d   1       9.909   3.334 -14.589  0.00  0.00    -0.096 SA
ATOM      4  C   UNL d   1       8.972   1.918 -14.982  0.00  0.00     0.009 A 
ATOM      5  C   UNL d   1       9.569   0.815 -15.794  0.00  0.00     0.038 C 
ATOM      6  C   UNL d   1       7.709   1.997 -14.443  0.00  0.00     0.017 A 
ATOM      7  C   UNL d   1       7.481   3.213 -13.713  0.00  0.00    -0.018 A 
ATOM      8  C   UNL d   1       6.159   3.536 -13.041  0.00  0.00     0.031 C 
ATOM      9  C   UNL d   1       5.304   2.297 -12.651  0.00  0.00     0.034 C 
ATOM     10  C   UNL d   1       5.468   1.172 -13.638  0.00  0.00     0.016 A 
ATOM     11  C   UNL d   1       4.674   0.118 -13.992  0.00  0.00     0.092 A 
ATOM     12  N   UNL d   1       5.354  -0.578 -14.970  0.00  0.00    -0.248 N 
ATOM     13  C   UNL d   1       4.947  -1.780 -15.666  0.00  0.00     0.154 C 
ATOM     14  N   UNL d   1       6.542  -0.007 -15.270  0.00  0.00    -0.170 NA
ATOM     15  C   UNL d   1       6.608   1.042 -14.467  0.00  0.00     0.098 A 
ENDROOT
TORSDOF 0
