REMARK  8 active torsions:
REMARK  status: ('A' for Active; 'I' for Inactive)
REMARK    1  A    between atoms: C_4  and  N_5 
REMARK    2  A    between atoms: N_8  and  C_9 
REMARK    3  A    between atoms: C_9  and  C_10 
REMARK    4  A    between atoms: C_10  and  C_11 
REMARK    5  A    between atoms: C_11  and  C_12 
REMARK    6  A    between atoms: C_12  and  N_13 
REMARK       I    between atoms: N_13  and  C_14 
REMARK    7  A    between atoms: C_14  and  C_16 
REMARK    8  A    between atoms: C_28  and  C_29 
ROOT
ATOM      1  N   UNL d   1      11.113   3.518 -17.521  0.00  0.00    -0.330 N 
ATOM      2  C   UNL d   1      10.683   4.341 -16.409  0.00  0.00     0.138 C 
ATOM      3  C   UNL d   1      10.027   3.471 -15.345  0.00  0.00     0.274 C 
ATOM      4  N   UNL d   1       8.874   2.750 -15.907  0.00  0.00     0.141 N 
ATOM      5  C   UNL d   1       9.398   1.835 -16.948  0.00  0.00     0.274 C 
ATOM      6  C   UNL d   1      10.098   2.643 -18.069  0.00  0.00     0.138 C 
ENDROOT
BRANCH   4   7
ATOM      7  C   UNL d   1       8.171   1.971 -14.890  0.00  0.00     0.251 C 
BRANCH   7   8
ATOM      8  C   UNL d   1       7.192   2.816 -14.036  0.00  0.00     0.037 C 
BRANCH   8   9
ATOM      9  C   UNL d   1       7.885   3.729 -13.043  0.00  0.00     0.029 C 
BRANCH   9  10
ATOM     10  C   UNL d   1       7.029   4.486 -12.044  0.00  0.00     0.129 C 
BRANCH  10  11
ATOM     11  N   UNL d   1       7.843   5.189 -11.047  0.00  0.00    -0.233 NA
ATOM     12  C   UNL d   1       9.068   5.733 -11.167  0.00  0.00     0.294 C 
ATOM     13  O   UNL d   1       9.771   5.675 -12.185  0.00  0.00    -0.264 OA
BRANCH  12  14
ATOM     14  C   UNL d   1       9.559   6.439  -9.963  0.00  0.00     0.158 A 
ATOM     15  N   UNL d   1      10.660   7.282 -10.001  0.00  0.00    -0.222 NA
ATOM     16  C   UNL d   1      10.818   7.728  -8.769  0.00  0.00     0.148 A 
ATOM     17  N   UNL d   1       9.838   7.168  -7.914  0.00  0.00    -0.288 N 
ATOM     18  C   UNL d   1      11.762   8.623  -8.205  0.00  0.00     0.037 A 
ATOM     19  C   UNL d   1       9.064   6.338  -8.691  0.00  0.00     0.106 A 
ATOM     20  C   UNL d   1       9.774   7.462  -6.591  0.00  0.00     0.082 A 
ATOM     21  C   UNL d   1      10.691   8.333  -6.054  0.00  0.00     0.019 A 
ATOM     22  C   UNL d   1      11.691   8.918  -6.865  0.00  0.00     0.005 A 
ENDBRANCH  12  14
ENDBRANCH  10  11
ENDBRANCH   9  10
ENDBRANCH   8   9
ENDBRANCH   7   8
ENDBRANCH   4   7
BRANCH   1  23
ATOM     23  C   UNL d   1      12.479   3.506 -17.956  0.00  0.00     0.143 A 
ATOM     24  C   UNL d   1      13.384   4.503 -17.555  0.00  0.00     0.051 A 
ATOM     25  C   UNL d   1      14.688   4.391 -18.057  0.00  0.00     0.064 A 
ATOM     26  C   UNL d   1      15.757   5.401 -17.691  0.00  0.00     0.052 C 
ATOM     27  N   UNL d   1      15.056   3.388 -18.878  0.00  0.00    -0.228 NA
ATOM     28  C   UNL d   1      14.122   2.480 -19.170  0.00  0.00     0.236 A 
ATOM     29  N   UNL d   1      12.850   2.498 -18.756  0.00  0.00    -0.206 NA
BRANCH  28  30
ATOM     30  C   UNL d   1      14.525   1.316 -20.071  0.00  0.00     0.453 C 
ATOM     31  F   UNL d   1      13.959   0.182 -19.657  0.00  0.00    -0.163 F 
ATOM     32  F   UNL d   1      14.137   1.560 -21.320  0.00  0.00    -0.163 F 
ATOM     33  F   UNL d   1      15.849   1.149 -20.057  0.00  0.00    -0.163 F 
ENDBRANCH  28  30
ENDBRANCH   1  23
TORSDOF 8
