REMARK  7 active torsions:
REMARK  status: ('A' for Active; 'I' for Inactive)
REMARK    1  A    between atoms: C_2  and  C_4 
REMARK       I    between atoms: C_4  and  N_6 
REMARK    2  A    between atoms: N_6  and  C_7 
REMARK    3  A    between atoms: C_11  and  C_12 
REMARK    4  A    between atoms: N_15  and  C_16 
REMARK    5  A    between atoms: C_16  and  C_17 
REMARK    6  A    between atoms: C_20  and  O_21 
REMARK    7  A    between atoms: O_21  and  C_22 
ROOT
ATOM      1  C   UNL d   1      14.121   4.410 -18.940  0.00  0.00     0.026 C 
ATOM      2  C   UNL d   1      13.409   4.074 -20.254  0.00  0.00     0.040 C 
ATOM      3  C   UNL d   1      12.865   2.639 -20.239  0.00  0.00     0.251 C 
ATOM      4  N   UNL d   1      11.965   2.459 -19.100  0.00  0.00     0.141 N 
ATOM      5  C   UNL d   1      12.710   2.614 -17.848  0.00  0.00     0.251 C 
ATOM      6  C   UNL d   1      13.243   4.044 -17.733  0.00  0.00     0.040 C 
ENDROOT
BRANCH   4   7
ATOM      7  C   UNL d   1      11.381   1.123 -19.176  0.00  0.00     0.277 C 
BRANCH   7   8
ATOM      8  C   UNL d   1      10.291   0.883 -18.156  0.00  0.00     0.011 A 
ATOM      9  C   UNL d   1       9.026   1.498 -18.303  0.00  0.00    -0.000 A 
ATOM     10  C   UNL d   1       8.014   1.264 -17.346  0.00  0.00     0.024 A 
ATOM     11  C   UNL d   1       8.272   0.418 -16.244  0.00  0.00     0.100 A 
ATOM     12  C   UNL d   1       9.545  -0.168 -16.090  0.00  0.00     0.024 A 
ATOM     13  C   UNL d   1      10.549   0.054 -17.051  0.00  0.00    -0.000 A 
BRANCH  11  14
ATOM     14  O   UNL d   1       7.317   0.228 -15.274  0.00  0.00    -0.307 OA
BRANCH  14  15
ATOM     15  C   UNL d   1       6.959   1.307 -14.492  0.00  0.00     0.101 A 
ATOM     16  C   UNL d   1       7.747   2.490 -14.411  0.00  0.00     0.037 A 
ATOM     17  C   UNL d   1       7.323   3.574 -13.636  0.00  0.00     0.070 A 
ATOM     18  C   UNL d   1       6.108   3.497 -12.938  0.00  0.00     0.068 A 
ATOM     19 CL   UNL d   1       8.291   4.997 -13.569  0.00  0.00    -0.081 Cl
ATOM     20  C   UNL d   1       5.328   2.331 -12.988  0.00  0.00     0.014 A 
ATOM     21 CL   UNL d   1       5.570   4.852 -12.041  0.00  0.00    -0.082 Cl
ATOM     22  C   UNL d   1       5.746   1.236 -13.767  0.00  0.00     0.026 A 
ENDBRANCH  14  15
ENDBRANCH  11  14
ENDBRANCH   7   8
ENDBRANCH   4   7
BRANCH   1  23
ATOM     23  C   UNL d   1      14.530   5.873 -18.915  0.00  0.00    -0.021 A 
ATOM     24  C   UNL d   1      13.566   6.900 -18.811  0.00  0.00    -0.004 A 
ATOM     25  C   UNL d   1      13.961   8.245 -18.785  0.00  0.00     0.001 A 
ATOM     26  C   UNL d   1      15.327   8.584 -18.863  0.00  0.00     0.019 A 
ATOM     27  C   UNL d   1      16.301   7.566 -18.979  0.00  0.00     0.084 A 
ATOM     28  C   UNL d   1      15.896   6.208 -18.996  0.00  0.00     0.015 A 
BRANCH  27  29
ATOM     29  N   UNL d   1      17.654   7.986 -19.036  0.00  0.00    -0.212 NA
ATOM     30  C   UNL d   1      18.785   7.265 -19.198  0.00  0.00     0.255 C 
ATOM     31  O   UNL d   1      18.813   6.051 -19.407  0.00  0.00    -0.270 OA
BRANCH  30  32
ATOM     32  C   UNL d   1      20.101   8.049 -19.036  0.00  0.00     0.081 C 
ATOM     33  C   UNL d   1      19.956   9.588 -19.181  0.00  0.00     0.010 C 
ATOM     34  C   UNL d   1      21.207   7.506 -19.960  0.00  0.00     0.010 C 
ENDBRANCH  30  32
ENDBRANCH  27  29
ENDBRANCH   1  23
TORSDOF 7
