REMARK  8 active torsions:
REMARK  status: ('A' for Active; 'I' for Inactive)
REMARK    1  A    between atoms: N_3  and  C_4 
REMARK    2  A    between atoms: C_4  and  C_5 
REMARK    3  A    between atoms: C_5  and  C_6 
REMARK    4  A    between atoms: C_6  and  C_7 
REMARK    5  A    between atoms: C_7  and  C_8 
REMARK    6  A    between atoms: C_8  and  C_9 
REMARK    7  A    between atoms: C_9  and  N_10 
REMARK    8  A    between atoms: N_13  and  C_14 
ROOT
ATOM      1  C   UNL d   1       8.124   3.386 -13.649  0.00  0.00     0.002 C 
ENDROOT
BRANCH   1   2
ATOM      2  C   UNL d   1       6.924   2.552 -14.165  0.00  0.00     0.025 C 
BRANCH   2   3
ATOM      3  C   UNL d   1       7.215   1.033 -14.269  0.00  0.00     0.111 C 
BRANCH   3   4
ATOM      4  N   UNL d   1       6.449   0.377 -15.336  0.00  0.00    -0.280 N 
ATOM      5  C   UNL d   1       5.369  -0.449 -15.252  0.00  0.00     0.331 A 
ATOM      6  O   UNL d   1       4.781  -0.776 -14.221  0.00  0.00    -0.246 OA
ATOM      7  N   UNL d   1       5.042  -0.837 -16.507  0.00  0.00    -0.281 N 
ATOM      8  C   UNL d   1       5.925  -0.269 -17.427  0.00  0.00     0.076 A 
ATOM      9  C   UNL d   1       3.955  -1.710 -16.946  0.00  0.00     0.111 C 
ATOM     10  C   UNL d   1       6.793   0.491 -16.689  0.00  0.00     0.080 A 
ATOM     11  C   UNL d   1       5.917  -0.432 -18.815  0.00  0.00    -0.005 A 
ATOM     12  C   UNL d   1       7.792   1.196 -17.386  0.00  0.00     0.019 A 
ATOM     13  C   UNL d   1       7.846   1.081 -18.805  0.00  0.00     0.001 A 
ATOM     14  C   UNL d   1       6.915   0.270 -19.516  0.00  0.00    -0.003 A 
ATOM     15  C   UNL d   1       4.844  -1.374 -19.336  0.00  0.00     0.030 C 
ATOM     16  C   UNL d   1       3.600  -1.440 -18.427  0.00  0.00     0.029 C 
ENDBRANCH   3   4
ENDBRANCH   2   3
ENDBRANCH   1   2
BRANCH   1  17
ATOM     17  C   UNL d   1       7.754   4.434 -12.586  0.00  0.00     0.002 C 
BRANCH  17  18
ATOM     18  C   UNL d   1       8.979   4.958 -11.816  0.00  0.00     0.035 C 
BRANCH  18  19
ATOM     19  C   UNL d   1       8.570   5.842 -10.629  0.00  0.00     0.250 C 
BRANCH  19  20
ATOM     20  N   UNL d   1       9.719   6.101  -9.759  0.00  0.00     0.141 N 
ATOM     21  C   UNL d   1       9.374   5.715  -8.387  0.00  0.00     0.274 C 
ATOM     22  C   UNL d   1      10.558   5.958  -7.439  0.00  0.00     0.137 C 
ATOM     23  N   UNL d   1      10.993   7.340  -7.505  0.00  0.00    -0.344 N 
ATOM     24  C   UNL d   1      11.248   7.839  -8.853  0.00  0.00     0.137 C 
ATOM     25  C   UNL d   1      10.040   7.535  -9.763  0.00  0.00     0.274 C 
BRANCH  23  26
ATOM     26  C   UNL d   1      11.130   8.105  -6.336  0.00  0.00     0.057 A 
ATOM     27  C   UNL d   1      11.464   7.496  -5.101  0.00  0.00     0.028 A 
ATOM     28  C   UNL d   1      11.630   8.265  -3.935  0.00  0.00     0.059 A 
ATOM     29  C   UNL d   1      11.424   9.653  -3.979  0.00  0.00     0.011 A 
ATOM     30 CL   UNL d   1      12.043   7.496  -2.446  0.00  0.00    -0.082 Cl
ATOM     31  C   UNL d   1      11.065  10.265  -5.192  0.00  0.00     0.002 A 
ATOM     32  C   UNL d   1      10.936   9.501  -6.365  0.00  0.00     0.017 A 
ENDBRANCH  23  26
ENDBRANCH  19  20
ENDBRANCH  18  19
ENDBRANCH  17  18
ENDBRANCH   1  17
TORSDOF 8
