REMARK  4 active torsions:
REMARK  status: ('A' for Active; 'I' for Inactive)
REMARK    1  A    between atoms: S_2  and  C_3 
REMARK    2  A    between atoms: C_6  and  C_7 
REMARK    3  A    between atoms: N_11  and  C_12 
REMARK    4  A    between atoms: C_12  and  C_13 
ROOT
ATOM      1  C   UNL d   1       9.527   6.830  -8.901  0.00  0.00     0.149 C 
ATOM      2  O   UNL d   1       8.323   6.261  -8.434  0.00  0.00    -0.221 OA
ATOM      3  C   UNL d   1       9.482   7.758 -10.154  0.00  0.00     0.070 C 
ATOM      4  C   UNL d   1       8.823   7.103 -11.348  0.00  0.00     0.254 C 
ATOM      5  N   UNL d   1       9.600   5.929 -11.767  0.00  0.00     0.142 N 
ATOM      6  C   UNL d   1       9.589   4.961 -10.664  0.00  0.00     0.254 C 
ATOM      7  C   UNL d   1      10.264   5.600  -9.442  0.00  0.00     0.070 C 
ENDROOT
BRANCH   5   8
ATOM      8  C   UNL d   1       9.030   5.372 -12.966  0.00  0.00     0.279 C 
BRANCH   8   9
ATOM      9  C   UNL d   1       9.760   4.260 -13.661  0.00  0.00     0.037 A 
ATOM     10  C   UNL d   1       9.186   3.096 -14.257  0.00  0.00     0.023 A 
ATOM     11  C   UNL d   1      10.276   2.332 -14.758  0.00  0.00     0.100 A 
ATOM     12  C   UNL d   1       7.894   2.562 -14.444  0.00  0.00     0.002 A 
ATOM     13  O   UNL d   1      11.454   2.988 -14.498  0.00  0.00    -0.305 OA
ATOM     14  C   UNL d   1      10.119   1.097 -15.409  0.00  0.00     0.025 A 
ATOM     15  C   UNL d   1      11.116   4.139 -13.851  0.00  0.00     0.120 A 
ATOM     16  C   UNL d   1       8.817   0.593 -15.581  0.00  0.00     0.002 A 
ATOM     17  C   UNL d   1       7.708   1.323 -15.099  0.00  0.00     0.000 A 
ENDBRANCH   8   9
ENDBRANCH   5   8
BRANCH   1  18
ATOM     18  C   UNL d   1      10.280   7.490  -7.745  0.00  0.00     0.005 A 
ATOM     19  C   UNL d   1      10.649   8.861  -7.710  0.00  0.00    -0.001 A 
ATOM     20  C   UNL d   1      11.319   9.410  -6.606  0.00  0.00     0.006 A 
ATOM     21  C   UNL d   1      11.624   8.595  -5.490  0.00  0.00     0.025 A 
ATOM     22  C   UNL d   1      11.283   7.232  -5.506  0.00  0.00     0.006 A 
ATOM     23  C   UNL d   1      10.620   6.696  -6.622  0.00  0.00    -0.001 A 
BRANCH  21  24
ATOM     24  S   UNL d   1      12.484   9.319  -4.144  0.00  0.00    -0.113 SA
ATOM     25  C   UNL d   1      12.554   8.119  -2.812  0.00  0.00     0.074 C 
ENDBRANCH  21  24
ENDBRANCH   1  18
TORSDOF 4
