REMARK  6 active torsions:
REMARK  status: ('A' for Active; 'I' for Inactive)
REMARK    1  A    between atoms: O_2  and  N_3 
REMARK    2  A    between atoms: C_4  and  C_5 
REMARK    3  A    between atoms: C_4  and  C_12 
REMARK    4  A    between atoms: C_12  and  C_14 
REMARK    5  A    between atoms: C_14  and  N_15 
REMARK    6  A    between atoms: N_18  and  C_19 
ROOT
ATOM      1  C   UNL d   1      10.564   2.950 -15.063  0.00  0.00     0.227 C 
ATOM      2  O   UNL d   1      11.052   2.106 -14.044  0.00  0.00    -0.215 OA
ENDROOT
BRANCH   1   3
ATOM      3  C   UNL d   1      11.057   4.397 -14.893  0.00  0.00     0.118 C 
ATOM      4  N   UNL d   1      10.654   5.186 -13.979  0.00  0.00    -0.133 NA
BRANCH   4   5
ATOM      5  O   UNL d   1       9.798   4.601 -13.036  0.00  0.00    -0.234 OA
ATOM      6  C   UNL d   1       9.200   5.636 -12.271  0.00  0.00     0.211 C 
ENDBRANCH   4   5
BRANCH   3   7
ATOM      7  C   UNL d   1      12.038   4.889 -15.907  0.00  0.00     0.018 A 
ATOM      8  C   UNL d   1      12.025   6.237 -16.348  0.00  0.00     0.002 A 
ATOM      9  C   UNL d   1      12.963   6.705 -17.290  0.00  0.00     0.011 A 
ATOM     10  C   UNL d   1      13.942   5.831 -17.798  0.00  0.00     0.058 A 
ATOM     11  C   UNL d   1      13.977   4.495 -17.363  0.00  0.00     0.011 A 
ATOM     12 CL   UNL d   1      15.106   6.392 -18.941  0.00  0.00    -0.082 Cl
ATOM     13  C   UNL d   1      13.042   4.035 -16.419  0.00  0.00     0.002 A 
ENDBRANCH   3   7
ENDBRANCH   1   3
BRANCH   1  14
ATOM     14  C   UNL d   1       9.033   2.831 -15.159  0.00  0.00     0.289 C 
BRANCH  14  15
ATOM     15  N   UNL d   1       8.560   1.500 -15.505  0.00  0.00     0.144 N 
ATOM     16  C   UNL d   1       7.130   1.385 -15.219  0.00  0.00     0.274 C 
ATOM     17  C   UNL d   1       6.583  -0.014 -15.524  0.00  0.00     0.138 C 
ATOM     18  N   UNL d   1       6.910  -0.356 -16.903  0.00  0.00    -0.330 N 
ATOM     19  C   UNL d   1       8.314  -0.215 -17.286  0.00  0.00     0.138 C 
ATOM     20  C   UNL d   1       8.798   1.186 -16.920  0.00  0.00     0.274 C 
BRANCH  18  21
ATOM     21  C   UNL d   1       5.942  -0.814 -17.805  0.00  0.00     0.140 A 
ATOM     22  N   UNL d   1       6.162  -0.546 -19.114  0.00  0.00    -0.227 NA
ATOM     23  C   UNL d   1       5.255  -0.972 -20.015  0.00  0.00     0.101 A 
ATOM     24  C   UNL d   1       4.102  -1.683 -19.660  0.00  0.00     0.021 A 
ATOM     25  C   UNL d   1       3.859  -1.962 -18.307  0.00  0.00     0.005 A 
ATOM     26  C   UNL d   1       4.801  -1.520 -17.358  0.00  0.00     0.037 A 
ENDBRANCH  18  21
ENDBRANCH  14  15
ENDBRANCH   1  14
TORSDOF 6
