REMARK  2 active torsions:
REMARK  status: ('A' for Active; 'I' for Inactive)
REMARK    1  A    between atoms: C_2  and  N_3 
REMARK    2  A    between atoms: C_7  and  C_8 
ROOT
ATOM      1  C   UNL d   1      10.799   8.465  -6.216  0.00  0.00     0.040 A 
ATOM      2  C   UNL d   1      10.674   9.808  -6.423  0.00  0.00     0.101 A 
ATOM      3  N   UNL d   1      11.056  10.495  -5.305  0.00  0.00    -0.244 NA
ATOM      4  C   UNL d   1      11.484   9.625  -4.351  0.00  0.00     0.084 A 
ATOM      5  C   UNL d   1      11.956   9.860  -3.045  0.00  0.00     0.020 A 
ATOM      6  C   UNL d   1      12.470   8.785  -2.326  0.00  0.00     0.010 A 
ATOM      7  C   UNL d   1      12.372   7.495  -2.861  0.00  0.00     0.058 A 
ATOM      8  I   UNL d   1      13.052   5.974  -1.663  0.00  0.00    -0.040 I 
ATOM      9  C   UNL d   1      11.829   7.250  -4.137  0.00  0.00     0.147 A 
ATOM     10  F   UNL d   1      11.716   5.989  -4.597  0.00  0.00    -0.204 F 
ATOM     11  C   UNL d   1      11.390   8.326  -4.921  0.00  0.00     0.049 A 
ENDROOT
BRANCH   1  12
ATOM     12  C   UNL d   1      10.409   7.456  -7.146  0.00  0.00     0.082 A 
ATOM     13  N   UNL d   1      10.879   7.389  -8.444  0.00  0.00    -0.309 N 
ATOM     14  C   UNL d   1      10.279   6.317  -8.962  0.00  0.00     0.179 A 
ATOM     15  N   UNL d   1       9.455   5.672  -8.138  0.00  0.00    -0.223 NA
ATOM     16  C   UNL d   1       9.515   6.414  -6.972  0.00  0.00     0.118 A 
BRANCH  13  17
ATOM     17  C   UNL d   1      11.851   8.255  -9.084  0.00  0.00     0.108 C 
ATOM     18  C   UNL d   1      11.143   9.194 -10.063  0.00  0.00     0.027 C 
ENDBRANCH  13  17
ENDBRANCH   1  12
TORSDOF 2
