REMARK  5 active torsions:
REMARK  status: ('A' for Active; 'I' for Inactive)
REMARK    1  A    between atoms: C_2  and  C_5 
REMARK    2  A    between atoms: C_8  and  S_9 
REMARK    3  A    between atoms: S_9  and  N_12 
REMARK    4  A    between atoms: N_12  and  C_13 
REMARK    5  A    between atoms: C_20  and  N_21 
ROOT
ATOM      1  C   UNL d   1       7.001   4.067 -12.642  0.00  0.00     0.094 A 
ATOM      2  C   UNL d   1       5.837   3.371 -12.278  0.00  0.00     0.021 A 
ATOM      3  C   UNL d   1       5.471   2.200 -12.978  0.00  0.00     0.021 A 
ATOM      4  C   UNL d   1       6.251   1.687 -14.036  0.00  0.00     0.083 A 
ATOM      5  N   UNL d   1       5.865   0.562 -14.675  0.00  0.00    -0.244 NA
ATOM      6  C   UNL d   1       6.599   0.114 -15.710  0.00  0.00     0.100 A 
ATOM      7  C   UNL d   1       7.780   0.746 -16.148  0.00  0.00     0.038 A 
ATOM      8  C   UNL d   1       8.223   1.902 -15.475  0.00  0.00     0.059 A 
ATOM      9  C   UNL d   1       7.431   2.399 -14.407  0.00  0.00     0.035 A 
ATOM     10  C   UNL d   1       7.770   3.582 -13.712  0.00  0.00     0.023 A 
ENDROOT
BRANCH   1  11
ATOM     11  N   UNL d   1       7.402   5.177 -11.896  0.00  0.00    -0.158 NA
BRANCH  11  12
ATOM     12  S   UNL d   1       8.580   6.404 -12.254  0.00  0.00     0.285 S 
ATOM     13  O   UNL d   1       7.812   7.536 -12.755  0.00  0.00    -0.198 OA
ATOM     14  O   UNL d   1       9.686   5.819 -12.989  0.00  0.00    -0.198 OA
BRANCH  12  15
ATOM     15  C   UNL d   1       9.267   6.791 -10.682  0.00  0.00     0.105 A 
ATOM     16  C   UNL d   1       9.841   8.055 -10.474  0.00  0.00     0.013 A 
ATOM     17  C   UNL d   1      10.428   8.340  -9.232  0.00  0.00    -0.004 A 
ATOM     18  C   UNL d   1      10.487   7.353  -8.211  0.00  0.00    -0.023 A 
ATOM     19  C   UNL d   1       9.934   6.072  -8.472  0.00  0.00    -0.004 A 
ATOM     20  C   UNL d   1       9.344   5.787  -9.710  0.00  0.00     0.013 A 
BRANCH  18  21
ATOM     21  C   UNL d   1      11.092   7.670  -6.832  0.00  0.00     0.019 C 
ATOM     22  C   UNL d   1      12.115   8.819  -6.928  0.00  0.00     0.004 C 
ATOM     23  C   UNL d   1      11.816   6.446  -6.228  0.00  0.00     0.004 C 
ATOM     24  C   UNL d   1       9.963   8.075  -5.873  0.00  0.00     0.004 C 
ENDBRANCH  18  21
ENDBRANCH  12  15
ENDBRANCH  11  12
ENDBRANCH   1  11
BRANCH   8  25
ATOM     25  N   UNL d   1       9.425   2.527 -15.900  0.00  0.00    -0.344 N 
ATOM     26  C   UNL d   1       9.569   3.037 -17.255  0.00  0.00     0.140 C 
ATOM     27  C   UNL d   1      10.025   4.514 -17.215  0.00  0.00     0.314 C 
ATOM     28  N   UNL d   1      11.279   4.646 -16.468  0.00  0.00     0.343 N 
ATOM     29  C   UNL d   1      11.020   4.211 -15.103  0.00  0.00     0.314 C 
ATOM     30  C   UNL d   1      10.577   2.728 -15.025  0.00  0.00     0.140 C 
ENDBRANCH   8  25
TORSDOF 5
