REMARK  7 active torsions:
REMARK  status: ('A' for Active; 'I' for Inactive)
REMARK    1  A    between atoms: O_2  and  C_3 
REMARK    2  A    between atoms: C_6  and  N_7 
REMARK    3  A    between atoms: N_10  and  C_11 
REMARK    4  A    between atoms: C_11  and  C_12 
REMARK    5  A    between atoms: C_12  and  C_13 
REMARK    6  A    between atoms: C_16  and  N_17 
REMARK       I    between atoms: N_17  and  C_18 
REMARK    7  A    between atoms: C_18  and  C_20 
ROOT
ATOM      1  C   UNL d   1       9.692   6.441 -10.594  0.00  0.00     0.250 C 
ENDROOT
BRANCH   1   2
ATOM      2  N   UNL d   1      10.359   7.730 -10.420  0.00  0.00     0.141 N 
ATOM      3  C   UNL d   1       9.558   8.777  -9.746  0.00  0.00     0.274 C 
ATOM      4  C   UNL d   1       9.258   8.390  -8.277  0.00  0.00     0.137 C 
ATOM      5  N   UNL d   1      10.503   8.015  -7.638  0.00  0.00    -0.344 N 
ATOM      6  C   UNL d   1      11.436   7.124  -8.303  0.00  0.00     0.137 C 
ATOM      7  C   UNL d   1      11.651   7.592  -9.743  0.00  0.00     0.274 C 
BRANCH   5   8
ATOM      8  C   UNL d   1      10.851   8.468  -6.379  0.00  0.00     0.056 A 
ATOM      9  C   UNL d   1      10.686   9.818  -6.073  0.00  0.00     0.019 A 
ATOM     10  C   UNL d   1      11.046  10.297  -4.815  0.00  0.00     0.026 A 
ATOM     11  C   UNL d   1      11.581   9.431  -3.839  0.00  0.00     0.094 A 
ATOM     12  C   UNL d   1      11.768   8.060  -4.175  0.00  0.00     0.026 A 
ATOM     13  C   UNL d   1      11.397   7.585  -5.441  0.00  0.00     0.019 A 
BRANCH  11  14
ATOM     14  O   UNL d   1      11.859   9.951  -2.613  0.00  0.00    -0.328 OA
ATOM     15  C   UNL d   1      12.630   9.155  -1.751  0.00  0.00     0.181 C 
ENDBRANCH  11  14
ENDBRANCH   5   8
ENDBRANCH   1   2
BRANCH   1  16
ATOM     16  C   UNL d   1       8.707   6.491 -11.751  0.00  0.00     0.035 C 
BRANCH  16  17
ATOM     17  C   UNL d   1       8.184   5.089 -12.114  0.00  0.00     0.002 C 
ATOM     18  C   UNL d   1       8.842   4.656 -13.419  0.00  0.00     0.002 C 
ATOM     19  C   UNL d   1       8.355   3.292 -13.900  0.00  0.00     0.024 C 
ATOM     20  C   UNL d   1       6.814   3.223 -14.010  0.00  0.00     0.107 C 
ATOM     21  C   UNL d   1       6.118   3.660 -12.704  0.00  0.00     0.024 C 
ATOM     22  C   UNL d   1       6.646   5.037 -12.222  0.00  0.00     0.002 C 
BRANCH  20  23
ATOM     23  N   UNL d   1       6.365   1.899 -14.416  0.00  0.00    -0.236 NA
ATOM     24  C   UNL d   1       6.672   1.272 -15.574  0.00  0.00     0.281 C 
ATOM     25  O   UNL d   1       7.493   1.687 -16.386  0.00  0.00    -0.265 OA
BRANCH  24  26
ATOM     26  C   UNL d   1       5.884   0.086 -15.916  0.00  0.00     0.087 A 
ATOM     27  S   UNL d   1       4.631  -0.458 -14.832  0.00  0.00    -0.082 SA
ATOM     28  C   UNL d   1       4.215  -1.713 -15.947  0.00  0.00     0.036 A 
ATOM     29  C   UNL d   1       4.984  -1.716 -17.068  0.00  0.00     0.008 A 
ATOM     30  C   UNL d   1       5.945  -0.672 -17.057  0.00  0.00     0.012 A 
ENDBRANCH  24  26
ENDBRANCH  20  23
ENDBRANCH  16  17
ENDBRANCH   1  16
TORSDOF 7
