REMARK  5 active torsions:
REMARK  status: ('A' for Active; 'I' for Inactive)
REMARK    1  A    between atoms: O_2  and  C_3 
REMARK    2  A    between atoms: C_8  and  O_9 
REMARK    3  A    between atoms: O_9  and  C_10 
REMARK    4  A    between atoms: C_10  and  C_11 
REMARK    5  A    between atoms: C_11  and  C_13 
ROOT
ATOM      1  C   UNL d   1      11.443   9.224  -4.542  0.00  0.00     0.116 A 
ATOM      2  C   UNL d   1      11.971   9.269  -3.239  0.00  0.00     0.026 A 
ATOM      3  C   UNL d   1      12.262   8.082  -2.543  0.00  0.00     0.002 A 
ATOM      4  C   UNL d   1      12.028   6.837  -3.159  0.00  0.00     0.002 A 
ATOM      5  C   UNL d   1      11.482   6.787  -4.456  0.00  0.00     0.026 A 
ATOM      6  C   UNL d   1      11.157   7.981  -5.147  0.00  0.00     0.116 A 
ENDROOT
BRANCH   6   7
ATOM      7  O   UNL d   1      10.524   8.010  -6.368  0.00  0.00    -0.326 OA
BRANCH   7   8
ATOM      8  C   UNL d   1      10.140   6.789  -6.968  0.00  0.00     0.184 C 
BRANCH   8   9
ATOM      9  C   UNL d   1       9.208   7.115  -8.131  0.00  0.00     0.215 C 
ATOM     10  O   UNL d   1       8.656   5.926  -8.636  0.00  0.00    -0.218 OA
BRANCH   9  11
ATOM     11  C   UNL d   1       9.848   7.901  -9.294  0.00  0.00     0.218 C 
ATOM     12  O   UNL d   1      11.070   7.301  -9.693  0.00  0.00    -0.218 OA
ENDBRANCH   9  11
ENDBRANCH   8   9
ENDBRANCH   7   8
ENDBRANCH   6   7
BRANCH   1  13
ATOM     13  O   UNL d   1      11.118  10.399  -5.165  0.00  0.00    -0.326 OA
ATOM     14  C   UNL d   1      11.847  10.665  -6.361  0.00  0.00     0.181 C 
ENDBRANCH   1  13
TORSDOF 5
