REMARK  6 active torsions:
REMARK  status: ('A' for Active; 'I' for Inactive)
REMARK       I    between atoms: C_2  and  N_3 
REMARK    1  A    between atoms: C_2  and  C_27 
REMARK    2  A    between atoms: N_3  and  C_4 
REMARK    3  A    between atoms: C_7  and  C_8 
REMARK    4  A    between atoms: C_8  and  C_9 
REMARK    5  A    between atoms: C_9  and  N_10 
REMARK    6  A    between atoms: N_13  and  C_14 
ROOT
ATOM      1  C   UNL d   1       9.009   6.491  -9.770  0.00  0.00     0.107 C 
ATOM      2  C   UNL d   1       9.393   7.353 -11.003  0.00  0.00     0.024 C 
ATOM      3  C   UNL d   1       8.943   6.712 -12.313  0.00  0.00     0.002 C 
ATOM      4  C   UNL d   1       9.505   5.283 -12.458  0.00  0.00     0.002 C 
ATOM      5  C   UNL d   1       9.127   4.446 -11.225  0.00  0.00     0.002 C 
ATOM      6  C   UNL d   1       9.524   5.073  -9.890  0.00  0.00     0.024 C 
ENDROOT
BRANCH   4   7
ATOM      7  C   UNL d   1       9.032   4.644 -13.777  0.00  0.00     0.035 C 
BRANCH   7   8
ATOM      8  C   UNL d   1       9.387   3.146 -13.942  0.00  0.00     0.250 C 
BRANCH   8   9
ATOM      9  N   UNL d   1       8.381   2.485 -14.759  0.00  0.00     0.141 N 
ATOM     10  C   UNL d   1       8.384   1.032 -14.532  0.00  0.00     0.274 C 
ATOM     11  C   UNL d   1       7.285   0.343 -15.368  0.00  0.00     0.137 C 
ATOM     12  N   UNL d   1       7.448   0.696 -16.772  0.00  0.00    -0.343 N 
ATOM     13  C   UNL d   1       7.599   2.114 -17.064  0.00  0.00     0.137 C 
ATOM     14  C   UNL d   1       8.681   2.744 -16.169  0.00  0.00     0.274 C 
BRANCH  12  15
ATOM     15  C   UNL d   1       7.582  -0.269 -17.768  0.00  0.00     0.081 A 
ATOM     16  C   UNL d   1       6.674  -1.340 -17.891  0.00  0.00     0.135 A 
ATOM     17  C   UNL d   1       6.808  -2.297 -18.877  0.00  0.00     0.121 A 
ATOM     18  O   UNL d   1       5.581  -1.631 -17.129  0.00  0.00    -0.298 OA
ATOM     19  C   UNL d   1       7.848  -2.243 -19.818  0.00  0.00     0.026 A 
ATOM     20  O   UNL d   1       5.821  -3.216 -18.763  0.00  0.00    -0.299 OA
ATOM     21  C   UNL d   1       8.775  -1.182 -19.729  0.00  0.00     0.004 A 
ATOM     22  C   UNL d   1       8.641  -0.201 -18.711  0.00  0.00     0.019 A 
ATOM     23  C   UNL d   1       5.040  -2.814 -17.665  0.00  0.00     0.304 A 
ENDBRANCH  12  15
ENDBRANCH   8   9
ENDBRANCH   7   8
ENDBRANCH   4   7
BRANCH   1  24
ATOM     24  N   UNL d   1       9.475   7.069  -8.518  0.00  0.00    -0.236 NA
ATOM     25  C   UNL d   1      10.712   7.515  -8.246  0.00  0.00     0.275 C 
ATOM     26  O   UNL d   1      11.640   7.602  -9.050  0.00  0.00    -0.266 OA
BRANCH  25  27
ATOM     27  C   UNL d   1      10.920   7.933  -6.849  0.00  0.00     0.060 A 
ATOM     28  C   UNL d   1      11.255   6.984  -5.870  0.00  0.00     0.031 A 
ATOM     29  C   UNL d   1      11.523   7.404  -4.562  0.00  0.00     0.116 A 
ATOM     30  C   UNL d   1      11.473   8.790  -4.236  0.00  0.00     0.116 A 
ATOM     31  O   UNL d   1      11.859   6.454  -3.630  0.00  0.00    -0.326 OA
ATOM     32  C   UNL d   1      11.109   9.734  -5.224  0.00  0.00     0.026 A 
ATOM     33  O   UNL d   1      11.755   9.234  -2.972  0.00  0.00    -0.326 OA
ATOM     34  C   UNL d   1      10.838   9.296  -6.530  0.00  0.00     0.007 A 
ATOM     35  C   UNL d   1      12.408   8.277  -2.157  0.00  0.00     0.181 C 
ATOM     36  C   UNL d   1      11.746   6.897  -2.292  0.00  0.00     0.181 C 
ENDBRANCH  25  27
ENDBRANCH   1  24
TORSDOF 6
