REMARK  10 active torsions:
REMARK  status: ('A' for Active; 'I' for Inactive)
REMARK    1  A    between atoms: C_2  and  C_3 
REMARK       I    between atoms: C_2  and  N_11 
REMARK    2  A    between atoms: C_4  and  C_5 
REMARK    3  A    between atoms: N_11  and  C_12 
REMARK    4  A    between atoms: C_12  and  C_13 
REMARK    5  A    between atoms: C_13  and  C_14 
REMARK    6  A    between atoms: C_14  and  C_15 
REMARK    7  A    between atoms: C_15  and  N_16 
REMARK    8  A    between atoms: N_20  and  C_21 
REMARK    9  A    between atoms: C_21  and  C_22 
REMARK   10  A    between atoms: C_21  and  C_28 
ROOT
ATOM      1  N   UNL d   1      10.728   3.216 -16.102  0.00  0.00     0.139 N 
ATOM      2  C   UNL d   1      11.778   2.571 -16.904  0.00  0.00     0.252 C 
ATOM      3  C   UNL d   1      12.091   3.213 -18.256  0.00  0.00     0.071 C 
ATOM      4  C   UNL d   1      11.941   4.727 -18.316  0.00  0.00     0.253 C 
ATOM      5  N   UNL d   1      10.576   5.158 -18.685  0.00  0.00     0.145 N 
ATOM      6  C   UNL d   1       9.696   4.998 -17.516  0.00  0.00     0.286 C 
ATOM      7  C   UNL d   1       9.566   3.586 -16.923  0.00  0.00     0.285 C 
ENDROOT
BRANCH   1   8
ATOM      8  C   UNL d   1      10.398   2.342 -14.969  0.00  0.00     0.250 C 
BRANCH   8   9
ATOM      9  C   UNL d   1       9.378   2.889 -13.936  0.00  0.00     0.037 C 
BRANCH   9  10
ATOM     10  C   UNL d   1       9.945   4.037 -13.080  0.00  0.00     0.029 C 
BRANCH  10  11
ATOM     11  C   UNL d   1       8.840   4.814 -12.335  0.00  0.00     0.129 C 
BRANCH  11  12
ATOM     12  N   UNL d   1       9.368   5.722 -11.321  0.00  0.00    -0.234 NA
ATOM     13  C   UNL d   1       9.553   5.409 -10.013  0.00  0.00     0.275 C 
ATOM     14  O   UNL d   1       9.425   4.293  -9.553  0.00  0.00    -0.266 OA
BRANCH  13  15
ATOM     15  C   UNL d   1       9.974   6.561  -9.256  0.00  0.00     0.062 C 
ATOM     16  C   UNL d   1      10.282   6.410  -7.939  0.00  0.00     0.005 C 
BRANCH  16  17
ATOM     17  C   UNL d   1      10.733   7.497  -7.070  0.00  0.00     0.000 A 
ATOM     18  C   UNL d   1      10.926   8.798  -7.578  0.00  0.00     0.000 A 
ATOM     19  C   UNL d   1      11.332   9.842  -6.736  0.00  0.00     0.000 A 
ATOM     20  C   UNL d   1      11.555   9.594  -5.371  0.00  0.00     0.000 A 
ATOM     21  C   UNL d   1      11.376   8.307  -4.849  0.00  0.00     0.000 A 
ATOM     22  C   UNL d   1      10.965   7.255  -5.690  0.00  0.00     0.000 A 
ENDBRANCH  16  17
ENDBRANCH  13  15
ENDBRANCH  11  12
ENDBRANCH  10  11
ENDBRANCH   9  10
ENDBRANCH   8   9
ENDBRANCH   1   8
BRANCH   5  23
ATOM     23  C   UNL d   1      10.511   6.551 -19.188  0.00  0.00     0.264 C 
BRANCH  23  24
ATOM     24  C   UNL d   1       9.232   6.853 -20.015  0.00  0.00     0.013 A 
ATOM     25  C   UNL d   1       8.019   7.194 -19.329  0.00  0.00    -0.002 A 
ATOM     26  C   UNL d   1       6.874   7.597 -20.061  0.00  0.00    -0.000 A 
ATOM     27  C   UNL d   1       6.858   7.578 -21.478  0.00  0.00    -0.000 A 
ATOM     28  C   UNL d   1       8.046   7.207 -22.146  0.00  0.00    -0.000 A 
ATOM     29  C   UNL d   1       9.216   6.878 -21.446  0.00  0.00    -0.002 A 
ENDBRANCH  23  24
BRANCH  23  30
ATOM     30  C   UNL d   1      11.778   6.961 -19.940  0.00  0.00     0.013 A 
ATOM     31  C   UNL d   1      12.110   6.322 -21.156  0.00  0.00    -0.002 A 
ATOM     32  C   UNL d   1      13.213   6.747 -21.913  0.00  0.00    -0.000 A 
ATOM     33  C   UNL d   1      14.075   7.743 -21.408  0.00  0.00    -0.000 A 
ATOM     34  C   UNL d   1      13.805   8.328 -20.145  0.00  0.00    -0.000 A 
ATOM     35  C   UNL d   1      12.645   7.954 -19.429  0.00  0.00    -0.002 A 
ENDBRANCH  23  30
ENDBRANCH   5  23
TORSDOF 10
