REMARK  8 active torsions:
REMARK  status: ('A' for Active; 'I' for Inactive)
REMARK    1  A    between atoms: O_2  and  C_3 
REMARK    2  A    between atoms: C_8  and  N_9 
REMARK    3  A    between atoms: N_12  and  C_13 
REMARK    4  A    between atoms: C_13  and  C_14 
REMARK    5  A    between atoms: C_14  and  C_15 
REMARK    6  A    between atoms: C_15  and  C_16 
REMARK    7  A    between atoms: C_16  and  N_17 
REMARK       I    between atoms: N_17  and  C_18 
REMARK    8  A    between atoms: C_18  and  C_20 
ROOT
ATOM      1  N   UNL d   1       7.893   4.206 -13.303  0.00  0.00    -0.343 N 
ATOM      2  C   UNL d   1       7.289   4.293 -11.978  0.00  0.00     0.137 C 
ATOM      3  C   UNL d   1       8.356   4.723 -10.936  0.00  0.00     0.274 C 
ATOM      4  N   UNL d   1       8.966   6.006 -11.303  0.00  0.00     0.141 N 
ATOM      5  C   UNL d   1       9.633   5.784 -12.593  0.00  0.00     0.274 C 
ATOM      6  C   UNL d   1       8.617   5.407 -13.691  0.00  0.00     0.137 C 
ENDROOT
BRANCH   4   7
ATOM      7  C   UNL d   1       9.954   6.394 -10.283  0.00  0.00     0.251 C 
BRANCH   7   8
ATOM      8  C   UNL d   1       9.312   6.833  -8.945  0.00  0.00     0.037 C 
BRANCH   8   9
ATOM      9  C   UNL d   1      10.359   7.165  -7.880  0.00  0.00     0.029 C 
BRANCH   9  10
ATOM     10  C   UNL d   1       9.676   7.611  -6.582  0.00  0.00     0.129 C 
BRANCH  10  11
ATOM     11  N   UNL d   1      10.579   8.382  -5.754  0.00  0.00    -0.238 NA
ATOM     12  C   UNL d   1      11.461   7.900  -4.871  0.00  0.00     0.250 C 
ATOM     13  O   UNL d   1      11.699   6.697  -4.755  0.00  0.00    -0.271 OA
BRANCH  12  14
ATOM     14  C   UNL d   1      12.152   8.957  -3.971  0.00  0.00     0.073 C 
ATOM     15  C   UNL d   1      11.182  10.095  -3.627  0.00  0.00     0.009 C 
ATOM     16  C   UNL d   1      13.344   9.582  -4.681  0.00  0.00     0.009 C 
ATOM     17  C   UNL d   1      12.633   8.283  -2.662  0.00  0.00     0.009 C 
ENDBRANCH  12  14
ENDBRANCH  10  11
ENDBRANCH   9  10
ENDBRANCH   8   9
ENDBRANCH   7   8
ENDBRANCH   4   7
BRANCH   1  18
ATOM     18  C   UNL d   1       7.871   3.016 -14.058  0.00  0.00     0.079 A 
ATOM     19  C   UNL d   1       9.026   2.520 -14.716  0.00  0.00     0.110 A 
ATOM     20  C   UNL d   1       8.909   1.335 -15.513  0.00  0.00     0.026 A 
ATOM     21  C   UNL d   1       7.677   0.665 -15.616  0.00  0.00     0.002 A 
ATOM     22  C   UNL d   1       6.551   1.142 -14.934  0.00  0.00     0.002 A 
ATOM     23  C   UNL d   1       6.652   2.317 -14.158  0.00  0.00     0.019 A 
BRANCH  19  24
ATOM     24  O   UNL d   1      10.214   3.196 -14.552  0.00  0.00    -0.327 OA
ATOM     25  C   UNL d   1      11.411   2.580 -14.992  0.00  0.00     0.181 C 
ENDBRANCH  19  24
ENDBRANCH   1  18
TORSDOF 8
