REMARK  6 active torsions:
REMARK  status: ('A' for Active; 'I' for Inactive)
REMARK    1  A    between atoms: C_6  and  C_7 
REMARK    2  A    between atoms: C_7  and  C_8 
REMARK    3  A    between atoms: C_8  and  O_9 
REMARK    4  A    between atoms: O_9  and  C_10 
REMARK    5  A    between atoms: C_10  and  C_12 
REMARK    6  A    between atoms: C_10  and  C_18 
ROOT
ATOM      1  C   UNL d   1       9.319   5.562 -11.291  0.00  0.00     0.130 C 
ATOM      2  C   UNL d   1       8.964   4.118 -11.066  0.00  0.00     0.039 C 
ENDROOT
BRANCH   1   3
ATOM      3  O   UNL d   1      10.262   5.596 -12.343  0.00  0.00    -0.351 OA
BRANCH   3   4
ATOM      4  C   UNL d   1      10.161   4.796 -13.514  0.00  0.00     0.145 C 
BRANCH   4   5
ATOM      5  C   UNL d   1      11.405   5.072 -14.376  0.00  0.00     0.065 C 
BRANCH   5   6
ATOM      6  C   UNL d   1      11.312   4.468 -15.787  0.00  0.00     0.222 C 
ATOM      7  N   UNL d   1      12.017   3.196 -15.904  0.00  0.00     0.137 N 
ATOM      8  C   UNL d   1      11.325   2.090 -15.264  0.00  0.00     0.285 C 
ATOM      9  C   UNL d   1      12.127   2.976 -17.340  0.00  0.00     0.250 C 
ATOM     10  C   UNL d   1      12.531   4.342 -17.885  0.00  0.00     0.037 C 
ATOM     11  C   UNL d   1      12.002   5.331 -16.853  0.00  0.00     0.035 C 
ENDBRANCH   5   6
ENDBRANCH   4   5
ENDBRANCH   3   4
ENDBRANCH   1   3
BRANCH   1  12
ATOM     12  C   UNL d   1       8.155   6.339 -11.796  0.00  0.00     0.006 C 
ATOM     13  C   UNL d   1       6.919   5.733 -12.114  0.00  0.00    -0.002 C 
ATOM     14  C   UNL d   1       5.904   6.540 -12.597  0.00  0.00    -0.000 C 
ATOM     15  C   UNL d   1       6.090   7.917 -12.746  0.00  0.00    -0.000 C 
ATOM     16  C   UNL d   1       7.338   8.488 -12.441  0.00  0.00    -0.000 C 
ATOM     17  C   UNL d   1       8.396   7.696 -12.041  0.00  0.00    -0.002 C 
ENDBRANCH   1  12
BRANCH   1  18
ATOM     18  C   UNL d   1       9.814   6.204  -9.952  0.00  0.00     0.006 A 
ATOM     19  C   UNL d   1      10.840   7.186  -9.937  0.00  0.00    -0.001 A 
ATOM     20  C   UNL d   1      11.294   7.771  -8.747  0.00  0.00     0.011 A 
ATOM     21  C   UNL d   1      10.722   7.408  -7.516  0.00  0.00     0.058 A 
ATOM     22  C   UNL d   1       9.697   6.444  -7.505  0.00  0.00     0.011 A 
ATOM     23 CL   UNL d   1      11.247   8.159  -6.053  0.00  0.00    -0.082 Cl
ATOM     24  C   UNL d   1       9.230   5.850  -8.694  0.00  0.00    -0.001 A 
ENDBRANCH   1  18
TORSDOF 6
