REMARK  0 active torsions:
REMARK  status: ('A' for Active; 'I' for Inactive)
ROOT
ATOM      1  C   UNL d   1      12.497   8.660  -2.283  0.00  0.00     0.286 C 
ATOM      2  N   UNL d   1      11.943   8.828  -3.613  0.00  0.00     0.143 N 
ATOM      3  C   UNL d   1      13.014   9.200  -4.531  0.00  0.00     0.274 C 
ATOM      4  C   UNL d   1      12.447   9.396  -5.965  0.00  0.00     0.137 C 
ATOM      5  N   UNL d   1      11.726   8.219  -6.413  0.00  0.00    -0.346 N 
ATOM      6  C   UNL d   1      11.348   8.089  -7.762  0.00  0.00     0.057 A 
ATOM      7  C   UNL d   1      11.891   8.805  -8.832  0.00  0.00     0.017 A 
ATOM      8  C   UNL d   1      11.384   8.704 -10.126  0.00  0.00     0.003 A 
ATOM      9  C   UNL d   1      10.357   7.800 -10.402  0.00  0.00     0.019 A 
ATOM     10  C   UNL d   1       9.860   7.002  -9.386  0.00  0.00     0.083 A 
ATOM     11  N   UNL d   1       8.933   6.022  -9.360  0.00  0.00    -0.244 NA
ATOM     12  C   UNL d   1       8.736   5.598  -8.055  0.00  0.00     0.095 A 
ATOM     13  C   UNL d   1       9.602   6.334  -7.298  0.00  0.00     0.002 A 
ATOM     14  C   UNL d   1      10.347   7.194  -8.102  0.00  0.00     0.031 A 
ATOM     15  C   UNL d   1      10.121   6.394  -5.872  0.00  0.00     0.052 C 
ATOM     16  C   UNL d   1      10.764   7.722  -5.436  0.00  0.00     0.119 C 
ATOM     17  C   UNL d   1      11.460   7.525  -4.064  0.00  0.00     0.273 C 
ENDROOT
TORSDOF 0
