REMARK  6 active torsions:
REMARK  status: ('A' for Active; 'I' for Inactive)
REMARK    1  A    between atoms: C_7  and  O_8 
REMARK    2  A    between atoms: O_8  and  C_9 
REMARK    3  A    between atoms: C_9  and  C_10 
REMARK    4  A    between atoms: C_10  and  C_11 
REMARK    5  A    between atoms: C_11  and  N_12 
REMARK    6  A    between atoms: N_15  and  C_16 
ROOT
ATOM      1  N   UNL d   1       7.600   2.581 -14.273  0.00  0.00     0.141 N 
ATOM      2  C   UNL d   1       8.435   1.946 -15.295  0.00  0.00     0.274 C 
ATOM      3  C   UNL d   1       7.555   1.481 -16.421  0.00  0.00     0.137 C 
ATOM      4  N   UNL d   1       6.518   0.575 -15.918  0.00  0.00    -0.344 N 
ATOM      5  C   UNL d   1       5.770   1.051 -14.750  0.00  0.00     0.137 C 
ATOM      6  C   UNL d   1       6.714   1.543 -13.681  0.00  0.00     0.274 C 
ENDROOT
BRANCH   1   7
ATOM      7  C   UNL d   1       8.470   3.096 -13.266  0.00  0.00     0.253 C 
BRANCH   7   8
ATOM      8  C   UNL d   1       9.192   4.383 -13.586  0.00  0.00     0.068 C 
BRANCH   8   9
ATOM      9  C   UNL d   1      10.058   4.818 -12.425  0.00  0.00     0.151 C 
BRANCH   9  10
ATOM     10  O   UNL d   1       9.368   4.631 -11.179  0.00  0.00    -0.331 OA
BRANCH  10  11
ATOM     11  C   UNL d   1       9.551   5.529 -10.139  0.00  0.00     0.090 A 
ATOM     12  C   UNL d   1       9.042   5.180  -8.854  0.00  0.00     0.000 A 
ATOM     13  C   UNL d   1       8.367   3.836  -8.635  0.00  0.00     0.033 C 
ATOM     14  C   UNL d   1       9.143   6.045  -7.739  0.00  0.00    -0.004 A 
ATOM     15  C   UNL d   1       9.806   7.261  -7.946  0.00  0.00     0.007 A 
ATOM     16  C   UNL d   1      10.068   8.377  -6.961  0.00  0.00     0.155 A 
ATOM     17  C   UNL d   1      10.318   7.605  -9.178  0.00  0.00     0.057 A 
ATOM     18  N   UNL d   1      10.806   9.321  -7.803  0.00  0.00    -0.229 NA
ATOM     19  C   UNL d   1      10.953   8.925  -9.081  0.00  0.00     0.275 A 
ATOM     20  O   UNL d   1      11.489   9.529 -10.004  0.00  0.00    -0.266 OA
ATOM     21  C   UNL d   1      10.229   6.776 -10.291  0.00  0.00     0.028 A 
ENDBRANCH  10  11
ENDBRANCH   9  10
ENDBRANCH   8   9
ENDBRANCH   7   8
ENDBRANCH   1   7
BRANCH   4  22
ATOM     22  C   UNL d   1       6.168  -0.639 -16.568  0.00  0.00     0.056 A 
ATOM     23  C   UNL d   1       6.420  -0.915 -17.950  0.00  0.00     0.016 A 
ATOM     24  C   UNL d   1       6.202  -2.244 -18.439  0.00  0.00     0.004 A 
ATOM     25  C   UNL d   1       6.883   0.056 -18.870  0.00  0.00     0.004 A 
ATOM     26  C   UNL d   1       5.690  -3.245 -17.584  0.00  0.00     0.000 A 
ATOM     27  C   UNL d   1       6.487  -2.579 -19.781  0.00  0.00     0.030 A 
ATOM     28  C   UNL d   1       5.377  -2.939 -16.260  0.00  0.00     0.002 A 
ATOM     29  C   UNL d   1       5.601  -1.646 -15.758  0.00  0.00     0.017 A 
ATOM     30  C   UNL d   1       6.983  -1.598 -20.663  0.00  0.00     0.140 A 
ATOM     31  F   UNL d   1       7.231  -1.919 -21.956  0.00  0.00    -0.204 F 
ATOM     32  C   UNL d   1       7.186  -0.287 -20.196  0.00  0.00     0.030 A 
ENDBRANCH   4  22
TORSDOF 6
