REMARK  4 active torsions:
REMARK  status: ('A' for Active; 'I' for Inactive)
REMARK    1  A    between atoms: C_5  and  O_6 
REMARK    2  A    between atoms: O_6  and  C_7 
REMARK    3  A    between atoms: C_7  and  C_8 
REMARK    4  A    between atoms: N_13  and  C_14 
ROOT
ATOM      1  C   UNL d   1       8.556   5.268 -11.832  0.00  0.00     0.064 C 
ATOM      2  C   UNL d   1       9.645   6.320 -12.067  0.00  0.00     0.007 C 
ATOM      3  C   UNL d   1       9.563   7.441 -11.037  0.00  0.00     0.035 C 
ATOM      4  C   UNL d   1       9.642   6.880  -9.614  0.00  0.00     0.241 C 
ATOM      5  C   UNL d   1       9.525   8.028  -8.590  0.00  0.00     0.135 C 
ATOM      6  N   UNL d   1       9.477   7.488  -7.247  0.00  0.00    -0.344 N 
ATOM      7  C   UNL d   1       8.476   6.467  -6.984  0.00  0.00     0.137 C 
ATOM      8  C   UNL d   1       8.599   5.363  -8.058  0.00  0.00     0.274 C 
ATOM      9  N   UNL d   1       8.571   5.898  -9.416  0.00  0.00     0.139 N 
ATOM     10  C   UNL d   1       8.661   4.796 -10.368  0.00  0.00     0.253 C 
ENDROOT
BRANCH   1  11
ATOM     11  C   UNL d   1       8.782   4.101 -12.816  0.00  0.00     0.151 C 
BRANCH  11  12
ATOM     12  O   UNL d   1       8.934   4.581 -14.159  0.00  0.00    -0.331 OA
BRANCH  12  13
ATOM     13  C   UNL d   1       9.694   3.867 -15.069  0.00  0.00     0.094 A 
ATOM     14  C   UNL d   1       9.884   4.465 -16.334  0.00  0.00     0.026 A 
ATOM     15  C   UNL d   1      10.642   3.816 -17.334  0.00  0.00     0.032 A 
ATOM     16  C   UNL d   1      11.226   2.563 -17.068  0.00  0.00     0.140 A 
ATOM     17  F   UNL d   1      11.948   1.926 -18.025  0.00  0.00    -0.204 F 
ATOM     18  C   UNL d   1      11.049   1.963 -15.810  0.00  0.00     0.032 A 
ATOM     19  C   UNL d   1      10.278   2.602 -14.818  0.00  0.00     0.026 A 
ENDBRANCH  12  13
ENDBRANCH  11  12
ENDBRANCH   1  11
BRANCH   6  20
ATOM     20  C   UNL d   1      10.400   7.912  -6.262  0.00  0.00     0.056 A 
ATOM     21  C   UNL d   1      10.818   9.258  -6.232  0.00  0.00     0.019 A 
ATOM     22  C   UNL d   1      11.700   9.687  -5.240  0.00  0.00     0.031 A 
ATOM     23  C   UNL d   1      12.183   8.804  -4.263  0.00  0.00     0.140 A 
ATOM     24  C   UNL d   1      11.780   7.452  -4.298  0.00  0.00     0.031 A 
ATOM     25  F   UNL d   1      13.014   9.212  -3.295  0.00  0.00    -0.204 F 
ATOM     26  C   UNL d   1      10.894   7.030  -5.298  0.00  0.00     0.019 A 
ENDBRANCH   6  20
TORSDOF 4
