REMARK  4 active torsions:
REMARK  status: ('A' for Active; 'I' for Inactive)
REMARK       I    between atoms: C_2  and  N_4 
REMARK    1  A    between atoms: N_4  and  C_5 
REMARK    2  A    between atoms: C_9  and  C_10 
REMARK    3  A    between atoms: N_12  and  S_13 
REMARK    4  A    between atoms: S_13  and  C_16 
ROOT
ATOM      1  C   UNL d   1       8.382   3.385 -14.512  0.00  0.00     0.039 C 
ATOM      2  C   UNL d   1       9.169   3.790 -15.569  0.00  0.00     0.093 C 
ATOM      3  N   UNL d   1       8.971   2.950 -16.670  0.00  0.00    -0.231 N 
ATOM      4  C   UNL d   1       7.969   2.012 -16.349  0.00  0.00     0.075 C 
ATOM      5  C   UNL d   1       7.359   0.955 -17.074  0.00  0.00     0.021 C 
ATOM      6  C   UNL d   1       6.598  -0.033 -16.429  0.00  0.00     0.031 C 
ATOM      7  C   UNL d   1       6.292   0.150 -15.067  0.00  0.00     0.140 C 
ATOM      8  F   UNL d   1       5.453  -0.712 -14.406  0.00  0.00    -0.204 F 
ATOM      9  C   UNL d   1       6.804   1.245 -14.341  0.00  0.00     0.031 C 
ATOM     10  C   UNL d   1       7.676   2.197 -14.968  0.00  0.00     0.022 C 
ENDROOT
BRANCH   1  11
ATOM     11  C   UNL d   1       8.206   4.052 -13.203  0.00  0.00     0.115 A 
ATOM     12  C   UNL d   1       7.112   4.087 -12.341  0.00  0.00     0.096 A 
ATOM     13  N   UNL d   1       7.529   4.808 -11.236  0.00  0.00    -0.062 NA
ATOM     14  C   UNL d   1       5.732   3.474 -12.391  0.00  0.00     0.054 C 
ATOM     15  C   UNL d   1       8.758   5.246 -11.490  0.00  0.00     0.752 A 
ATOM     16  N   UNL d   1       9.241   4.830 -12.655  0.00  0.00    -0.058 NA
BRANCH  15  17
ATOM     17  N   UNL d   1       9.482   5.976 -10.528  0.00  0.00    -0.023 NA
ATOM     18  C   UNL d   1       9.825   7.266 -10.632  0.00  0.00     0.273 C 
ATOM     19  C   UNL d   1      10.624   7.838  -9.464  0.00  0.00     0.101 C 
ATOM     20  O   UNL d   1       9.512   7.979 -11.586  0.00  0.00    -0.270 OA
ENDBRANCH  15  17
ENDBRANCH   1  11
BRANCH   3  21
ATOM     21  S   UNL d   1       9.789   3.111 -18.169  0.00  0.00     0.271 S 
ATOM     22  O   UNL d   1       8.697   3.064 -19.178  0.00  0.00    -0.200 OA
ATOM     23  O   UNL d   1      10.624   4.300 -18.031  0.00  0.00    -0.200 OA
BRANCH  21  24
ATOM     24  C   UNL d   1      10.792   1.597 -18.307  0.00  0.00     0.104 A 
ATOM     25  C   UNL d   1      12.162   1.729 -18.761  0.00  0.00     0.013 A 
ATOM     26  C   UNL d   1      12.925   0.545 -18.856  0.00  0.00     0.001 A 
ATOM     27  C   UNL d   1      12.381  -0.712 -18.534  0.00  0.00     0.000 A 
ATOM     28  C   UNL d   1      11.023  -0.790 -18.082  0.00  0.00     0.001 A 
ATOM     29  C   UNL d   1      10.254   0.350 -17.937  0.00  0.00     0.013 A 
ENDBRANCH  21  24
ENDBRANCH   3  21
TORSDOF 4
