REMARK  8 active torsions:
REMARK  status: ('A' for Active; 'I' for Inactive)
REMARK    1  A    between atoms: O_2  and  C_3 
REMARK    2  A    between atoms: C_8  and  N_9 
REMARK    3  A    between atoms: N_12  and  C_13 
REMARK    4  A    between atoms: C_13  and  C_14 
REMARK    5  A    between atoms: C_14  and  C_16 
REMARK    6  A    between atoms: C_16  and  C_17 
REMARK    7  A    between atoms: C_17  and  N_18 
REMARK    8  A    between atoms: C_20  and  C_21 
ROOT
ATOM      1  C   UNL d   1       7.166   5.558 -12.157  0.00  0.00     0.188 C 
ATOM      2  O   UNL d   1       6.132   6.386 -11.696  0.00  0.00    -0.221 OA
ENDROOT
BRANCH   1   3
ATOM      3  C   UNL d   1       6.527   4.508 -13.100  0.00  0.00     0.283 C 
BRANCH   3   4
ATOM      4  N   UNL d   1       7.422   3.447 -13.563  0.00  0.00     0.144 N 
ATOM      5  C   UNL d   1       8.619   3.927 -14.268  0.00  0.00     0.274 C 
ATOM      6  C   UNL d   1       9.566   2.770 -14.597  0.00  0.00     0.137 C 
ATOM      7  N   UNL d   1       8.856   1.756 -15.368  0.00  0.00    -0.343 N 
ATOM      8  C   UNL d   1       7.614   1.267 -14.770  0.00  0.00     0.137 C 
ATOM      9  C   UNL d   1       6.710   2.459 -14.386  0.00  0.00     0.274 C 
BRANCH   7  10
ATOM     10  C   UNL d   1       9.350   1.330 -16.613  0.00  0.00     0.079 A 
ATOM     11  C   UNL d   1       8.500   1.123 -17.737  0.00  0.00     0.110 A 
ATOM     12  C   UNL d   1       9.079   0.675 -18.950  0.00  0.00     0.026 A 
ATOM     13  C   UNL d   1      10.467   0.473 -19.064  0.00  0.00     0.002 A 
ATOM     14  C   UNL d   1      11.302   0.703 -17.961  0.00  0.00     0.002 A 
ATOM     15  C   UNL d   1      10.744   1.121 -16.743  0.00  0.00     0.019 A 
BRANCH  11  16
ATOM     16  O   UNL d   1       7.151   1.413 -17.619  0.00  0.00    -0.327 OA
ATOM     17  C   UNL d   1       6.266   0.959 -18.634  0.00  0.00     0.181 C 
ENDBRANCH  11  16
ENDBRANCH   7  10
ENDBRANCH   3   4
ENDBRANCH   1   3
BRANCH   1  18
ATOM     18  C   UNL d   1       7.857   4.910 -10.933  0.00  0.00     0.061 C 
BRANCH  18  19
ATOM     19  C   UNL d   1       9.399   5.042 -10.897  0.00  0.00     0.132 C 
BRANCH  19  20
ATOM     20  N   UNL d   1       9.796   6.120 -10.015  0.00  0.00    -0.230 N 
ATOM     21  N   UNL d   1      10.020   7.358 -10.509  0.00  0.00    -0.064 NA
ATOM     22  N   UNL d   1      10.419   8.094  -9.524  0.00  0.00    -0.129 NA
ATOM     23  C   UNL d   1      10.393   7.346  -8.346  0.00  0.00     0.123 A 
ATOM     24  C   UNL d   1       9.979   6.079  -8.654  0.00  0.00     0.118 A 
BRANCH  23  25
ATOM     25  C   UNL d   1      10.770   7.921  -7.061  0.00  0.00     0.021 A 
ATOM     26  C   UNL d   1      11.106   7.076  -5.988  0.00  0.00     0.002 A 
ATOM     27  C   UNL d   1      11.476   7.628  -4.745  0.00  0.00     0.000 A 
ATOM     28  C   UNL d   1      11.480   9.036  -4.569  0.00  0.00     0.000 A 
ATOM     29  C   UNL d   1      11.866   6.787  -3.692  0.00  0.00     0.000 A 
ATOM     30  C   UNL d   1      11.129   9.877  -5.638  0.00  0.00     0.000 A 
ATOM     31  C   UNL d   1      11.860   9.579  -3.324  0.00  0.00     0.000 A 
ATOM     32  C   UNL d   1      10.781   9.319  -6.880  0.00  0.00     0.002 A 
ATOM     33  C   UNL d   1      12.250   8.733  -2.274  0.00  0.00     0.000 A 
ATOM     34  C   UNL d   1      12.255   7.336  -2.453  0.00  0.00     0.000 A 
ENDBRANCH  23  25
ENDBRANCH  19  20
ENDBRANCH  18  19
ENDBRANCH   1  18
TORSDOF 8
