REMARK  7 active torsions:
REMARK  status: ('A' for Active; 'I' for Inactive)
REMARK    1  A    between atoms: C_2  and  C_3 
REMARK       I    between atoms: C_2  and  N_10 
REMARK    2  A    between atoms: C_3  and  C_4 
REMARK    3  A    between atoms: N_10  and  C_11 
REMARK    4  A    between atoms: C_14  and  C_15 
REMARK    5  A    between atoms: C_15  and  C_16 
REMARK    6  A    between atoms: C_16  and  N_17 
REMARK    7  A    between atoms: C_20  and  C_21 
ROOT
ATOM      1  C   UNL d   1       9.290   5.767 -11.588  0.00  0.00     0.035 C 
ENDROOT
BRANCH   1   2
ATOM      2  C   UNL d   1       9.368   4.574 -12.560  0.00  0.00     0.002 C 
ATOM      3  C   UNL d   1       8.056   4.401 -13.336  0.00  0.00     0.002 C 
ATOM      4  C   UNL d   1       8.131   3.206 -14.288  0.00  0.00     0.024 C 
ATOM      5  C   UNL d   1       9.317   3.370 -15.261  0.00  0.00     0.106 C 
ATOM      6  C   UNL d   1      10.644   3.540 -14.491  0.00  0.00     0.024 C 
ATOM      7  C   UNL d   1      10.554   4.718 -13.530  0.00  0.00     0.002 C 
BRANCH   5   8
ATOM      8  N   UNL d   1       9.400   2.235 -16.167  0.00  0.00    -0.240 NA
ATOM      9  C   UNL d   1      10.056   2.191 -17.338  0.00  0.00     0.254 C 
ATOM     10  O   UNL d   1      10.050   1.173 -18.027  0.00  0.00    -0.271 OA
BRANCH   9  11
ATOM     11  C   UNL d   1      10.836   3.432 -17.789  0.00  0.00     0.122 C 
BRANCH  11  12
ATOM     12  C   UNL d   1      10.688   3.809 -19.282  0.00  0.00     0.154 C 
ATOM     13  O   UNL d   1      11.672   4.793 -19.616  0.00  0.00    -0.351 OA
ATOM     14  C   UNL d   1      11.470   6.064 -18.986  0.00  0.00     0.174 C 
ATOM     15  C   UNL d   1      10.073   6.582 -19.367  0.00  0.00     0.174 C 
ATOM     16  O   UNL d   1       9.094   5.620 -18.986  0.00  0.00    -0.349 OA
ATOM     17  C   UNL d   1       9.295   4.373 -19.644  0.00  0.00     0.172 C 
ENDBRANCH  11  12
ENDBRANCH   9  11
ENDBRANCH   5   8
ENDBRANCH   1   2
BRANCH   1  18
ATOM     18  C   UNL d   1       8.703   5.400 -10.207  0.00  0.00     0.250 C 
BRANCH  18  19
ATOM     19  N   UNL d   1       9.154   6.291  -9.133  0.00  0.00     0.137 N 
ATOM     20  C   UNL d   1       8.629   5.793  -7.865  0.00  0.00     0.251 C 
ATOM     21  C   UNL d   1       9.019   6.735  -6.710  0.00  0.00     0.040 C 
ATOM     22  C   UNL d   1      10.545   6.913  -6.630  0.00  0.00     0.028 C 
ATOM     23  C   UNL d   1      11.095   7.293  -8.000  0.00  0.00     0.040 C 
ATOM     24  C   UNL d   1      10.617   6.314  -9.066  0.00  0.00     0.251 C 
BRANCH  22  25
ATOM     25  C   UNL d   1      10.928   7.957  -5.597  0.00  0.00     0.002 A 
ATOM     26  C   UNL d   1      11.536   7.612  -4.372  0.00  0.00     0.115 A 
ATOM     27  C   UNL d   1      11.858   8.572  -3.428  0.00  0.00     0.119 A 
ATOM     28  O   UNL d   1      11.865   6.398  -3.890  0.00  0.00    -0.300 OA
ATOM     29  C   UNL d   1      11.592   9.931  -3.635  0.00  0.00     0.026 A 
ATOM     30  O   UNL d   1      12.414   7.977  -2.336  0.00  0.00    -0.300 OA
ATOM     31  C   UNL d   1      11.010  10.300  -4.871  0.00  0.00     0.002 A 
ATOM     32  C   UNL d   1      10.665   9.326  -5.830  0.00  0.00    -0.002 A 
ATOM     33  C   UNL d   1      12.409   6.601  -2.611  0.00  0.00     0.304 A 
ENDBRANCH  22  25
ENDBRANCH  18  19
ENDBRANCH   1  18
TORSDOF 7
