REMARK  6 active torsions:
REMARK  status: ('A' for Active; 'I' for Inactive)
REMARK       I    between atoms: N_10  and  C_11 
REMARK    1  A    between atoms: C_11  and  C_13 
REMARK    2  A    between atoms: C_13  and  N_14 
REMARK    3  A    between atoms: N_17  and  C_18 
REMARK    4  A    between atoms: C_18  and  C_19 
REMARK    5  A    between atoms: C_22  and  O_23 
REMARK    6  A    between atoms: O_23  and  C_24 
ROOT
ATOM      1  N   UNL d   1       9.890   4.882 -13.216  0.00  0.00     0.151 N 
ATOM      2  C   UNL d   1       9.059   3.687 -13.021  0.00  0.00     0.286 C 
ATOM      3  C   UNL d   1       9.686   2.480 -13.719  0.00  0.00     0.286 C 
ATOM      4  N   UNL d   1       9.847   2.698 -15.155  0.00  0.00     0.146 N 
ATOM      5  C   UNL d   1      10.686   3.887 -15.332  0.00  0.00     0.286 C 
ATOM      6  C   UNL d   1      10.052   5.088 -14.651  0.00  0.00     0.286 C 
ENDROOT
BRANCH   1   7
ATOM      7  C   UNL d   1       9.344   6.083 -12.581  0.00  0.00     0.337 C 
BRANCH   7   8
ATOM      8  C   UNL d   1       9.337   6.102 -11.045  0.00  0.00     0.271 C 
ATOM      9  N   UNL d   1       9.657   7.244 -10.403  0.00  0.00    -0.299 N 
ATOM     10  C   UNL d   1       9.914   8.559 -11.078  0.00  0.00     0.093 A 
ATOM     11  C   UNL d   1       9.857   7.372  -8.986  0.00  0.00     0.058 A 
ATOM     12  C   UNL d   1       8.763   9.088 -11.992  0.00  0.00     0.025 C 
ATOM     13  C   UNL d   1      10.234   9.495  -9.897  0.00  0.00     0.051 A 
ATOM     14  C   UNL d   1      10.201   8.659  -8.666  0.00  0.00    -0.004 A 
ATOM     15  C   UNL d   1      10.416   9.069  -7.331  0.00  0.00    -0.003 A 
ATOM     16  C   UNL d   1      10.288   8.115  -6.306  0.00  0.00    -0.000 A 
ATOM     17  C   UNL d   1       9.943   6.797  -6.635  0.00  0.00     0.002 A 
ATOM     18  C   UNL d   1       9.717   6.397  -7.965  0.00  0.00     0.017 A 
ATOM     19  O   UNL d   1       9.001   5.068 -10.458  0.00  0.00    -0.270 OA
ENDBRANCH   7   8
ENDBRANCH   1   7
BRANCH   4  20
ATOM     20  C   UNL d   1      10.395   1.506 -15.789  0.00  0.00     0.277 C 
BRANCH  20  21
ATOM     21  C   UNL d   1      10.014   1.359 -17.250  0.00  0.00     0.011 A 
ATOM     22  C   UNL d   1       9.567   0.095 -17.725  0.00  0.00    -0.000 A 
ATOM     23  C   UNL d   1       9.202  -0.063 -19.087  0.00  0.00     0.024 A 
ATOM     24  C   UNL d   1       9.270   1.041 -19.974  0.00  0.00     0.102 A 
ATOM     25  C   UNL d   1       9.708   2.288 -19.473  0.00  0.00     0.024 A 
ATOM     26  C   UNL d   1      10.088   2.448 -18.146  0.00  0.00    -0.000 A 
BRANCH  24  27
ATOM     27  O   UNL d   1       8.924   0.841 -21.293  0.00  0.00    -0.253 OA
BRANCH  27  28
ATOM     28  C   UNL d   1       8.959   1.873 -22.186  0.00  0.00     0.530 C 
ATOM     29  F   UNL d   1      10.204   2.391 -22.309  0.00  0.00    -0.144 F 
ATOM     30  F   UNL d   1       8.597   1.432 -23.424  0.00  0.00    -0.144 F 
ATOM     31  F   UNL d   1       8.107   2.877 -21.848  0.00  0.00    -0.144 F 
ENDBRANCH  27  28
ENDBRANCH  24  27
ENDBRANCH  20  21
ENDBRANCH   4  20
TORSDOF 6
