REMARK  5 active torsions:
REMARK  status: ('A' for Active; 'I' for Inactive)
REMARK    1  A    between atoms: C_2  and  N_3 
REMARK    2  A    between atoms: C_7  and  C_8 
REMARK    3  A    between atoms: C_8  and  N_9 
REMARK       I    between atoms: N_9  and  C_10 
REMARK    4  A    between atoms: C_10  and  C_12 
REMARK    5  A    between atoms: C_19  and  O_20 
ROOT
ATOM      1  N   UNL d   1      10.738   7.314  -7.818  0.00  0.00    -0.232 NA
ATOM      2  C   UNL d   1       9.657   6.573  -8.058  0.00  0.00     0.277 C 
ATOM      3  O   UNL d   1       8.992   5.989  -7.210  0.00  0.00    -0.266 OA
ENDROOT
BRANCH   2   4
ATOM      4  C   UNL d   1       9.361   6.455  -9.512  0.00  0.00     0.084 A 
ATOM      5  C   UNL d   1       9.563   7.540 -10.410  0.00  0.00     0.124 A 
ATOM      6  C   UNL d   1       9.094   7.435 -11.719  0.00  0.00     0.155 A 
ATOM      7  C   UNL d   1       8.514   6.243 -12.207  0.00  0.00     0.059 A 
ATOM      8  O   UNL d   1       9.113   8.542 -12.485  0.00  0.00    -0.188 OA
ATOM      9  C   UNL d   1       8.340   5.162 -11.333  0.00  0.00     0.142 A 
ATOM     10  C   UNL d   1       8.757   5.271  -9.995  0.00  0.00     0.037 A 
ATOM     11  F   UNL d   1       7.729   4.037 -11.784  0.00  0.00    -0.204 F 
BRANCH   5  12
ATOM     12  O   UNL d   1      10.074   8.763 -10.009  0.00  0.00    -0.326 OA
ATOM     13  C   UNL d   1      11.462   8.948 -10.248  0.00  0.00     0.181 C 
ENDBRANCH   5  12
ENDBRANCH   2   4
BRANCH   1  14
ATOM     14  C   UNL d   1      11.564   7.348  -6.675  0.00  0.00     0.162 C 
BRANCH  14  15
ATOM     15  C   UNL d   1      10.925   8.084  -5.491  0.00  0.00     0.243 C 
ATOM     16  N   UNL d   1      11.835   8.203  -4.354  0.00  0.00     0.137 N 
ATOM     17  C   UNL d   1      11.356   9.326  -3.533  0.00  0.00     0.250 C 
ATOM     18  C   UNL d   1      10.768  10.292  -4.563  0.00  0.00     0.037 C 
ATOM     19  C   UNL d   1      10.587   9.521  -5.855  0.00  0.00     0.037 C 
BRANCH  16  20
ATOM     20  C   UNL d   1      11.879   6.928  -3.649  0.00  0.00     0.250 C 
ATOM     21  C   UNL d   1      13.046   6.978  -2.725  0.00  0.00     0.037 C 
ENDBRANCH  16  20
ENDBRANCH  14  15
ENDBRANCH   1  14
TORSDOF 5
