REMARK  4 active torsions:
REMARK  status: ('A' for Active; 'I' for Inactive)
REMARK    1  A    between atoms: C_5  and  O_6 
REMARK    2  A    between atoms: O_6  and  C_7 
REMARK    3  A    between atoms: C_7  and  C_8 
REMARK    4  A    between atoms: N_13  and  C_14 
ROOT
ATOM      1  C   UNL d   1       8.041   5.236 -12.623  0.00  0.00     0.064 C 
ATOM      2  C   UNL d   1       8.791   4.950 -13.927  0.00  0.00     0.007 C 
ATOM      3  C   UNL d   1       8.801   3.435 -14.123  0.00  0.00     0.035 C 
ATOM      4  C   UNL d   1       7.365   2.866 -14.146  0.00  0.00     0.242 C 
ATOM      5  C   UNL d   1       7.405   1.345 -14.387  0.00  0.00     0.153 C 
ATOM      6  N   UNL d   1       6.061   0.790 -14.373  0.00  0.00    -0.179 N 
ATOM      7  C   UNL d   1       5.336   1.111 -13.152  0.00  0.00     0.155 C 
ATOM      8  C   UNL d   1       5.296   2.639 -12.900  0.00  0.00     0.275 C 
ATOM      9  N   UNL d   1       6.662   3.202 -12.896  0.00  0.00     0.139 N 
ATOM     10  C   UNL d   1       6.612   4.657 -12.679  0.00  0.00     0.253 C 
ENDROOT
BRANCH   1  11
ATOM     11  C   UNL d   1       7.990   6.749 -12.345  0.00  0.00     0.151 C 
BRANCH  11  12
ATOM     12  O   UNL d   1       9.229   7.296 -11.905  0.00  0.00    -0.331 OA
BRANCH  12  13
ATOM     13  C   UNL d   1       9.594   7.122 -10.587  0.00  0.00     0.094 A 
ATOM     14  C   UNL d   1      10.583   7.992 -10.077  0.00  0.00     0.026 A 
ATOM     15  C   UNL d   1      11.017   7.890  -8.742  0.00  0.00     0.032 A 
ATOM     16  C   UNL d   1      10.478   6.891  -7.907  0.00  0.00     0.140 A 
ATOM     17  F   UNL d   1      10.898   6.787  -6.620  0.00  0.00    -0.204 F 
ATOM     18  C   UNL d   1       9.496   6.010  -8.412  0.00  0.00     0.032 A 
ATOM     19  C   UNL d   1       9.040   6.132  -9.739  0.00  0.00     0.026 A 
ENDBRANCH  12  13
ENDBRANCH  11  12
ENDBRANCH   1  11
BRANCH   6  20
ATOM     20  C   UNL d   1       5.515   0.062 -15.436  0.00  0.00     0.727 A 
ATOM     21  N   UNL d   1       6.074   0.225 -16.640  0.00  0.00    -0.060 NA
ATOM     22  C   UNL d   1       5.536  -0.452 -17.672  0.00  0.00     0.120 A 
ATOM     23  C   UNL d   1       4.425  -1.296 -17.506  0.00  0.00     0.043 A 
ATOM     24  C   UNL d   1       3.917  -1.394 -16.196  0.00  0.00     0.120 A 
ATOM     25  N   UNL d   1       4.459  -0.711 -15.167  0.00  0.00    -0.060 NA
ENDBRANCH   6  20
TORSDOF 4
