REMARK  5 active torsions:
REMARK  status: ('A' for Active; 'I' for Inactive)
REMARK    1  A    between atoms: C_5  and  N_6 
REMARK    2  A    between atoms: N_9  and  C_10 
REMARK    3  A    between atoms: C_10  and  C_11 
REMARK    4  A    between atoms: C_11  and  C_12 
REMARK    5  A    between atoms: C_12  and  C_13 
ROOT
ATOM      1  N   UNL d   1       8.920   6.318 -11.371  0.00  0.00    -0.344 N 
ATOM      2  C   UNL d   1       7.790   5.409 -11.286  0.00  0.00     0.137 C 
ATOM      3  C   UNL d   1       8.094   4.143 -12.094  0.00  0.00     0.274 C 
ATOM      4  N   UNL d   1       8.412   4.456 -13.492  0.00  0.00     0.141 N 
ATOM      5  C   UNL d   1       9.599   5.316 -13.498  0.00  0.00     0.274 C 
ATOM      6  C   UNL d   1       9.303   6.629 -12.739  0.00  0.00     0.137 C 
ENDROOT
BRANCH   4   7
ATOM      7  C   UNL d   1       8.724   3.227 -14.216  0.00  0.00     0.251 C 
BRANCH   7   8
ATOM      8  C   UNL d   1       7.472   2.374 -14.494  0.00  0.00     0.044 C 
BRANCH   8   9
ATOM      9  C   UNL d   1       7.837   0.961 -14.960  0.00  0.00     0.074 C 
BRANCH   9  10
ATOM     10  C   UNL d   1       6.771   0.361 -15.816  0.00  0.00     0.159 A 
ATOM     11  O   UNL d   1       6.821   0.645 -17.157  0.00  0.00    -0.292 OA
ATOM     12  C   UNL d   1       5.748  -0.056 -17.663  0.00  0.00     0.119 A 
ATOM     13  C   UNL d   1       5.099  -0.710 -16.590  0.00  0.00     0.106 A 
ATOM     14  C   UNL d   1       5.325  -0.164 -18.997  0.00  0.00     0.026 A 
ATOM     15  N   UNL d   1       5.752  -0.408 -15.407  0.00  0.00    -0.224 NA
ATOM     16  C   UNL d   1       3.975  -1.507 -16.887  0.00  0.00     0.021 A 
ATOM     17  C   UNL d   1       3.536  -1.637 -18.224  0.00  0.00     0.002 A 
ATOM     18  C   UNL d   1       4.205  -0.969 -19.274  0.00  0.00     0.002 A 
ENDBRANCH   9  10
ENDBRANCH   8   9
ENDBRANCH   7   8
ENDBRANCH   4   7
BRANCH   1  19
ATOM     19  C   UNL d   1       9.502   6.925 -10.243  0.00  0.00     0.056 A 
ATOM     20  C   UNL d   1       9.481   6.292  -8.975  0.00  0.00     0.018 A 
ATOM     21  C   UNL d   1      10.081   6.901  -7.852  0.00  0.00     0.013 A 
ATOM     22  C   UNL d   1      10.714   8.152  -7.981  0.00  0.00     0.058 A 
ATOM     23 CL   UNL d   1      11.454   8.903  -6.621  0.00  0.00    -0.082 Cl
ATOM     24  C   UNL d   1      10.737   8.793  -9.231  0.00  0.00     0.013 A 
ATOM     25  C   UNL d   1      10.123   8.194 -10.347  0.00  0.00     0.018 A 
ENDBRANCH   1  19
TORSDOF 5
