REMARK  8 active torsions:
REMARK  status: ('A' for Active; 'I' for Inactive)
REMARK    1  A    between atoms: C_9  and  C_10 
REMARK    2  A    between atoms: C_10  and  C_12 
REMARK    3  A    between atoms: C_12  and  N_13 
REMARK    4  A    between atoms: N_13  and  C_14 
REMARK    5  A    between atoms: C_14  and  C_15 
REMARK    6  A    between atoms: C_15  and  C_16 
REMARK    7  A    between atoms: C_20  and  C_21 
REMARK    8  A    between atoms: C_21  and  N_22 
ROOT
ATOM      1  N   UNL d   1       7.254   5.424 -11.502  0.00  0.00     0.343 N 
ENDROOT
BRANCH   1   2
ATOM      2  C   UNL d   1       7.487   4.117 -12.081  0.00  0.00     0.327 C 
BRANCH   2   3
ATOM      3  C   UNL d   1       7.116   4.092 -13.562  0.00  0.00     0.211 C 
ATOM      4  O   UNL d   1       5.706   4.093 -13.612  0.00  0.00    -0.216 OA
BRANCH   3   5
ATOM      5  C   UNL d   1       7.738   2.896 -14.281  0.00  0.00     0.018 A 
ATOM      6  C   UNL d   1       7.026   1.686 -14.431  0.00  0.00     0.001 A 
ATOM      7  C   UNL d   1       7.607   0.580 -15.099  0.00  0.00     0.029 A 
ATOM      8  C   UNL d   1       8.921   0.660 -15.616  0.00  0.00     0.149 A 
ATOM      9  C   UNL d   1       9.631   1.859 -15.453  0.00  0.00     0.116 A 
ATOM     10  O   UNL d   1       9.480  -0.419 -16.247  0.00  0.00    -0.189 OA
ATOM     11  N   UNL d   1      10.938   2.125 -15.899  0.00  0.00    -0.200 NA
ATOM     12  C   UNL d   1       9.054   2.957 -14.794  0.00  0.00     0.052 A 
ATOM     13  C   UNL d   1      11.432   3.387 -15.617  0.00  0.00     0.311 A 
ATOM     14  O   UNL d   1      12.533   3.853 -15.898  0.00  0.00    -0.258 OA
ATOM     15  S   UNL d   1      10.157   4.307 -14.722  0.00  0.00    -0.024 SA
ENDBRANCH   3   5
ENDBRANCH   2   3
ENDBRANCH   1   2
BRANCH   1  16
ATOM     16  C   UNL d   1       7.899   5.583 -10.215  0.00  0.00     0.295 C 
BRANCH  16  17
ATOM     17  C   UNL d   1       9.077   6.555 -10.296  0.00  0.00     0.065 C 
BRANCH  17  18
ATOM     18  C   UNL d   1       9.726   6.775  -8.922  0.00  0.00    -0.020 C 
ATOM     19  C   UNL d   1       9.594   7.966  -8.175  0.00  0.00    -0.006 C 
ATOM     20  C   UNL d   1      10.249   8.054  -6.913  0.00  0.00     0.011 C 
ATOM     21  C   UNL d   1      10.980   6.963  -6.388  0.00  0.00    -0.002 C 
ATOM     22  C   UNL d   1      11.203   5.913  -7.233  0.00  0.00    -0.001 C 
ATOM     23  C   UNL d   1      10.473   5.716  -8.417  0.00  0.00    -0.004 C 
BRANCH  20  24
ATOM     24  C   UNL d   1      10.145   9.288  -6.113  0.00  0.00     0.277 C 
BRANCH  24  25
ATOM     25  N   UNL d   1      10.847   9.251  -4.834  0.00  0.00     0.141 N 
ATOM     26  C   UNL d   1      10.571  10.397  -4.025  0.00  0.00     0.251 C 
ATOM     27  C   UNL d   1      11.600  10.257  -2.893  0.00  0.00     0.037 C 
ATOM     28  C   UNL d   1      12.734   9.496  -3.520  0.00  0.00     0.037 C 
ATOM     29  C   UNL d   1      12.289   9.285  -4.958  0.00  0.00     0.251 C 
ENDBRANCH  24  25
ENDBRANCH  20  24
ENDBRANCH  17  18
ENDBRANCH  16  17
ENDBRANCH   1  16
TORSDOF 8
