REMARK  6 active torsions:
REMARK  status: ('A' for Active; 'I' for Inactive)
REMARK       I    between atoms: C_2  and  N_3 
REMARK    1  A    between atoms: C_2  and  C_30 
REMARK    2  A    between atoms: N_3  and  C_4 
REMARK    3  A    between atoms: C_10  and  C_11 
REMARK    4  A    between atoms: C_11  and  C_12 
REMARK    5  A    between atoms: C_12  and  N_13 
REMARK    6  A    between atoms: N_16  and  C_17 
ROOT
ATOM      1  C   UNL d   1       8.925   5.550 -12.097  0.00  0.00     0.062 C 
ENDROOT
BRANCH   1   2
ATOM      2  C   UNL d   1       8.272   4.433 -12.889  0.00  0.00    -0.020 A 
ATOM      3  C   UNL d   1       6.862   4.293 -12.908  0.00  0.00    -0.005 A 
ATOM      4  C   UNL d   1       6.258   3.241 -13.633  0.00  0.00    -0.005 A 
ATOM      5  C   UNL d   1       7.085   2.349 -14.340  0.00  0.00    -0.024 A 
ATOM      6  C   UNL d   1       6.665   1.152 -15.148  0.00  0.00     0.028 C 
ATOM      7  C   UNL d   1       8.468   2.486 -14.321  0.00  0.00    -0.004 A 
ATOM      8  C   UNL d   1       7.970   0.674 -15.815  0.00  0.00     0.034 C 
ATOM      9  C   UNL d   1       9.148   1.404 -15.116  0.00  0.00     0.129 C 
ATOM     10  C   UNL d   1       9.087   3.518 -13.595  0.00  0.00    -0.007 A 
BRANCH   9  11
ATOM     11  N   UNL d   1      10.127   1.954 -16.045  0.00  0.00    -0.228 NA
ATOM     12  C   UNL d   1      10.907   1.231 -16.863  0.00  0.00     0.347 C 
ATOM     13  O   UNL d   1      10.852   0.002 -16.928  0.00  0.00    -0.261 OA
BRANCH  12  14
ATOM     14  C   UNL d   1      11.863   2.027 -17.762  0.00  0.00     0.474 C 
ATOM     15  F   UNL d   1      12.667   1.206 -18.438  0.00  0.00    -0.162 F 
ATOM     16  F   UNL d   1      11.149   2.746 -18.628  0.00  0.00    -0.162 F 
ATOM     17  F   UNL d   1      12.598   2.849 -17.014  0.00  0.00    -0.162 F 
ENDBRANCH  12  14
ENDBRANCH   9  11
ENDBRANCH   1   2
BRANCH   1  18
ATOM     18  C   UNL d   1       8.506   5.593 -10.615  0.00  0.00     0.255 C 
BRANCH  18  19
ATOM     19  N   UNL d   1       9.643   5.959  -9.778  0.00  0.00     0.141 N 
ATOM     20  C   UNL d   1       9.289   5.707  -8.383  0.00  0.00     0.274 C 
ATOM     21  C   UNL d   1      10.485   6.015  -7.479  0.00  0.00     0.138 C 
ATOM     22  N   UNL d   1      10.964   7.368  -7.660  0.00  0.00    -0.329 N 
ATOM     23  C   UNL d   1      11.196   7.737  -9.052  0.00  0.00     0.138 C 
ATOM     24  C   UNL d   1       9.977   7.381  -9.924  0.00  0.00     0.274 C 
BRANCH  22  25
ATOM     25  C   UNL d   1      11.081   8.266  -6.573  0.00  0.00     0.148 A 
ATOM     26  C   UNL d   1      11.460   7.867  -5.217  0.00  0.00     0.042 A 
ATOM     27  C   UNL d   1      11.499   9.024  -4.378  0.00  0.00     0.050 A 
ATOM     28  C   UNL d   1      11.855   6.654  -4.610  0.00  0.00     0.004 A 
ATOM     29  S   UNL d   1      11.062  10.391  -5.356  0.00  0.00     0.015 SA
ATOM     30  C   UNL d   1      11.860   8.969  -3.013  0.00  0.00     0.008 A 
ATOM     31  N   UNL d   1      10.863   9.549  -6.779  0.00  0.00    -0.192 NA
ATOM     32  C   UNL d   1      12.215   7.737  -2.435  0.00  0.00     0.001 A 
ATOM     33  C   UNL d   1      12.202   6.585  -3.244  0.00  0.00     0.000 A 
ENDBRANCH  22  25
ENDBRANCH  18  19
ENDBRANCH   1  18
TORSDOF 6
