REMARK  6 active torsions:
REMARK  status: ('A' for Active; 'I' for Inactive)
REMARK    1  A    between atoms: O_2  and  C_3 
REMARK    2  A    between atoms: C_6  and  O_7 
REMARK    3  A    between atoms: O_7  and  C_8 
REMARK    4  A    between atoms: C_8  and  C_9 
REMARK    5  A    between atoms: C_9  and  N_10 
REMARK       I    between atoms: N_13  and  C_14 
REMARK    6  A    between atoms: C_14  and  C_16 
ROOT
ATOM      1  N   UNL d   1       9.728   5.736 -11.043  0.00  0.00     0.144 N 
ATOM      2  C   UNL d   1       8.863   6.912 -11.133  0.00  0.00     0.274 C 
ATOM      3  C   UNL d   1       9.544   8.135 -10.452  0.00  0.00     0.140 C 
ATOM      4  N   UNL d   1       9.942   7.807  -9.051  0.00  0.00    -0.312 N 
ATOM      5  C   UNL d   1       9.592   8.568  -7.991  0.00  0.00     0.263 C 
ATOM      6  O   UNL d   1       8.745   9.446  -8.061  0.00  0.00    -0.267 OA
ATOM      7  C   UNL d   1      10.787   6.617  -8.985  0.00  0.00     0.140 C 
ATOM      8  C   UNL d   1       9.991   5.465  -9.624  0.00  0.00     0.274 C 
ENDROOT
BRANCH   1   9
ATOM      9  C   UNL d   1       9.112   4.564 -11.665  0.00  0.00     0.283 C 
BRANCH   9  10
ATOM     10  C   UNL d   1       8.902   4.788 -13.185  0.00  0.00     0.184 C 
BRANCH  10  11
ATOM     11  O   UNL d   1       9.387   3.672 -13.920  0.00  0.00    -0.329 OA
BRANCH  11  12
ATOM     12  C   UNL d   1       8.533   2.651 -14.262  0.00  0.00     0.094 A 
ATOM     13  C   UNL d   1       9.110   1.549 -14.928  0.00  0.00     0.026 A 
ATOM     14  C   UNL d   1       8.316   0.468 -15.357  0.00  0.00     0.026 A 
ATOM     15  C   UNL d   1       6.928   0.464 -15.117  0.00  0.00     0.094 A 
ATOM     16  C   UNL d   1       6.356   1.560 -14.425  0.00  0.00     0.026 A 
ATOM     17  C   UNL d   1       7.138   2.656 -14.024  0.00  0.00     0.026 A 
BRANCH  15  18
ATOM     18  O   UNL d   1       6.206  -0.618 -15.572  0.00  0.00    -0.328 OA
ATOM     19  C   UNL d   1       4.848  -0.726 -15.173  0.00  0.00     0.181 C 
ENDBRANCH  15  18
ENDBRANCH  11  12
ENDBRANCH  10  11
ENDBRANCH   9  10
ENDBRANCH   1   9
BRANCH   5  20
ATOM     20  C   UNL d   1      10.290   8.409  -6.696  0.00  0.00     0.085 A 
ATOM     21  S   UNL d   1      10.770   9.889  -5.908  0.00  0.00    -0.082 SA
ATOM     22  C   UNL d   1      11.423   9.024  -4.539  0.00  0.00     0.030 A 
ATOM     23  C   UNL d   1      11.311   7.609  -4.772  0.00  0.00     0.007 A 
ATOM     24  C   UNL d   1      11.968   9.542  -3.345  0.00  0.00     0.006 A 
ATOM     25  C   UNL d   1      10.587   7.283  -5.974  0.00  0.00     0.012 A 
ATOM     26  C   UNL d   1      11.845   6.775  -3.772  0.00  0.00     0.001 A 
ATOM     27  C   UNL d   1      12.420   7.265  -2.591  0.00  0.00     0.000 A 
ATOM     28  C   UNL d   1      12.484   8.659  -2.373  0.00  0.00     0.001 A 
ENDBRANCH   5  20
TORSDOF 6
