REMARK  3 active torsions:
REMARK  status: ('A' for Active; 'I' for Inactive)
REMARK    1  A    between atoms: C_5  and  C_6 
REMARK    2  A    between atoms: N_9  and  C_10 
REMARK    3  A    between atoms: C_10  and  C_11 
ROOT
ATOM      1  C   UNL d   1       9.342   6.952  -8.709  0.00  0.00     0.026 C 
ATOM      2  C   UNL d   1       8.837   5.495  -8.628  0.00  0.00     0.040 C 
ATOM      3  C   UNL d   1       8.178   5.060  -9.945  0.00  0.00     0.251 C 
ATOM      4  N   UNL d   1       9.126   5.190 -11.059  0.00  0.00     0.141 N 
ATOM      5  C   UNL d   1       9.468   6.609 -11.212  0.00  0.00     0.251 C 
ATOM      6  C   UNL d   1      10.186   7.142  -9.967  0.00  0.00     0.040 C 
ENDROOT
BRANCH   4   7
ATOM      7  C   UNL d   1       8.511   4.665 -12.278  0.00  0.00     0.277 C 
BRANCH   7   8
ATOM      8  C   UNL d   1       9.498   4.232 -13.358  0.00  0.00     0.013 A 
ATOM      9  C   UNL d   1      10.307   5.188 -14.009  0.00  0.00     0.019 A 
ATOM     10  C   UNL d   1      11.254   4.776 -14.962  0.00  0.00     0.106 A 
ATOM     11  C   UNL d   1      11.371   3.415 -15.329  0.00  0.00     0.112 A 
ATOM     12  N   UNL d   1      12.137   5.714 -15.529  0.00  0.00    -0.208 NA
ATOM     13  C   UNL d   1      10.554   2.458 -14.700  0.00  0.00     0.025 A 
ATOM     14  O   UNL d   1      12.292   3.029 -16.276  0.00  0.00    -0.319 OA
ATOM     15  C   UNL d   1       9.626   2.877 -13.720  0.00  0.00    -0.000 A 
ATOM     16  C   UNL d   1      12.733   4.032 -17.205  0.00  0.00     0.238 C 
ATOM     17  C   UNL d   1      12.931   5.416 -16.558  0.00  0.00     0.286 C 
ATOM     18  O   UNL d   1      13.753   6.216 -16.997  0.00  0.00    -0.267 OA
ENDBRANCH   7   8
ENDBRANCH   4   7
BRANCH   1  19
ATOM     19  C   UNL d   1      10.057   7.447  -7.470  0.00  0.00    -0.022 A 
ATOM     20  C   UNL d   1      10.846   6.561  -6.723  0.00  0.00    -0.005 A 
ATOM     21  C   UNL d   1      11.464   6.966  -5.537  0.00  0.00    -0.005 A 
ATOM     22  C   UNL d   1      11.402   8.318  -5.145  0.00  0.00    -0.022 A 
ATOM     23  C   UNL d   1      12.171   8.768  -3.929  0.00  0.00     0.031 C 
ATOM     24  C   UNL d   1      10.657   9.239  -5.912  0.00  0.00    -0.005 A 
ATOM     25  C   UNL d   1       9.966   8.795  -7.060  0.00  0.00    -0.005 A 
ENDBRANCH   1  19
TORSDOF 3
