REMARK  5 active torsions:
REMARK  status: ('A' for Active; 'I' for Inactive)
REMARK    1  A    between atoms: C_2  and  C_3 
REMARK    2  A    between atoms: C_3  and  N_4 
REMARK    3  A    between atoms: N_4  and  C_5 
REMARK    4  A    between atoms: N_4  and  C_8 
REMARK    5  A    between atoms: C_5  and  C_6 
ROOT
ATOM      1  C   UNL d   1      11.049   7.205  -7.182  0.00  0.00     0.224 C 
ATOM      2  C   UNL d   1       9.718   6.405  -7.135  0.00  0.00     0.040 C 
ATOM      3  C   UNL d   1       9.327   5.668  -8.426  0.00  0.00     0.049 C 
ATOM      4  C   UNL d   1       9.578   6.525  -9.617  0.00  0.00     0.078 A 
ATOM      5  N   UNL d   1       9.072   6.287 -10.805  0.00  0.00    -0.153 NA
ATOM      6  N   UNL d   1       9.466   7.356 -11.518  0.00  0.00    -0.147 NA
ATOM      7  C   UNL d   1      10.243   8.259 -10.809  0.00  0.00     0.119 A 
ATOM      8  C   UNL d   1      10.364   7.698  -9.557  0.00  0.00     0.016 A 
ATOM      9  C   UNL d   1      10.967   8.287  -8.331  0.00  0.00     0.062 C 
ENDROOT
BRANCH   1  10
ATOM     10  N   UNL d   1      11.389   7.813  -5.867  0.00  0.00     0.135 N 
BRANCH  10  11
ATOM     11  C   UNL d   1      10.454   8.874  -5.416  0.00  0.00     0.250 C 
BRANCH  11  12
ATOM     12  C   UNL d   1      10.799  10.284  -5.930  0.00  0.00     0.035 C 
ATOM     13  C   UNL d   1      12.317  10.488  -6.151  0.00  0.00     0.002 C 
ENDBRANCH  11  12
ENDBRANCH  10  11
BRANCH  10  14
ATOM     14  C   UNL d   1      11.648   6.822  -4.805  0.00  0.00     0.250 C 
BRANCH  14  15
ATOM     15  C   UNL d   1      12.251   7.419  -3.495  0.00  0.00     0.035 C 
ATOM     16  C   UNL d   1      12.326   6.395  -2.363  0.00  0.00     0.002 C 
ENDBRANCH  14  15
ENDBRANCH  10  14
ENDBRANCH   1  10
TORSDOF 5
