REMARK  7 active torsions:
REMARK  status: ('A' for Active; 'I' for Inactive)
REMARK    1  A    between atoms: N_11  and  C_12 
REMARK    2  A    between atoms: C_12  and  C_13 
REMARK    3  A    between atoms: C_13  and  C_14 
REMARK    4  A    between atoms: C_14  and  C_15 
REMARK    5  A    between atoms: C_15  and  N_16 
REMARK       I    between atoms: N_16  and  C_17 
REMARK    6  A    between atoms: C_17  and  C_19 
REMARK    7  A    between atoms: C_22  and  C_23 
ROOT
ATOM      1  N   UNL d   1       8.811   1.971 -20.620  0.00  0.00    -0.191 NA
ATOM      2  C   UNL d   1       8.175   1.545 -19.756  0.00  0.00     0.101 C 
ATOM      3  C   UNL d   1       7.374   1.014 -18.665  0.00  0.00     0.068 A 
ATOM      4  C   UNL d   1       6.244   0.217 -18.939  0.00  0.00     0.012 A 
ATOM      5  C   UNL d   1       5.460  -0.281 -17.882  0.00  0.00     0.025 A 
ATOM      6  C   UNL d   1       5.807   0.011 -16.550  0.00  0.00     0.090 A 
ATOM      7  C   UNL d   1       6.927   0.831 -16.270  0.00  0.00     0.003 A 
ATOM      8  C   UNL d   1       7.714   1.320 -17.331  0.00  0.00     0.008 A 
ATOM      9  C   UNL d   1       7.222   1.250 -14.838  0.00  0.00     0.062 C 
ATOM     10  C   UNL d   1       6.832   2.715 -14.597  0.00  0.00     0.255 C 
ATOM     11  N   UNL d   1       6.316   2.760 -13.240  0.00  0.00     0.137 N 
ATOM     12  C   UNL d   1       5.576   1.513 -13.097  0.00  0.00     0.253 C 
ATOM     13  C   UNL d   1       6.455   0.459 -13.776  0.00  0.00     0.070 C 
ATOM     14  C   UNL d   1       5.696  -0.756 -14.340  0.00  0.00     0.151 C 
ATOM     15  O   UNL d   1       5.011  -0.475 -15.549  0.00  0.00    -0.331 OA
ENDROOT
BRANCH  11  16
ATOM     16  C   UNL d   1       5.545   3.947 -12.890  0.00  0.00     0.250 C 
BRANCH  16  17
ATOM     17  C   UNL d   1       6.453   5.188 -12.892  0.00  0.00     0.037 C 
BRANCH  17  18
ATOM     18  C   UNL d   1       7.303   5.380 -11.627  0.00  0.00     0.029 C 
BRANCH  18  19
ATOM     19  C   UNL d   1       8.740   5.851 -11.937  0.00  0.00     0.129 C 
BRANCH  19  20
ATOM     20  N   UNL d   1       9.439   6.206 -10.706  0.00  0.00    -0.234 NA
ATOM     21  C   UNL d   1       9.846   7.439 -10.362  0.00  0.00     0.275 C 
ATOM     22  O   UNL d   1       9.859   8.389 -11.141  0.00  0.00    -0.266 OA
BRANCH  21  23
ATOM     23  C   UNL d   1      10.291   7.595  -8.934  0.00  0.00     0.058 A 
ATOM     24  C   UNL d   1      11.254   8.565  -8.587  0.00  0.00     0.005 A 
ATOM     25  C   UNL d   1      11.635   8.742  -7.241  0.00  0.00     0.000 A 
ATOM     26  C   UNL d   1      11.061   7.948  -6.220  0.00  0.00     0.000 A 
ATOM     27  C   UNL d   1      10.085   6.999  -6.570  0.00  0.00     0.000 A 
ATOM     28  C   UNL d   1       9.692   6.827  -7.907  0.00  0.00     0.005 A 
BRANCH  26  29
ATOM     29  C   UNL d   1      11.466   8.102  -4.816  0.00  0.00     0.000 A 
ATOM     30  C   UNL d   1      11.564   9.380  -4.233  0.00  0.00     0.000 A 
ATOM     31  C   UNL d   1      11.948   9.517  -2.887  0.00  0.00     0.000 A 
ATOM     32  C   UNL d   1      12.259   8.386  -2.113  0.00  0.00     0.000 A 
ATOM     33  C   UNL d   1      12.165   7.105  -2.680  0.00  0.00     0.000 A 
ATOM     34  C   UNL d   1      11.768   6.969  -4.024  0.00  0.00     0.000 A 
ENDBRANCH  26  29
ENDBRANCH  21  23
ENDBRANCH  19  20
ENDBRANCH  18  19
ENDBRANCH  17  18
ENDBRANCH  16  17
ENDBRANCH  11  16
TORSDOF 7
