REMARK  9 active torsions:
REMARK  status: ('A' for Active; 'I' for Inactive)
REMARK    1  A    between atoms: C_2  and  C_5 
REMARK    2  A    between atoms: C_7  and  N_8 
REMARK    3  A    between atoms: N_11  and  C_12 
REMARK    4  A    between atoms: C_12  and  C_13 
REMARK    5  A    between atoms: C_13  and  C_14 
REMARK    6  A    between atoms: C_14  and  C_15 
REMARK    7  A    between atoms: C_15  and  N_16 
REMARK    8  A    between atoms: C_19  and  C_20 
REMARK    9  A    between atoms: C_32  and  C_33 
ROOT
ATOM      1  N   UNL d   1       9.851   2.845 -18.226  0.00  0.00    -0.330 N 
ATOM      2  C   UNL d   1      11.092   3.178 -17.541  0.00  0.00     0.138 C 
ATOM      3  C   UNL d   1      10.815   3.403 -16.044  0.00  0.00     0.274 C 
ATOM      4  N   UNL d   1      10.129   2.247 -15.459  0.00  0.00     0.141 N 
ATOM      5  C   UNL d   1       8.863   1.974 -16.140  0.00  0.00     0.274 C 
ATOM      6  C   UNL d   1       9.094   1.738 -17.645  0.00  0.00     0.138 C 
ENDROOT
BRANCH   4   7
ATOM      7  C   UNL d   1       9.910   2.427 -14.033  0.00  0.00     0.251 C 
BRANCH   7   8
ATOM      8  C   UNL d   1       9.141   3.716 -13.655  0.00  0.00     0.037 C 
BRANCH   8   9
ATOM      9  C   UNL d   1       9.645   4.313 -12.335  0.00  0.00     0.027 C 
BRANCH   9  10
ATOM     10  C   UNL d   1       8.712   5.415 -11.811  0.00  0.00     0.111 C 
BRANCH  10  11
ATOM     11  N   UNL d   1       9.247   6.075 -10.611  0.00  0.00    -0.279 N 
ATOM     12  C   UNL d   1       9.179   5.492  -9.375  0.00  0.00     0.350 A 
ATOM     13  N   UNL d   1       9.726   6.179  -8.282  0.00  0.00    -0.192 NA
ATOM     14  O   UNL d   1       8.664   4.400  -9.226  0.00  0.00    -0.244 OA
ATOM     15  C   UNL d   1      10.265   7.341  -8.384  0.00  0.00     0.087 A 
ATOM     16  C   UNL d   1      10.337   7.995  -9.715  0.00  0.00     0.038 A 
ATOM     17  C   UNL d   1       9.835   7.337 -10.768  0.00  0.00     0.081 A 
BRANCH  15  18
ATOM     18  C   UNL d   1      10.812   7.996  -7.159  0.00  0.00     0.018 A 
ATOM     19  C   UNL d   1      10.924   7.261  -5.954  0.00  0.00     0.002 A 
ATOM     20  C   UNL d   1      11.453   7.858  -4.795  0.00  0.00     0.000 A 
ATOM     21  C   UNL d   1      11.864   9.203  -4.818  0.00  0.00     0.000 A 
ATOM     22  C   UNL d   1      11.764   9.942  -6.011  0.00  0.00     0.000 A 
ATOM     23  C   UNL d   1      11.242   9.341  -7.172  0.00  0.00     0.002 A 
ENDBRANCH  15  18
ENDBRANCH  10  11
ENDBRANCH   9  10
ENDBRANCH   8   9
ENDBRANCH   7   8
ENDBRANCH   4   7
BRANCH   1  24
ATOM     24  C   UNL d   1       9.392   3.567 -19.330  0.00  0.00     0.143 A 
ATOM     25  N   UNL d   1       9.696   4.882 -19.403  0.00  0.00    -0.214 NA
ATOM     26  C   UNL d   1       9.262   5.580 -20.461  0.00  0.00     0.140 A 
ATOM     27  N   UNL d   1       8.598   5.062 -21.498  0.00  0.00    -0.227 NA
ATOM     28  C   UNL d   1       8.261   3.758 -21.444  0.00  0.00     0.157 A 
ATOM     29  C   UNL d   1       8.649   2.943 -20.353  0.00  0.00     0.060 A 
BRANCH  26  30
ATOM     30  C   UNL d   1       9.711   7.050 -20.581  0.00  0.00     0.052 C 
ATOM     31  C   UNL d   1      10.839   7.167 -21.621  0.00  0.00     0.008 C 
ATOM     32  C   UNL d   1      10.254   7.596 -19.238  0.00  0.00     0.008 C 
ATOM     33  C   UNL d   1       8.518   7.942 -20.992  0.00  0.00     0.008 C 
ENDBRANCH  26  30
BRANCH  28  34
ATOM     34  C   UNL d   1       7.480   3.195 -22.628  0.00  0.00     0.435 C 
ATOM     35  F   UNL d   1       8.328   2.952 -23.626  0.00  0.00    -0.165 F 
ATOM     36  F   UNL d   1       6.867   2.058 -22.300  0.00  0.00    -0.165 F 
ATOM     37  F   UNL d   1       6.556   4.061 -23.052  0.00  0.00    -0.165 F 
ENDBRANCH  28  34
ENDBRANCH   1  24
TORSDOF 9
