REMARK  2 active torsions:
REMARK  status: ('A' for Active; 'I' for Inactive)
REMARK    1  A    between atoms: C_6  and  C_7 
REMARK    2  A    between atoms: C_14  and  C_15 
ROOT
ATOM      1  F   UNL d   1       4.327   0.260 -13.534  0.00  0.00    -0.204 F 
ATOM      2  C   UNL d   1       5.320   1.170 -13.612  0.00  0.00     0.142 A 
ATOM      3  C   UNL d   1       6.311   1.019 -14.584  0.00  0.00     0.030 A 
ATOM      4  C   UNL d   1       7.385   1.957 -14.710  0.00  0.00     0.004 A 
ATOM      5  C   UNL d   1       7.474   3.086 -13.863  0.00  0.00     0.015 A 
ATOM      6  C   UNL d   1       8.443   4.169 -13.634  0.00  0.00     0.001 A 
ATOM      7  C   UNL d   1       7.958   4.869 -12.532  0.00  0.00     0.077 A 
ATOM      8  N   UNL d   1       6.728   4.374 -12.123  0.00  0.00    -0.246 NA
ATOM      9  C   UNL d   1       6.400   3.227 -12.880  0.00  0.00     0.083 A 
ATOM     10  C   UNL d   1       5.364   2.286 -12.771  0.00  0.00     0.049 A 
ENDROOT
BRANCH   7  11
ATOM     11  C   UNL d   1       8.509   6.031 -11.846  0.00  0.00     0.017 A 
ATOM     12  C   UNL d   1       9.031   6.080 -10.541  0.00  0.00     0.001 A 
ATOM     13  C   UNL d   1       9.539   7.290  -9.975  0.00  0.00     0.000 A 
ATOM     14  C   UNL d   1       8.996   4.919  -9.763  0.00  0.00     0.000 A 
ATOM     15  C   UNL d   1       9.534   8.469 -10.739  0.00  0.00     0.000 A 
ATOM     16  C   UNL d   1       9.984   7.331  -8.646  0.00  0.00     0.000 A 
ATOM     17  C   UNL d   1       9.010   8.438 -12.052  0.00  0.00     0.000 A 
ATOM     18  C   UNL d   1       8.496   7.226 -12.567  0.00  0.00     0.002 A 
ATOM     19  C   UNL d   1       9.949   6.149  -7.881  0.00  0.00     0.000 A 
ATOM     20  C   UNL d   1       9.454   4.963  -8.453  0.00  0.00     0.000 A 
ENDBRANCH   7  11
BRANCH   6  21
ATOM     21  C   UNL d   1       9.767   4.438 -14.343  0.00  0.00     0.093 C 
ATOM     22  C   UNL d   1      10.863   3.419 -14.042  0.00  0.00     0.169 C 
ATOM     23  C   UNL d   1      10.582   2.059 -14.735  0.00  0.00     0.074 C 
ATOM     24  F   UNL d   1      12.060   3.862 -14.471  0.00  0.00    -0.237 F 
ATOM     25  C   UNL d   1      10.268   2.300 -16.243  0.00  0.00     0.293 C 
ATOM     26  N   UNL d   1       9.266   3.321 -16.477  0.00  0.00     0.340 N 
ATOM     27  C   UNL d   1       9.618   4.625 -15.860  0.00  0.00     0.297 C 
ENDBRANCH   6  21
TORSDOF 2
