REMARK  7 active torsions:
REMARK  status: ('A' for Active; 'I' for Inactive)
REMARK    1  A    between atoms: C_2  and  C_3 
REMARK       I    between atoms: C_2  and  N_7 
REMARK    2  A    between atoms: C_3  and  C_4 
REMARK    3  A    between atoms: N_7  and  C_8 
REMARK    4  A    between atoms: C_11  and  C_12 
REMARK    5  A    between atoms: C_12  and  C_13 
REMARK    6  A    between atoms: C_13  and  N_14 
REMARK    7  A    between atoms: C_17  and  C_18 
ROOT
ATOM      1  N   UNL d   1       9.097   4.914 -12.612  0.00  0.00     0.137 N 
ATOM      2  C   UNL d   1      10.200   3.948 -12.543  0.00  0.00     0.251 C 
ATOM      3  C   UNL d   1       9.967   2.785 -13.499  0.00  0.00     0.040 C 
ATOM      4  C   UNL d   1       9.887   3.278 -14.930  0.00  0.00     0.028 C 
ATOM      5  C   UNL d   1       8.875   4.416 -14.992  0.00  0.00     0.040 C 
ATOM      6  C   UNL d   1       9.137   5.492 -13.947  0.00  0.00     0.251 C 
ENDROOT
BRANCH   1   7
ATOM      7  C   UNL d   1       9.278   6.023 -11.672  0.00  0.00     0.250 C 
BRANCH   7   8
ATOM      8  C   UNL d   1       9.089   5.579 -10.209  0.00  0.00     0.035 C 
BRANCH   8   9
ATOM      9  C   UNL d   1       9.332   6.714  -9.202  0.00  0.00     0.002 C 
ATOM     10  C   UNL d   1       8.945   6.242  -7.794  0.00  0.00     0.002 C 
ATOM     11  C   UNL d   1       9.190   7.339  -6.760  0.00  0.00     0.024 C 
ATOM     12  C   UNL d   1      10.652   7.812  -6.822  0.00  0.00     0.106 C 
ATOM     13  C   UNL d   1      11.022   8.339  -8.210  0.00  0.00     0.024 C 
ATOM     14  C   UNL d   1      10.778   7.254  -9.253  0.00  0.00     0.002 C 
BRANCH  12  15
ATOM     15  N   UNL d   1      10.883   8.847  -5.846  0.00  0.00    -0.240 NA
ATOM     16  C   UNL d   1      11.488   8.708  -4.666  0.00  0.00     0.251 C 
ATOM     17  O   UNL d   1      11.702   9.687  -3.970  0.00  0.00    -0.271 OA
BRANCH  16  18
ATOM     18  C   UNL d   1      11.849   7.287  -4.191  0.00  0.00     0.090 C 
BRANCH  18  19
ATOM     19  C   UNL d   1      12.787   7.245  -2.983  0.00  0.00     0.009 A 
ATOM     20  C   UNL d   1      12.447   7.929  -1.683  0.00  0.00     0.001 A 
ATOM     21  C   UNL d   1      12.400   6.421  -1.784  0.00  0.00     0.001 A 
ENDBRANCH  18  19
ENDBRANCH  16  18
ENDBRANCH  12  15
ENDBRANCH   8   9
ENDBRANCH   7   8
ENDBRANCH   1   7
BRANCH   4  22
ATOM     22  C   UNL d   1       9.512   2.128 -15.861  0.00  0.00     0.002 A 
ATOM     23  C   UNL d   1      10.423   1.672 -16.834  0.00  0.00     0.115 A 
ATOM     24  C   UNL d   1      10.102   0.629 -17.686  0.00  0.00     0.119 A 
ATOM     25  O   UNL d   1      11.671   2.118 -17.108  0.00  0.00    -0.300 OA
ATOM     26  C   UNL d   1       8.863  -0.023 -17.623  0.00  0.00     0.026 A 
ATOM     27  O   UNL d   1      11.149   0.399 -18.522  0.00  0.00    -0.300 OA
ATOM     28  C   UNL d   1       7.935   0.407 -16.647  0.00  0.00     0.002 A 
ATOM     29  C   UNL d   1       8.264   1.474 -15.772  0.00  0.00    -0.002 A 
ATOM     30  C   UNL d   1      12.137   1.335 -18.173  0.00  0.00     0.304 A 
ENDBRANCH   4  22
TORSDOF 7
