REMARK  5 active torsions:
REMARK  status: ('A' for Active; 'I' for Inactive)
REMARK    1  A    between atoms: C_2  and  C_3 
REMARK       I    between atoms: C_2  and  N_13 
REMARK    2  A    between atoms: N_16  and  C_17 
REMARK    3  A    between atoms: C_17  and  C_18 
REMARK    4  A    between atoms: C_18  and  O_19 
REMARK    5  A    between atoms: O_19  and  C_20 
ROOT
ATOM      1  O   UNL d   1       9.433   8.380 -11.774  0.00  0.00    -0.266 OA
ATOM      2  C   UNL d   1       9.460   7.321 -11.142  0.00  0.00     0.275 C 
ATOM      3  N   UNL d   1       8.961   6.172 -11.675  0.00  0.00    -0.311 N 
ATOM      4  C   UNL d   1       8.069   6.160 -12.848  0.00  0.00     0.140 C 
ATOM      5  C   UNL d   1       8.628   5.203 -13.927  0.00  0.00     0.274 C 
ATOM      6  N   UNL d   1       8.793   3.847 -13.405  0.00  0.00     0.144 N 
ATOM      7  C   UNL d   1       9.724   3.920 -12.291  0.00  0.00     0.274 C 
ATOM      8  C   UNL d   1       9.175   4.802 -11.176  0.00  0.00     0.140 C 
ENDROOT
BRANCH   2   9
ATOM      9  C   UNL d   1       9.924   7.366  -9.717  0.00  0.00     0.137 A 
ATOM     10  N   UNL d   1       9.908   8.598  -9.062  0.00  0.00    -0.241 NA
ATOM     11  C   UNL d   1      10.381   8.486  -7.762  0.00  0.00     0.082 A 
ATOM     12  C   UNL d   1      10.710   7.117  -7.611  0.00  0.00     0.019 A 
ATOM     13  C   UNL d   1      10.563   9.384  -6.700  0.00  0.00     0.030 A 
ATOM     14  C   UNL d   1      10.441   6.447  -8.819  0.00  0.00     0.025 A 
ATOM     15  C   UNL d   1      11.229   6.675  -6.380  0.00  0.00     0.002 A 
ATOM     16  C   UNL d   1      11.401   7.554  -5.302  0.00  0.00     0.011 A 
ATOM     17  C   UNL d   1      11.060   8.909  -5.469  0.00  0.00     0.059 A 
ATOM     18 CL   UNL d   1      11.237   9.988  -4.151  0.00  0.00    -0.082 Cl
ENDBRANCH   2   9
BRANCH   6  19
ATOM     19  C   UNL d   1       9.333   2.948 -14.424  0.00  0.00     0.283 C 
BRANCH  19  20
ATOM     20  C   UNL d   1       8.560   1.614 -14.430  0.00  0.00     0.184 C 
BRANCH  20  21
ATOM     21  O   UNL d   1       8.804   0.996 -15.689  0.00  0.00    -0.327 OA
BRANCH  21  22
ATOM     22  C   UNL d   1       7.720   0.768 -16.506  0.00  0.00     0.113 A 
ATOM     23  C   UNL d   1       7.838   1.061 -17.879  0.00  0.00     0.123 A 
ATOM     24  N   UNL d   1       6.845   0.881 -18.776  0.00  0.00    -0.240 NA
ATOM     25  C   UNL d   1       5.688   0.344 -18.335  0.00  0.00     0.099 A 
ATOM     26  C   UNL d   1       5.469  -0.011 -16.990  0.00  0.00     0.023 A 
ATOM     27  C   UNL d   1       6.499   0.214 -16.056  0.00  0.00     0.027 A 
ENDBRANCH  21  22
ENDBRANCH  20  21
ENDBRANCH  19  20
ENDBRANCH   6  19
TORSDOF 5
