REMARK  4 active torsions:
REMARK  status: ('A' for Active; 'I' for Inactive)
REMARK    1  A    between atoms: C_4  and  C_5 
REMARK    2  A    between atoms: C_7  and  C_8 
REMARK    3  A    between atoms: C_8  and  N_9 
REMARK    4  A    between atoms: N_12  and  C_13 
ROOT
ATOM      1  N   UNL d   1      10.053   6.989 -10.458  0.00  0.00     0.147 N 
ATOM      2  C   UNL d   1       9.373   6.482  -9.263  0.00  0.00     0.275 C 
ATOM      3  C   UNL d   1      10.361   6.294  -8.102  0.00  0.00     0.138 C 
ATOM      4  N   UNL d   1      11.095   7.532  -7.875  0.00  0.00    -0.330 N 
ATOM      5  C   UNL d   1      11.695   8.160  -9.043  0.00  0.00     0.138 C 
ATOM      6  C   UNL d   1      10.643   8.299 -10.156  0.00  0.00     0.275 C 
ENDROOT
BRANCH   1   7
ATOM      7  C   UNL d   1       9.119   7.138 -11.578  0.00  0.00     0.297 C 
BRANCH   7   8
ATOM      8  C   UNL d   1       8.446   5.940 -12.172  0.00  0.00     0.113 A 
ATOM      9  N   UNL d   1       9.152   5.003 -12.926  0.00  0.00    -0.228 NA
ATOM     10  C   UNL d   1       8.259   4.086 -13.301  0.00  0.00     0.162 A 
ATOM     11  N   UNL d   1       7.039   4.397 -12.834  0.00  0.00    -0.224 NA
ATOM     12  C   UNL d   1       7.124   5.577 -12.111  0.00  0.00     0.117 A 
BRANCH  10  13
ATOM     13  C   UNL d   1       8.582   2.908 -14.107  0.00  0.00     0.036 A 
ATOM     14  C   UNL d   1       9.925   2.619 -14.440  0.00  0.00     0.003 A 
ATOM     15  C   UNL d   1      10.240   1.483 -15.213  0.00  0.00     0.000 A 
ATOM     16  C   UNL d   1       9.214   0.625 -15.653  0.00  0.00     0.000 A 
ATOM     17  C   UNL d   1       7.876   0.901 -15.319  0.00  0.00     0.000 A 
ATOM     18  C   UNL d   1       7.560   2.038 -14.551  0.00  0.00     0.003 A 
ENDBRANCH  10  13
ENDBRANCH   7   8
ENDBRANCH   1   7
BRANCH   4  19
ATOM     19  C   UNL d   1      11.160   8.118  -6.602  0.00  0.00     0.143 A 
ATOM     20  N   UNL d   1      11.341   7.294  -5.553  0.00  0.00    -0.207 NA
ATOM     21  C   UNL d   1      11.475   7.859  -4.359  0.00  0.00     0.200 A 
ATOM     22  N   UNL d   1      11.428   9.164  -4.084  0.00  0.00    -0.223 NA
ATOM     23  C   UNL d   1      11.193   9.986  -5.119  0.00  0.00     0.104 A 
ATOM     24  C   UNL d   1      11.074   9.512  -6.433  0.00  0.00     0.058 A 
ENDBRANCH   4  19
TORSDOF 4
