REMARK  8 active torsions:
REMARK  status: ('A' for Active; 'I' for Inactive)
REMARK    1  A    between atoms: C_2  and  C_3 
REMARK    2  A    between atoms: C_3  and  C_6 
REMARK       I    between atoms: C_6  and  N_8 
REMARK    3  A    between atoms: N_8  and  C_9 
REMARK    4  A    between atoms: C_9  and  C_10 
REMARK    5  A    between atoms: C_10  and  C_11 
REMARK    6  A    between atoms: C_11  and  C_12 
REMARK    7  A    between atoms: C_12  and  N_13 
REMARK    8  A    between atoms: N_16  and  C_17 
ROOT
ATOM      1  N   UNL d   1       9.552   7.487  -9.635  0.00  0.00     0.141 N 
ATOM      2  C   UNL d   1       9.347   6.508  -8.561  0.00  0.00     0.274 C 
ATOM      3  C   UNL d   1       8.955   7.219  -7.247  0.00  0.00     0.137 C 
ATOM      4  N   UNL d   1       9.943   8.244  -6.929  0.00  0.00    -0.344 N 
ATOM      5  C   UNL d   1      10.225   9.178  -7.994  0.00  0.00     0.137 C 
ATOM      6  C   UNL d   1      10.621   8.417  -9.271  0.00  0.00     0.274 C 
ENDROOT
BRANCH   1   7
ATOM      7  C   UNL d   1       9.853   6.835 -10.896  0.00  0.00     0.251 C 
BRANCH   7   8
ATOM      8  C   UNL d   1       8.598   6.320 -11.620  0.00  0.00     0.037 C 
BRANCH   8   9
ATOM      9  C   UNL d   1       8.964   5.555 -12.902  0.00  0.00     0.029 C 
BRANCH   9  10
ATOM     10  C   UNL d   1       9.413   4.108 -12.615  0.00  0.00     0.129 C 
BRANCH  10  11
ATOM     11  N   UNL d   1       9.740   3.383 -13.838  0.00  0.00    -0.238 NA
ATOM     12  C   UNL d   1      10.751   3.638 -14.680  0.00  0.00     0.250 C 
ATOM     13  O   UNL d   1      11.566   4.543 -14.470  0.00  0.00    -0.271 OA
BRANCH  12  14
ATOM     14  C   UNL d   1      10.845   2.744 -15.945  0.00  0.00     0.073 C 
ATOM     15  C   UNL d   1       9.737   3.182 -16.928  0.00  0.00     0.009 C 
ATOM     16  C   UNL d   1      10.649   1.254 -15.559  0.00  0.00     0.009 C 
BRANCH  14  17
ATOM     17  C   UNL d   1      12.241   2.955 -16.606  0.00  0.00     0.009 C 
ATOM     18  C   UNL d   1      12.553   2.073 -17.831  0.00  0.00     0.001 C 
ENDBRANCH  14  17
ENDBRANCH  12  14
ENDBRANCH  10  11
ENDBRANCH   9  10
ENDBRANCH   8   9
ENDBRANCH   7   8
ENDBRANCH   1   7
BRANCH   4  19
ATOM     19  C   UNL d   1      10.653   8.281  -5.720  0.00  0.00     0.056 A 
ATOM     20  C   UNL d   1      11.065   7.081  -5.096  0.00  0.00     0.018 A 
ATOM     21  C   UNL d   1      11.690   7.120  -3.838  0.00  0.00     0.013 A 
ATOM     22  C   UNL d   1      11.917   8.352  -3.202  0.00  0.00     0.058 A 
ATOM     23  C   UNL d   1      11.510   9.550  -3.818  0.00  0.00     0.013 A 
ATOM     24 CL   UNL d   1      12.655   8.391  -1.649  0.00  0.00    -0.082 Cl
ATOM     25  C   UNL d   1      10.897   9.517  -5.087  0.00  0.00     0.018 A 
ENDBRANCH   4  19
TORSDOF 8
