REMARK  6 active torsions:
REMARK  status: ('A' for Active; 'I' for Inactive)
REMARK       I    between atoms: C_2  and  N_3 
REMARK    1  A    between atoms: C_2  and  C_29 
REMARK    2  A    between atoms: N_3  and  C_4 
REMARK    3  A    between atoms: C_4  and  C_5 
REMARK    4  A    between atoms: C_5  and  C_6 
REMARK    5  A    between atoms: C_6  and  C_7 
REMARK    6  A    between atoms: C_7  and  N_8 
ROOT
ATOM      1  N   UNL d   1       8.872   3.515 -14.334  0.00  0.00     0.138 N 
ATOM      2  C   UNL d   1       7.803   2.554 -14.042  0.00  0.00     0.255 C 
ATOM      3  C   UNL d   1       6.976   2.234 -15.283  0.00  0.00     0.057 C 
ATOM      4  C   UNL d   1       7.867   1.738 -16.434  0.00  0.00    -0.040 C 
ATOM      5  C   UNL d   1       7.519   0.706 -17.276  0.00  0.00    -0.007 C 
ATOM      6  C   UNL d   1       6.273  -0.050 -17.081  0.00  0.00    -0.004 A 
ATOM      7  C   UNL d   1       6.070  -0.811 -15.912  0.00  0.00    -0.000 A 
ATOM      8  C   UNL d   1       4.912  -1.576 -15.747  0.00  0.00    -0.000 A 
ATOM      9  C   UNL d   1       3.939  -1.592 -16.761  0.00  0.00    -0.000 A 
ATOM     10  C   UNL d   1       4.128  -0.852 -17.942  0.00  0.00    -0.004 A 
ATOM     11  C   UNL d   1       5.294  -0.079 -18.107  0.00  0.00    -0.014 A 
ATOM     12  C   UNL d   1       5.482   0.735 -19.377  0.00  0.00     0.096 C 
ATOM     13  C   UNL d   1       6.615   0.189 -20.252  0.00  0.00     0.183 C 
ATOM     14  O   UNL d   1       6.385  -0.048 -21.438  0.00  0.00    -0.290 OA
ATOM     15  C   UNL d   1       7.941  -0.010 -19.642  0.00  0.00     0.064 A 
ATOM     16  S   UNL d   1       9.237  -0.607 -20.657  0.00  0.00    -0.084 SA
ATOM     17  C   UNL d   1      10.350  -0.612 -19.308  0.00  0.00     0.035 A 
ATOM     18  C   UNL d   1       9.747  -0.197 -18.158  0.00  0.00     0.007 A 
ATOM     19  C   UNL d   1       8.387   0.200 -18.355  0.00  0.00     0.009 A 
ATOM     20  C   UNL d   1       9.110   2.615 -16.614  0.00  0.00     0.057 C 
ATOM     21  C   UNL d   1       9.800   2.888 -15.276  0.00  0.00     0.255 C 
ENDROOT
BRANCH   1  22
ATOM     22  C   UNL d   1       9.591   3.846 -13.112  0.00  0.00     0.250 C 
BRANCH  22  23
ATOM     23  C   UNL d   1       8.826   4.910 -12.303  0.00  0.00     0.037 C 
BRANCH  23  24
ATOM     24  C   UNL d   1       9.736   5.571 -11.264  0.00  0.00     0.029 C 
BRANCH  24  25
ATOM     25  C   UNL d   1       9.059   6.702 -10.499  0.00  0.00     0.129 C 
BRANCH  25  26
ATOM     26  N   UNL d   1       9.868   7.198  -9.394  0.00  0.00    -0.234 NA
ATOM     27  C   UNL d   1       9.987   6.550  -8.226  0.00  0.00     0.275 C 
ATOM     28  O   UNL d   1       9.697   5.361  -8.090  0.00  0.00    -0.266 OA
BRANCH  27  29
ATOM     29  C   UNL d   1      10.500   7.361  -7.073  0.00  0.00     0.058 A 
ATOM     30  C   UNL d   1      11.083   6.731  -5.954  0.00  0.00     0.005 A 
ATOM     31  C   UNL d   1      11.464   7.457  -4.817  0.00  0.00     0.000 A 
ATOM     32  C   UNL d   1      11.281   8.859  -4.799  0.00  0.00     0.000 A 
ATOM     33  C   UNL d   1      12.035   6.809  -3.701  0.00  0.00     0.000 A 
ATOM     34  C   UNL d   1      10.694   9.504  -5.904  0.00  0.00     0.000 A 
ATOM     35  C   UNL d   1      11.643   9.591  -3.655  0.00  0.00     0.000 A 
ATOM     36  C   UNL d   1      10.280   8.759  -7.021  0.00  0.00     0.005 A 
ATOM     37  C   UNL d   1      12.254   8.947  -2.557  0.00  0.00     0.000 A 
ATOM     38  C   UNL d   1      12.432   7.554  -2.578  0.00  0.00     0.000 A 
ENDBRANCH  27  29
ENDBRANCH  25  26
ENDBRANCH  24  25
ENDBRANCH  23  24
ENDBRANCH  22  23
ENDBRANCH   1  22
TORSDOF 6
