REMARK  5 active torsions:
REMARK  status: ('A' for Active; 'I' for Inactive)
REMARK    1  A    between atoms: C_2  and  N_3 
REMARK    2  A    between atoms: C_7  and  C_8 
REMARK    3  A    between atoms: C_8  and  N_9 
REMARK       I    between atoms: N_9  and  C_10 
REMARK    4  A    between atoms: C_10  and  C_12 
REMARK    5  A    between atoms: C_19  and  O_20 
ROOT
ATOM      1  N   UNL d   1       8.595   4.840 -11.521  0.00  0.00    -0.232 NA
ATOM      2  C   UNL d   1       9.116   4.787 -12.759  0.00  0.00     0.278 C 
ATOM      3  O   UNL d   1       9.854   5.658 -13.223  0.00  0.00    -0.265 OA
ENDROOT
BRANCH   2   4
ATOM      4  C   UNL d   1       8.758   3.586 -13.565  0.00  0.00     0.092 A 
ATOM      5  C   UNL d   1       9.780   2.824 -14.192  0.00  0.00     0.125 A 
ATOM      6  C   UNL d   1       9.445   1.662 -14.921  0.00  0.00     0.153 A 
ATOM      7  C   UNL d   1       8.106   1.265 -15.059  0.00  0.00     0.030 A 
ATOM      8  O   UNL d   1      10.422   0.890 -15.481  0.00  0.00    -0.188 OA
ATOM      9  C   UNL d   1       7.085   2.033 -14.467  0.00  0.00     0.014 A 
ATOM     10  C   UNL d   1       7.395   3.191 -13.729  0.00  0.00     0.064 A 
ATOM     11 CL   UNL d   1       6.067   4.070 -13.054  0.00  0.00    -0.082 Cl
BRANCH   5  12
ATOM     12  O   UNL d   1      11.104   3.177 -14.063  0.00  0.00    -0.326 OA
ATOM     13  C   UNL d   1      11.667   3.779 -15.218  0.00  0.00     0.181 C 
ENDBRANCH   5  12
ENDBRANCH   2   4
BRANCH   1  14
ATOM     14  C   UNL d   1       8.541   6.041 -10.704  0.00  0.00     0.162 C 
BRANCH  14  15
ATOM     15  C   UNL d   1       9.797   6.194  -9.822  0.00  0.00     0.243 C 
ATOM     16  N   UNL d   1       9.885   7.486  -9.143  0.00  0.00     0.137 N 
ATOM     17  C   UNL d   1      10.841   7.274  -8.055  0.00  0.00     0.250 C 
ATOM     18  C   UNL d   1      10.503   5.911  -7.518  0.00  0.00     0.037 C 
ATOM     19  C   UNL d   1       9.817   5.182  -8.671  0.00  0.00     0.037 C 
BRANCH  16  20
ATOM     20  C   UNL d   1      10.215   8.597 -10.026  0.00  0.00     0.250 C 
ATOM     21  C   UNL d   1      11.731   8.895 -10.151  0.00  0.00     0.037 C 
ENDBRANCH  16  20
ENDBRANCH  14  15
ENDBRANCH   1  14
TORSDOF 5
