REMARK  9 active torsions:
REMARK  status: ('A' for Active; 'I' for Inactive)
REMARK    1  A    between atoms: C_3  and  S_4 
REMARK    2  A    between atoms: S_4  and  C_5 
REMARK    3  A    between atoms: C_5  and  C_6 
REMARK    4  A    between atoms: C_6  and  C_7 
REMARK    5  A    between atoms: C_7  and  N_8 
REMARK    6  A    between atoms: N_13  and  C_14 
REMARK    7  A    between atoms: C_17  and  O_18 
REMARK    8  A    between atoms: O_18  and  C_19 
REMARK    9  A    between atoms: C_29  and  C_30 
ROOT
ATOM      1  N   UNL d   1      11.117   2.288 -17.092  0.00  0.00     0.139 N 
ATOM      2  C   UNL d   1      11.588   1.154 -16.302  0.00  0.00     0.252 C 
ATOM      3  C   UNL d   1      10.643   1.109 -15.102  0.00  0.00     0.058 C 
ATOM      4  C   UNL d   1       9.354   0.324 -15.344  0.00  0.00     0.028 C 
ATOM      5  C   UNL d   1       8.289   1.202 -14.719  0.00  0.00     0.102 C 
ATOM      6  N   UNL d   1       8.753   2.572 -14.892  0.00  0.00    -0.348 N 
ATOM      7  C   UNL d   1      10.209   2.548 -14.916  0.00  0.00     0.117 C 
ATOM      8  C   UNL d   1      10.807   3.309 -16.093  0.00  0.00     0.272 C 
ENDROOT
BRANCH   1   9
ATOM      9  C   UNL d   1      12.154   2.681 -18.030  0.00  0.00     0.251 C 
BRANCH   9  10
ATOM     10  C   UNL d   1      11.912   4.069 -18.670  0.00  0.00     0.047 C 
BRANCH  10  11
ATOM     11  C   UNL d   1      12.970   4.503 -19.681  0.00  0.00     0.067 C 
BRANCH  11  12
ATOM     12  S   UNL d   1      14.662   4.193 -19.069  0.00  0.00    -0.075 SA
BRANCH  12  13
ATOM     13  C   UNL d   1      15.456   5.694 -19.500  0.00  0.00     0.193 A 
ATOM     14  N   UNL d   1      16.415   6.247 -18.727  0.00  0.00    -0.287 N 
ATOM     15  C   UNL d   1      16.952   5.751 -17.462  0.00  0.00     0.134 C 
ATOM     16  C   UNL d   1      16.740   7.360 -19.439  0.00  0.00     0.186 A 
ATOM     17  N   UNL d   1      16.027   7.466 -20.568  0.00  0.00    -0.127 NA
ATOM     18  N   UNL d   1      15.201   6.377 -20.613  0.00  0.00    -0.122 NA
BRANCH  16  19
ATOM     19  C   UNL d   1      17.747   8.372 -19.093  0.00  0.00     0.136 A 
ATOM     20  N   UNL d   1      18.416   8.268 -17.917  0.00  0.00    -0.238 NA
ATOM     21  C   UNL d   1      19.320   9.229 -17.632  0.00  0.00     0.120 A 
ATOM     22  C   UNL d   1      19.579  10.287 -18.525  0.00  0.00     0.120 A 
ATOM     23  N   UNL d   1      18.940  10.389 -19.708  0.00  0.00    -0.239 NA
ATOM     24  C   UNL d   1      18.018   9.437 -19.985  0.00  0.00     0.121 A 
ENDBRANCH  16  19
ENDBRANCH  12  13
ENDBRANCH  11  12
ENDBRANCH  10  11
ENDBRANCH   9  10
ENDBRANCH   1   9
BRANCH   6  25
ATOM     25  C   UNL d   1       8.082   3.597 -14.191  0.00  0.00     0.056 A 
ATOM     26  C   UNL d   1       8.732   4.818 -13.854  0.00  0.00     0.019 A 
ATOM     27  C   UNL d   1       8.078   5.811 -13.105  0.00  0.00     0.026 A 
ATOM     28  C   UNL d   1       6.733   5.630 -12.719  0.00  0.00     0.102 A 
ATOM     29  C   UNL d   1       6.059   4.459 -13.097  0.00  0.00     0.026 A 
ATOM     30  C   UNL d   1       6.716   3.466 -13.826  0.00  0.00     0.019 A 
BRANCH  28  31
ATOM     31  O   UNL d   1       6.025   6.573 -12.030  0.00  0.00    -0.253 OA
BRANCH  31  32
ATOM     32  C   UNL d   1       5.968   7.871 -12.438  0.00  0.00     0.530 C 
ATOM     33  F   UNL d   1       5.057   8.569 -11.703  0.00  0.00    -0.144 F 
ATOM     34  F   UNL d   1       7.165   8.492 -12.455  0.00  0.00    -0.144 F 
ATOM     35  F   UNL d   1       5.472   7.996 -13.639  0.00  0.00    -0.144 F 
ENDBRANCH  31  32
ENDBRANCH  28  31
ENDBRANCH   6  25
TORSDOF 9
