REMARK  9 active torsions:
REMARK  status: ('A' for Active; 'I' for Inactive)
REMARK    1  A    between atoms: C_9  and  C_10 
REMARK       I    between atoms: C_10  and  N_12 
REMARK    2  A    between atoms: N_12  and  C_13 
REMARK    3  A    between atoms: C_13  and  C_14 
REMARK    4  A    between atoms: C_14  and  C_15 
REMARK    5  A    between atoms: C_15  and  C_16 
REMARK    6  A    between atoms: C_16  and  C_17 
REMARK    7  A    between atoms: C_17  and  C_18 
REMARK    8  A    between atoms: C_18  and  N_19 
REMARK    9  A    between atoms: C_22  and  C_24 
ROOT
ATOM      1  C   UNL d   1       7.977   4.086 -12.550  0.00  0.00     0.002 C 
ENDROOT
BRANCH   1   2
ATOM      2  C   UNL d   1       6.921   4.013 -13.659  0.00  0.00     0.026 C 
BRANCH   2   3
ATOM      3  C   UNL d   1       6.801   2.639 -14.257  0.00  0.00     0.129 C 
BRANCH   3   4
ATOM      4  N   UNL d   1       5.889   1.756 -13.541  0.00  0.00    -0.234 NA
ATOM      5  C   UNL d   1       5.406   0.567 -13.953  0.00  0.00     0.282 C 
ATOM      6  O   UNL d   1       4.595  -0.018 -13.254  0.00  0.00    -0.265 OA
BRANCH   5   7
ATOM      7  C   UNL d   1       5.782  -0.011 -15.258  0.00  0.00     0.101 C 
ATOM      8  C   UNL d   1       5.081  -0.856 -16.129  0.00  0.00     0.082 C 
ATOM      9  C   UNL d   1       5.830  -1.127 -17.353  0.00  0.00     0.034 A 
ATOM     10  N   UNL d   1       3.786  -1.389 -15.902  0.00  0.00    -0.100 NA
ATOM     11  C   UNL d   1       5.591  -1.917 -18.532  0.00  0.00    -0.018 A 
ATOM     12  C   UNL d   1       7.099  -0.431 -17.310  0.00  0.00     0.111 A 
ATOM     13  C   UNL d   1       6.560  -1.962 -19.562  0.00  0.00     0.011 A 
ATOM     14  C   UNL d   1       4.329  -2.740 -18.655  0.00  0.00     0.031 C 
ATOM     15  C   UNL d   1       7.735  -1.193 -19.421  0.00  0.00     0.060 A 
ATOM     16  C   UNL d   1       8.822  -1.184 -20.471  0.00  0.00     0.052 C 
ATOM     17  N   UNL d   1       8.015  -0.432 -18.335  0.00  0.00    -0.243 NA
ATOM     18  S   UNL d   1       7.419   0.316 -15.738  0.00  0.00    -0.062 SA
ENDBRANCH   5   7
ENDBRANCH   3   4
ENDBRANCH   2   3
ENDBRANCH   1   2
BRANCH   1  19
ATOM     19  C   UNL d   1       8.311   5.521 -12.186  0.00  0.00     0.002 C 
BRANCH  19  20
ATOM     20  C   UNL d   1       9.250   5.568 -10.981  0.00  0.00     0.035 C 
BRANCH  20  21
ATOM     21  C   UNL d   1       9.792   6.987 -10.728  0.00  0.00     0.250 C 
BRANCH  21  22
ATOM     22  N   UNL d   1      10.329   7.107  -9.373  0.00  0.00     0.137 N 
ATOM     23  C   UNL d   1      11.474   8.023  -9.355  0.00  0.00     0.253 C 
ATOM     24  C   UNL d   1      12.038   8.135  -7.926  0.00  0.00     0.070 C 
ATOM     25  C   UNL d   1      10.971   8.588  -6.910  0.00  0.00     0.149 C 
ATOM     26  C   UNL d   1       9.691   7.744  -7.079  0.00  0.00     0.070 C 
ATOM     27  O   UNL d   1      10.681   9.918  -7.204  0.00  0.00    -0.221 OA
ATOM     28  C   UNL d   1       9.252   7.632  -8.535  0.00  0.00     0.253 C 
BRANCH  25  29
ATOM     29  C   UNL d   1      11.454   8.535  -5.480  0.00  0.00     0.005 A 
ATOM     30  C   UNL d   1      11.785   7.296  -4.896  0.00  0.00    -0.001 A 
ATOM     31  C   UNL d   1      12.257   7.233  -3.576  0.00  0.00     0.011 A 
ATOM     32  C   UNL d   1      12.363   8.422  -2.838  0.00  0.00     0.058 A 
ATOM     33  C   UNL d   1      12.014   9.652  -3.391  0.00  0.00     0.011 A 
ATOM     34 CL   UNL d   1      12.938   8.418  -1.234  0.00  0.00    -0.082 Cl
ATOM     35  C   UNL d   1      11.559   9.719  -4.707  0.00  0.00    -0.001 A 
ENDBRANCH  25  29
ENDBRANCH  21  22
ENDBRANCH  20  21
ENDBRANCH  19  20
ENDBRANCH   1  19
TORSDOF 9
