REMARK  1 active torsions:
REMARK  status: ('A' for Active; 'I' for Inactive)
REMARK    1  A    between atoms: C_5  and  C_6 
ROOT
ATOM      1  C   UNL d   1      12.625   8.600  -1.643  0.00  0.00     0.131 C 
ATOM      2  N   UNL d   1      12.118   8.350  -2.999  0.00  0.00    -0.323 N 
ATOM      3  C   UNL d   1      11.910   7.079  -3.423  0.00  0.00     0.076 A 
ATOM      4  C   UNL d   1      11.421   6.836  -4.723  0.00  0.00     0.019 A 
ATOM      5  C   UNL d   1      11.142   7.914  -5.595  0.00  0.00     0.003 A 
ATOM      6  C   UNL d   1      11.380   9.221  -5.113  0.00  0.00     0.019 A 
ATOM      7  C   UNL d   1      11.861   9.410  -3.799  0.00  0.00     0.076 A 
ENDROOT
BRANCH   5   8
ATOM      8  C   UNL d   1      10.629   7.681  -6.959  0.00  0.00     0.003 A 
ATOM      9  C   UNL d   1       9.540   6.809  -7.193  0.00  0.00     0.019 A 
ATOM     10  C   UNL d   1       9.070   6.599  -8.507  0.00  0.00     0.076 A 
ATOM     11  N   UNL d   1       9.654   7.233  -9.554  0.00  0.00    -0.323 N 
ATOM     12  C   UNL d   1      10.701   8.075  -9.372  0.00  0.00     0.076 A 
ATOM     13  C   UNL d   1       9.165   7.008 -10.923  0.00  0.00     0.131 C 
ATOM     14  C   UNL d   1      11.209   8.320  -8.079  0.00  0.00     0.019 A 
ENDBRANCH   5   8
TORSDOF 1
