REMARK  7 active torsions:
REMARK  status: ('A' for Active; 'I' for Inactive)
REMARK    1  A    between atoms: C_2  and  C_3 
REMARK    2  A    between atoms: C_3  and  N_4 
REMARK    3  A    between atoms: N_4  and  C_5 
REMARK    4  A    between atoms: N_4  and  C_8 
REMARK    5  A    between atoms: C_5  and  C_6 
REMARK    6  A    between atoms: C_8  and  C_9 
REMARK    7  A    between atoms: C_9  and  C_10 
ROOT
ATOM      1  C   UNL d   1      11.142   8.174  -6.658  0.00  0.00     0.001 A 
ATOM      2  C   UNL d   1      10.924   9.502  -6.894  0.00  0.00     0.095 A 
ATOM      3  N   UNL d   1      11.064  10.205  -5.715  0.00  0.00    -0.244 NA
ATOM      4  C   UNL d   1      11.418   9.355  -4.685  0.00  0.00     0.081 A 
ATOM      5  C   UNL d   1      11.703   9.584  -3.329  0.00  0.00     0.021 A 
ATOM      6  C   UNL d   1      12.058   8.499  -2.511  0.00  0.00     0.031 A 
ATOM      7  C   UNL d   1      12.131   7.204  -3.055  0.00  0.00     0.140 A 
ATOM      8  F   UNL d   1      12.518   6.172  -2.264  0.00  0.00    -0.204 F 
ATOM      9  C   UNL d   1      11.826   6.981  -4.413  0.00  0.00     0.031 A 
ATOM     10  C   UNL d   1      11.456   8.049  -5.260  0.00  0.00     0.018 A 
ENDROOT
BRANCH   1  11
ATOM     11  C   UNL d   1      11.127   7.103  -7.699  0.00  0.00     0.063 C 
BRANCH  11  12
ATOM     12  C   UNL d   1       9.800   7.057  -8.485  0.00  0.00     0.256 C 
BRANCH  12  13
ATOM     13  N   UNL d   1       9.833   6.105  -9.603  0.00  0.00     0.146 N 
BRANCH  13  14
ATOM     14  C   UNL d   1       9.845   4.709  -9.156  0.00  0.00     0.277 C 
BRANCH  14  15
ATOM     15  C   UNL d   1       8.581   4.271  -8.438  0.00  0.00     0.009 C 
ATOM     16  C   UNL d   1       8.385   3.011  -8.037  0.00  0.00    -0.003 C 
ENDBRANCH  14  15
ENDBRANCH  13  14
BRANCH  13  17
ATOM     17  C   UNL d   1       8.694   6.395 -10.476  0.00  0.00     0.277 C 
BRANCH  17  18
ATOM     18  C   UNL d   1       8.569   5.475 -11.675  0.00  0.00     0.009 C 
ATOM     19  C   UNL d   1       7.447   4.812 -11.991  0.00  0.00    -0.003 C 
ENDBRANCH  17  18
ENDBRANCH  13  17
ENDBRANCH  12  13
ENDBRANCH  11  12
ENDBRANCH   1  11
TORSDOF 7
