REMARK  6 active torsions:
REMARK  status: ('A' for Active; 'I' for Inactive)
REMARK    1  A    between atoms: C_4  and  O_5 
REMARK    2  A    between atoms: O_5  and  C_6 
REMARK    3  A    between atoms: C_6  and  C_7 
REMARK    4  A    between atoms: C_7  and  C_8 
REMARK    5  A    between atoms: C_8  and  N_9 
REMARK    6  A    between atoms: N_12  and  C_13 
ROOT
ATOM      1  N   UNL d   1       9.414   1.662 -16.174  0.00  0.00     0.141 N 
ATOM      2  C   UNL d   1       8.341   1.114 -15.341  0.00  0.00     0.274 C 
ATOM      3  C   UNL d   1       6.965   1.448 -15.969  0.00  0.00     0.137 C 
ATOM      4  N   UNL d   1       6.893   0.925 -17.314  0.00  0.00    -0.344 N 
ATOM      5  C   UNL d   1       7.988   1.282 -18.189  0.00  0.00     0.137 C 
ATOM      6  C   UNL d   1       9.350   1.016 -17.486  0.00  0.00     0.274 C 
ENDROOT
BRANCH   1   7
ATOM      7  C   UNL d   1      10.738   1.427 -15.581  0.00  0.00     0.253 C 
BRANCH   7   8
ATOM      8  C   UNL d   1      11.026   2.362 -14.381  0.00  0.00     0.068 C 
BRANCH   8   9
ATOM      9  C   UNL d   1      11.203   3.866 -14.747  0.00  0.00     0.151 C 
BRANCH   9  10
ATOM     10  O   UNL d   1      10.939   4.735 -13.640  0.00  0.00    -0.331 OA
BRANCH  10  11
ATOM     11  C   UNL d   1       9.651   4.816 -13.162  0.00  0.00     0.094 A 
ATOM     12  C   UNL d   1       8.563   4.180 -13.801  0.00  0.00     0.024 A 
ATOM     13  C   UNL d   1       7.288   4.168 -13.211  0.00  0.00     0.002 A 
ATOM     14  C   UNL d   1       7.032   4.905 -12.021  0.00  0.00     0.000 A 
ATOM     15  C   UNL d   1       8.090   5.604 -11.425  0.00  0.00     0.002 A 
ATOM     16  C   UNL d   1       9.392   5.559 -11.971  0.00  0.00     0.024 A 
ENDBRANCH  10  11
ENDBRANCH   9  10
ENDBRANCH   8   9
ENDBRANCH   7   8
ENDBRANCH   1   7
BRANCH   4  17
ATOM     17  C   UNL d   1       5.865  -0.005 -17.701  0.00  0.00     0.056 A 
ATOM     18  C   UNL d   1       5.312  -0.871 -16.751  0.00  0.00     0.017 A 
ATOM     19  C   UNL d   1       4.277  -1.763 -17.114  0.00  0.00     0.002 A 
ATOM     20  C   UNL d   1       3.808  -1.792 -18.441  0.00  0.00     0.000 A 
ATOM     21  C   UNL d   1       4.375  -0.933 -19.400  0.00  0.00     0.002 A 
ATOM     22  C   UNL d   1       5.410  -0.038 -19.025  0.00  0.00     0.017 A 
ENDBRANCH   4  17
TORSDOF 6
