REMARK  7 active torsions:
REMARK  status: ('A' for Active; 'I' for Inactive)
REMARK       I    between atoms: C_2  and  N_3 
REMARK    1  A    between atoms: C_2  and  C_22 
REMARK    2  A    between atoms: N_3  and  C_4 
REMARK    3  A    between atoms: C_4  and  C_5 
REMARK    4  A    between atoms: C_5  and  C_6 
REMARK    5  A    between atoms: C_6  and  C_7 
REMARK    6  A    between atoms: C_7  and  N_8 
REMARK    7  A    between atoms: N_11  and  C_12 
ROOT
ATOM      1  C   UNL d   1       8.853   6.322 -11.530  0.00  0.00     0.037 C 
ENDROOT
BRANCH   1   2
ATOM      2  C   UNL d   1       9.608   6.841 -10.295  0.00  0.00     0.029 C 
BRANCH   2   3
ATOM      3  C   UNL d   1       9.059   6.290  -8.964  0.00  0.00     0.129 C 
BRANCH   3   4
ATOM      4  N   UNL d   1       9.456   7.135  -7.847  0.00  0.00    -0.234 NA
ATOM      5  C   UNL d   1      10.579   6.997  -7.127  0.00  0.00     0.276 C 
ATOM      6  O   UNL d   1      11.348   6.053  -7.238  0.00  0.00    -0.266 OA
BRANCH   5   7
ATOM      7  C   UNL d   1      10.822   8.091  -6.160  0.00  0.00     0.078 A 
ATOM      8  C   UNL d   1      11.383   7.899  -4.846  0.00  0.00     0.024 A 
ATOM      9  C   UNL d   1      11.503   9.190  -4.255  0.00  0.00     0.082 A 
ATOM     10  C   UNL d   1      11.780   6.790  -4.063  0.00  0.00     0.002 A 
ATOM     11  N   UNL d   1      11.060  10.094  -5.205  0.00  0.00    -0.244 NA
ATOM     12  C   UNL d   1      11.990   9.368  -2.948  0.00  0.00     0.019 A 
ATOM     13  C   UNL d   1      10.659   9.434  -6.355  0.00  0.00     0.104 A 
ATOM     14  C   UNL d   1      12.370   8.244  -2.194  0.00  0.00     0.002 A 
ATOM     15  C   UNL d   1      12.261   6.956  -2.748  0.00  0.00     0.000 A 
ENDBRANCH   5   7
ENDBRANCH   3   4
ENDBRANCH   2   3
ENDBRANCH   1   2
BRANCH   1  16
ATOM     16  C   UNL d   1       9.113   4.836 -11.802  0.00  0.00     0.251 C 
BRANCH  16  17
ATOM     17  N   UNL d   1       8.428   4.396 -13.009  0.00  0.00     0.141 N 
ATOM     18  C   UNL d   1       7.041   4.010 -12.690  0.00  0.00     0.274 C 
ATOM     19  C   UNL d   1       6.307   3.501 -13.938  0.00  0.00     0.137 C 
ATOM     20  N   UNL d   1       7.081   2.453 -14.603  0.00  0.00    -0.344 N 
ATOM     21  C   UNL d   1       8.487   2.753 -14.848  0.00  0.00     0.137 C 
ATOM     22  C   UNL d   1       9.154   3.245 -13.560  0.00  0.00     0.274 C 
BRANCH  20  23
ATOM     23  C   UNL d   1       6.510   1.227 -14.989  0.00  0.00     0.068 A 
ATOM     24  C   UNL d   1       6.655   0.682 -16.300  0.00  0.00     0.084 A 
ATOM     25  C   UNL d   1       6.039  -0.545 -16.625  0.00  0.00     0.070 A 
ATOM     26 CL   UNL d   1       7.510   1.533 -17.549  0.00  0.00    -0.080 Cl
ATOM     27  C   UNL d   1       5.265  -1.224 -15.674  0.00  0.00     0.012 A 
ATOM     28 CL   UNL d   1       6.214  -1.225 -18.202  0.00  0.00    -0.081 Cl
ATOM     29  C   UNL d   1       5.096  -0.683 -14.394  0.00  0.00     0.002 A 
ATOM     30  C   UNL d   1       5.714   0.531 -14.048  0.00  0.00     0.018 A 
ENDBRANCH  20  23
ENDBRANCH  16  17
ENDBRANCH   1  16
TORSDOF 7
