REMARK  4 active torsions:
REMARK  status: ('A' for Active; 'I' for Inactive)
REMARK    1  A    between atoms: C_2  and  C_3 
REMARK    2  A    between atoms: C_3  and  N_4 
REMARK    3  A    between atoms: C_7  and  C_8 
REMARK    4  A    between atoms: C_11  and  C_12 
ROOT
ATOM      1  C   UNL d   1      10.666   7.253  -8.110  0.00  0.00    -0.022 A 
ATOM      2  C   UNL d   1      10.218   6.779  -6.854  0.00  0.00    -0.004 A 
ATOM      3  C   UNL d   1      10.617   7.387  -5.659  0.00  0.00     0.004 A 
ATOM      4  C   UNL d   1      11.427   8.529  -5.692  0.00  0.00     0.071 A 
ATOM      5  C   UNL d   1      11.886   9.031  -6.934  0.00  0.00     0.004 A 
ATOM      6  C   UNL d   1      11.534   8.379  -8.132  0.00  0.00    -0.004 A 
ENDROOT
BRANCH   1   7
ATOM      7  C   UNL d   1      10.228   6.560  -9.407  0.00  0.00     0.026 C 
ATOM      8  C   UNL d   1       9.796   7.559 -10.491  0.00  0.00     0.040 C 
ATOM      9  C   UNL d   1       9.251   6.849 -11.735  0.00  0.00     0.251 C 
ATOM     10  N   UNL d   1       8.160   5.936 -11.399  0.00  0.00     0.137 N 
ATOM     11  C   UNL d   1       8.641   4.894 -10.497  0.00  0.00     0.251 C 
ATOM     12  C   UNL d   1       9.105   5.519  -9.192  0.00  0.00     0.040 C 
BRANCH  10  13
ATOM     13  C   UNL d   1       7.623   5.335 -12.602  0.00  0.00     0.250 C 
BRANCH  13  14
ATOM     14  C   UNL d   1       6.234   4.713 -12.361  0.00  0.00     0.035 C 
ATOM     15  C   UNL d   1       5.800   3.820 -13.517  0.00  0.00     0.002 C 
ENDBRANCH  13  14
ENDBRANCH  10  13
ENDBRANCH   1   7
BRANCH   4  16
ATOM     16  C   UNL d   1      11.810   9.221  -4.400  0.00  0.00     0.419 C 
ATOM     17  F   UNL d   1      13.086   9.585  -4.475  0.00  0.00    -0.166 F 
ATOM     18  F   UNL d   1      11.026  10.292  -4.240  0.00  0.00    -0.166 F 
ATOM     19  F   UNL d   1      11.674   8.416  -3.343  0.00  0.00    -0.166 F 
ENDBRANCH   4  16
TORSDOF 4
