REMARK  5 active torsions:
REMARK  status: ('A' for Active; 'I' for Inactive)
REMARK       I    between atoms: C_2  and  N_3 
REMARK    1  A    between atoms: C_2  and  C_16 
REMARK    2  A    between atoms: N_3  and  C_4 
REMARK    3  A    between atoms: N_7  and  C_8 
REMARK    4  A    between atoms: C_8  and  C_9 
REMARK    5  A    between atoms: C_19  and  C_20 
ROOT
ATOM      1  O   UNL d   1       9.858   8.620 -11.148  0.00  0.00    -0.266 OA
ATOM      2  C   UNL d   1       9.857   7.605 -10.457  0.00  0.00     0.275 C 
ATOM      3  N   UNL d   1       9.473   6.401 -10.909  0.00  0.00    -0.234 NA
ENDROOT
BRANCH   2   4
ATOM      4  C   UNL d   1      10.290   7.660  -9.025  0.00  0.00     0.058 A 
ATOM      5  C   UNL d   1      11.308   8.553  -8.636  0.00  0.00     0.005 A 
ATOM      6  C   UNL d   1      11.688   8.653  -7.284  0.00  0.00     0.000 A 
ATOM      7  C   UNL d   1      11.052   7.864  -6.297  0.00  0.00     0.000 A 
ATOM      8  C   UNL d   1      10.014   6.991  -6.690  0.00  0.00     0.000 A 
ATOM      9  C   UNL d   1       9.632   6.892  -8.040  0.00  0.00     0.005 A 
BRANCH   7  10
ATOM     10  C   UNL d   1      11.460   7.953  -4.888  0.00  0.00     0.000 A 
ATOM     11  C   UNL d   1      11.637   6.787  -4.108  0.00  0.00     0.000 A 
ATOM     12  C   UNL d   1      12.033   6.871  -2.759  0.00  0.00     0.000 A 
ATOM     13  C   UNL d   1      12.264   8.128  -2.176  0.00  0.00     0.000 A 
ATOM     14  C   UNL d   1      12.085   9.294  -2.939  0.00  0.00     0.000 A 
ATOM     15  C   UNL d   1      11.693   9.207  -4.287  0.00  0.00     0.000 A 
ENDBRANCH   7  10
ENDBRANCH   2   4
BRANCH   3  16
ATOM     16  C   UNL d   1       8.881   6.136 -12.215  0.00  0.00     0.142 C 
ATOM     17  C   UNL d   1       9.509   4.903 -12.865  0.00  0.00     0.275 C 
ATOM     18  N   UNL d   1       8.415   4.347 -13.646  0.00  0.00     0.143 N 
ATOM     19  C   UNL d   1       7.277   4.410 -12.741  0.00  0.00     0.253 C 
ATOM     20  C   UNL d   1       7.391   5.805 -12.126  0.00  0.00     0.062 C 
BRANCH  18  21
ATOM     21  C   UNL d   1       8.709   2.985 -14.086  0.00  0.00     0.277 C 
BRANCH  21  22
ATOM     22  C   UNL d   1       9.727   2.908 -15.211  0.00  0.00     0.011 A 
ATOM     23  C   UNL d   1      10.527   1.754 -15.355  0.00  0.00    -0.002 A 
ATOM     24  C   UNL d   1      11.463   1.666 -16.407  0.00  0.00    -0.000 A 
ATOM     25  C   UNL d   1      11.608   2.732 -17.316  0.00  0.00    -0.000 A 
ATOM     26  C   UNL d   1      10.811   3.884 -17.179  0.00  0.00    -0.000 A 
ATOM     27  C   UNL d   1       9.871   3.969 -16.136  0.00  0.00    -0.002 A 
ENDBRANCH  21  22
ENDBRANCH  18  21
ENDBRANCH   3  16
TORSDOF 5
