REMARK  5 active torsions:
REMARK  status: ('A' for Active; 'I' for Inactive)
REMARK    1  A    between atoms: O_2  and  C_3 
REMARK    2  A    between atoms: C_8  and  N_9 
REMARK    3  A    between atoms: N_12  and  C_13 
REMARK    4  A    between atoms: C_13  and  C_14 
REMARK    5  A    between atoms: C_14  and  C_15 
ROOT
ATOM      1  N   UNL d   1       8.206   5.018 -12.303  0.00  0.00    -0.343 N 
ATOM      2  C   UNL d   1       8.795   6.334 -12.467  0.00  0.00     0.137 C 
ATOM      3  C   UNL d   1       9.781   6.634 -11.318  0.00  0.00     0.274 C 
ATOM      4  N   UNL d   1       9.153   6.449 -10.008  0.00  0.00     0.141 N 
ATOM      5  C   UNL d   1       8.638   5.084  -9.881  0.00  0.00     0.274 C 
ATOM      6  C   UNL d   1       7.614   4.776 -10.999  0.00  0.00     0.137 C 
ENDROOT
BRANCH   4   7
ATOM      7  C   UNL d   1      10.078   6.803  -8.936  0.00  0.00     0.255 C 
BRANCH   7   8
ATOM      8  C   UNL d   1       9.329   7.132  -7.633  0.00  0.00     0.062 C 
BRANCH   8   9
ATOM      9  C   UNL d   1      10.238   7.765  -6.585  0.00  0.00    -0.018 A 
ATOM     10  C   UNL d   1      10.674   7.018  -5.475  0.00  0.00     0.018 A 
ATOM     11  C   UNL d   1      11.480   7.598  -4.473  0.00  0.00     0.124 A 
ATOM     12  C   UNL d   1      11.852   8.953  -4.623  0.00  0.00     0.124 A 
ATOM     13  N   UNL d   1      11.979   7.090  -3.285  0.00  0.00    -0.127 NA
ATOM     14  C   UNL d   1      11.455   9.720  -5.730  0.00  0.00     0.022 A 
ATOM     15  N   UNL d   1      12.582   9.152  -3.468  0.00  0.00    -0.127 NA
ATOM     16  C   UNL d   1      10.637   9.118  -6.713  0.00  0.00    -0.003 A 
ATOM     17  N   UNL d   1      12.642   8.037  -2.696  0.00  0.00    -0.042 NA
ENDBRANCH   8   9
ENDBRANCH   7   8
ENDBRANCH   4   7
BRANCH   1  18
ATOM     18  C   UNL d   1       8.294   4.013 -13.289  0.00  0.00     0.079 A 
ATOM     19  C   UNL d   1       9.521   3.693 -13.931  0.00  0.00     0.110 A 
ATOM     20  C   UNL d   1       9.537   2.665 -14.914  0.00  0.00     0.026 A 
ATOM     21  C   UNL d   1       8.363   1.969 -15.249  0.00  0.00     0.002 A 
ATOM     22  C   UNL d   1       7.156   2.283 -14.611  0.00  0.00     0.002 A 
ATOM     23  C   UNL d   1       7.120   3.301 -13.640  0.00  0.00     0.019 A 
BRANCH  19  24
ATOM     24  O   UNL d   1      10.655   4.378 -13.541  0.00  0.00    -0.327 OA
ATOM     25  C   UNL d   1      11.878   4.108 -14.204  0.00  0.00     0.181 C 
ENDBRANCH  19  24
ENDBRANCH   1  18
TORSDOF 5
