REMARK  5 active torsions:
REMARK  status: ('A' for Active; 'I' for Inactive)
REMARK    1  A    between atoms: C_6  and  N_7 
REMARK       I    between atoms: N_7  and  C_8 
REMARK    2  A    between atoms: C_8  and  C_10 
REMARK    3  A    between atoms: C_10  and  C_11 
REMARK    4  A    between atoms: C_11  and  N_12 
REMARK    5  A    between atoms: N_15  and  C_16 
ROOT
ATOM      1  N   UNL d   1      10.119   7.362  -8.894  0.00  0.00     0.142 N 
ATOM      2  C   UNL d   1      11.024   8.452  -8.523  0.00  0.00     0.275 C 
ATOM      3  C   UNL d   1      10.575   9.103  -7.201  0.00  0.00     0.155 C 
ATOM      4  N   UNL d   1      10.502   8.097  -6.150  0.00  0.00    -0.179 N 
ATOM      5  C   UNL d   1       9.668   6.954  -6.498  0.00  0.00     0.155 C 
ATOM      6  C   UNL d   1      10.125   6.345  -7.835  0.00  0.00     0.275 C 
ENDROOT
BRANCH   1   7
ATOM      7  C   UNL d   1      10.530   6.783 -10.171  0.00  0.00     0.260 C 
BRANCH   7   8
ATOM      8  C   UNL d   1       9.576   7.210 -11.307  0.00  0.00     0.125 C 
BRANCH   8   9
ATOM      9  C   UNL d   1       9.209   6.035 -12.215  0.00  0.00     0.258 C 
ATOM     10  N   UNL d   1       7.958   5.562 -12.110  0.00  0.00    -0.212 NA
ATOM     11  O   UNL d   1      10.060   5.590 -12.984  0.00  0.00    -0.270 OA
BRANCH  10  12
ATOM     12  C   UNL d   1       7.373   4.423 -12.742  0.00  0.00     0.084 A 
ATOM     13  C   UNL d   1       6.100   4.034 -12.286  0.00  0.00     0.019 A 
ATOM     14  C   UNL d   1       5.454   2.907 -12.829  0.00  0.00     0.001 A 
ATOM     15  C   UNL d   1       6.076   2.153 -13.843  0.00  0.00    -0.004 A 
ATOM     16  C   UNL d   1       7.338   2.543 -14.329  0.00  0.00    -0.020 A 
ATOM     17  C   UNL d   1       8.015   1.753 -15.429  0.00  0.00     0.031 C 
ATOM     18  C   UNL d   1       7.987   3.667 -13.778  0.00  0.00     0.015 A 
ENDBRANCH  10  12
ENDBRANCH   8   9
ENDBRANCH   7   8
ENDBRANCH   1   7
BRANCH   4  19
ATOM     19  C   UNL d   1      11.170   8.221  -4.940  0.00  0.00     0.727 A 
ATOM     20  N   UNL d   1      11.605   7.100  -4.362  0.00  0.00    -0.060 NA
ATOM     21  C   UNL d   1      12.232   7.220  -3.173  0.00  0.00     0.120 A 
ATOM     22  C   UNL d   1      12.403   8.470  -2.554  0.00  0.00     0.043 A 
ATOM     23  C   UNL d   1      11.882   9.578  -3.242  0.00  0.00     0.120 A 
ATOM     24  N   UNL d   1      11.281   9.454  -4.443  0.00  0.00    -0.060 NA
ENDBRANCH   4  19
TORSDOF 5
