REMARK  2 active torsions:
REMARK  status: ('A' for Active; 'I' for Inactive)
REMARK    1  A    between atoms: O_2  and  C_3 
REMARK    2  A    between atoms: C_8  and  O_9 
ROOT
ATOM      1  C   UNL d   1       8.947   1.538 -19.667  0.00  0.00     0.116 A 
ATOM      2  C   UNL d   1      10.204   1.605 -19.022  0.00  0.00     0.022 A 
ATOM      3  C   UNL d   1      10.334   1.415 -17.629  0.00  0.00    -0.022 A 
ATOM      4  C   UNL d   1       9.172   1.162 -16.849  0.00  0.00    -0.020 A 
ATOM      5  C   UNL d   1       7.923   1.070 -17.506  0.00  0.00     0.022 A 
ATOM      6  C   UNL d   1       7.798   1.258 -18.902  0.00  0.00     0.116 A 
ATOM      7  C   UNL d   1       9.214   0.973 -15.328  0.00  0.00     0.052 C 
ATOM      8  C   UNL d   1       8.073   1.665 -14.573  0.00  0.00    -0.022 A 
ATOM      9  C   UNL d   1       6.913   0.905 -14.293  0.00  0.00    -0.004 A 
ATOM     10  C   UNL d   1       5.813   1.482 -13.639  0.00  0.00    -0.000 A 
ATOM     11  C   UNL d   1       5.856   2.833 -13.246  0.00  0.00    -0.000 A 
ATOM     12  C   UNL d   1       7.008   3.594 -13.499  0.00  0.00    -0.005 A 
ATOM     13  C   UNL d   1       8.127   3.025 -14.148  0.00  0.00    -0.026 A 
ATOM     14  C   UNL d   1       9.363   3.894 -14.326  0.00  0.00     0.028 C 
ATOM     15  C   UNL d   1       9.514   4.481 -15.744  0.00  0.00     0.040 C 
ATOM     16  C   UNL d   1      10.947   4.935 -16.105  0.00  0.00     0.251 C 
ATOM     17  N   UNL d   1      11.611   3.980 -16.996  0.00  0.00     0.139 N 
ATOM     18  C   UNL d   1      12.729   4.613 -17.683  0.00  0.00     0.285 C 
ATOM     19  C   UNL d   1      12.076   2.788 -16.285  0.00  0.00     0.255 C 
ATOM     20  C   UNL d   1      11.748   1.491 -17.050  0.00  0.00     0.061 C 
ENDROOT
BRANCH   1  21
ATOM     21  O   UNL d   1       8.771   1.722 -21.023  0.00  0.00    -0.326 OA
ATOM     22  C   UNL d   1       9.910   2.012 -21.819  0.00  0.00     0.181 C 
ENDBRANCH   1  21
BRANCH   6  23
ATOM     23  O   UNL d   1       6.596   1.192 -19.578  0.00  0.00    -0.326 OA
ATOM     24  C   UNL d   1       5.441   0.770 -18.868  0.00  0.00     0.181 C 
ENDBRANCH   6  23
TORSDOF 2
