REMARK  8 active torsions:
REMARK  status: ('A' for Active; 'I' for Inactive)
REMARK    1  A    between atoms: S_2  and  O_5 
REMARK    2  A    between atoms: O_5  and  C_6 
REMARK    3  A    between atoms: N_14  and  C_15 
REMARK    4  A    between atoms: C_15  and  C_16 
REMARK    5  A    between atoms: C_16  and  C_17 
REMARK    6  A    between atoms: C_20  and  N_21 
REMARK       I    between atoms: N_21  and  C_22 
REMARK    7  A    between atoms: C_22  and  C_24 
REMARK    8  A    between atoms: C_25  and  C_26 
ROOT
ATOM      1  C   UNL d   1       7.048   2.697 -13.445  0.00  0.00     0.002 C 
ATOM      2  C   UNL d   1       6.689   1.203 -13.690  0.00  0.00     0.002 C 
ATOM      3  C   UNL d   1       7.737   0.506 -14.548  0.00  0.00     0.024 C 
ATOM      4  C   UNL d   1       7.885   1.200 -15.899  0.00  0.00     0.107 C 
ATOM      5  C   UNL d   1       8.261   2.668 -15.677  0.00  0.00     0.024 C 
ATOM      6  C   UNL d   1       7.229   3.355 -14.777  0.00  0.00     0.002 C 
ENDROOT
BRANCH   1   7
ATOM      7  C   UNL d   1       5.961   3.382 -12.575  0.00  0.00     0.035 C 
BRANCH   7   8
ATOM      8  C   UNL d   1       6.118   4.917 -12.465  0.00  0.00     0.250 C 
BRANCH   8   9
ATOM      9  N   UNL d   1       7.488   5.271 -12.083  0.00  0.00     0.138 N 
ATOM     10  C   UNL d   1       7.657   4.993 -10.661  0.00  0.00     0.255 C 
ATOM     11  C   UNL d   1       9.107   4.886 -10.192  0.00  0.00     0.061 C 
ATOM     12  C   UNL d   1       9.761   6.223  -9.963  0.00  0.00    -0.022 A 
ATOM     13  C   UNL d   1       9.761   7.246 -10.918  0.00  0.00    -0.024 A 
ATOM     14  C   UNL d   1      10.413   6.433  -8.725  0.00  0.00     0.021 A 
ATOM     15  C   UNL d   1      10.410   8.441 -10.601  0.00  0.00    -0.003 A 
ATOM     16  C   UNL d   1       9.146   7.105 -12.309  0.00  0.00     0.061 C 
ATOM     17  C   UNL d   1      11.127   8.655  -9.421  0.00  0.00     0.025 A 
ATOM     18  C   UNL d   1      11.107   7.630  -8.466  0.00  0.00     0.113 A 
ATOM     19  C   UNL d   1       7.680   6.695 -12.333  0.00  0.00     0.255 C 
BRANCH  18  20
ATOM     20  O   UNL d   1      11.716   7.805  -7.272  0.00  0.00    -0.230 OA
BRANCH  20  21
ATOM     21  S   UNL d   1      10.893   8.761  -6.146  0.00  0.00     0.285 S 
ATOM     22  C   UNL d   1       9.130   8.525  -6.664  0.00  0.00     0.172 C 
ATOM     23  O   UNL d   1      11.276  10.152  -6.382  0.00  0.00    -0.197 OA
ATOM     24  O   UNL d   1      11.086   8.129  -4.828  0.00  0.00    -0.197 OA
ENDBRANCH  20  21
ENDBRANCH  18  20
ENDBRANCH   8   9
ENDBRANCH   7   8
ENDBRANCH   1   7
BRANCH   4  25
ATOM     25  N   UNL d   1       8.927   0.543 -16.675  0.00  0.00    -0.236 NA
ATOM     26  C   UNL d   1       8.961   0.465 -18.013  0.00  0.00     0.275 C 
ATOM     27  O   UNL d   1       8.011   0.777 -18.733  0.00  0.00    -0.266 OA
BRANCH  26  28
ATOM     28  C   UNL d   1      10.266   0.017 -18.465  0.00  0.00     0.062 C 
ATOM     29  C   UNL d   1      10.576  -0.003 -19.776  0.00  0.00     0.005 C 
BRANCH  29  30
ATOM     30  C   UNL d   1      11.870  -0.407 -20.349  0.00  0.00     0.000 A 
ATOM     31  C   UNL d   1      11.954  -0.609 -21.744  0.00  0.00     0.002 A 
ATOM     32  C   UNL d   1      13.158  -1.029 -22.338  0.00  0.00     0.030 A 
ATOM     33  C   UNL d   1      14.296  -1.243 -21.538  0.00  0.00     0.140 A 
ATOM     34  C   UNL d   1      14.226  -1.042 -20.148  0.00  0.00     0.030 A 
ATOM     35  F   UNL d   1      15.463  -1.637 -22.101  0.00  0.00    -0.204 F 
ATOM     36  C   UNL d   1      13.020  -0.628 -19.554  0.00  0.00     0.002 A 
ENDBRANCH  29  30
ENDBRANCH  26  28
ENDBRANCH   4  25
TORSDOF 8
