REMARK  5 active torsions:
REMARK  status: ('A' for Active; 'I' for Inactive)
REMARK    1  A    between atoms: C_10  and  S_11 
REMARK    2  A    between atoms: S_11  and  C_12 
REMARK    3  A    between atoms: C_12  and  C_13 
REMARK    4  A    between atoms: C_13  and  C_14 
REMARK    5  A    between atoms: C_14  and  N_16 
ROOT
ATOM      1  C   UNL d   1      12.497  -0.631 -21.474  0.00  0.00     0.067 C 
ENDROOT
BRANCH   1   2
ATOM      2  S   UNL d   1      13.680   0.774 -21.238  0.00  0.00    -0.075 SA
BRANCH   2   3
ATOM      3  C   UNL d   1      12.809   1.925 -20.195  0.00  0.00     0.193 A 
ATOM      4  N   UNL d   1      11.530   2.211 -20.291  0.00  0.00    -0.122 NA
ATOM      5  N   UNL d   1      11.223   3.067 -19.332  0.00  0.00    -0.128 NA
ATOM      6  C   UNL d   1      12.376   3.367 -18.749  0.00  0.00     0.167 A 
ATOM      7  C   UNL d   1      12.414   4.366 -17.744  0.00  0.00     0.037 A 
ATOM      8  N   UNL d   1      13.419   2.695 -19.284  0.00  0.00    -0.289 N 
ATOM      9  C   UNL d   1      11.647   4.236 -16.555  0.00  0.00     0.021 A 
ATOM     10  C   UNL d   1      13.193   5.500 -18.021  0.00  0.00     0.003 A 
ATOM     11  C   UNL d   1      10.828   3.105 -16.290  0.00  0.00     0.003 A 
ATOM     12  C   UNL d   1      11.726   5.264 -15.593  0.00  0.00     0.081 A 
ATOM     13  C   UNL d   1      10.128   3.048 -15.077  0.00  0.00     0.015 A 
ATOM     14  C   UNL d   1      10.280   4.117 -14.179  0.00  0.00     0.059 A 
ATOM     15  C   UNL d   1       9.563   4.114 -12.845  0.00  0.00     0.052 C 
ATOM     16  N   UNL d   1      11.058   5.199 -14.429  0.00  0.00    -0.250 NA
ATOM     17  C   UNL d   1      12.552   6.376 -15.870  0.00  0.00     0.019 A 
ATOM     18  C   UNL d   1      13.275   6.503 -17.063  0.00  0.00     0.002 A 
ATOM     19  C   UNL d   1      14.818   2.808 -19.002  0.00  0.00     0.134 C 
ENDBRANCH   2   3
ENDBRANCH   1   2
BRANCH   1  20
ATOM     20  C   UNL d   1      11.098  -0.215 -21.989  0.00  0.00     0.045 C 
BRANCH  20  21
ATOM     21  C   UNL d   1       9.897  -1.089 -21.613  0.00  0.00     0.220 C 
ATOM     22  C   UNL d   1       9.761  -2.039 -22.797  0.00  0.00     0.035 C 
BRANCH  21  23
ATOM     23  N   UNL d   1       8.651  -0.294 -21.373  0.00  0.00     0.136 N 
ATOM     24  C   UNL d   1       7.415  -1.064 -21.301  0.00  0.00     0.255 C 
ATOM     25  C   UNL d   1       7.350  -2.051 -20.123  0.00  0.00     0.061 C 
ATOM     26  C   UNL d   1       6.870  -1.419 -18.817  0.00  0.00    -0.026 A 
ATOM     27  C   UNL d   1       7.619  -0.368 -18.218  0.00  0.00    -0.023 A 
ATOM     28  C   UNL d   1       5.673  -1.864 -18.191  0.00  0.00    -0.002 A 
ATOM     29  C   UNL d   1       8.890   0.158 -18.861  0.00  0.00     0.061 C 
ATOM     30  C   UNL d   1       7.185   0.235 -17.015  0.00  0.00     0.017 A 
ATOM     31  C   UNL d   1       8.641   0.709 -20.284  0.00  0.00     0.255 C 
ATOM     32  C   UNL d   1       6.009  -0.206 -16.381  0.00  0.00     0.105 A 
ATOM     33  C   UNL d   1       5.277  -1.244 -16.991  0.00  0.00     0.115 A 
ATOM     34  N   UNL d   1       5.380   0.187 -15.216  0.00  0.00    -0.224 NA
ATOM     35  O   UNL d   1       4.164  -1.493 -16.209  0.00  0.00    -0.292 OA
ATOM     36  C   UNL d   1       4.301  -0.607 -15.177  0.00  0.00     0.159 A 
ATOM     37  C   UNL d   1       3.242  -0.593 -14.130  0.00  0.00     0.080 C 
ATOM     38  C   UNL d   1       4.814  -2.979 -18.766  0.00  0.00     0.033 C 
ENDBRANCH  21  23
ENDBRANCH  20  21
ENDBRANCH   1  20
TORSDOF 5
