REMARK  4 active torsions:
REMARK  status: ('A' for Active; 'I' for Inactive)
REMARK    1  A    between atoms: C_11  and  C_12 
REMARK    2  A    between atoms: C_12  and  N_13 
REMARK    3  A    between atoms: N_13  and  C_14 
REMARK    4  A    between atoms: C_14  and  C_15 
ROOT
ATOM      1  O   UNL d   1      11.846   7.009  -4.059  0.00  0.00    -0.189 OA
ATOM      2  C   UNL d   1      11.359   7.520  -5.232  0.00  0.00     0.143 A 
ATOM      3  C   UNL d   1      11.087   6.657  -6.306  0.00  0.00     0.052 A 
ATOM      4  C   UNL d   1      10.548   7.145  -7.508  0.00  0.00     0.092 A 
ATOM      5  C   UNL d   1      10.329   8.537  -7.654  0.00  0.00     0.001 A 
ATOM      6  C   UNL d   1      10.641   9.410  -6.593  0.00  0.00     0.011 A 
ATOM      7  C   UNL d   1      11.125   8.902  -5.375  0.00  0.00     0.083 A 
ATOM      8 CL   UNL d   1      11.403   9.974  -4.056  0.00  0.00    -0.080 Cl
ATOM      9  C   UNL d   1       9.777   9.087  -8.953  0.00  0.00     0.031 C 
ATOM     10  C   UNL d   1       9.856   8.053 -10.070  0.00  0.00     0.037 C 
ATOM     11  C   UNL d   1       9.413   6.674  -9.550  0.00  0.00     0.158 C 
ATOM     12  O   UNL d   1      10.287   6.241  -8.514  0.00  0.00    -0.331 OA
ENDROOT
BRANCH  11  13
ATOM     13  C   UNL d   1       9.478   5.643 -10.684  0.00  0.00     0.320 C 
BRANCH  13  14
ATOM     14  N   UNL d   1       8.226   5.612 -11.415  0.00  0.00     0.346 N 
BRANCH  14  15
ATOM     15  C   UNL d   1       8.413   5.279 -12.820  0.00  0.00     0.317 C 
BRANCH  15  16
ATOM     16  C   UNL d   1       7.649   4.038 -13.240  0.00  0.00     0.014 A 
ATOM     17  C   UNL d   1       6.322   3.822 -12.805  0.00  0.00    -0.002 A 
ATOM     18  C   UNL d   1       5.633   2.658 -13.197  0.00  0.00    -0.000 A 
ATOM     19  C   UNL d   1       6.256   1.717 -14.041  0.00  0.00    -0.000 A 
ATOM     20  C   UNL d   1       7.572   1.938 -14.493  0.00  0.00    -0.000 A 
ATOM     21  C   UNL d   1       8.265   3.094 -14.088  0.00  0.00    -0.002 A 
ENDBRANCH  15  16
ENDBRANCH  14  15
ENDBRANCH  13  14
ENDBRANCH  11  13
TORSDOF 4
