REMARK  8 active torsions:
REMARK  status: ('A' for Active; 'I' for Inactive)
REMARK    1  A    between atoms: O_2  and  C_3 
REMARK    2  A    between atoms: C_6  and  C_7 
REMARK    3  A    between atoms: N_12  and  C_13 
REMARK    4  A    between atoms: C_13  and  C_14 
REMARK    5  A    between atoms: C_14  and  C_16 
REMARK    6  A    between atoms: C_16  and  N_17 
REMARK    7  A    between atoms: N_20  and  C_21 
REMARK    8  A    between atoms: C_26  and  O_27 
ROOT
ATOM      1  C   UNL d   1      10.290   5.996 -10.353  0.00  0.00     0.148 C 
ENDROOT
BRANCH   1   2
ATOM      2  N   UNL d   1       9.833   6.564  -9.126  0.00  0.00    -0.247 N 
ATOM      3  C   UNL d   1       8.880   5.977  -8.396  0.00  0.00     0.348 A 
ATOM      4  N   UNL d   1       8.714   6.680  -7.284  0.00  0.00    -0.209 NA
ATOM      5  O   UNL d   1       8.279   4.938  -8.688  0.00  0.00    -0.245 OA
ATOM      6  C   UNL d   1       9.616   7.821  -7.223  0.00  0.00     0.179 A 
ATOM      7  C   UNL d   1      10.372   7.631  -8.517  0.00  0.00     0.265 A 
ATOM      8  C   UNL d   1       8.851   9.115  -7.303  0.00  0.00     0.039 C 
ATOM      9  O   UNL d   1      11.298   8.344  -8.897  0.00  0.00    -0.269 OA
BRANCH   6  10
ATOM     10  C   UNL d   1      10.548   7.784  -6.025  0.00  0.00     0.006 A 
ATOM     11  C   UNL d   1      10.853   8.953  -5.284  0.00  0.00     0.000 A 
ATOM     12  C   UNL d   1      11.654   8.897  -4.152  0.00  0.00     0.024 A 
ATOM     13  C   UNL d   1      12.151   7.659  -3.710  0.00  0.00     0.094 A 
ATOM     14  C   UNL d   1      11.865   6.499  -4.441  0.00  0.00     0.024 A 
ATOM     15  C   UNL d   1      11.082   6.557  -5.605  0.00  0.00     0.000 A 
BRANCH  13  16
ATOM     16  O   UNL d   1      12.956   7.522  -2.605  0.00  0.00    -0.328 OA
ATOM     17  C   UNL d   1      12.808   8.489  -1.584  0.00  0.00     0.181 C 
ENDBRANCH  13  16
ENDBRANCH   6  10
ENDBRANCH   1   2
BRANCH   1  18
ATOM     18  C   UNL d   1       9.359   6.212 -11.559  0.00  0.00     0.208 C 
ATOM     19  O   UNL d   1       9.372   7.586 -11.878  0.00  0.00    -0.219 OA
BRANCH  18  20
ATOM     20  C   UNL d   1       9.819   5.401 -12.800  0.00  0.00     0.285 C 
BRANCH  20  21
ATOM     21  N   UNL d   1       9.072   4.171 -13.037  0.00  0.00     0.144 N 
ATOM     22  C   UNL d   1       9.800   3.284 -13.955  0.00  0.00     0.274 C 
ATOM     23  C   UNL d   1       9.040   1.976 -14.213  0.00  0.00     0.137 C 
ATOM     24  N   UNL d   1       7.691   2.274 -14.675  0.00  0.00    -0.343 N 
ATOM     25  C   UNL d   1       6.910   3.216 -13.876  0.00  0.00     0.137 C 
ATOM     26  C   UNL d   1       7.753   4.478 -13.617  0.00  0.00     0.274 C 
BRANCH  24  27
ATOM     27  C   UNL d   1       7.183   1.639 -15.807  0.00  0.00     0.079 A 
ATOM     28  C   UNL d   1       6.085   0.749 -15.718  0.00  0.00     0.110 A 
ATOM     29  C   UNL d   1       5.590   0.145 -16.901  0.00  0.00     0.026 A 
ATOM     30  C   UNL d   1       6.182   0.421 -18.149  0.00  0.00     0.002 A 
ATOM     31  C   UNL d   1       7.280   1.290 -18.230  0.00  0.00     0.002 A 
ATOM     32  C   UNL d   1       7.779   1.897 -17.063  0.00  0.00     0.019 A 
BRANCH  28  33
ATOM     33  O   UNL d   1       5.532   0.536 -14.469  0.00  0.00    -0.327 OA
ATOM     34  C   UNL d   1       4.471  -0.399 -14.359  0.00  0.00     0.181 C 
ENDBRANCH  28  33
ENDBRANCH  24  27
ENDBRANCH  20  21
ENDBRANCH  18  20
ENDBRANCH   1  18
TORSDOF 8
