REMARK  5 active torsions:
REMARK  status: ('A' for Active; 'I' for Inactive)
REMARK    1  A    between atoms: O_2  and  C_3 
REMARK    2  A    between atoms: C_8  and  O_9 
REMARK    3  A    between atoms: O_9  and  C_10 
REMARK    4  A    between atoms: C_10  and  C_11 
REMARK    5  A    between atoms: C_11  and  C_13 
ROOT
ATOM      1  C   UNL d   1      11.458   9.229  -4.628  0.00  0.00     0.116 A 
ATOM      2  C   UNL d   1      12.013   9.184  -3.334  0.00  0.00     0.026 A 
ATOM      3  C   UNL d   1      12.250   7.945  -2.716  0.00  0.00     0.002 A 
ATOM      4  C   UNL d   1      11.912   6.753  -3.382  0.00  0.00     0.002 A 
ATOM      5  C   UNL d   1      11.344   6.794  -4.671  0.00  0.00     0.026 A 
ATOM      6  C   UNL d   1      11.086   8.036  -5.290  0.00  0.00     0.116 A 
ENDROOT
BRANCH   6   7
ATOM      7  O   UNL d   1      10.497   8.147  -6.522  0.00  0.00    -0.326 OA
BRANCH   7   8
ATOM      8  C   UNL d   1       9.435   7.276  -6.884  0.00  0.00     0.184 C 
BRANCH   8   9
ATOM      9  C   UNL d   1       9.789   6.621  -8.232  0.00  0.00     0.215 C 
ATOM     10  O   UNL d   1       8.658   5.944  -8.730  0.00  0.00    -0.218 OA
BRANCH   9  11
ATOM     11  C   UNL d   1      10.275   7.588  -9.337  0.00  0.00     0.218 C 
ATOM     12  O   UNL d   1       9.463   8.739  -9.451  0.00  0.00    -0.218 OA
ENDBRANCH   9  11
ENDBRANCH   8   9
ENDBRANCH   7   8
ENDBRANCH   6   7
BRANCH   1  13
ATOM     13  O   UNL d   1      11.205  10.445  -5.199  0.00  0.00    -0.326 OA
ATOM     14  C   UNL d   1      11.916  10.688  -6.404  0.00  0.00     0.181 C 
ENDBRANCH   1  13
TORSDOF 5
