REMARK  6 active torsions:
REMARK  status: ('A' for Active; 'I' for Inactive)
REMARK       I    between atoms: C_2  and  N_3 
REMARK    1  A    between atoms: C_2  and  C_25 
REMARK    2  A    between atoms: N_3  and  C_4 
REMARK    3  A    between atoms: C_7  and  C_8 
REMARK    4  A    between atoms: C_8  and  C_9 
REMARK    5  A    between atoms: C_9  and  N_10 
REMARK    6  A    between atoms: N_13  and  C_14 
ROOT
ATOM      1  C   UNL d   1       8.870   2.678 -15.803  0.00  0.00     0.106 C 
ATOM      2  C   UNL d   1       7.687   2.473 -14.836  0.00  0.00     0.024 C 
ATOM      3  C   UNL d   1       7.549   3.648 -13.853  0.00  0.00     0.002 C 
ATOM      4  C   UNL d   1       8.847   3.911 -13.066  0.00  0.00     0.002 C 
ATOM      5  C   UNL d   1      10.025   4.116 -14.037  0.00  0.00     0.002 C 
ATOM      6  C   UNL d   1      10.167   2.934 -15.015  0.00  0.00     0.024 C 
ENDROOT
BRANCH   4   7
ATOM      7  C   UNL d   1       8.647   5.081 -12.083  0.00  0.00     0.035 C 
BRANCH   7   8
ATOM      8  C   UNL d   1       9.838   5.278 -11.147  0.00  0.00     0.250 C 
BRANCH   8   9
ATOM      9  N   UNL d   1       9.460   6.054  -9.970  0.00  0.00     0.141 N 
ATOM     10  C   UNL d   1       9.886   5.372  -8.746  0.00  0.00     0.274 C 
ATOM     11  C   UNL d   1       9.484   6.175  -7.505  0.00  0.00     0.137 C 
ATOM     12  N   UNL d   1      10.063   7.513  -7.553  0.00  0.00    -0.344 N 
ATOM     13  C   UNL d   1       9.722   8.227  -8.786  0.00  0.00     0.137 C 
ATOM     14  C   UNL d   1      10.101   7.375 -10.011  0.00  0.00     0.274 C 
BRANCH  12  15
ATOM     15  C   UNL d   1      10.829   8.060  -6.499  0.00  0.00     0.057 A 
ATOM     16  C   UNL d   1      10.977   7.411  -5.237  0.00  0.00     0.028 A 
ATOM     17  C   UNL d   1      11.760   7.962  -4.207  0.00  0.00     0.059 A 
ATOM     18  C   UNL d   1      12.403   9.194  -4.401  0.00  0.00     0.011 A 
ATOM     19 CL   UNL d   1      11.898   7.139  -2.696  0.00  0.00    -0.082 Cl
ATOM     20  C   UNL d   1      12.259   9.857  -5.633  0.00  0.00     0.002 A 
ATOM     21  C   UNL d   1      11.498   9.301  -6.668  0.00  0.00     0.017 A 
ENDBRANCH  12  15
ENDBRANCH   8   9
ENDBRANCH   7   8
ENDBRANCH   4   7
BRANCH   1  22
ATOM     22  N   UNL d   1       9.041   1.508 -16.654  0.00  0.00    -0.240 NA
ATOM     23  C   UNL d   1       8.338   1.237 -17.759  0.00  0.00     0.251 C 
ATOM     24  O   UNL d   1       7.464   1.981 -18.207  0.00  0.00    -0.271 OA
BRANCH  23  25
ATOM     25  C   UNL d   1       8.673  -0.081 -18.459  0.00  0.00     0.081 C 
ATOM     26  C   UNL d   1       7.504  -1.077 -18.330  0.00  0.00     0.009 C 
ATOM     27  C   UNL d   1       7.821  -2.408 -19.035  0.00  0.00     0.001 C 
ATOM     28  C   UNL d   1       8.183  -2.179 -20.513  0.00  0.00     0.000 C 
ATOM     29  C   UNL d   1       9.343  -1.181 -20.656  0.00  0.00     0.001 C 
ATOM     30  C   UNL d   1       9.025   0.147 -19.944  0.00  0.00     0.009 C 
ENDBRANCH  23  25
ENDBRANCH   1  22
TORSDOF 6
