REMARK  7 active torsions:
REMARK  status: ('A' for Active; 'I' for Inactive)
REMARK    1  A    between atoms: S_2  and  N_4 
REMARK    2  A    between atoms: S_2  and  C_23 
REMARK    3  A    between atoms: N_4  and  C_5 
REMARK    4  A    between atoms: C_5  and  C_6 
REMARK    5  A    between atoms: C_6  and  C_7 
REMARK    6  A    between atoms: C_7  and  N_8 
REMARK    7  A    between atoms: N_11  and  C_12 
ROOT
ATOM      1  N   UNL d   1       8.543   5.963 -10.703  0.00  0.00     0.141 N 
ATOM      2  C   UNL d   1       9.794   5.409 -11.170  0.00  0.00     0.274 C 
ATOM      3  C   UNL d   1       9.858   5.415 -12.685  0.00  0.00     0.138 C 
ATOM      4  N   UNL d   1       8.729   4.708 -13.268  0.00  0.00    -0.328 N 
ATOM      5  C   UNL d   1       7.423   5.142 -12.766  0.00  0.00     0.138 C 
ATOM      6  C   UNL d   1       7.438   5.151 -11.225  0.00  0.00     0.274 C 
ENDROOT
BRANCH   1   7
ATOM      7  C   UNL d   1       8.547   5.958  -9.244  0.00  0.00     0.253 C 
BRANCH   7   8
ATOM      8  C   UNL d   1       9.333   7.176  -8.714  0.00  0.00     0.062 C 
BRANCH   8   9
ATOM      9  C   UNL d   1       9.116   7.420  -7.212  0.00  0.00     0.141 C 
BRANCH   9  10
ATOM     10  N   UNL d   1       9.569   8.766  -6.834  0.00  0.00    -0.184 NA
BRANCH  10  11
ATOM     11  S   UNL d   1      11.240   9.084  -6.562  0.00  0.00     0.287 S 
ATOM     12  O   UNL d   1      12.029   8.322  -7.539  0.00  0.00    -0.198 OA
ATOM     13  O   UNL d   1      11.415  10.539  -6.416  0.00  0.00    -0.198 OA
BRANCH  11  14
ATOM     14  C   UNL d   1      11.545   8.357  -4.968  0.00  0.00     0.134 A 
ATOM     15  S   UNL d   1      11.861   9.353  -3.573  0.00  0.00    -0.073 SA
ATOM     16  C   UNL d   1      12.041   7.950  -2.564  0.00  0.00     0.036 A 
ATOM     17  C   UNL d   1      11.865   6.788  -3.275  0.00  0.00     0.008 A 
ATOM     18  C   UNL d   1      11.579   7.023  -4.654  0.00  0.00     0.020 A 
ENDBRANCH  11  14
ENDBRANCH  10  11
ENDBRANCH   9  10
ENDBRANCH   8   9
ENDBRANCH   7   8
ENDBRANCH   1   7
BRANCH   4  19
ATOM     19  C   UNL d   1       8.870   3.666 -14.183  0.00  0.00     0.169 A 
ATOM     20  C   UNL d   1      10.000   3.364 -15.013  0.00  0.00     0.061 A 
ATOM     21  C   UNL d   1       9.690   2.231 -15.777  0.00  0.00     0.128 A 
ATOM     22  C   UNL d   1      11.258   3.990 -15.204  0.00  0.00     0.005 A 
ATOM     23  O   UNL d   1       8.394   1.889 -15.422  0.00  0.00    -0.210 OA
ATOM     24  C   UNL d   1      10.585   1.663 -16.707  0.00  0.00     0.027 A 
ATOM     25  N   UNL d   1       7.899   2.787 -14.440  0.00  0.00    -0.109 NA
ATOM     26  C   UNL d   1      11.856   2.270 -16.854  0.00  0.00     0.002 A 
ATOM     27  C   UNL d   1      12.182   3.419 -16.099  0.00  0.00     0.000 A 
ENDBRANCH   4  19
TORSDOF 7
