REMARK  3 active torsions:
REMARK  status: ('A' for Active; 'I' for Inactive)
REMARK    1  A    between atoms: N_5  and  C_6 
REMARK    2  A    between atoms: C_18  and  O_19 
REMARK    3  A    between atoms: O_19  and  S_20 
ROOT
ATOM      1  C   UNL d   1       7.712   1.086 -16.304  0.00  0.00     0.142 C 
ATOM      2  N   UNL d   1       7.988   1.984 -15.416  0.00  0.00    -0.227 NA
ATOM      3  C   UNL d   1       7.112   2.455 -14.424  0.00  0.00     0.101 A 
ATOM      4  C   UNL d   1       7.272   3.801 -14.016  0.00  0.00     0.021 A 
ATOM      5  C   UNL d   1       6.517   4.356 -12.968  0.00  0.00     0.002 A 
ATOM      6  C   UNL d   1       5.615   3.553 -12.253  0.00  0.00     0.002 A 
ATOM      7  C   UNL d   1       5.462   2.216 -12.642  0.00  0.00     0.021 A 
ATOM      8  C   UNL d   1       6.188   1.655 -13.701  0.00  0.00     0.099 A 
ATOM      9  N   UNL d   1       5.967   0.314 -14.016  0.00  0.00    -0.244 NA
ATOM     10  C   UNL d   1       5.636  -0.074 -15.306  0.00  0.00     0.084 A 
ATOM     11  C   UNL d   1       4.473  -0.858 -15.471  0.00  0.00     0.021 A 
ATOM     12  C   UNL d   1       4.014  -1.197 -16.755  0.00  0.00     0.027 A 
ATOM     13  C   UNL d   1       4.736  -0.773 -17.882  0.00  0.00     0.113 A 
ATOM     14  C   UNL d   1       5.889   0.014 -17.722  0.00  0.00     0.030 A 
ATOM     15  C   UNL d   1       6.384   0.355 -16.438  0.00  0.00     0.053 A 
ENDROOT
BRANCH   1  16
ATOM     16  N   UNL d   1       8.678   0.694 -17.222  0.00  0.00    -0.330 N 
ATOM     17  C   UNL d   1       9.757  -0.227 -16.894  0.00  0.00     0.138 C 
ATOM     18  C   UNL d   1      11.121   0.389 -17.261  0.00  0.00     0.274 C 
ATOM     19  N   UNL d   1      11.147   0.763 -18.671  0.00  0.00     0.143 N 
ATOM     20  C   UNL d   1      12.455   1.310 -19.005  0.00  0.00     0.286 C 
ATOM     21  C   UNL d   1      10.140   1.786 -18.901  0.00  0.00     0.274 C 
ATOM     22  C   UNL d   1       8.752   1.205 -18.584  0.00  0.00     0.138 C 
ENDBRANCH   1  16
BRANCH  13  23
ATOM     23  O   UNL d   1       4.335  -1.134 -19.137  0.00  0.00    -0.230 OA
BRANCH  23  24
ATOM     24  S   UNL d   1       4.937  -2.600 -19.736  0.00  0.00     0.285 S 
ATOM     25  C   UNL d   1       4.272  -3.782 -18.493  0.00  0.00     0.172 C 
ATOM     26  O   UNL d   1       4.270  -2.851 -21.021  0.00  0.00    -0.197 OA
ATOM     27  O   UNL d   1       6.404  -2.572 -19.651  0.00  0.00    -0.197 OA
ENDBRANCH  23  24
ENDBRANCH  13  23
TORSDOF 3
