REMARK  2 active torsions:
REMARK  status: ('A' for Active; 'I' for Inactive)
REMARK    1  A    between atoms: C_2  and  C_3 
REMARK    2  A    between atoms: C_9  and  C_10 
ROOT
ATOM      1  C   UNL d   1      10.033   1.915 -19.033  0.00  0.00    -0.022 A 
ATOM      2  C   UNL d   1      11.220   2.109 -18.303  0.00  0.00    -0.003 A 
ATOM      3  C   UNL d   1      11.194   2.076 -16.898  0.00  0.00     0.019 A 
ATOM      4  C   UNL d   1       9.983   1.842 -16.216  0.00  0.00     0.083 A 
ATOM      5  C   UNL d   1       8.790   1.576 -16.930  0.00  0.00     0.035 A 
ATOM      6  C   UNL d   1       8.822   1.667 -18.342  0.00  0.00    -0.001 A 
ATOM      7  C   UNL d   1       7.521   1.139 -16.248  0.00  0.00     0.079 C 
ATOM      8  N   UNL d   1       7.058   1.695 -15.191  0.00  0.00    -0.244 NA
ATOM      9  C   UNL d   1       7.677   2.672 -14.411  0.00  0.00     0.099 A 
ATOM     10  C   UNL d   1       6.817   3.562 -13.736  0.00  0.00     0.016 A 
ATOM     11  C   UNL d   1       7.319   4.526 -12.841  0.00  0.00    -0.020 A 
ATOM     12  C   UNL d   1       6.370   5.477 -12.142  0.00  0.00     0.031 C 
ATOM     13  C   UNL d   1       8.704   4.584 -12.591  0.00  0.00    -0.003 A 
ATOM     14  C   UNL d   1       9.577   3.694 -13.245  0.00  0.00     0.020 A 
ATOM     15  C   UNL d   1       9.074   2.746 -14.161  0.00  0.00     0.099 A 
ATOM     16  N   UNL d   1       9.996   1.938 -14.826  0.00  0.00    -0.244 NA
ENDROOT
BRANCH   7  17
ATOM     17  C   UNL d   1       6.697   0.022 -16.819  0.00  0.00    -0.005 C 
ATOM     18  C   UNL d   1       5.341  -0.309 -16.192  0.00  0.00     0.063 C 
ATOM     19  C   UNL d   1       4.818  -1.714 -16.551  0.00  0.00     0.255 C 
ATOM     20  N   UNL d   1       4.944  -1.913 -17.985  0.00  0.00     0.144 N 
ATOM     21  C   UNL d   1       6.345  -1.951 -18.373  0.00  0.00     0.276 C 
ATOM     22  C   UNL d   1       4.311  -3.165 -18.383  0.00  0.00     0.286 C 
ATOM     23  C   UNL d   1       7.148  -0.805 -17.783  0.00  0.00     0.006 C 
ENDBRANCH   7  17
BRANCH   1  24
ATOM     24  C   UNL d   1      10.027   1.968 -20.546  0.00  0.00     0.026 C 
ATOM     25  C   UNL d   1       9.491   3.303 -21.072  0.00  0.00     0.005 C 
ENDBRANCH   1  24
TORSDOF 2
