REMARK  2 active torsions:
REMARK  status: ('A' for Active; 'I' for Inactive)
REMARK    1  A    between atoms: C_2  and  C_3 
REMARK    2  A    between atoms: C_6  and  O_7 
ROOT
ATOM      1  C   UNL d   1      11.333   8.978  -7.663  0.00  0.00     0.057 C 
ATOM      2  C   UNL d   1      11.464   8.429  -6.248  0.00  0.00    -0.022 A 
ATOM      3  C   UNL d   1      11.514   9.329  -5.159  0.00  0.00     0.020 A 
ATOM      4  C   UNL d   1      11.604   8.861  -3.831  0.00  0.00     0.094 A 
ATOM      5  C   UNL d   1      11.595   7.460  -3.606  0.00  0.00     0.024 A 
ATOM      6  C   UNL d   1      11.517   6.590  -4.694  0.00  0.00    -0.003 A 
ATOM      7  C   UNL d   1      11.490   7.046  -6.029  0.00  0.00    -0.026 A 
ATOM      8  C   UNL d   1      11.453   6.045  -7.181  0.00  0.00     0.028 C 
ATOM      9  C   UNL d   1      11.043   6.636  -8.549  0.00  0.00     0.042 C 
ATOM     10  C   UNL d   1      11.717   7.986  -8.793  0.00  0.00     0.274 C 
ATOM     11  C   UNL d   1      13.243   7.877  -8.876  0.00  0.00     0.039 C 
ATOM     12  N   UNL d   1      11.382   8.512 -10.103  0.00  0.00     0.614 N 
ENDROOT
BRANCH   1  13
ATOM     13  C   UNL d   1       9.922   9.529  -7.879  0.00  0.00     0.006 C 
ATOM     14  C   UNL d   1       8.767   8.595  -7.568  0.00  0.00     0.000 C 
ENDBRANCH   1  13
BRANCH   4  15
ATOM     15  O   UNL d   1      11.654   9.768  -2.821  0.00  0.00    -0.328 OA
ATOM     16  C   UNL d   1      12.313   9.339  -1.634  0.00  0.00     0.181 C 
ENDBRANCH   4  15
TORSDOF 2
