REMARK  8 active torsions:
REMARK  status: ('A' for Active; 'I' for Inactive)
REMARK    1  A    between atoms: C_2  and  C_4 
REMARK    2  A    between atoms: C_8  and  O_9 
REMARK    3  A    between atoms: O_9  and  C_10 
REMARK    4  A    between atoms: C_10  and  C_11 
REMARK    5  A    between atoms: C_11  and  N_12 
REMARK    6  A    between atoms: C_18  and  N_19 
REMARK    7  A    between atoms: N_19  and  S_20 
REMARK    8  A    between atoms: S_20  and  C_23 
ROOT
ATOM      1  N   UNL d   1       9.348   6.716  -9.925  0.00  0.00     0.136 N 
ATOM      2  C   UNL d   1       8.551   6.485  -8.723  0.00  0.00     0.221 C 
ATOM      3  C   UNL d   1       9.105   5.239  -8.084  0.00  0.00     0.035 C 
ATOM      4  C   UNL d   1      10.538   5.191  -8.540  0.00  0.00     0.035 C 
ATOM      5  C   UNL d   1      10.681   6.468  -9.425  0.00  0.00     0.221 C 
ATOM      6  C   UNL d   1      11.068   7.679  -8.617  0.00  0.00     0.058 C 
ATOM      7  C   UNL d   1      10.154   7.908  -7.386  0.00  0.00     0.120 C 
ATOM      8  C   UNL d   1       8.682   7.703  -7.766  0.00  0.00     0.058 C 
ENDROOT
BRANCH   1   9
ATOM      9  C   UNL d   1       9.002   5.740 -10.924  0.00  0.00     0.282 C 
BRANCH   9  10
ATOM     10  C   UNL d   1       9.105   6.397 -12.308  0.00  0.00     0.184 C 
BRANCH  10  11
ATOM     11  O   UNL d   1       8.922   5.442 -13.332  0.00  0.00    -0.329 OA
BRANCH  11  12
ATOM     12  C   UNL d   1       7.770   4.681 -13.324  0.00  0.00     0.094 A 
ATOM     13  C   UNL d   1       6.610   5.036 -12.599  0.00  0.00     0.024 A 
ATOM     14  C   UNL d   1       5.546   4.114 -12.524  0.00  0.00     0.002 A 
ATOM     15  C   UNL d   1       5.580   2.909 -13.228  0.00  0.00    -0.004 A 
ATOM     16  C   UNL d   1       6.698   2.597 -14.040  0.00  0.00    -0.021 A 
ATOM     17  C   UNL d   1       7.803   3.487 -14.048  0.00  0.00     0.020 A 
BRANCH  16  18
ATOM     18  C   UNL d   1       6.697   1.338 -14.882  0.00  0.00     0.022 C 
ATOM     19  C   UNL d   1       7.434   0.198 -14.170  0.00  0.00     0.005 C 
ATOM     20  C   UNL d   1       7.244   1.584 -16.305  0.00  0.00     0.005 C 
ENDBRANCH  16  18
ENDBRANCH  11  12
ENDBRANCH  10  11
ENDBRANCH   9  10
ENDBRANCH   1   9
BRANCH   7  21
ATOM     21  N   UNL d   1      10.333   9.258  -6.864  0.00  0.00    -0.187 NA
BRANCH  21  22
ATOM     22  S   UNL d   1      11.848   9.754  -6.278  0.00  0.00     0.281 S 
ATOM     23  O   UNL d   1      12.866   9.181  -7.146  0.00  0.00    -0.199 OA
ATOM     24  O   UNL d   1      11.826  11.197  -6.085  0.00  0.00    -0.199 OA
BRANCH  22  25
ATOM     25  C   UNL d   1      11.876   8.947  -4.690  0.00  0.00     0.107 A 
ATOM     26  C   UNL d   1      12.042   7.545  -4.577  0.00  0.00     0.043 A 
ATOM     27  C   UNL d   1      12.209   6.957  -3.332  0.00  0.00     0.141 A 
ATOM     28  C   UNL d   1      12.130   7.738  -2.175  0.00  0.00     0.030 A 
ATOM     29  F   UNL d   1      12.592   5.683  -3.162  0.00  0.00    -0.204 F 
ATOM     30  C   UNL d   1      11.952   9.133  -2.268  0.00  0.00     0.003 A 
ATOM     31  C   UNL d   1      11.793   9.709  -3.512  0.00  0.00     0.013 A 
ENDBRANCH  22  25
ENDBRANCH  21  22
ENDBRANCH   7  21
TORSDOF 8
