REMARK  5 active torsions:
REMARK  status: ('A' for Active; 'I' for Inactive)
REMARK    1  A    between atoms: C_4  and  C_5 
REMARK    2  A    between atoms: C_5  and  N_6 
REMARK       I    between atoms: N_6  and  C_7 
REMARK    3  A    between atoms: C_7  and  O_9 
REMARK    4  A    between atoms: O_9  and  C_10 
REMARK    5  A    between atoms: C_10  and  C_11 
ROOT
ATOM      1  C   UNL d   1      11.330   4.762 -14.545  0.00  0.00     0.285 C 
ATOM      2  N   UNL d   1       9.933   4.830 -14.126  0.00  0.00     0.138 N 
ATOM      3  C   UNL d   1       9.872   5.074 -12.685  0.00  0.00     0.252 C 
ATOM      4  C   UNL d   1       8.435   5.319 -12.200  0.00  0.00     0.058 C 
ATOM      5  C   UNL d   1       7.630   4.072 -12.497  0.00  0.00     0.010 C 
ATOM      6  C   UNL d   1       7.722   3.705 -13.978  0.00  0.00     0.054 C 
ATOM      7  C   UNL d   1       6.951   2.422 -14.296  0.00  0.00    -0.019 A 
ATOM      8  C   UNL d   1       5.835   1.884 -13.628  0.00  0.00    -0.004 A 
ATOM      9  C   UNL d   1       5.222   0.721 -14.128  0.00  0.00     0.001 A 
ATOM     10  C   UNL d   1       5.719   0.125 -15.300  0.00  0.00     0.017 A 
ATOM     11  C   UNL d   1       6.822   0.646 -15.954  0.00  0.00     0.059 A 
ATOM     12  C   UNL d   1       7.439   1.784 -15.456  0.00  0.00     0.009 A 
ATOM     13  C   UNL d   1       8.504   2.034 -16.347  0.00  0.00    -0.002 A 
ATOM     14  C   UNL d   1       8.546   1.094 -17.339  0.00  0.00     0.072 A 
ATOM     15  N   UNL d   1       7.472   0.250 -17.099  0.00  0.00    -0.325 N 
ATOM     16  C   UNL d   1       7.082  -0.908 -17.882  0.00  0.00     0.131 C 
ATOM     17  C   UNL d   1       9.318   3.233 -15.945  0.00  0.00     0.061 C 
ATOM     18  C   UNL d   1       9.214   3.590 -14.435  0.00  0.00     0.228 C 
ENDROOT
BRANCH   4  19
ATOM     19  C   UNL d   1       8.408   5.604 -10.697  0.00  0.00     0.133 C 
BRANCH  19  20
ATOM     20  N   UNL d   1       9.144   6.826 -10.434  0.00  0.00    -0.212 NA
ATOM     21  C   UNL d   1      10.186   6.910  -9.543  0.00  0.00     0.384 C 
ATOM     22  O   UNL d   1      10.628   5.984  -8.856  0.00  0.00    -0.236 OA
BRANCH  21  23
ATOM     23  O   UNL d   1      10.671   8.151  -9.518  0.00  0.00    -0.279 OA
BRANCH  23  24
ATOM     24  C   UNL d   1      11.850   8.422  -8.771  0.00  0.00     0.180 C 
BRANCH  24  25
ATOM     25  C   UNL d   1      11.598   8.531  -7.271  0.00  0.00     0.008 A 
ATOM     26  C   UNL d   1      11.523   9.794  -6.647  0.00  0.00    -0.002 A 
ATOM     27  C   UNL d   1      11.319   9.900  -5.254  0.00  0.00    -0.000 A 
ATOM     28  C   UNL d   1      11.191   8.737  -4.477  0.00  0.00    -0.000 A 
ATOM     29  C   UNL d   1      11.228   7.468  -5.094  0.00  0.00    -0.000 A 
ATOM     30  C   UNL d   1      11.459   7.364  -6.485  0.00  0.00    -0.002 A 
ENDBRANCH  24  25
ENDBRANCH  23  24
ENDBRANCH  21  23
ENDBRANCH  19  20
ENDBRANCH   4  19
TORSDOF 5
