REMARK  6 active torsions:
REMARK  status: ('A' for Active; 'I' for Inactive)
REMARK    1  A    between atoms: C_4  and  C_5 
REMARK    2  A    between atoms: C_8  and  C_9 
REMARK    3  A    between atoms: C_9  and  S_10 
REMARK    4  A    between atoms: S_10  and  C_11 
REMARK    5  A    between atoms: N_19  and  C_20 
REMARK    6  A    between atoms: C_20  and  C_21 
ROOT
ATOM      1  C   UNL d   1       9.421   3.861 -14.050  0.00  0.00     0.172 A 
ATOM      2  N   UNL d   1       8.363   3.672 -14.827  0.00  0.00    -0.221 NA
ATOM      3  C   UNL d   1       7.297   3.839 -13.939  0.00  0.00     0.099 A 
ATOM      4  C   UNL d   1       5.901   3.906 -14.116  0.00  0.00     0.021 C 
ATOM      5  C   UNL d   1       5.006   3.981 -13.024  0.00  0.00     0.002 C 
ATOM      6  C   UNL d   1       5.506   4.013 -11.729  0.00  0.00     0.002 C 
ATOM      7  C   UNL d   1       6.888   4.024 -11.524  0.00  0.00     0.019 C 
ATOM      8  C   UNL d   1       7.741   3.998 -12.639  0.00  0.00     0.080 A 
ATOM      9  N   UNL d   1       9.095   3.999 -12.733  0.00  0.00    -0.303 N 
ENDROOT
BRANCH   1  10
ATOM     10  S   UNL d   1      11.073   3.935 -14.673  0.00  0.00    -0.072 SA
BRANCH  10  11
ATOM     11  C   UNL d   1      10.767   4.791 -16.252  0.00  0.00     0.091 C 
BRANCH  11  12
ATOM     12  C   UNL d   1      12.083   5.366 -16.742  0.00  0.00    -0.011 A 
ATOM     13  C   UNL d   1      12.402   6.725 -16.530  0.00  0.00    -0.003 A 
ATOM     14  C   UNL d   1      13.631   7.244 -16.980  0.00  0.00     0.003 A 
ATOM     15  C   UNL d   1      14.579   6.416 -17.622  0.00  0.00     0.038 A 
ATOM     16  C   UNL d   1      14.261   5.049 -17.802  0.00  0.00     0.003 A 
ATOM     17  C   UNL d   1      13.025   4.529 -17.372  0.00  0.00    -0.003 A 
BRANCH  15  18
ATOM     18  C   UNL d   1      15.867   6.958 -18.092  0.00  0.00     0.191 A 
ATOM     19  N   UNL d   1      15.993   8.256 -18.487  0.00  0.00    -0.203 NA
ATOM     20  C   UNL d   1      17.283   8.282 -18.816  0.00  0.00     0.185 A 
ATOM     21  C   UNL d   1      18.052   9.446 -19.344  0.00  0.00     0.083 C 
ATOM     22  O   UNL d   1      17.925   7.100 -18.628  0.00  0.00    -0.195 OA
ATOM     23  N   UNL d   1      16.959   6.207 -18.141  0.00  0.00    -0.105 NA
ENDBRANCH  15  18
ENDBRANCH  11  12
ENDBRANCH  10  11
ENDBRANCH   1  10
BRANCH   9  24
ATOM     24  C   UNL d   1       9.943   4.024 -11.627  0.00  0.00     0.135 C 
BRANCH  24  25
ATOM     25  C   UNL d   1       9.686   5.223 -10.693  0.00  0.00     0.001 A 
ATOM     26  C   UNL d   1       9.563   5.026  -9.302  0.00  0.00    -0.002 A 
ATOM     27  C   UNL d   1       9.487   6.136  -8.448  0.00  0.00     0.011 A 
ATOM     28  C   UNL d   1       9.569   7.436  -8.981  0.00  0.00     0.058 A 
ATOM     29  C   UNL d   1       9.698   7.635 -10.370  0.00  0.00     0.011 A 
ATOM     30 CL   UNL d   1       9.480   8.787  -7.920  0.00  0.00    -0.082 Cl
ATOM     31  C   UNL d   1       9.726   6.526 -11.229  0.00  0.00    -0.002 A 
ENDBRANCH  24  25
ENDBRANCH   9  24
TORSDOF 6
