REMARK  9 active torsions:
REMARK  status: ('A' for Active; 'I' for Inactive)
REMARK    1  A    between atoms: O_2  and  C_3 
REMARK    2  A    between atoms: C_8  and  N_9 
REMARK    3  A    between atoms: N_15  and  C_16 
REMARK    4  A    between atoms: C_16  and  C_17 
REMARK    5  A    between atoms: C_17  and  C_18 
REMARK    6  A    between atoms: C_18  and  S_19 
REMARK    7  A    between atoms: S_19  and  C_20 
REMARK    8  A    between atoms: C_23  and  C_24 
REMARK    9  A    between atoms: C_27  and  C_28 
ROOT
ATOM      1  C   UNL d   1       5.913  -0.561 -21.996  0.00  0.00     0.251 C 
ENDROOT
BRANCH   1   2
ATOM      2  N   UNL d   1       7.358  -0.407 -22.116  0.00  0.00     0.137 N 
ATOM      3  C   UNL d   1       7.572   0.996 -22.475  0.00  0.00     0.250 C 
ATOM      4  C   UNL d   1       9.065   1.206 -22.715  0.00  0.00     0.035 C 
ATOM      5  C   UNL d   1       9.906   0.906 -21.450  0.00  0.00     0.008 C 
ATOM      6  C   UNL d   1      11.410   0.969 -21.792  0.00  0.00     0.024 C 
ATOM      7  C   UNL d   1       9.563  -0.516 -20.987  0.00  0.00     0.035 C 
ATOM      8  C   UNL d   1       9.590   1.897 -20.298  0.00  0.00     0.024 C 
ATOM      9  C   UNL d   1      11.828   2.409 -22.130  0.00  0.00     0.102 C 
ATOM     10  N   UNL d   1      11.417   3.303 -21.065  0.00  0.00    -0.347 N 
ATOM     11  C   UNL d   1      10.020   3.313 -20.668  0.00  0.00     0.102 C 
ATOM     12  C   UNL d   1       8.051  -0.693 -20.834  0.00  0.00     0.250 C 
BRANCH  10  13
ATOM     13  C   UNL d   1      12.351   4.188 -20.463  0.00  0.00     0.079 A 
ATOM     14  C   UNL d   1      12.012   5.533 -20.196  0.00  0.00     0.110 A 
ATOM     15  C   UNL d   1      12.971   6.373 -19.598  0.00  0.00     0.026 A 
ATOM     16  C   UNL d   1      14.260   5.891 -19.278  0.00  0.00     0.002 A 
ATOM     17  C   UNL d   1      14.583   4.547 -19.554  0.00  0.00     0.002 A 
ATOM     18  C   UNL d   1      13.634   3.704 -20.146  0.00  0.00     0.019 A 
BRANCH  14  19
ATOM     19  O   UNL d   1      10.753   5.983 -20.572  0.00  0.00    -0.327 OA
ATOM     20  C   UNL d   1      10.372   7.308 -20.248  0.00  0.00     0.181 C 
ENDBRANCH  14  19
ENDBRANCH  10  13
ENDBRANCH   1   2
BRANCH   1  21
ATOM     21  C   UNL d   1       5.505  -2.069 -21.887  0.00  0.00     0.047 C 
BRANCH  21  22
ATOM     22  C   UNL d   1       5.568  -2.773 -20.482  0.00  0.00     0.067 C 
BRANCH  22  23
ATOM     23  S   UNL d   1       4.014  -2.683 -19.509  0.00  0.00    -0.075 SA
BRANCH  23  24
ATOM     24  C   UNL d   1       4.732  -2.148 -17.957  0.00  0.00     0.193 C 
ATOM     25  N   UNL d   1       5.020  -0.848 -17.678  0.00  0.00    -0.289 N 
ATOM     26  C   UNL d   1       5.492  -0.947 -16.401  0.00  0.00     0.167 C 
ATOM     27  C   UNL d   1       4.911   0.306 -18.546  0.00  0.00     0.134 C 
ATOM     28  N   UNL d   1       5.440  -2.195 -15.912  0.00  0.00    -0.128 NA
ATOM     29  N   UNL d   1       5.082  -2.994 -16.983  0.00  0.00    -0.122 NA
BRANCH  26  30
ATOM     30  C   UNL d   1       6.004   0.186 -15.646  0.00  0.00     0.036 A 
ATOM     31  C   UNL d   1       5.435   0.466 -14.394  0.00  0.00     0.003 A 
ATOM     32  C   UNL d   1       5.869   1.583 -13.665  0.00  0.00     0.000 A 
ATOM     33  C   UNL d   1       6.874   2.433 -14.184  0.00  0.00     0.001 A 
ATOM     34  C   UNL d   1       7.442   2.139 -15.442  0.00  0.00     0.000 A 
ATOM     35  C   UNL d   1       7.011   1.028 -16.174  0.00  0.00     0.003 A 
BRANCH  33  36
ATOM     36  C   UNL d   1       7.321   3.600 -13.413  0.00  0.00     0.007 A 
ATOM     37  C   UNL d   1       6.618   4.256 -12.433  0.00  0.00     0.035 A 
ATOM     38  S   UNL d   1       7.516   5.568 -11.728  0.00  0.00    -0.086 SA
ATOM     39  C   UNL d   1       8.868   5.239 -12.764  0.00  0.00     0.035 A 
ATOM     40  C   UNL d   1       8.624   4.175 -13.592  0.00  0.00     0.007 A 
ENDBRANCH  33  36
ENDBRANCH  26  30
ENDBRANCH  23  24
ENDBRANCH  22  23
ENDBRANCH  21  22
ENDBRANCH   1  21
TORSDOF 9
