REMARK  4 active torsions:
REMARK  status: ('A' for Active; 'I' for Inactive)
REMARK    1  A    between atoms: C_5  and  C_6 
REMARK    2  A    between atoms: C_8  and  C_9 
REMARK    3  A    between atoms: N_12  and  C_13 
REMARK    4  A    between atoms: C_13  and  C_14 
ROOT
ATOM      1  C   UNL d   1       8.611   4.422 -12.803  0.00  0.00     0.104 A 
ATOM      2  C   UNL d   1       9.768   4.973 -12.339  0.00  0.00     0.037 A 
ATOM      3  C   UNL d   1       9.377   5.669 -11.151  0.00  0.00     0.084 A 
ATOM      4  N   UNL d   1       8.072   5.566 -10.935  0.00  0.00    -0.152 NA
ATOM      5  N   UNL d   1       7.609   4.803 -11.938  0.00  0.00    -0.148 NA
ENDROOT
BRANCH   3   6
ATOM      6  C   UNL d   1      10.204   6.471 -10.168  0.00  0.00     0.077 C 
ATOM      7  C   UNL d   1      10.085   5.974  -8.725  0.00  0.00     0.257 C 
ATOM      8  N   UNL d   1      10.368   7.167  -7.943  0.00  0.00     0.142 N 
ATOM      9  C   UNL d   1       9.584   8.183  -8.634  0.00  0.00     0.251 C 
ATOM     10  C   UNL d   1       9.869   7.956 -10.113  0.00  0.00     0.043 C 
BRANCH   8  11
ATOM     11  C   UNL d   1       9.928   6.986  -6.564  0.00  0.00     0.277 C 
BRANCH  11  12
ATOM     12  C   UNL d   1      10.705   7.809  -5.572  0.00  0.00     0.011 A 
ATOM     13  C   UNL d   1      11.460   7.171  -4.564  0.00  0.00    -0.002 A 
ATOM     14  C   UNL d   1      12.185   7.943  -3.631  0.00  0.00    -0.000 A 
ATOM     15  C   UNL d   1      12.134   9.352  -3.705  0.00  0.00    -0.000 A 
ATOM     16  C   UNL d   1      11.374   9.984  -4.715  0.00  0.00    -0.000 A 
ATOM     17  C   UNL d   1      10.664   9.211  -5.637  0.00  0.00    -0.002 A 
ENDBRANCH  11  12
ENDBRANCH   8  11
ENDBRANCH   3   6
BRANCH   1  18
ATOM     18  C   UNL d   1       8.362   3.580 -13.963  0.00  0.00     0.019 A 
ATOM     19  C   UNL d   1       9.302   3.533 -15.017  0.00  0.00     0.002 A 
ATOM     20  C   UNL d   1       9.073   2.722 -16.147  0.00  0.00     0.011 A 
ATOM     21  C   UNL d   1       7.903   1.944 -16.226  0.00  0.00     0.058 A 
ATOM     22 CL   UNL d   1       7.595   0.981 -17.620  0.00  0.00    -0.082 Cl
ATOM     23  C   UNL d   1       6.973   1.969 -15.171  0.00  0.00     0.011 A 
ATOM     24  C   UNL d   1       7.195   2.792 -14.051  0.00  0.00     0.002 A 
ENDBRANCH   1  18
TORSDOF 4
