REMARK  7 active torsions:
REMARK  status: ('A' for Active; 'I' for Inactive)
REMARK    1  A    between atoms: O_2  and  C_3 
REMARK    2  A    between atoms: C_9  and  C_10 
REMARK    3  A    between atoms: N_13  and  C_14 
REMARK    4  A    between atoms: C_14  and  C_15 
REMARK    5  A    between atoms: C_15  and  C_16 
REMARK    6  A    between atoms: C_16  and  N_17 
REMARK    7  A    between atoms: C_21  and  C_22 
ROOT
ATOM      1  C   UNL d   1       7.968   4.026 -13.762  0.00  0.00     0.252 C 
ENDROOT
BRANCH   1   2
ATOM      2  N   UNL d   1       8.314   3.192 -14.886  0.00  0.00     0.137 N 
ATOM      3  C   UNL d   1       7.323   2.131 -14.922  0.00  0.00     0.251 C 
ATOM      4  C   UNL d   1       7.558   1.278 -16.147  0.00  0.00     0.040 C 
ATOM      5  C   UNL d   1       8.967   0.663 -16.170  0.00  0.00     0.028 C 
ATOM      6  C   UNL d   1      10.009   1.774 -15.907  0.00  0.00     0.040 C 
ATOM      7  C   UNL d   1       9.637   2.612 -14.684  0.00  0.00     0.251 C 
BRANCH   5   8
ATOM      8  C   UNL d   1       9.251  -0.059 -17.467  0.00  0.00    -0.002 A 
ATOM      9  C   UNL d   1      10.502  -0.214 -18.004  0.00  0.00     0.095 A 
ATOM     10  N   UNL d   1      10.409  -0.873 -19.215  0.00  0.00    -0.244 NA
ATOM     11  C   UNL d   1       9.095  -1.192 -19.487  0.00  0.00     0.081 A 
ATOM     12  C   UNL d   1       8.522  -1.863 -20.571  0.00  0.00     0.021 A 
ATOM     13  C   UNL d   1       8.319  -0.691 -18.384  0.00  0.00     0.017 A 
ATOM     14  C   UNL d   1       7.141  -2.077 -20.619  0.00  0.00     0.026 A 
ATOM     15  C   UNL d   1       6.322  -1.594 -19.554  0.00  0.00     0.094 A 
ATOM     16  C   UNL d   1       6.907  -0.920 -18.465  0.00  0.00     0.025 A 
BRANCH  15  17
ATOM     17  O   UNL d   1       4.951  -1.762 -19.532  0.00  0.00    -0.328 OA
ATOM     18  C   UNL d   1       4.372  -2.548 -20.558  0.00  0.00     0.181 C 
ENDBRANCH  15  17
ENDBRANCH   5   8
ENDBRANCH   1   2
BRANCH   1  19
ATOM     19  C   UNL d   1       8.568   5.442 -13.824  0.00  0.00     0.060 C 
BRANCH  19  20
ATOM     20  C   UNL d   1       8.102   6.339 -12.652  0.00  0.00     0.114 C 
BRANCH  20  21
ATOM     21  N   UNL d   1       8.623   5.916 -11.351  0.00  0.00    -0.270 N 
ATOM     22  C   UNL d   1       9.546   6.568 -10.628  0.00  0.00     0.243 C 
ATOM     23  C   UNL d   1       9.880   5.814  -9.345  0.00  0.00     0.113 C 
ATOM     24  O   UNL d   1      10.072   7.636 -10.920  0.00  0.00    -0.272 OA
ATOM     25  C   UNL d   1       8.955   4.583  -9.403  0.00  0.00     0.102 C 
ATOM     26  C   UNL d   1       8.160   4.847 -10.681  0.00  0.00     0.240 C 
ATOM     27  O   UNL d   1       7.200   4.181 -11.035  0.00  0.00    -0.272 OA
BRANCH  23  28
ATOM     28  C   UNL d   1       9.698   6.696  -8.169  0.00  0.00     0.007 A 
ATOM     29  C   UNL d   1      10.584   7.700  -7.663  0.00  0.00     0.016 A 
ATOM     30  C   UNL d   1       9.962   8.325  -6.543  0.00  0.00     0.081 A 
ATOM     31  C   UNL d   1      11.851   8.166  -8.037  0.00  0.00     0.001 A 
ATOM     32  N   UNL d   1       8.742   7.720  -6.435  0.00  0.00    -0.244 NA
ATOM     33  C   UNL d   1      10.576   9.353  -5.812  0.00  0.00     0.019 A 
ATOM     34  C   UNL d   1       8.617   6.710  -7.352  0.00  0.00     0.095 A 
ATOM     35  C   UNL d   1      11.850   9.783  -6.190  0.00  0.00     0.002 A 
ATOM     36  C   UNL d   1      12.478   9.182  -7.290  0.00  0.00     0.000 A 
ENDBRANCH  23  28
ENDBRANCH  20  21
ENDBRANCH  19  20
ENDBRANCH   1  19
TORSDOF 7
