REMARK  13 active torsions:
REMARK  status: ('A' for Active; 'I' for Inactive)
REMARK    1  A    between atoms: C_2  and  O_3 
REMARK    2  A    between atoms: O_3  and  C_4 
REMARK    3  A    between atoms: C_4  and  C_5 
REMARK    4  A    between atoms: C_5  and  O_6 
REMARK    5  A    between atoms: O_6  and  C_7 
REMARK    6  A    between atoms: C_13  and  C_14 
REMARK       I    between atoms: C_14  and  N_16 
REMARK    7  A    between atoms: N_16  and  C_17 
REMARK    8  A    between atoms: C_17  and  C_18 
REMARK    9  A    between atoms: C_18  and  C_19 
REMARK   10  A    between atoms: C_19  and  C_20 
REMARK   11  A    between atoms: C_20  and  N_21 
REMARK   12  A    between atoms: N_24  and  C_25 
REMARK   13  A    between atoms: C_30  and  O_31 
ROOT
ATOM      1  C   UNL d   1       7.637   1.953 -15.968  0.00  0.00     0.278 C 
ATOM      2  O   UNL d   1       8.627   2.668 -16.113  0.00  0.00    -0.265 OA
ATOM      3  N   UNL d   1       6.771   2.041 -14.943  0.00  0.00    -0.234 NA
ENDROOT
BRANCH   3   4
ATOM      4  C   UNL d   1       6.653   3.141 -13.982  0.00  0.00     0.129 C 
BRANCH   4   5
ATOM      5  C   UNL d   1       7.987   3.537 -13.323  0.00  0.00     0.029 C 
BRANCH   5   6
ATOM      6  C   UNL d   1       7.788   4.246 -11.993  0.00  0.00     0.037 C 
BRANCH   6   7
ATOM      7  C   UNL d   1       9.161   4.525 -11.337  0.00  0.00     0.251 C 
BRANCH   7   8
ATOM      8  N   UNL d   1       8.987   4.922  -9.937  0.00  0.00     0.145 N 
ATOM      9  C   UNL d   1       8.563   6.297  -9.885  0.00  0.00     0.275 C 
ATOM     10  C   UNL d   1       8.414   6.734  -8.409  0.00  0.00     0.141 C 
ATOM     11  N   UNL d   1       9.653   6.624  -7.717  0.00  0.00    -0.325 N 
ATOM     12  C   UNL d   1      10.214   5.343  -7.805  0.00  0.00     0.085 C 
ATOM     13  C   UNL d   1      10.257   4.914  -9.244  0.00  0.00     0.295 C 
BRANCH  11  14
ATOM     14  C   UNL d   1      10.233   7.628  -6.960  0.00  0.00     0.082 A 
ATOM     15  C   UNL d   1      10.574   8.822  -7.601  0.00  0.00     0.110 A 
ATOM     16  C   UNL d   1      11.215   9.837  -6.836  0.00  0.00     0.026 A 
ATOM     17  C   UNL d   1      11.437   9.650  -5.475  0.00  0.00     0.002 A 
ATOM     18  C   UNL d   1      11.114   8.437  -4.845  0.00  0.00     0.002 A 
ATOM     19  C   UNL d   1      10.517   7.405  -5.613  0.00  0.00     0.019 A 
BRANCH  15  20
ATOM     20  O   UNL d   1      10.219   8.948  -8.921  0.00  0.00    -0.327 OA
ATOM     21  C   UNL d   1      11.187   9.444  -9.802  0.00  0.00     0.181 C 
ENDBRANCH  15  20
ENDBRANCH  11  14
ENDBRANCH   7   8
ENDBRANCH   6   7
ENDBRANCH   5   6
ENDBRANCH   4   5
ENDBRANCH   3   4
BRANCH   1  22
ATOM     22  C   UNL d   1       7.260   0.920 -16.963  0.00  0.00     0.096 A 
ATOM     23  C   UNL d   1       6.002   0.419 -17.367  0.00  0.00     0.127 A 
ATOM     24  N   UNL d   1       6.064  -0.414 -18.383  0.00  0.00    -0.163 NA
ATOM     25  N   UNL d   1       7.404  -0.504 -18.648  0.00  0.00    -0.228 N 
ATOM     26  C   UNL d   1       7.963  -1.260 -19.628  0.00  0.00     0.102 A 
ATOM     27  C   UNL d   1       8.168   0.311 -17.796  0.00  0.00     0.091 A 
ATOM     28  C   UNL d   1       9.323  -1.212 -19.804  0.00  0.00     0.045 A 
ATOM     29  C   UNL d   1      10.153  -0.434 -18.961  0.00  0.00     0.097 A 
ATOM     30  C   UNL d   1       9.573   0.339 -17.964  0.00  0.00     0.044 A 
BRANCH  29  31
ATOM     31  O   UNL d   1      11.498  -0.516 -19.211  0.00  0.00    -0.328 OA
BRANCH  31  32
ATOM     32  C   UNL d   1      12.396   0.162 -18.337  0.00  0.00     0.181 C 
BRANCH  32  33
ATOM     33  C   UNL d   1      12.425   1.687 -18.538  0.00  0.00     0.175 C 
BRANCH  33  34
ATOM     34  O   UNL d   1      13.414   2.038 -19.484  0.00  0.00    -0.352 OA
BRANCH  34  35
ATOM     35  C   UNL d   1      13.477   3.431 -19.742  0.00  0.00     0.142 C 
ATOM     36  C   UNL d   1      14.126   4.173 -18.562  0.00  0.00     0.035 C 
ENDBRANCH  34  35
ENDBRANCH  33  34
ENDBRANCH  32  33
ENDBRANCH  31  32
ENDBRANCH  29  31
ENDBRANCH   1  22
TORSDOF 13
