REMARK  12 active torsions:
REMARK  status: ('A' for Active; 'I' for Inactive)
REMARK    1  A    between atoms: C_2  and  C_3 
REMARK    2  A    between atoms: C_3  and  N_4 
REMARK    3  A    between atoms: N_4  and  C_5 
REMARK    4  A    between atoms: N_4  and  C_21 
REMARK    5  A    between atoms: C_5  and  C_6 
REMARK    6  A    between atoms: C_6  and  C_7 
REMARK    7  A    between atoms: C_7  and  C_8 
REMARK    8  A    between atoms: C_8  and  N_9 
REMARK       I    between atoms: N_9  and  C_10 
REMARK    9  A    between atoms: C_10  and  C_12 
REMARK   10  A    between atoms: C_21  and  C_22 
REMARK   11  A    between atoms: C_24  and  C_25 
REMARK   12  A    between atoms: C_28  and  C_29 
ROOT
ATOM      1  N   UNL d   1       8.443   5.248 -12.786  0.00  0.00     0.137 N 
ENDROOT
BRANCH   1   2
ATOM      2  C   UNL d   1       7.773   4.009 -12.378  0.00  0.00     0.250 C 
BRANCH   2   3
ATOM      3  C   UNL d   1       6.624   3.625 -13.327  0.00  0.00     0.035 C 
ATOM      4  C   UNL d   1       5.355   4.404 -12.995  0.00  0.00     0.002 C 
ENDBRANCH   2   3
ENDBRANCH   1   2
BRANCH   1   5
ATOM      5  C   UNL d   1       9.195   5.813 -11.673  0.00  0.00     0.250 C 
BRANCH   5   6
ATOM      6  C   UNL d   1       9.479   7.323 -11.865  0.00  0.00     0.037 C 
BRANCH   6   7
ATOM      7  C   UNL d   1      10.344   7.864 -10.712  0.00  0.00     0.029 C 
BRANCH   7   8
ATOM      8  C   UNL d   1       9.494   8.229  -9.492  0.00  0.00     0.129 C 
BRANCH   8   9
ATOM      9  N   UNL d   1      10.279   8.395  -8.285  0.00  0.00    -0.233 NA
ATOM     10  C   UNL d   1      10.577   7.379  -7.468  0.00  0.00     0.293 C 
ATOM     11  O   UNL d   1      10.462   6.191  -7.770  0.00  0.00    -0.264 OA
BRANCH  10  12
ATOM     12  C   UNL d   1      11.035   7.780  -6.143  0.00  0.00     0.139 A 
ATOM     13  N   UNL d   1      11.454   6.795  -5.261  0.00  0.00    -0.241 NA
ATOM     14  C   UNL d   1      11.842   7.345  -4.058  0.00  0.00     0.082 A 
ATOM     15  C   UNL d   1      11.589   8.749  -4.191  0.00  0.00     0.019 A 
ATOM     16  C   UNL d   1      12.340   6.792  -2.867  0.00  0.00     0.019 A 
ATOM     17  C   UNL d   1      11.078   8.997  -5.502  0.00  0.00     0.025 A 
ATOM     18  C   UNL d   1      11.863   9.563  -3.074  0.00  0.00     0.002 A 
ATOM     19  C   UNL d   1      12.374   9.010  -1.891  0.00  0.00     0.000 A 
ATOM     20  C   UNL d   1      12.631   7.636  -1.794  0.00  0.00     0.002 A 
ENDBRANCH  10  12
ENDBRANCH   8   9
ENDBRANCH   7   8
ENDBRANCH   6   7
ENDBRANCH   5   6
ENDBRANCH   1   5
BRANCH   1  21
ATOM     21  C   UNL d   1       9.275   5.082 -13.986  0.00  0.00     0.251 C 
BRANCH  21  22
ATOM     22  C   UNL d   1      10.129   3.817 -14.005  0.00  0.00     0.038 A 
ATOM     23  C   UNL d   1      10.836   3.385 -15.274  0.00  0.00     0.024 A 
ATOM     24  C   UNL d   1       9.656   2.590 -14.756  0.00  0.00     0.007 A 
BRANCH  23  25
ATOM     25  C   UNL d   1      10.708   4.226 -16.503  0.00  0.00    -0.022 A 
ATOM     26  C   UNL d   1      11.428   5.432 -16.616  0.00  0.00    -0.004 A 
ATOM     27  C   UNL d   1      11.280   6.253 -17.751  0.00  0.00     0.004 A 
ATOM     28  C   UNL d   1      10.385   5.880 -18.784  0.00  0.00     0.071 A 
ATOM     29  C   UNL d   1       9.667   4.671 -18.671  0.00  0.00     0.004 A 
ATOM     30  C   UNL d   1       9.828   3.852 -17.542  0.00  0.00    -0.004 A 
BRANCH  28  31
ATOM     31  C   UNL d   1      10.213   6.731 -20.023  0.00  0.00     0.419 C 
ATOM     32  F   UNL d   1      10.744   7.942 -19.867  0.00  0.00    -0.166 F 
ATOM     33  F   UNL d   1      10.822   6.120 -21.037  0.00  0.00    -0.166 F 
ATOM     34  F   UNL d   1       8.920   6.866 -20.316  0.00  0.00    -0.166 F 
ENDBRANCH  28  31
ENDBRANCH  23  25
ENDBRANCH  21  22
ENDBRANCH   1  21
TORSDOF 12
