REMARK  0 active torsions:
REMARK  status: ('A' for Active; 'I' for Inactive)
ROOT
ATOM      1  N   UNL d   1      12.241   8.399  -7.773  0.00  0.00     0.616 N 
ATOM      2  C   UNL d   1      10.939   7.984  -7.294  0.00  0.00     0.307 C 
ATOM      3  C   UNL d   1      10.235   9.190  -6.676  0.00  0.00     0.044 C 
ATOM      4  C   UNL d   1      10.973   9.770  -5.460  0.00  0.00     0.030 C 
ATOM      5  C   UNL d   1      11.455   8.711  -4.489  0.00  0.00    -0.001 A 
ATOM      6  C   UNL d   1      11.895   9.079  -3.203  0.00  0.00     0.127 A 
ATOM      7  O   UNL d   1      11.858  10.363  -2.841  0.00  0.00    -0.191 OA
ATOM      8  C   UNL d   1      12.372   8.130  -2.283  0.00  0.00     0.027 A 
ATOM      9  C   UNL d   1      12.403   6.784  -2.658  0.00  0.00     0.002 A 
ATOM     10  C   UNL d   1      11.965   6.434  -3.942  0.00  0.00    -0.004 A 
ATOM     11  C   UNL d   1      11.477   7.357  -4.864  0.00  0.00    -0.022 A 
ATOM     12  C   UNL d   1      11.062   6.867  -6.250  0.00  0.00     0.065 C 
ENDROOT
TORSDOF 0
