REMARK  8 active torsions:
REMARK  status: ('A' for Active; 'I' for Inactive)
REMARK    1  A    between atoms: C_6  and  N_7 
REMARK    2  A    between atoms: N_10  and  C_11 
REMARK    3  A    between atoms: C_11  and  C_12 
REMARK    4  A    between atoms: C_12  and  C_13 
REMARK    5  A    between atoms: C_13  and  C_14 
REMARK    6  A    between atoms: C_14  and  N_15 
REMARK    7  A    between atoms: C_17  and  C_18 
REMARK    8  A    between atoms: C_21  and  C_22 
ROOT
ATOM      1  C   UNL d   1       8.864   3.965 -14.327  0.00  0.00     0.129 C 
ENDROOT
BRANCH   1   2
ATOM      2  C   UNL d   1       8.522   2.462 -14.399  0.00  0.00     0.029 C 
BRANCH   2   3
ATOM      3  C   UNL d   1       7.025   2.132 -14.230  0.00  0.00     0.037 C 
BRANCH   3   4
ATOM      4  C   UNL d   1       6.725   0.628 -14.275  0.00  0.00     0.251 C 
BRANCH   4   5
ATOM      5  N   UNL d   1       5.761   0.327 -15.321  0.00  0.00     0.141 N 
ATOM      6  C   UNL d   1       6.422   0.413 -16.629  0.00  0.00     0.274 C 
ATOM      7  C   UNL d   1       5.423   0.117 -17.762  0.00  0.00     0.137 C 
ATOM      8  N   UNL d   1       4.796  -1.180 -17.547  0.00  0.00    -0.344 N 
ATOM      9  C   UNL d   1       4.213  -1.385 -16.221  0.00  0.00     0.137 C 
ATOM     10  C   UNL d   1       5.254  -1.036 -15.134  0.00  0.00     0.274 C 
BRANCH   8  11
ATOM     11  C   UNL d   1       4.842  -2.213 -18.498  0.00  0.00     0.068 A 
ATOM     12  C   UNL d   1       3.631  -2.873 -18.831  0.00  0.00     0.018 A 
ATOM     13  C   UNL d   1       3.600  -3.910 -19.777  0.00  0.00     0.002 A 
ATOM     14  C   UNL d   1       4.785  -4.309 -20.417  0.00  0.00     0.012 A 
ATOM     15  C   UNL d   1       5.997  -3.678 -20.105  0.00  0.00     0.070 A 
ATOM     16 CL   UNL d   1       7.440  -4.211 -20.896  0.00  0.00    -0.081 Cl
ATOM     17  C   UNL d   1       6.042  -2.636 -19.158  0.00  0.00     0.084 A 
ATOM     18 CL   UNL d   1       7.595  -1.947 -18.803  0.00  0.00    -0.080 Cl
ENDBRANCH   8  11
ENDBRANCH   4   5
ENDBRANCH   3   4
ENDBRANCH   2   3
ENDBRANCH   1   2
BRANCH   1  19
ATOM     19  N   UNL d   1       8.682   4.551 -13.011  0.00  0.00    -0.231 N 
ATOM     20  N   UNL d   1       7.458   4.674 -12.454  0.00  0.00    -0.064 NA
ATOM     21  N   UNL d   1       7.613   5.160 -11.271  0.00  0.00    -0.129 NA
ATOM     22  C   UNL d   1       8.956   5.453 -11.062  0.00  0.00     0.123 A 
ATOM     23  C   UNL d   1       9.634   5.087 -12.189  0.00  0.00     0.118 A 
BRANCH  22  24
ATOM     24  C   UNL d   1       9.428   6.084  -9.825  0.00  0.00     0.021 A 
ATOM     25  C   UNL d   1       8.841   5.768  -8.584  0.00  0.00     0.002 A 
ATOM     26  C   UNL d   1       9.288   6.393  -7.401  0.00  0.00     0.000 A 
ATOM     27  C   UNL d   1      10.342   7.331  -7.433  0.00  0.00     0.000 A 
ATOM     28  C   UNL d   1      10.927   7.648  -8.676  0.00  0.00     0.000 A 
ATOM     29  C   UNL d   1      10.475   7.028  -9.860  0.00  0.00     0.002 A 
BRANCH  27  30
ATOM     30  C   UNL d   1      10.817   7.968  -6.197  0.00  0.00     0.000 A 
ATOM     31  C   UNL d   1      10.705   9.363  -6.031  0.00  0.00     0.000 A 
ATOM     32  C   UNL d   1      11.144   9.982  -4.845  0.00  0.00     0.000 A 
ATOM     33  C   UNL d   1      11.736   9.208  -3.824  0.00  0.00     0.000 A 
ATOM     34  C   UNL d   1      11.859   7.815  -3.988  0.00  0.00     0.000 A 
ATOM     35  C   UNL d   1      11.392   7.199  -5.162  0.00  0.00     0.000 A 
ENDBRANCH  27  30
ENDBRANCH  22  24
ENDBRANCH   1  19
TORSDOF 8
