REMARK  5 active torsions:
REMARK  status: ('A' for Active; 'I' for Inactive)
REMARK    1  A    between atoms: C_2  and  C_3 
REMARK    2  A    between atoms: C_3  and  O_4 
REMARK    3  A    between atoms: O_4  and  C_5 
REMARK    4  A    between atoms: C_10  and  O_11 
REMARK    5  A    between atoms: C_19  and  O_20 
ROOT
ATOM      1  C   UNL d   1       8.831   5.521 -12.155  0.00  0.00     0.116 C 
ATOM      2  C   UNL d   1       9.058   4.431 -11.329  0.00  0.00     0.026 C 
ATOM      3  C   UNL d   1       9.445   4.577  -9.982  0.00  0.00    -0.002 C 
ATOM      4  C   UNL d   1       9.813   5.843  -9.493  0.00  0.00    -0.020 C 
ATOM      5  C   UNL d   1       9.696   6.947 -10.345  0.00  0.00     0.031 C 
ATOM      6  C   UNL d   1       9.156   6.810 -11.656  0.00  0.00     0.114 C 
ATOM      7  C   UNL d   1      10.116   8.291  -9.822  0.00  0.00     0.279 C 
ATOM      8  N   UNL d   1      11.031   8.226  -8.691  0.00  0.00     0.144 N 
ATOM      9  C   UNL d   1      11.156   9.577  -8.257  0.00  0.00     0.256 C 
ATOM     10  C   UNL d   1      12.242   9.618  -7.195  0.00  0.00     0.061 C 
ATOM     11  C   UNL d   1      11.859   8.805  -6.025  0.00  0.00    -0.020 A 
ATOM     12  C   UNL d   1      12.508   9.010  -4.802  0.00  0.00     0.022 A 
ATOM     13  C   UNL d   1      12.332   8.046  -3.806  0.00  0.00     0.119 A 
ATOM     14  C   UNL d   1      11.445   7.020  -3.984  0.00  0.00     0.153 A 
ATOM     15  O   UNL d   1      11.158   6.341  -2.855  0.00  0.00    -0.188 OA
ATOM     16  C   UNL d   1      10.761   6.815  -5.197  0.00  0.00     0.027 A 
ATOM     17  C   UNL d   1      10.999   7.692  -6.252  0.00  0.00     0.007 A 
ATOM     18  C   UNL d   1      10.364   7.478  -7.620  0.00  0.00     0.246 C 
ATOM     19  C   UNL d   1      10.366   6.008  -8.069  0.00  0.00     0.064 C 
ENDROOT
BRANCH   1  20
ATOM     20  O   UNL d   1       8.327   5.386 -13.437  0.00  0.00    -0.329 OA
BRANCH  20  21
ATOM     21  C   UNL d   1       8.010   4.101 -14.005  0.00  0.00     0.149 C 
BRANCH  21  22
ATOM     22  C   UNL d   1       9.067   3.694 -15.050  0.00  0.00     0.033 C 
ATOM     23  C   UNL d   1      10.446   3.413 -14.430  0.00  0.00     0.003 C 
ENDBRANCH  21  22
ENDBRANCH  20  21
ENDBRANCH   1  20
BRANCH   6  24
ATOM     24  O   UNL d   1       9.046   7.885 -12.493  0.00  0.00    -0.326 OA
ATOM     25  C   UNL d   1       8.028   8.824 -12.177  0.00  0.00     0.181 C 
ENDBRANCH   6  24
BRANCH  13  26
ATOM     26  O   UNL d   1      13.050   8.047  -2.657  0.00  0.00    -0.326 OA
ATOM     27  C   UNL d   1      12.590   9.002  -1.769  0.00  0.00     0.181 C 
ENDBRANCH  13  26
TORSDOF 5
