REMARK  5 active torsions:
REMARK  status: ('A' for Active; 'I' for Inactive)
REMARK    1  A    between atoms: C_2  and  C_3 
REMARK    2  A    between atoms: C_2  and  C_10 
REMARK    3  A    between atoms: N_13  and  C_14 
REMARK    4  A    between atoms: N_17  and  C_18 
REMARK    5  A    between atoms: C_18  and  C_19 
ROOT
ATOM      1  C   UNL d   1       8.371   4.562 -12.739  0.00  0.00     0.066 C 
ATOM      2  C   UNL d   1       8.457   6.061 -13.028  0.00  0.00     0.043 C 
ATOM      3  C   UNL d   1       8.472   6.850 -11.736  0.00  0.00     0.251 C 
ATOM      4  N   UNL d   1       9.581   6.503 -10.867  0.00  0.00     0.138 N 
ATOM      5  C   UNL d   1       9.452   5.073 -10.572  0.00  0.00     0.251 C 
ATOM      6  C   UNL d   1       9.560   4.246 -11.855  0.00  0.00     0.043 C 
ENDROOT
BRANCH   4   7
ATOM      7  C   UNL d   1       9.675   7.408  -9.699  0.00  0.00     0.253 C 
ATOM      8  C   UNL d   1      11.087   7.980  -9.394  0.00  0.00     0.217 C 
ATOM      9  C   UNL d   1      11.044   8.889  -8.180  0.00  0.00     0.285 C 
ATOM     10  O   UNL d   1      11.542   8.854 -10.413  0.00  0.00    -0.219 OA
ATOM     11  N   UNL d   1      10.460   8.295  -7.012  0.00  0.00     0.144 N 
ATOM     12  C   UNL d   1       9.100   7.821  -7.259  0.00  0.00     0.253 C 
ATOM     13  C   UNL d   1       9.071   6.816  -8.389  0.00  0.00     0.071 C 
BRANCH  11  14
ATOM     14  C   UNL d   1      10.534   9.197  -5.892  0.00  0.00     0.277 C 
BRANCH  14  15
ATOM     15  C   UNL d   1      11.199   8.573  -4.694  0.00  0.00     0.011 A 
ATOM     16  C   UNL d   1      11.474   7.182  -4.624  0.00  0.00    -0.000 A 
ATOM     17  C   UNL d   1      12.054   6.657  -3.464  0.00  0.00     0.029 A 
ATOM     18  C   UNL d   1      12.326   7.497  -2.385  0.00  0.00     0.140 A 
ATOM     19  C   UNL d   1      12.092   8.875  -2.454  0.00  0.00     0.029 A 
ATOM     20  F   UNL d   1      12.791   6.955  -1.250  0.00  0.00    -0.204 F 
ATOM     21  C   UNL d   1      11.506   9.417  -3.606  0.00  0.00    -0.000 A 
ENDBRANCH  14  15
ENDBRANCH  11  14
ENDBRANCH   4   7
BRANCH   1  22
ATOM     22  C   UNL d   1       8.446   3.739 -14.035  0.00  0.00     0.173 C 
ATOM     23  O   UNL d   1       9.335   3.979 -14.845  0.00  0.00    -0.291 OA
BRANCH  22  24
ATOM     24  C   UNL d   1       7.523   2.590 -14.180  0.00  0.00     0.035 A 
ATOM     25  C   UNL d   1       6.246   2.546 -13.567  0.00  0.00     0.005 A 
ATOM     26  C   UNL d   1       5.467   1.382 -13.668  0.00  0.00     0.030 A 
ATOM     27  C   UNL d   1       5.879   0.314 -14.478  0.00  0.00     0.140 A 
ATOM     28  C   UNL d   1       7.123   0.369 -15.128  0.00  0.00     0.030 A 
ATOM     29  F   UNL d   1       5.066  -0.756 -14.649  0.00  0.00    -0.204 F 
ATOM     30  C   UNL d   1       7.949   1.502 -14.970  0.00  0.00     0.005 A 
ENDBRANCH  22  24
ENDBRANCH   1  22
TORSDOF 5
