REMARK  5 active torsions:
REMARK  status: ('A' for Active; 'I' for Inactive)
REMARK    1  A    between atoms: O_2  and  C_3 
REMARK    2  A    between atoms: C_9  and  C_10 
REMARK    3  A    between atoms: C_10  and  N_11 
REMARK    4  A    between atoms: N_14  and  C_15 
REMARK    5  A    between atoms: C_15  and  C_16 
REMARK       I    between atoms: C_16  and  N_18 
ROOT
ATOM      1  N   UNL d   1      10.107   5.157 -19.782  0.00  0.00     0.146 N 
ATOM      2  C   UNL d   1      11.408   4.581 -19.430  0.00  0.00     0.286 C 
ATOM      3  C   UNL d   1      11.334   3.737 -18.152  0.00  0.00     0.286 C 
ATOM      4  N   UNL d   1      10.849   4.520 -17.016  0.00  0.00     0.151 N 
ATOM      5  C   UNL d   1       9.533   5.065 -17.374  0.00  0.00     0.286 C 
ATOM      6  C   UNL d   1       9.610   5.924 -18.635  0.00  0.00     0.286 C 
ENDROOT
BRANCH   4   7
ATOM      7  C   UNL d   1      10.762   3.672 -15.842  0.00  0.00     0.337 C 
BRANCH   7   8
ATOM      8  C   UNL d   1      10.306   4.372 -14.549  0.00  0.00     0.271 C 
ATOM      9  O   UNL d   1      11.107   5.158 -14.043  0.00  0.00    -0.270 OA
ATOM     10  N   UNL d   1       9.107   4.116 -13.970  0.00  0.00    -0.299 N 
ATOM     11  C   UNL d   1       8.482   5.055 -12.990  0.00  0.00     0.093 C 
ATOM     12  C   UNL d   1       8.223   3.026 -14.194  0.00  0.00     0.058 C 
ATOM     13  C   UNL d   1       7.009   4.575 -12.824  0.00  0.00     0.051 C 
ATOM     14  C   UNL d   1       9.210   5.084 -11.620  0.00  0.00     0.025 C 
ATOM     15  C   UNL d   1       6.976   3.291 -13.611  0.00  0.00    -0.004 C 
ATOM     16  C   UNL d   1       5.922   2.345 -13.662  0.00  0.00    -0.003 C 
ATOM     17  C   UNL d   1       6.118   1.135 -14.379  0.00  0.00    -0.000 C 
ATOM     18  C   UNL d   1       7.384   0.863 -14.945  0.00  0.00     0.002 C 
ATOM     19  C   UNL d   1       8.456   1.751 -14.785  0.00  0.00     0.017 C 
ENDBRANCH   7   8
ENDBRANCH   4   7
BRANCH   1  20
ATOM     20  C   UNL d   1      10.220   5.972 -20.986  0.00  0.00     0.279 C 
BRANCH  20  21
ATOM     21  C   UNL d   1       8.924   6.663 -21.392  0.00  0.00     0.033 A 
ATOM     22  C   UNL d   1       7.933   5.976 -22.128  0.00  0.00     0.093 A 
ATOM     23  C   UNL d   1       6.730   6.657 -22.451  0.00  0.00     0.035 A 
ATOM     24  C   UNL d   1       6.523   7.989 -22.040  0.00  0.00     0.060 A 
ATOM     25 CL   UNL d   1       5.060   8.806 -22.449  0.00  0.00    -0.082 Cl
ATOM     26  C   UNL d   1       7.514   8.660 -21.304  0.00  0.00     0.011 A 
ATOM     27  C   UNL d   1       8.714   7.999 -20.991  0.00  0.00     0.001 A 
BRANCH  22  28
ATOM     28  O   UNL d   1       8.197   4.671 -22.489  0.00  0.00    -0.328 OA
ATOM     29  C   UNL d   1       7.178   3.935 -23.148  0.00  0.00     0.181 C 
ENDBRANCH  22  28
ENDBRANCH  20  21
ENDBRANCH   1  20
TORSDOF 5
