REMARK  11 active torsions:
REMARK  status: ('A' for Active; 'I' for Inactive)
REMARK    1  A    between atoms: C_2  and  C_3 
REMARK    2  A    between atoms: C_3  and  N_4 
REMARK    3  A    between atoms: N_4  and  C_5 
REMARK    4  A    between atoms: N_4  and  C_21 
REMARK    5  A    between atoms: C_5  and  C_6 
REMARK    6  A    between atoms: C_6  and  C_7 
REMARK    7  A    between atoms: C_7  and  C_8 
REMARK    8  A    between atoms: C_8  and  N_9 
REMARK       I    between atoms: N_9  and  C_10 
REMARK    9  A    between atoms: C_10  and  C_12 
REMARK   10  A    between atoms: C_21  and  C_22 
REMARK   11  A    between atoms: C_24  and  C_25 
ROOT
ATOM      1  C   UNL d   1       8.706   4.885 -12.394  0.00  0.00     0.250 C 
ENDROOT
BRANCH   1   2
ATOM      2  N   UNL d   1       8.183   4.727 -13.753  0.00  0.00     0.137 N 
BRANCH   2   3
ATOM      3  C   UNL d   1       7.310   3.547 -13.892  0.00  0.00     0.250 C 
BRANCH   3   4
ATOM      4  C   UNL d   1       5.864   3.754 -13.431  0.00  0.00     0.035 C 
ATOM      5  C   UNL d   1       5.746   4.232 -11.985  0.00  0.00     0.002 C 
ENDBRANCH   3   4
ENDBRANCH   2   3
BRANCH   2   6
ATOM      6  C   UNL d   1       9.282   4.726 -14.728  0.00  0.00     0.251 C 
BRANCH   6   7
ATOM      7  C   UNL d   1       9.927   3.354 -14.915  0.00  0.00     0.038 A 
ATOM      8  C   UNL d   1      10.653   3.069 -16.210  0.00  0.00     0.024 A 
ATOM      9  C   UNL d   1      11.440   3.203 -14.925  0.00  0.00     0.007 A 
BRANCH   8  10
ATOM     10  C   UNL d   1      10.468   1.735 -16.854  0.00  0.00    -0.022 A 
ATOM     11  C   UNL d   1      11.545   1.161 -17.553  0.00  0.00     0.007 A 
ATOM     12  C   UNL d   1      11.412  -0.109 -18.139  0.00  0.00     0.057 A 
ATOM     13  C   UNL d   1      10.204  -0.821 -18.015  0.00  0.00     0.011 A 
ATOM     14 CL   UNL d   1      12.734  -0.804 -18.994  0.00  0.00    -0.082 Cl
ATOM     15  C   UNL d   1       9.120  -0.252 -17.324  0.00  0.00     0.001 A 
ATOM     16  C   UNL d   1       9.247   1.026 -16.750  0.00  0.00    -0.004 A 
ENDBRANCH   8  10
ENDBRANCH   6   7
ENDBRANCH   2   6
ENDBRANCH   1   2
BRANCH   1  17
ATOM     17  C   UNL d   1       9.039   6.378 -12.170  0.00  0.00     0.037 C 
BRANCH  17  18
ATOM     18  C   UNL d   1       9.436   6.585 -10.722  0.00  0.00     0.029 C 
BRANCH  18  19
ATOM     19  C   UNL d   1       9.863   8.011 -10.354  0.00  0.00     0.129 C 
BRANCH  19  20
ATOM     20  N   UNL d   1      10.236   8.168  -8.949  0.00  0.00    -0.233 NA
ATOM     21  C   UNL d   1      10.416   7.218  -8.019  0.00  0.00     0.293 C 
ATOM     22  O   UNL d   1      10.280   6.012  -8.218  0.00  0.00    -0.264 OA
BRANCH  21  23
ATOM     23  C   UNL d   1      10.834   7.710  -6.695  0.00  0.00     0.139 A 
ATOM     24  N   UNL d   1      11.233   6.772  -5.765  0.00  0.00    -0.241 NA
ATOM     25  C   UNL d   1      11.561   7.345  -4.573  0.00  0.00     0.082 A 
ATOM     26  C   UNL d   1      11.363   8.752  -4.771  0.00  0.00     0.019 A 
ATOM     27  C   UNL d   1      12.006   6.820  -3.348  0.00  0.00     0.019 A 
ATOM     28  C   UNL d   1      10.898   8.954  -6.118  0.00  0.00     0.025 A 
ATOM     29  C   UNL d   1      11.622   9.583  -3.681  0.00  0.00     0.002 A 
ATOM     30  C   UNL d   1      12.080   9.075  -2.454  0.00  0.00     0.000 A 
ATOM     31  C   UNL d   1      12.265   7.689  -2.291  0.00  0.00     0.002 A 
ENDBRANCH  21  23
ENDBRANCH  19  20
ENDBRANCH  18  19
ENDBRANCH  17  18
ENDBRANCH   1  17
TORSDOF 11
