REMARK  7 active torsions:
REMARK  status: ('A' for Active; 'I' for Inactive)
REMARK    1  A    between atoms: O_2  and  C_3 
REMARK    2  A    between atoms: C_6  and  O_7 
REMARK    3  A    between atoms: O_7  and  C_8 
REMARK    4  A    between atoms: C_8  and  C_9 
REMARK    5  A    between atoms: C_9  and  N_11 
REMARK       I    between atoms: N_14  and  C_15 
REMARK    6  A    between atoms: C_15  and  C_17 
REMARK    7  A    between atoms: C_20  and  O_21 
ROOT
ATOM      1  N   UNL d   1      10.524   2.942 -15.056  0.00  0.00     0.142 N 
ATOM      2  C   UNL d   1      11.100   2.921 -16.405  0.00  0.00     0.274 C 
ATOM      3  C   UNL d   1      11.570   1.529 -16.801  0.00  0.00     0.140 C 
ATOM      4  N   UNL d   1      10.463   0.573 -16.757  0.00  0.00    -0.312 N 
ATOM      5  C   UNL d   1      10.071  -0.231 -17.787  0.00  0.00     0.257 C 
ATOM      6  O   UNL d   1       9.007  -0.831 -17.783  0.00  0.00    -0.267 OA
ATOM      7  C   UNL d   1       9.783   0.590 -15.462  0.00  0.00     0.140 C 
ATOM      8  C   UNL d   1       9.371   2.024 -15.064  0.00  0.00     0.274 C 
ENDROOT
BRANCH   1   9
ATOM      9  C   UNL d   1      10.132   4.311 -14.655  0.00  0.00     0.249 C 
ATOM     10  C   UNL d   1      11.313   5.299 -14.837  0.00  0.00     0.038 C 
BRANCH   9  11
ATOM     11  C   UNL d   1       9.635   4.326 -13.183  0.00  0.00     0.182 C 
BRANCH  11  12
ATOM     12  O   UNL d   1       9.429   5.677 -12.791  0.00  0.00    -0.329 OA
BRANCH  12  13
ATOM     13  C   UNL d   1       9.473   5.993 -11.452  0.00  0.00     0.094 A 
ATOM     14  C   UNL d   1       9.723   7.335 -11.132  0.00  0.00     0.026 A 
ATOM     15  C   UNL d   1       9.860   7.757  -9.801  0.00  0.00     0.026 A 
ATOM     16  C   UNL d   1       9.668   6.834  -8.740  0.00  0.00     0.094 A 
ATOM     17  C   UNL d   1       9.454   5.481  -9.052  0.00  0.00     0.026 A 
ATOM     18  C   UNL d   1       9.347   5.057 -10.396  0.00  0.00     0.026 A 
BRANCH  16  19
ATOM     19  O   UNL d   1       9.725   7.186  -7.411  0.00  0.00    -0.328 OA
ATOM     20  C   UNL d   1       9.124   8.444  -7.088  0.00  0.00     0.181 C 
ENDBRANCH  16  19
ENDBRANCH  12  13
ENDBRANCH  11  12
ENDBRANCH   9  11
ENDBRANCH   1   9
BRANCH   5  21
ATOM     21  C   UNL d   1      11.000  -0.384 -18.953  0.00  0.00     0.056 A 
ATOM     22  C   UNL d   1      12.368  -0.692 -18.773  0.00  0.00     0.007 A 
ATOM     23  C   UNL d   1      13.240  -0.822 -19.868  0.00  0.00     0.024 A 
ATOM     24  C   UNL d   1      12.746  -0.691 -21.190  0.00  0.00     0.094 A 
ATOM     25  C   UNL d   1      11.373  -0.413 -21.375  0.00  0.00     0.024 A 
ATOM     26  C   UNL d   1      10.505  -0.270 -20.274  0.00  0.00     0.007 A 
BRANCH  24  27
ATOM     27  O   UNL d   1      13.525  -0.825 -22.320  0.00  0.00    -0.328 OA
ATOM     28  C   UNL d   1      14.905  -1.112 -22.148  0.00  0.00     0.181 C 
ENDBRANCH  24  27
ENDBRANCH   5  21
TORSDOF 7
