REMARK  1 active torsions:
REMARK  status: ('A' for Active; 'I' for Inactive)
REMARK    1  A    between atoms: O_2  and  C_3 
ROOT
ATOM      1  C   UNL d   1       9.171   3.449 -18.128  0.00  0.00     0.094 A 
ATOM      2  C   UNL d   1       9.689   4.734 -17.854  0.00  0.00     0.024 A 
ATOM      3  C   UNL d   1      10.061   5.083 -16.544  0.00  0.00    -0.003 A 
ATOM      4  C   UNL d   1       9.908   4.179 -15.469  0.00  0.00    -0.024 A 
ATOM      5  C   UNL d   1       9.389   2.881 -15.742  0.00  0.00    -0.020 A 
ATOM      6  C   UNL d   1       9.039   2.537 -17.065  0.00  0.00     0.020 A 
ATOM      7  C   UNL d   1       9.193   1.804 -14.683  0.00  0.00     0.052 C 
ATOM      8  C   UNL d   1       7.741   1.382 -14.441  0.00  0.00    -0.022 A 
ATOM      9  C   UNL d   1       7.411   0.033 -14.693  0.00  0.00    -0.004 A 
ATOM     10  C   UNL d   1       6.120  -0.468 -14.440  0.00  0.00    -0.000 A 
ATOM     11  C   UNL d   1       5.144   0.382 -13.895  0.00  0.00    -0.000 A 
ATOM     12  C   UNL d   1       5.466   1.719 -13.607  0.00  0.00    -0.004 A 
ATOM     13  C   UNL d   1       6.739   2.248 -13.913  0.00  0.00    -0.024 A 
ATOM     14  C   UNL d   1       7.006   3.716 -13.593  0.00  0.00     0.061 C 
ATOM     15  C   UNL d   1       7.924   3.935 -12.376  0.00  0.00     0.255 C 
ATOM     16  N   UNL d   1       8.505   5.271 -12.293  0.00  0.00     0.140 N 
ATOM     17  C   UNL d   1       9.331   5.360 -11.099  0.00  0.00     0.285 C 
ATOM     18  C   UNL d   1       9.262   5.683 -13.480  0.00  0.00     0.255 C 
ATOM     19  C   UNL d   1      10.292   4.679 -14.073  0.00  0.00     0.061 C 
ENDROOT
BRANCH   1  20
ATOM     20  O   UNL d   1       8.770   3.023 -19.376  0.00  0.00    -0.328 OA
ATOM     21  C   UNL d   1       8.884   3.937 -20.456  0.00  0.00     0.181 C 
ENDBRANCH   1  20
TORSDOF 1
