REMARK  12 active torsions:
REMARK  status: ('A' for Active; 'I' for Inactive)
REMARK    1  A    between atoms: C_2  and  C_3 
REMARK    2  A    between atoms: C_3  and  N_4 
REMARK    3  A    between atoms: N_4  and  C_5 
REMARK    4  A    between atoms: N_4  and  C_21 
REMARK    5  A    between atoms: C_5  and  C_6 
REMARK    6  A    between atoms: C_6  and  C_7 
REMARK    7  A    between atoms: C_7  and  S_8 
REMARK    8  A    between atoms: S_8  and  C_9 
REMARK    9  A    between atoms: C_12  and  C_13 
REMARK   10  A    between atoms: C_21  and  C_22 
REMARK   11  A    between atoms: C_24  and  C_25 
REMARK   12  A    between atoms: C_31  and  O_32 
ROOT
ATOM      1  N   UNL d   1      10.783   4.025 -16.005  0.00  0.00     0.137 N 
ENDROOT
BRANCH   1   2
ATOM      2  C   UNL d   1      11.978   4.788 -15.632  0.00  0.00     0.250 C 
BRANCH   2   3
ATOM      3  C   UNL d   1      11.925   6.269 -16.079  0.00  0.00     0.035 C 
ATOM      4  C   UNL d   1      13.303   6.803 -16.473  0.00  0.00     0.002 C 
ENDBRANCH   2   3
ENDBRANCH   1   2
BRANCH   1   5
ATOM      5  C   UNL d   1       9.560   4.593 -15.437  0.00  0.00     0.251 C 
BRANCH   5   6
ATOM      6  C   UNL d   1       9.565   4.630 -13.902  0.00  0.00     0.047 C 
BRANCH   6   7
ATOM      7  C   UNL d   1       8.306   5.297 -13.337  0.00  0.00     0.067 C 
BRANCH   7   8
ATOM      8  S   UNL d   1       8.030   4.826 -11.603  0.00  0.00    -0.075 SA
BRANCH   8   9
ATOM      9  C   UNL d   1       8.967   6.044 -10.732  0.00  0.00     0.193 A 
ATOM     10  N   UNL d   1       9.214   5.944  -9.410  0.00  0.00    -0.289 N 
ATOM     11  C   UNL d   1       9.897   7.085  -9.152  0.00  0.00     0.167 A 
ATOM     12  C   UNL d   1       8.794   4.888  -8.514  0.00  0.00     0.134 C 
ATOM     13  N   UNL d   1      10.065   7.830 -10.244  0.00  0.00    -0.128 NA
ATOM     14  N   UNL d   1       9.461   7.157 -11.273  0.00  0.00    -0.122 NA
BRANCH  11  15
ATOM     15  C   UNL d   1      10.395   7.529  -7.848  0.00  0.00     0.036 A 
ATOM     16  C   UNL d   1      11.038   6.630  -6.969  0.00  0.00     0.003 A 
ATOM     17  C   UNL d   1      11.449   7.067  -5.692  0.00  0.00     0.000 A 
ATOM     18  C   UNL d   1      11.306   8.416  -5.313  0.00  0.00     0.000 A 
ATOM     19  C   UNL d   1      10.705   9.327  -6.203  0.00  0.00     0.000 A 
ATOM     20  C   UNL d   1      10.234   8.878  -7.459  0.00  0.00     0.003 A 
ENDBRANCH  11  15
ENDBRANCH   8   9
ENDBRANCH   7   8
ENDBRANCH   6   7
ENDBRANCH   5   6
ENDBRANCH   1   5
BRANCH   1  21
ATOM     21  C   UNL d   1      10.604   3.943 -17.459  0.00  0.00     0.251 C 
BRANCH  21  22
ATOM     22  C   UNL d   1      11.753   3.284 -18.235  0.00  0.00     0.038 A 
ATOM     23  C   UNL d   1      11.716   3.250 -19.744  0.00  0.00     0.026 A 
ATOM     24  C   UNL d   1      11.526   1.972 -18.941  0.00  0.00     0.007 A 
BRANCH  23  25
ATOM     25  C   UNL d   1      10.561   3.880 -20.476  0.00  0.00     0.002 A 
ATOM     26  C   UNL d   1      10.387   5.284 -20.475  0.00  0.00     0.090 A 
ATOM     27  C   UNL d   1       9.242   5.829 -21.112  0.00  0.00     0.026 A 
ATOM     28  C   UNL d   1       8.316   4.989 -21.755  0.00  0.00     0.032 A 
ATOM     29  C   UNL d   1       8.521   3.599 -21.782  0.00  0.00     0.140 A 
ATOM     30  C   UNL d   1       9.645   3.048 -21.145  0.00  0.00     0.027 A 
ATOM     31  F   UNL d   1       7.626   2.785 -22.392  0.00  0.00    -0.204 F 
BRANCH  26  32
ATOM     32  O   UNL d   1      11.334   6.052 -19.825  0.00  0.00    -0.328 OA
ATOM     33  C   UNL d   1      11.120   7.455 -19.728  0.00  0.00     0.181 C 
ENDBRANCH  26  32
ENDBRANCH  23  25
ENDBRANCH  21  22
ENDBRANCH   1  21
TORSDOF 12
