REMARK  8 active torsions:
REMARK  status: ('A' for Active; 'I' for Inactive)
REMARK    1  A    between atoms: O_2  and  C_3 
REMARK    2  A    between atoms: C_8  and  N_9 
REMARK    3  A    between atoms: N_12  and  C_13 
REMARK    4  A    between atoms: C_13  and  C_14 
REMARK    5  A    between atoms: C_14  and  C_15 
REMARK    6  A    between atoms: C_15  and  C_16 
REMARK    7  A    between atoms: C_16  and  N_17 
REMARK       I    between atoms: N_17  and  C_18 
REMARK    8  A    between atoms: C_18  and  C_20 
ROOT
ATOM      1  C   UNL d   1      12.278   1.438 -17.849  0.00  0.00     0.037 C 
ENDROOT
BRANCH   1   2
ATOM      2  C   UNL d   1      11.503   2.747 -17.611  0.00  0.00     0.251 C 
BRANCH   2   3
ATOM      3  N   UNL d   1      11.215   2.950 -16.194  0.00  0.00     0.141 N 
ATOM      4  C   UNL d   1      10.822   4.347 -15.988  0.00  0.00     0.274 C 
ATOM      5  C   UNL d   1      10.513   4.593 -14.499  0.00  0.00     0.137 C 
ATOM      6  N   UNL d   1       9.479   3.682 -14.043  0.00  0.00    -0.343 N 
ATOM      7  C   UNL d   1       9.754   2.283 -14.300  0.00  0.00     0.137 C 
ATOM      8  C   UNL d   1      10.089   2.099 -15.786  0.00  0.00     0.274 C 
BRANCH   6   9
ATOM      9  C   UNL d   1       8.323   4.107 -13.367  0.00  0.00     0.079 A 
ATOM     10  C   UNL d   1       8.394   5.079 -12.335  0.00  0.00     0.110 A 
ATOM     11  C   UNL d   1       7.199   5.472 -11.683  0.00  0.00     0.026 A 
ATOM     12  C   UNL d   1       5.962   4.912 -12.042  0.00  0.00     0.002 A 
ATOM     13  C   UNL d   1       5.894   3.947 -13.058  0.00  0.00     0.002 A 
ATOM     14  C   UNL d   1       7.073   3.552 -13.716  0.00  0.00     0.019 A 
BRANCH  10  15
ATOM     15  O   UNL d   1       9.635   5.580 -11.992  0.00  0.00    -0.327 OA
ATOM     16  C   UNL d   1       9.716   6.515 -10.929  0.00  0.00     0.181 C 
ENDBRANCH  10  15
ENDBRANCH   6   9
ENDBRANCH   2   3
ENDBRANCH   1   2
BRANCH   1  17
ATOM     17  C   UNL d   1      12.112   0.894 -19.281  0.00  0.00     0.029 C 
BRANCH  17  18
ATOM     18  C   UNL d   1      11.546  -0.535 -19.305  0.00  0.00     0.129 C 
BRANCH  18  19
ATOM     19  N   UNL d   1      10.213  -0.595 -18.706  0.00  0.00    -0.234 NA
ATOM     20  C   UNL d   1       9.059  -0.492 -19.384  0.00  0.00     0.276 C 
ATOM     21  O   UNL d   1       9.000  -0.311 -20.599  0.00  0.00    -0.266 OA
BRANCH  20  22
ATOM     22  C   UNL d   1       7.811  -0.689 -18.575  0.00  0.00     0.077 A 
ATOM     23  C   UNL d   1       7.695  -0.187 -17.263  0.00  0.00     0.008 A 
ATOM     24  C   UNL d   1       6.497  -0.392 -16.553  0.00  0.00     0.020 A 
ATOM     25  C   UNL d   1       5.434  -1.090 -17.185  0.00  0.00     0.082 A 
ATOM     26  C   UNL d   1       6.374   0.072 -15.226  0.00  0.00     0.031 A 
ATOM     27  N   UNL d   1       5.541  -1.550 -18.452  0.00  0.00    -0.244 NA
ATOM     28  C   UNL d   1       4.248  -1.291 -16.449  0.00  0.00     0.021 A 
ATOM     29  C   UNL d   1       6.694  -1.347 -19.127  0.00  0.00     0.104 A 
ATOM     30  C   UNL d   1       4.114  -0.815 -15.129  0.00  0.00     0.031 A 
ATOM     31  C   UNL d   1       5.179  -0.128 -14.514  0.00  0.00     0.140 A 
ATOM     32  F   UNL d   1       5.058   0.329 -13.245  0.00  0.00    -0.204 F 
ENDBRANCH  20  22
ENDBRANCH  18  19
ENDBRANCH  17  18
ENDBRANCH   1  17
TORSDOF 8
