REMARK  5 active torsions:
REMARK  status: ('A' for Active; 'I' for Inactive)
REMARK    1  A    between atoms: C_5  and  N_6 
REMARK    2  A    between atoms: N_9  and  C_10 
REMARK    3  A    between atoms: C_10  and  C_11 
REMARK    4  A    between atoms: C_11  and  N_12 
REMARK    5  A    between atoms: N_12  and  C_13 
ROOT
ATOM      1  N   UNL d   1      11.193   7.954  -6.677  0.00  0.00    -0.344 N 
ATOM      2  C   UNL d   1      11.727   6.821  -7.419  0.00  0.00     0.137 C 
ATOM      3  C   UNL d   1      10.585   6.065  -8.112  0.00  0.00     0.274 C 
ATOM      4  N   UNL d   1       9.859   6.958  -9.013  0.00  0.00     0.143 N 
ATOM      5  C   UNL d   1       9.257   8.034  -8.208  0.00  0.00     0.274 C 
ATOM      6  C   UNL d   1      10.345   8.847  -7.468  0.00  0.00     0.137 C 
ENDROOT
BRANCH   4   7
ATOM      7  C   UNL d   1       8.820   6.193  -9.704  0.00  0.00     0.277 C 
BRANCH   7   8
ATOM      8  C   UNL d   1       8.727   6.606 -11.178  0.00  0.00     0.163 C 
BRANCH   8   9
ATOM      9  N   UNL d   1       7.665   5.865 -11.860  0.00  0.00    -0.249 NA
BRANCH   9  10
ATOM     10  C   UNL d   1       7.941   4.798 -12.727  0.00  0.00     0.178 A 
ATOM     11  N   UNL d   1       9.219   4.568 -13.116  0.00  0.00    -0.212 NA
ATOM     12  C   UNL d   1       9.439   3.530 -13.954  0.00  0.00     0.159 A 
ATOM     13  C   UNL d   1       8.379   2.719 -14.416  0.00  0.00     0.130 A 
ATOM     14 CL   UNL d   1      11.058   3.194 -14.445  0.00  0.00    -0.060 Cl
ATOM     15  N   UNL d   1       7.097   2.945 -14.042  0.00  0.00    -0.237 NA
ATOM     16  C   UNL d   1       6.884   3.987 -13.203  0.00  0.00     0.137 A 
ENDBRANCH   9  10
ENDBRANCH   8   9
ENDBRANCH   7   8
ENDBRANCH   4   7
BRANCH   1  17
ATOM     17  C   UNL d   1      11.438   8.125  -5.307  0.00  0.00     0.056 A 
ATOM     18  C   UNL d   1      11.520   9.421  -4.739  0.00  0.00     0.019 A 
ATOM     19  C   UNL d   1      11.810   9.583  -3.364  0.00  0.00     0.031 A 
ATOM     20  C   UNL d   1      12.031   8.457  -2.555  0.00  0.00     0.140 A 
ATOM     21  F   UNL d   1      12.311   8.612  -1.245  0.00  0.00    -0.204 F 
ATOM     22  C   UNL d   1      11.934   7.168  -3.097  0.00  0.00     0.031 A 
ATOM     23  C   UNL d   1      11.634   7.002  -4.460  0.00  0.00     0.019 A 
ENDBRANCH   1  17
TORSDOF 5
