REMARK  2 active torsions:
REMARK  status: ('A' for Active; 'I' for Inactive)
REMARK    1  A    between atoms: C_9  and  C_10 
REMARK    2  A    between atoms: C_10  and  N_11 
ROOT
ATOM      1  O   UNL d   1       3.462  -1.667 -18.913  0.00  0.00    -0.190 OA
ATOM      2  C   UNL d   1       4.822  -1.678 -18.872  0.00  0.00     0.133 A 
ATOM      3  C   UNL d   1       5.541  -2.721 -19.507  0.00  0.00     0.027 A 
ATOM      4  C   UNL d   1       6.955  -2.730 -19.473  0.00  0.00    -0.000 A 
ATOM      5  C   UNL d   1       7.648  -1.672 -18.829  0.00  0.00     0.000 A 
ATOM      6  C   UNL d   1       6.933  -0.610 -18.227  0.00  0.00     0.092 A 
ATOM      7  C   UNL d   1       5.526  -0.634 -18.230  0.00  0.00     0.051 A 
ATOM      8  O   UNL d   1       7.585   0.463 -17.684  0.00  0.00    -0.332 OA
ATOM      9  C   UNL d   1       8.906   0.241 -17.185  0.00  0.00     0.155 C 
ATOM     10  C   UNL d   1       9.729  -0.300 -18.358  0.00  0.00     0.037 C 
ATOM     11  C   UNL d   1       9.169  -1.661 -18.805  0.00  0.00     0.031 C 
ENDROOT
BRANCH   9  12
ATOM     12  C   UNL d   1       9.458   1.570 -16.633  0.00  0.00     0.280 C 
BRANCH  12  13
ATOM     13  N   UNL d   1       8.779   2.050 -15.422  0.00  0.00     0.144 N 
ATOM     14  C   UNL d   1       9.235   3.420 -15.137  0.00  0.00     0.277 C 
ATOM     15  C   UNL d   1       8.509   4.076 -13.966  0.00  0.00     0.007 A 
ATOM     16  C   UNL d   1       7.242   3.603 -13.560  0.00  0.00    -0.022 A 
ATOM     17  C   UNL d   1       9.066   5.192 -13.315  0.00  0.00    -0.003 A 
ATOM     18  C   UNL d   1       6.647   2.400 -14.242  0.00  0.00     0.061 C 
ATOM     19  C   UNL d   1       6.540   4.222 -12.509  0.00  0.00    -0.004 A 
ATOM     20  C   UNL d   1       7.315   2.082 -15.565  0.00  0.00     0.255 C 
ATOM     21  C   UNL d   1       7.109   5.332 -11.861  0.00  0.00    -0.000 A 
ATOM     22  C   UNL d   1       8.368   5.815 -12.262  0.00  0.00    -0.000 A 
ENDBRANCH  12  13
ENDBRANCH   9  12
TORSDOF 2
