REMARK  6 active torsions:
REMARK  status: ('A' for Active; 'I' for Inactive)
REMARK    1  A    between atoms: O_2  and  N_3 
REMARK    2  A    between atoms: C_4  and  C_5 
REMARK    3  A    between atoms: C_4  and  C_19 
REMARK    4  A    between atoms: C_5  and  C_6 
REMARK    5  A    between atoms: C_6  and  N_7 
REMARK    6  A    between atoms: N_10  and  C_11 
ROOT
ATOM      1  C   UNL d   1      10.490   4.466 -16.087  0.00  0.00     0.083 C 
ENDROOT
BRANCH   1   2
ATOM      2  C   UNL d   1       9.720   3.505 -15.189  0.00  0.00     0.087 C 
ATOM      3  N   UNL d   1       9.744   2.266 -15.485  0.00  0.00    -0.136 NA
BRANCH   3   4
ATOM      4  O   UNL d   1       9.064   1.468 -14.556  0.00  0.00    -0.234 OA
ATOM      5  C   UNL d   1       8.846   0.200 -15.139  0.00  0.00     0.211 C 
ENDBRANCH   3   4
BRANCH   2   6
ATOM      6  C   UNL d   1       8.955   4.117 -14.068  0.00  0.00     0.015 A 
ATOM      7  C   UNL d   1       7.598   3.786 -13.851  0.00  0.00    -0.003 A 
ATOM      8  C   UNL d   1       6.871   4.369 -12.797  0.00  0.00    -0.022 A 
ATOM      9  C   UNL d   1       7.495   5.302 -11.946  0.00  0.00    -0.009 A 
ATOM     10  C   UNL d   1       5.426   3.980 -12.593  0.00  0.00     0.031 C 
ATOM     11  C   UNL d   1       8.848   5.641 -12.148  0.00  0.00    -0.022 A 
ATOM     12  C   UNL d   1       9.571   5.047 -13.205  0.00  0.00    -0.003 A 
ATOM     13  C   UNL d   1       9.516   6.647 -11.233  0.00  0.00     0.031 C 
ENDBRANCH   2   6
ENDBRANCH   1   2
BRANCH   1  14
ATOM     14  C   UNL d   1      12.010   4.196 -16.070  0.00  0.00     0.257 C 
BRANCH  14  15
ATOM     15  N   UNL d   1      12.682   4.874 -17.175  0.00  0.00     0.141 N 
ATOM     16  C   UNL d   1      14.020   4.299 -17.343  0.00  0.00     0.274 C 
ATOM     17  C   UNL d   1      14.747   4.945 -18.534  0.00  0.00     0.138 C 
ATOM     18  N   UNL d   1      14.794   6.394 -18.363  0.00  0.00    -0.330 N 
ATOM     19  C   UNL d   1      13.503   7.018 -18.093  0.00  0.00     0.138 C 
ATOM     20  C   UNL d   1      12.808   6.312 -16.913  0.00  0.00     0.274 C 
BRANCH  18  21
ATOM     21  C   UNL d   1      15.996   7.126 -18.442  0.00  0.00     0.140 A 
ATOM     22  N   UNL d   1      17.148   6.462 -18.186  0.00  0.00    -0.227 NA
ATOM     23  C   UNL d   1      18.315   7.139 -18.243  0.00  0.00     0.101 A 
ATOM     24  C   UNL d   1      18.401   8.506 -18.556  0.00  0.00     0.021 A 
ATOM     25  C   UNL d   1      17.212   9.199 -18.834  0.00  0.00     0.005 A 
ATOM     26  C   UNL d   1      15.990   8.504 -18.778  0.00  0.00     0.037 A 
ENDBRANCH  18  21
ENDBRANCH  14  15
ENDBRANCH   1  14
TORSDOF 6
