REMARK  11 active torsions:
REMARK  status: ('A' for Active; 'I' for Inactive)
REMARK    1  A    between atoms: O_2  and  C_3 
REMARK    2  A    between atoms: C_9  and  C_10 
REMARK    3  A    between atoms: C_12  and  C_13 
REMARK    4  A    between atoms: C_13  and  N_14 
REMARK    5  A    between atoms: N_14  and  C_15 
REMARK    6  A    between atoms: N_14  and  C_31 
REMARK    7  A    between atoms: C_15  and  C_16 
REMARK    8  A    between atoms: C_16  and  C_17 
REMARK    9  A    between atoms: C_17  and  S_18 
REMARK   10  A    between atoms: S_18  and  C_19 
REMARK   11  A    between atoms: C_22  and  C_23 
ROOT
ATOM      1  N   UNL d   1       7.629   4.123 -12.737  0.00  0.00     0.135 N 
ENDROOT
BRANCH   1   2
ATOM      2  C   UNL d   1       7.466   4.390 -11.293  0.00  0.00     0.251 C 
BRANCH   2   3
ATOM      3  C   UNL d   1       8.730   4.762 -10.559  0.00  0.00     0.038 A 
ATOM      4  C   UNL d   1       8.645   5.590  -9.308  0.00  0.00     0.026 A 
ATOM      5  C   UNL d   1       9.123   4.174  -9.213  0.00  0.00     0.007 A 
BRANCH   4   6
ATOM      6  C   UNL d   1       9.582   6.688  -9.046  0.00  0.00     0.002 A 
ATOM      7  C   UNL d   1       9.790   7.694 -10.010  0.00  0.00     0.090 A 
ATOM      8  C   UNL d   1      10.693   8.748  -9.719  0.00  0.00     0.026 A 
ATOM      9  C   UNL d   1      11.372   8.783  -8.482  0.00  0.00     0.032 A 
ATOM     10  C   UNL d   1      11.136   7.782  -7.521  0.00  0.00     0.140 A 
ATOM     11  F   UNL d   1      11.777   7.794  -6.333  0.00  0.00    -0.204 F 
ATOM     12  C   UNL d   1      10.242   6.736  -7.803  0.00  0.00     0.027 A 
BRANCH   7  13
ATOM     13  O   UNL d   1       9.065   7.597 -11.177  0.00  0.00    -0.328 OA
ATOM     14  C   UNL d   1       8.847   8.764 -11.932  0.00  0.00     0.181 C 
ENDBRANCH   7  13
ENDBRANCH   4   6
ENDBRANCH   2   3
ENDBRANCH   1   2
BRANCH   1  15
ATOM     15  C   UNL d   1       8.729   3.186 -13.021  0.00  0.00     0.251 C 
BRANCH  15  16
ATOM     16  C   UNL d   1       9.715   3.663 -14.036  0.00  0.00     0.047 C 
BRANCH  16  17
ATOM     17  C   UNL d   1      10.819   2.605 -14.313  0.00  0.00     0.067 C 
BRANCH  17  18
ATOM     18  S   UNL d   1      11.385   2.613 -16.031  0.00  0.00    -0.075 SA
BRANCH  18  19
ATOM     19  C   UNL d   1      12.127   4.211 -16.101  0.00  0.00     0.193 A 
ATOM     20  N   UNL d   1      13.003   4.545 -17.066  0.00  0.00    -0.289 N 
ATOM     21  C   UNL d   1      13.310   5.819 -16.740  0.00  0.00     0.167 A 
ATOM     22  C   UNL d   1      13.490   3.730 -18.164  0.00  0.00     0.134 C 
ATOM     23  N   UNL d   1      12.654   6.260 -15.663  0.00  0.00    -0.128 NA
ATOM     24  N   UNL d   1      11.900   5.201 -15.239  0.00  0.00    -0.122 NA
BRANCH  21  25
ATOM     25  C   UNL d   1      14.255   6.661 -17.442  0.00  0.00     0.036 A 
ATOM     26  C   UNL d   1      15.585   6.234 -17.624  0.00  0.00     0.003 A 
ATOM     27  C   UNL d   1      16.501   7.060 -18.305  0.00  0.00     0.000 A 
ATOM     28  C   UNL d   1      16.085   8.315 -18.797  0.00  0.00     0.000 A 
ATOM     29  C   UNL d   1      14.759   8.748 -18.600  0.00  0.00     0.000 A 
ATOM     30  C   UNL d   1      13.845   7.922 -17.920  0.00  0.00     0.003 A 
ENDBRANCH  21  25
ENDBRANCH  18  19
ENDBRANCH  17  18
ENDBRANCH  16  17
ENDBRANCH  15  16
ENDBRANCH   1  15
BRANCH   1  31
ATOM     31  C   UNL d   1       6.373   3.718 -13.412  0.00  0.00     0.219 C 
ATOM     32  C   UNL d   1       5.243   4.734 -13.178  0.00  0.00     0.035 C 
ATOM     33  C   UNL d   1       5.854   2.309 -13.022  0.00  0.00     0.035 C 
ENDBRANCH   1  31
TORSDOF 11
