REMARK  7 active torsions:
REMARK  status: ('A' for Active; 'I' for Inactive)
REMARK    1  A    between atoms: C_8  and  O_9 
REMARK    2  A    between atoms: O_9  and  C_10 
REMARK    3  A    between atoms: C_10  and  C_11 
REMARK    4  A    between atoms: C_11  and  C_12 
REMARK    5  A    between atoms: C_12  and  C_13 
REMARK    6  A    between atoms: C_13  and  N_14 
REMARK    7  A    between atoms: N_17  and  C_18 
ROOT
ATOM      1  N   UNL d   1       7.505   4.583 -12.599  0.00  0.00     0.141 N 
ATOM      2  C   UNL d   1       8.645   5.344 -13.109  0.00  0.00     0.274 C 
ATOM      3  C   UNL d   1       9.714   5.390 -12.011  0.00  0.00     0.137 C 
ATOM      4  N   UNL d   1       9.165   5.987 -10.789  0.00  0.00    -0.344 N 
ATOM      5  C   UNL d   1       7.900   5.393 -10.377  0.00  0.00     0.137 C 
ATOM      6  C   UNL d   1       6.913   5.363 -11.525  0.00  0.00     0.274 C 
ENDROOT
BRANCH   1   7
ATOM      7  C   UNL d   1       6.467   4.501 -13.590  0.00  0.00     0.251 C 
BRANCH   7   8
ATOM      8  C   UNL d   1       5.513   3.337 -13.375  0.00  0.00     0.038 C 
BRANCH   8   9
ATOM      9  C   UNL d   1       6.082   2.002 -13.917  0.00  0.00     0.035 C 
BRANCH   9  10
ATOM     10  C   UNL d   1       5.070   0.807 -13.906  0.00  0.00     0.151 C 
BRANCH  10  11
ATOM     11  O   UNL d   1       5.687  -0.434 -14.175  0.00  0.00    -0.315 OA
BRANCH  11  12
ATOM     12  C   UNL d   1       5.650  -0.823 -15.504  0.00  0.00     0.179 A 
ATOM     13  C   UNL d   1       5.763   0.075 -16.617  0.00  0.00     0.044 A 
ATOM     14  C   UNL d   1       5.724  -0.460 -17.913  0.00  0.00     0.002 A 
ATOM     15  C   UNL d   1       5.579  -1.859 -18.064  0.00  0.00     0.014 A 
ATOM     16  C   UNL d   1       5.511  -2.493 -19.438  0.00  0.00     0.039 C 
ATOM     17  C   UNL d   1       5.443  -2.658 -16.910  0.00  0.00     0.163 A 
ATOM     18  C   UNL d   1       5.814  -4.003 -19.439  0.00  0.00     0.095 C 
ATOM     19  C   UNL d   1       5.364  -4.736 -18.175  0.00  0.00     0.257 C 
ATOM     20  O   UNL d   1       5.103  -5.928 -18.229  0.00  0.00    -0.270 OA
ATOM     21  N   UNL d   1       5.288  -4.049 -17.036  0.00  0.00    -0.193 NA
ATOM     22  N   UNL d   1       5.436  -2.135 -15.669  0.00  0.00    -0.204 NA
ENDBRANCH  11  12
ENDBRANCH  10  11
ENDBRANCH   9  10
ENDBRANCH   8   9
ENDBRANCH   7   8
ENDBRANCH   1   7
BRANCH   4  23
ATOM     23  C   UNL d   1       9.750   7.053 -10.108  0.00  0.00     0.056 C 
ATOM     24  C   UNL d   1       9.770   7.167  -8.684  0.00  0.00     0.015 C 
ATOM     25  C   UNL d   1      10.371   8.321  -8.083  0.00  0.00     0.001 C 
ATOM     26  C   UNL d   1       9.192   6.202  -7.853  0.00  0.00     0.001 C 
ATOM     27  C   UNL d   1      11.024   9.273  -8.820  0.00  0.00     0.000 C 
ATOM     28  C   UNL d   1      10.358   8.517  -6.692  0.00  0.00     0.000 C 
ATOM     29  C   UNL d   1      11.065   9.146 -10.202  0.00  0.00     0.002 C 
ATOM     30  C   UNL d   1      10.347   8.101 -10.840  0.00  0.00     0.017 C 
ATOM     31  C   UNL d   1       9.751   7.549  -5.907  0.00  0.00     0.000 C 
ATOM     32  C   UNL d   1       9.070   6.489  -6.500  0.00  0.00     0.000 C 
ENDBRANCH   4  23
TORSDOF 7
