REMARK  2 active torsions:
REMARK  status: ('A' for Active; 'I' for Inactive)
REMARK    1  A    between atoms: C_2  and  C_4 
REMARK       I    between atoms: N_14  and  C_15 
REMARK    2  A    between atoms: C_15  and  C_17 
ROOT
ATOM      1  C   UNL d   1      10.957   4.129 -16.213  0.00  0.00     0.168 C 
ATOM      2  C   UNL d   1      11.966   3.080 -16.663  0.00  0.00     0.044 C 
ATOM      3  C   UNL d   1      11.271   1.872 -17.288  0.00  0.00     0.062 C 
ATOM      4  S   UNL d   1      10.273   0.932 -16.113  0.00  0.00    -0.119 SA
ATOM      5  C   UNL d   1      10.106   2.165 -14.789  0.00  0.00     0.135 C 
ATOM      6  C   UNL d   1       8.790   1.980 -14.038  0.00  0.00     0.063 C 
ATOM      7  C   UNL d   1       8.077   3.322 -13.843  0.00  0.00     0.140 C 
ATOM      8  C   UNL d   1       6.577   3.152 -14.164  0.00  0.00     0.032 C 
ATOM      9  C   UNL d   1       5.853   4.239 -13.401  0.00  0.00     0.027 C 
ATOM     10  C   UNL d   1       6.700   4.476 -12.164  0.00  0.00     0.105 C 
ATOM     11  N   UNL d   1       8.045   3.996 -12.509  0.00  0.00    -0.314 N 
ATOM     12  C   UNL d   1       9.127   4.248 -11.745  0.00  0.00     0.268 C 
ATOM     13  O   UNL d   1      10.233   3.880 -12.123  0.00  0.00    -0.270 OA
ATOM     14  C   UNL d   1       8.936   4.175 -14.745  0.00  0.00     0.253 C 
ATOM     15  O   UNL d   1       8.659   5.355 -14.831  0.00  0.00    -0.270 OA
ATOM     16  N   UNL d   1       9.969   3.523 -15.306  0.00  0.00    -0.304 N 
ENDROOT
BRANCH  12  17
ATOM     17  C   UNL d   1       9.015   5.023 -10.408  0.00  0.00     0.334 C 
ATOM     18  N   UNL d   1       9.798   4.470  -9.299  0.00  0.00     0.346 N 
ATOM     19  C   UNL d   1       9.890   5.590  -8.360  0.00  0.00     0.291 C 
ATOM     20  C   UNL d   1      10.134   6.807  -9.248  0.00  0.00     0.041 C 
ATOM     21  C   UNL d   1       9.540   6.438 -10.601  0.00  0.00     0.048 C 
ENDBRANCH  12  17
BRANCH   1  22
ATOM     22  C   UNL d   1      11.707   5.267 -15.530  0.00  0.00     0.294 C 
ATOM     23  N   UNL d   1      11.875   6.406 -16.201  0.00  0.00    -0.105 N 
ATOM     24  O   UNL d   1      12.137   5.117 -14.396  0.00  0.00    -0.267 OA
ENDBRANCH   1  22
TORSDOF 2
