REMARK  8 active torsions:
REMARK  status: ('A' for Active; 'I' for Inactive)
REMARK       I    between atoms: C_2  and  N_3 
REMARK    1  A    between atoms: C_2  and  C_24 
REMARK    2  A    between atoms: N_3  and  C_4 
REMARK    3  A    between atoms: C_4  and  C_5 
REMARK    4  A    between atoms: C_5  and  C_6 
REMARK    5  A    between atoms: C_6  and  C_7 
REMARK    6  A    between atoms: C_7  and  N_8 
REMARK    7  A    between atoms: N_11  and  C_12 
REMARK    8  A    between atoms: C_16  and  C_17 
ROOT
ATOM      1  N   UNL d   1       8.276   3.601 -13.321  0.00  0.00     0.141 N 
ATOM      2  C   UNL d   1       6.858   3.421 -13.650  0.00  0.00     0.274 C 
ATOM      3  C   UNL d   1       6.572   1.968 -14.095  0.00  0.00     0.137 C 
ATOM      4  N   UNL d   1       7.474   1.591 -15.181  0.00  0.00    -0.344 N 
ATOM      5  C   UNL d   1       8.898   1.827 -14.910  0.00  0.00     0.137 C 
ATOM      6  C   UNL d   1       9.114   3.288 -14.477  0.00  0.00     0.274 C 
ENDROOT
BRANCH   1   7
ATOM      7  C   UNL d   1       8.530   4.987 -12.907  0.00  0.00     0.251 C 
BRANCH   7   8
ATOM      8  C   UNL d   1       7.945   5.258 -11.511  0.00  0.00     0.037 C 
BRANCH   8   9
ATOM      9  C   UNL d   1       9.061   5.513 -10.505  0.00  0.00     0.029 C 
BRANCH   9  10
ATOM     10  C   UNL d   1       8.564   5.481  -9.057  0.00  0.00     0.129 C 
BRANCH  10  11
ATOM     11  N   UNL d   1       9.521   6.015  -8.094  0.00  0.00    -0.233 NA
ATOM     12  C   UNL d   1       9.934   7.296  -7.991  0.00  0.00     0.293 C 
ATOM     13  O   UNL d   1       9.773   8.161  -8.847  0.00  0.00    -0.264 OA
BRANCH  12  14
ATOM     14  C   UNL d   1      10.520   7.696  -6.710  0.00  0.00     0.139 A 
ATOM     15  N   UNL d   1      11.018   6.752  -5.832  0.00  0.00    -0.241 NA
ATOM     16  C   UNL d   1      11.461   7.353  -4.682  0.00  0.00     0.082 A 
ATOM     17  C   UNL d   1      11.264   8.745  -4.865  0.00  0.00     0.019 A 
ATOM     18  C   UNL d   1      12.014   6.813  -3.509  0.00  0.00     0.019 A 
ATOM     19  C   UNL d   1      10.670   8.944  -6.156  0.00  0.00     0.025 A 
ATOM     20  C   UNL d   1      11.627   9.589  -3.797  0.00  0.00     0.002 A 
ATOM     21  C   UNL d   1      12.190   9.064  -2.619  0.00  0.00     0.000 A 
ATOM     22  C   UNL d   1      12.374   7.683  -2.470  0.00  0.00     0.002 A 
ENDBRANCH  12  14
ENDBRANCH  10  11
ENDBRANCH   9  10
ENDBRANCH   8   9
ENDBRANCH   7   8
ENDBRANCH   1   7
BRANCH   4  23
ATOM     23  C   UNL d   1       7.015   1.024 -16.367  0.00  0.00     0.056 A 
ATOM     24  C   UNL d   1       5.915   0.132 -16.364  0.00  0.00     0.021 A 
ATOM     25  C   UNL d   1       5.420  -0.429 -17.569  0.00  0.00     0.073 A 
ATOM     26  C   UNL d   1       6.049  -0.100 -18.787  0.00  0.00     0.004 A 
ATOM     27  C   UNL d   1       7.146   0.779 -18.809  0.00  0.00     0.001 A 
ATOM     28  C   UNL d   1       7.625   1.337 -17.599  0.00  0.00     0.017 A 
BRANCH  25  29
ATOM     29  C   UNL d   1       4.253  -1.391 -17.540  0.00  0.00     0.419 C 
ATOM     30  F   UNL d   1       3.487  -1.201 -18.605  0.00  0.00    -0.166 F 
ATOM     31  F   UNL d   1       4.727  -2.635 -17.564  0.00  0.00    -0.166 F 
ATOM     32  F   UNL d   1       3.508  -1.228 -16.442  0.00  0.00    -0.166 F 
ENDBRANCH  25  29
ENDBRANCH   4  23
TORSDOF 8
