REMARK  6 active torsions:
REMARK  status: ('A' for Active; 'I' for Inactive)
REMARK    1  A    between atoms: C_5  and  C_6 
REMARK    2  A    between atoms: C_9  and  C_10 
REMARK    3  A    between atoms: C_10  and  S_11 
REMARK    4  A    between atoms: S_11  and  C_12 
REMARK    5  A    between atoms: N_20  and  C_21 
REMARK    6  A    between atoms: C_21  and  C_22 
ROOT
ATOM      1  C   UNL d   1       4.700  -1.413 -19.115  0.00  0.00     0.172 A 
ATOM      2  N   UNL d   1       4.156  -2.401 -18.410  0.00  0.00    -0.221 NA
ATOM      3  C   UNL d   1       3.943  -3.367 -19.368  0.00  0.00     0.099 A 
ATOM      4  C   UNL d   1       3.376  -4.653 -19.242  0.00  0.00     0.021 A 
ATOM      5  C   UNL d   1       3.222  -5.476 -20.378  0.00  0.00     0.002 A 
ATOM      6  C   UNL d   1       3.638  -5.025 -21.648  0.00  0.00     0.002 A 
ATOM      7  C   UNL d   1       4.220  -3.746 -21.792  0.00  0.00     0.019 A 
ATOM      8  C   UNL d   1       4.369  -2.930 -20.652  0.00  0.00     0.080 A 
ATOM      9  N   UNL d   1       4.881  -1.651 -20.441  0.00  0.00    -0.303 N 
ENDROOT
BRANCH   1  10
ATOM     10  S   UNL d   1       5.168   0.104 -18.356  0.00  0.00    -0.072 SA
BRANCH  10  11
ATOM     11  C   UNL d   1       6.311  -0.588 -17.124  0.00  0.00     0.091 C 
BRANCH  11  12
ATOM     12  C   UNL d   1       6.915   0.524 -16.290  0.00  0.00    -0.011 A 
ATOM     13  C   UNL d   1       6.257   0.954 -15.121  0.00  0.00    -0.003 A 
ATOM     14  C   UNL d   1       6.805   1.996 -14.345  0.00  0.00     0.003 A 
ATOM     15  C   UNL d   1       8.023   2.605 -14.715  0.00  0.00     0.043 A 
ATOM     16  C   UNL d   1       8.684   2.164 -15.884  0.00  0.00     0.003 A 
ATOM     17  C   UNL d   1       8.133   1.130 -16.665  0.00  0.00    -0.003 A 
BRANCH  15  18
ATOM     18  C   UNL d   1       8.592   3.678 -13.901  0.00  0.00     0.208 A 
ATOM     19  O   UNL d   1       9.868   4.070 -14.143  0.00  0.00    -0.191 OA
ATOM     20  N   UNL d   1      10.137   5.108 -13.239  0.00  0.00    -0.110 NA
ATOM     21  C   UNL d   1       9.009   5.213 -12.552  0.00  0.00     0.169 A 
ATOM     22  C   UNL d   1       8.862   6.207 -11.449  0.00  0.00     0.076 C 
ATOM     23  N   UNL d   1       8.009   4.366 -12.918  0.00  0.00    -0.203 NA
ENDBRANCH  15  18
ENDBRANCH  11  12
ENDBRANCH  10  11
ENDBRANCH   1  10
BRANCH   9  24
ATOM     24  C   UNL d   1       5.460  -0.773 -21.454  0.00  0.00     0.135 C 
BRANCH  24  25
ATOM     25  C   UNL d   1       6.981  -0.686 -21.359  0.00  0.00     0.001 A 
ATOM     26  C   UNL d   1       7.575   0.195 -20.429  0.00  0.00    -0.002 A 
ATOM     27  C   UNL d   1       8.982   0.250 -20.303  0.00  0.00     0.011 A 
ATOM     28  C   UNL d   1       9.803  -0.540 -21.129  0.00  0.00     0.058 A 
ATOM     29  C   UNL d   1       9.220  -1.393 -22.086  0.00  0.00     0.011 A 
ATOM     30 CL   UNL d   1      11.517  -0.423 -20.976  0.00  0.00    -0.082 Cl
ATOM     31  C   UNL d   1       7.812  -1.466 -22.197  0.00  0.00    -0.002 A 
ENDBRANCH  24  25
ENDBRANCH   9  24
TORSDOF 6
