REMARK  3 active torsions:
REMARK  status: ('A' for Active; 'I' for Inactive)
REMARK    1  A    between atoms: C_2  and  C_3 
REMARK    2  A    between atoms: N_12  and  C_13 
REMARK    3  A    between atoms: C_13  and  C_14 
ROOT
ATOM      1  O   UNL d   1       9.062   9.156 -10.340  0.00  0.00    -0.221 OA
ATOM      2  C   UNL d   1       9.702   7.933  -9.954  0.00  0.00     0.149 C 
ATOM      3  C   UNL d   1      11.213   8.098 -10.030  0.00  0.00     0.070 C 
ATOM      4  C   UNL d   1      11.729   9.088  -9.002  0.00  0.00     0.254 C 
ATOM      5  N   UNL d   1      11.373   8.693  -7.644  0.00  0.00     0.143 N 
ATOM      6  C   UNL d   1       9.922   8.706  -7.517  0.00  0.00     0.254 C 
ATOM      7  C   UNL d   1       9.376   7.663  -8.465  0.00  0.00     0.070 C 
ENDROOT
BRANCH   5   8
ATOM      8  C   UNL d   1      11.909   9.645  -6.693  0.00  0.00     0.297 C 
BRANCH   8   9
ATOM      9  C   UNL d   1      11.618   9.448  -5.256  0.00  0.00     0.115 C 
ATOM     10  C   UNL d   1      11.797   8.291  -4.469  0.00  0.00     0.037 C 
ATOM     11  C   UNL d   1      11.470   8.656  -3.137  0.00  0.00     0.104 C 
ATOM     12  C   UNL d   1      12.122   6.974  -4.678  0.00  0.00     0.003 C 
ATOM     13  N   UNL d   1      11.149   9.958  -3.265  0.00  0.00    -0.148 NA
ATOM     14  C   UNL d   1      11.544   7.736  -2.074  0.00  0.00     0.021 C 
ATOM     15  N   UNL d   1      11.005  10.356  -4.554  0.00  0.00    -0.150 NA
ATOM     16  C   UNL d   1      11.918   6.430  -2.287  0.00  0.00     0.002 C 
ATOM     17  C   UNL d   1      12.246   6.147  -3.597  0.00  0.00     0.000 C 
ENDBRANCH   8   9
ENDBRANCH   5   8
BRANCH   2  18
ATOM     18  C   UNL d   1       9.251   6.774 -10.855  0.00  0.00     0.005 A 
ATOM     19  C   UNL d   1       9.449   6.859 -12.244  0.00  0.00    -0.001 A 
ATOM     20  C   UNL d   1       9.031   5.820 -13.089  0.00  0.00     0.011 A 
ATOM     21  C   UNL d   1       8.345   4.713 -12.596  0.00  0.00     0.058 A 
ATOM     22  C   UNL d   1       8.089   4.638 -11.222  0.00  0.00     0.011 A 
ATOM     23 CL   UNL d   1       7.816   3.507 -13.709  0.00  0.00    -0.082 Cl
ATOM     24  C   UNL d   1       8.568   5.630 -10.354  0.00  0.00    -0.001 A 
ENDBRANCH   2  18
TORSDOF 3
