REMARK  2 active torsions:
REMARK  status: ('A' for Active; 'I' for Inactive)
REMARK    1  A    between atoms: C_3  and  C_4 
REMARK       I    between atoms: C_4  and  N_6 
REMARK    2  A    between atoms: N_6  and  C_7 
ROOT
ATOM      1  C   UNL d   1      10.272   6.968 -10.801  0.00  0.00     0.144 C 
ATOM      2  N   UNL d   1      10.172   7.218  -9.378  0.00  0.00    -0.245 N 
ATOM      3  C   UNL d   1       9.372   6.423  -8.524  0.00  0.00     0.153 C 
ATOM      4  C   UNL d   1       9.403   6.696  -7.204  0.00  0.00     0.153 C 
ATOM      5  O   UNL d   1       8.343   6.344  -6.473  0.00  0.00    -0.188 OA
ATOM      6  C   UNL d   1      10.281   7.650  -6.526  0.00  0.00     0.039 A 
ATOM      7  C   UNL d   1      10.611   7.530  -5.151  0.00  0.00     0.003 A 
ATOM      8  C   UNL d   1      11.470   8.490  -4.520  0.00  0.00     0.000 A 
ATOM      9  C   UNL d   1      11.955   9.583  -5.263  0.00  0.00     0.001 A 
ATOM     10  C   UNL d   1      11.608   9.716  -6.614  0.00  0.00     0.013 A 
ATOM     11  C   UNL d   1      10.824   8.726  -7.238  0.00  0.00     0.106 A 
ATOM     12  S   UNL d   1      10.421   8.853  -8.950  0.00  0.00     0.268 S 
ATOM     13  O   UNL d   1      11.629   9.322  -9.655  0.00  0.00    -0.200 OA
ATOM     14  O   UNL d   1       9.132   9.539  -9.098  0.00  0.00    -0.200 OA
ENDROOT
BRANCH   3  15
ATOM     15  C   UNL d   1       8.564   5.329  -9.034  0.00  0.00     0.299 C 
ATOM     16  O   UNL d   1       8.455   4.235  -8.489  0.00  0.00    -0.263 OA
ATOM     17  N   UNL d   1       7.859   5.680 -10.153  0.00  0.00    -0.188 NA
BRANCH  17  18
ATOM     18  C   UNL d   1       7.781   4.973 -11.374  0.00  0.00     0.166 A 
ATOM     19  N   UNL d   1       8.842   4.337 -11.916  0.00  0.00    -0.225 NA
ATOM     20  C   UNL d   1       8.690   3.736 -13.098  0.00  0.00     0.101 A 
ATOM     21  C   UNL d   1       7.474   3.700 -13.808  0.00  0.00     0.021 A 
ATOM     22  C   UNL d   1       6.359   4.370 -13.255  0.00  0.00     0.005 A 
ATOM     23  C   UNL d   1       6.518   5.029 -12.020  0.00  0.00     0.039 A 
ENDBRANCH  17  18
ENDBRANCH   3  15
TORSDOF 2
