REMARK  7 active torsions:
REMARK  status: ('A' for Active; 'I' for Inactive)
REMARK       I    between atoms: C_2  and  N_3 
REMARK    1  A    between atoms: C_2  and  C_24 
REMARK    2  A    between atoms: N_3  and  C_4 
REMARK    3  A    between atoms: C_4  and  C_5 
REMARK    4  A    between atoms: C_5  and  C_6 
REMARK    5  A    between atoms: C_6  and  C_7 
REMARK    6  A    between atoms: C_7  and  N_8 
REMARK    7  A    between atoms: N_11  and  C_12 
ROOT
ATOM      1  N   UNL d   1       9.506   6.309  -9.361  0.00  0.00     0.141 N 
ATOM      2  C   UNL d   1       8.826   6.335  -8.048  0.00  0.00     0.274 C 
ATOM      3  C   UNL d   1       9.867   6.367  -6.933  0.00  0.00     0.138 C 
ATOM      4  N   UNL d   1      10.753   7.498  -7.114  0.00  0.00    -0.330 N 
ATOM      5  C   UNL d   1      11.320   7.667  -8.434  0.00  0.00     0.138 C 
ATOM      6  C   UNL d   1      10.231   7.580  -9.505  0.00  0.00     0.274 C 
ENDROOT
BRANCH   1   7
ATOM      7  C   UNL d   1       8.502   6.236 -10.420  0.00  0.00     0.251 C 
BRANCH   7   8
ATOM      8  C   UNL d   1       8.147   4.850 -10.911  0.00  0.00     0.037 C 
BRANCH   8   9
ATOM      9  C   UNL d   1       6.889   4.865 -11.827  0.00  0.00     0.029 C 
BRANCH   9  10
ATOM     10  C   UNL d   1       6.561   3.468 -12.349  0.00  0.00     0.129 C 
BRANCH  10  11
ATOM     11  N   UNL d   1       7.504   3.173 -13.421  0.00  0.00    -0.233 NA
ATOM     12  C   UNL d   1       7.282   2.317 -14.435  0.00  0.00     0.294 C 
ATOM     13  O   UNL d   1       6.266   1.640 -14.540  0.00  0.00    -0.264 OA
BRANCH  12  14
ATOM     14  C   UNL d   1       8.380   2.254 -15.438  0.00  0.00     0.158 A 
ATOM     15  N   UNL d   1       8.193   1.886 -16.769  0.00  0.00    -0.222 NA
ATOM     16  C   UNL d   1       9.382   2.016 -17.352  0.00  0.00     0.148 A 
ATOM     17  N   UNL d   1      10.347   2.448 -16.408  0.00  0.00    -0.288 N 
ATOM     18  C   UNL d   1       9.820   1.808 -18.687  0.00  0.00     0.037 A 
ATOM     19  C   UNL d   1       9.688   2.575 -15.201  0.00  0.00     0.106 A 
ATOM     20  C   UNL d   1      11.649   2.669 -16.738  0.00  0.00     0.082 A 
ATOM     21  C   UNL d   1      12.059   2.462 -18.033  0.00  0.00     0.019 A 
ATOM     22  C   UNL d   1      11.138   2.028 -19.015  0.00  0.00     0.005 A 
ENDBRANCH  12  14
ENDBRANCH  10  11
ENDBRANCH   9  10
ENDBRANCH   8   9
ENDBRANCH   7   8
ENDBRANCH   1   7
BRANCH   4  23
ATOM     23  C   UNL d   1      11.043   8.368  -6.060  0.00  0.00     0.143 A 
ATOM     24  C   UNL d   1      11.482   7.925  -4.789  0.00  0.00     0.052 A 
ATOM     25  C   UNL d   1      11.672   8.913  -3.795  0.00  0.00     0.086 A 
ATOM     26  C   UNL d   1      11.766   6.586  -4.485  0.00  0.00     0.004 A 
ATOM     27  N   UNL d   1      11.395  10.195  -4.069  0.00  0.00    -0.224 NA
ATOM     28  C   UNL d   1      12.126   8.557  -2.514  0.00  0.00     0.019 A 
ATOM     29  C   UNL d   1      11.030  10.492  -5.302  0.00  0.00     0.200 A 
ATOM     30  N   UNL d   1      10.857   9.678  -6.329  0.00  0.00    -0.207 NA
ATOM     31  C   UNL d   1      12.375   7.220  -2.210  0.00  0.00     0.002 A 
ATOM     32  C   UNL d   1      12.217   6.270  -3.204  0.00  0.00     0.000 A 
ENDBRANCH   4  23
TORSDOF 7
