REMARK  5 active torsions:
REMARK  status: ('A' for Active; 'I' for Inactive)
REMARK    1  A    between atoms: O_2  and  C_3 
REMARK    2  A    between atoms: C_15  and  O_16 
REMARK    3  A    between atoms: O_16  and  C_17 
REMARK    4  A    between atoms: C_17  and  C_18 
REMARK    5  A    between atoms: C_21  and  O_22 
ROOT
ATOM      1  C   UNL d   1       6.539   1.264 -14.886  0.00  0.00     0.119 A 
ATOM      2  C   UNL d   1       7.629   2.054 -15.307  0.00  0.00     0.022 A 
ATOM      3  C   UNL d   1       8.021   3.183 -14.560  0.00  0.00    -0.020 A 
ATOM      4  C   UNL d   1       7.293   3.603 -13.419  0.00  0.00     0.007 A 
ATOM      5  C   UNL d   1       6.197   2.809 -13.014  0.00  0.00     0.027 A 
ATOM      6  C   UNL d   1       5.872   1.623 -13.696  0.00  0.00     0.153 A 
ATOM      7  O   UNL d   1       4.871   0.822 -13.246  0.00  0.00    -0.188 OA
ATOM      8  C   UNL d   1       7.695   4.871 -12.633  0.00  0.00     0.246 C 
ATOM      9  C   UNL d   1       7.893   4.486 -11.155  0.00  0.00     0.064 C 
ATOM     10  C   UNL d   1       8.493   5.582 -10.253  0.00  0.00    -0.020 A 
ATOM     11  C   UNL d   1       8.389   5.544  -8.848  0.00  0.00    -0.002 A 
ATOM     12  C   UNL d   1       8.921   6.579  -8.056  0.00  0.00     0.026 A 
ATOM     13  C   UNL d   1       9.594   7.673  -8.671  0.00  0.00     0.116 A 
ATOM     14  C   UNL d   1       9.779   7.665 -10.081  0.00  0.00     0.114 A 
ATOM     15  C   UNL d   1       9.198   6.630 -10.858  0.00  0.00     0.031 A 
ATOM     16  C   UNL d   1       9.273   6.649 -12.374  0.00  0.00     0.279 C 
ATOM     17  N   UNL d   1       9.037   5.336 -12.981  0.00  0.00     0.144 N 
ATOM     18  C   UNL d   1       9.201   5.380 -14.413  0.00  0.00     0.256 C 
ATOM     19  C   UNL d   1       9.210   3.989 -15.020  0.00  0.00     0.061 C 
ENDROOT
BRANCH  13  20
ATOM     20  O   UNL d   1      10.017   8.785  -7.983  0.00  0.00    -0.329 OA
BRANCH  20  21
ATOM     21  C   UNL d   1       9.812   8.866  -6.588  0.00  0.00     0.149 C 
BRANCH  21  22
ATOM     22  C   UNL d   1      10.722   9.930  -6.026  0.00  0.00     0.030 A 
ATOM     23  C   UNL d   1      10.962   9.994  -4.536  0.00  0.00     0.003 A 
ATOM     24  C   UNL d   1      12.061   9.532  -5.454  0.00  0.00     0.003 A 
ENDBRANCH  21  22
ENDBRANCH  20  21
ENDBRANCH  13  20
BRANCH  14  25
ATOM     25  O   UNL d   1      10.401   8.721 -10.697  0.00  0.00    -0.326 OA
ATOM     26  C   UNL d   1      11.752   8.909 -10.314  0.00  0.00     0.181 C 
ENDBRANCH  14  25
BRANCH   1  27
ATOM     27  O   UNL d   1       6.069   0.162 -15.574  0.00  0.00    -0.326 OA
ATOM     28  C   UNL d   1       6.755  -0.227 -16.755  0.00  0.00     0.181 C 
ENDBRANCH   1  27
TORSDOF 5
