REMARK  7 active torsions:
REMARK  status: ('A' for Active; 'I' for Inactive)
REMARK    1  A    between atoms: C_2  and  C_3 
REMARK    2  A    between atoms: C_3  and  N_4 
REMARK    3  A    between atoms: C_19  and  O_20 
REMARK    4  A    between atoms: O_20  and  C_21 
REMARK    5  A    between atoms: C_21  and  C_23 
REMARK    6  A    between atoms: C_23  and  S_24 
REMARK    7  A    between atoms: S_24  and  C_25 
ROOT
ATOM      1  N   UNL d   1      10.034   3.377 -14.997  0.00  0.00     0.140 N 
ATOM      2  C   UNL d   1      10.725   3.950 -16.147  0.00  0.00     0.255 C 
ATOM      3  C   UNL d   1      11.544   2.832 -16.796  0.00  0.00     0.061 C 
ATOM      4  C   UNL d   1      10.743   1.601 -17.197  0.00  0.00    -0.022 A 
ATOM      5  C   UNL d   1      11.167   0.632 -18.120  0.00  0.00    -0.004 A 
ATOM      6  C   UNL d   1      10.361  -0.491 -18.362  0.00  0.00    -0.000 A 
ATOM      7  C   UNL d   1       9.115  -0.623 -17.713  0.00  0.00    -0.000 A 
ATOM      8  C   UNL d   1       8.606   0.345 -16.812  0.00  0.00    -0.001 A 
ATOM      9  C   UNL d   1       9.488   1.425 -16.552  0.00  0.00     0.005 A 
ATOM     10  C   UNL d   1       9.005   2.459 -15.517  0.00  0.00     0.245 C 
ATOM     11  C   UNL d   1       8.259   1.759 -14.362  0.00  0.00     0.064 C 
ATOM     12  C   UNL d   1       7.156   0.856 -14.855  0.00  0.00    -0.018 A 
ATOM     13  C   UNL d   1       5.983   0.728 -14.080  0.00  0.00    -0.004 A 
ATOM     14  C   UNL d   1       4.904  -0.026 -14.560  0.00  0.00     0.002 A 
ATOM     15  C   UNL d   1       5.005  -0.633 -15.819  0.00  0.00     0.025 A 
ATOM     16  C   UNL d   1       6.164  -0.484 -16.609  0.00  0.00     0.103 A 
ATOM     17  C   UNL d   1       7.300   0.212 -16.109  0.00  0.00     0.019 A 
ENDROOT
BRANCH  16  18
ATOM     18  O   UNL d   1       6.147  -1.097 -17.829  0.00  0.00    -0.276 OA
BRANCH  18  19
ATOM     19  C   UNL d   1       5.665  -0.451 -18.900  0.00  0.00     0.288 C 
ATOM     20  O   UNL d   1       5.457   0.765 -18.986  0.00  0.00    -0.263 OA
BRANCH  19  21
ATOM     21  C   UNL d   1       5.373  -1.397 -20.066  0.00  0.00     0.158 C 
BRANCH  21  22
ATOM     22  S   UNL d   1       4.209  -2.713 -19.567  0.00  0.00    -0.103 SA
BRANCH  22  23
ATOM     23  C   UNL d   1       5.118  -4.055 -18.845  0.00  0.00     0.026 A 
ATOM     24  C   UNL d   1       6.515  -3.973 -18.648  0.00  0.00     0.006 A 
ATOM     25  C   UNL d   1       7.209  -5.030 -18.040  0.00  0.00     0.001 A 
ATOM     26  C   UNL d   1       6.527  -6.205 -17.667  0.00  0.00     0.000 A 
ATOM     27  C   UNL d   1       5.140  -6.307 -17.886  0.00  0.00     0.001 A 
ATOM     28  C   UNL d   1       4.433  -5.231 -18.468  0.00  0.00     0.006 A 
ENDBRANCH  22  23
ENDBRANCH  21  22
ENDBRANCH  19  21
ENDBRANCH  18  19
ENDBRANCH  16  18
BRANCH   1  29
ATOM     29  C   UNL d   1       9.466   4.453 -14.180  0.00  0.00     0.251 C 
BRANCH  29  30
ATOM     30  C   UNL d   1       9.634   4.169 -12.674  0.00  0.00     0.035 C 
ATOM     31  C   UNL d   1       9.048   5.277 -11.795  0.00  0.00     0.002 C 
ENDBRANCH  29  30
ENDBRANCH   1  29
TORSDOF 7
