REMARK  5 active torsions:
REMARK  status: ('A' for Active; 'I' for Inactive)
REMARK    1  A    between atoms: C_8  and  N_9 
REMARK    2  A    between atoms: N_12  and  C_13 
REMARK    3  A    between atoms: C_13  and  C_14 
REMARK    4  A    between atoms: C_14  and  C_15 
REMARK    5  A    between atoms: C_15  and  N_16 
ROOT
ATOM      1  N   UNL d   1       6.167  -0.716 -14.083  0.00  0.00    -0.191 NA
ATOM      2  C   UNL d   1       5.813  -0.815 -15.184  0.00  0.00     0.102 C 
ATOM      3  C   UNL d   1       5.351  -0.950 -16.565  0.00  0.00     0.084 A 
ATOM      4  C   UNL d   1       4.376  -1.944 -16.771  0.00  0.00     0.012 A 
ATOM      5  C   UNL d   1       3.849  -2.197 -18.046  0.00  0.00     0.001 A 
ATOM      6  C   UNL d   1       4.290  -1.446 -19.146  0.00  0.00     0.002 A 
ATOM      7  C   UNL d   1       5.267  -0.446 -18.955  0.00  0.00     0.018 A 
ATOM      8  C   UNL d   1       5.810  -0.179 -17.676  0.00  0.00     0.066 A 
ENDROOT
BRANCH   8   9
ATOM      9  N   UNL d   1       6.758   0.854 -17.559  0.00  0.00    -0.344 N 
ATOM     10  C   UNL d   1       6.718   1.823 -16.483  0.00  0.00     0.137 C 
ATOM     11  C   UNL d   1       8.048   1.835 -15.704  0.00  0.00     0.274 C 
ATOM     12  N   UNL d   1       9.165   2.102 -16.613  0.00  0.00     0.141 N 
ATOM     13  C   UNL d   1       9.200   1.038 -17.629  0.00  0.00     0.274 C 
ATOM     14  C   UNL d   1       7.895   0.995 -18.456  0.00  0.00     0.137 C 
BRANCH  12  15
ATOM     15  C   UNL d   1      10.415   2.104 -15.845  0.00  0.00     0.252 C 
BRANCH  15  16
ATOM     16  C   UNL d   1      11.443   3.021 -16.524  0.00  0.00     0.060 C 
BRANCH  16  17
ATOM     17  C   UNL d   1      11.344   4.490 -16.036  0.00  0.00     0.111 C 
BRANCH  17  18
ATOM     18  N   UNL d   1      11.952   5.411 -17.019  0.00  0.00    -0.299 N 
ATOM     19  C   UNL d   1      11.134   5.957 -18.078  0.00  0.00     0.058 A 
ATOM     20  C   UNL d   1      11.600   7.049 -18.855  0.00  0.00    -0.006 A 
ATOM     21  C   UNL d   1       9.837   5.437 -18.358  0.00  0.00     0.017 A 
ATOM     22  C   UNL d   1      12.973   7.622 -18.560  0.00  0.00     0.038 C 
ATOM     23  C   UNL d   1      10.790   7.608 -19.864  0.00  0.00    -0.003 A 
ATOM     24  C   UNL d   1      13.927   6.546 -18.024  0.00  0.00     0.093 C 
ATOM     25  C   UNL d   1      13.283   5.682 -16.937  0.00  0.00     0.238 C 
ATOM     26  O   UNL d   1      14.014   5.238 -16.049  0.00  0.00    -0.272 OA
ATOM     27  C   UNL d   1       9.499   7.098 -20.109  0.00  0.00    -0.000 A 
ATOM     28  C   UNL d   1       9.028   6.014 -19.349  0.00  0.00     0.002 A 
ENDBRANCH  17  18
ENDBRANCH  16  17
ENDBRANCH  15  16
ENDBRANCH  12  15
ENDBRANCH   8   9
TORSDOF 5
