REMARK  3 active torsions:
REMARK  status: ('A' for Active; 'I' for Inactive)
REMARK    1  A    between atoms: C_7  and  C_8 
REMARK    2  A    between atoms: C_8  and  N_9 
REMARK    3  A    between atoms: N_12  and  C_13 
ROOT
ATOM      1  N   UNL d   1       9.994   6.876 -10.569  0.00  0.00     0.145 N 
ATOM      2  C   UNL d   1       9.330   6.377  -9.364  0.00  0.00     0.275 C 
ATOM      3  C   UNL d   1      10.334   6.164  -8.228  0.00  0.00     0.137 C 
ATOM      4  N   UNL d   1      11.091   7.385  -7.997  0.00  0.00    -0.344 N 
ATOM      5  C   UNL d   1      11.673   8.013  -9.180  0.00  0.00     0.137 C 
ATOM      6  C   UNL d   1      10.595   8.182 -10.265  0.00  0.00     0.275 C 
ENDROOT
BRANCH   1   7
ATOM      7  C   UNL d   1       9.031   7.055 -11.653  0.00  0.00     0.279 C 
BRANCH   7   8
ATOM      8  C   UNL d   1       8.275   5.881 -12.196  0.00  0.00     0.032 A 
ATOM      9  C   UNL d   1       8.741   4.882 -13.118  0.00  0.00     0.021 A 
ATOM     10  C   UNL d   1       9.944   4.641 -13.813  0.00  0.00     0.022 A 
ATOM     11  C   UNL d   1       7.691   3.951 -13.349  0.00  0.00     0.110 A 
ATOM     12  C   UNL d   1      10.051   3.523 -14.652  0.00  0.00     0.100 A 
ATOM     13  N   UNL d   1       9.050   2.646 -14.852  0.00  0.00    -0.231 NA
ATOM     14  C   UNL d   1       7.881   2.847 -14.206  0.00  0.00     0.156 A 
ATOM     15 CL   UNL d   1       6.613   1.698 -14.438  0.00  0.00    -0.060 Cl
ATOM     16  N   UNL d   1       6.628   4.394 -12.570  0.00  0.00    -0.242 NA
ATOM     17  C   UNL d   1       6.978   5.549 -11.885  0.00  0.00     0.097 A 
ENDBRANCH   7   8
ENDBRANCH   1   7
BRANCH   4  18
ATOM     18  C   UNL d   1      11.225   7.918  -6.707  0.00  0.00     0.056 A 
ATOM     19  C   UNL d   1      11.342   7.061  -5.588  0.00  0.00     0.017 A 
ATOM     20  C   UNL d   1      11.477   7.598  -4.296  0.00  0.00     0.002 A 
ATOM     21  C   UNL d   1      11.485   8.988  -4.102  0.00  0.00     0.000 A 
ATOM     22  C   UNL d   1      11.363   9.843  -5.208  0.00  0.00     0.002 A 
ATOM     23  C   UNL d   1      11.242   9.316  -6.506  0.00  0.00     0.017 A 
ENDBRANCH   4  18
TORSDOF 3
