REMARK  2 active torsions:
REMARK  status: ('A' for Active; 'I' for Inactive)
REMARK    1  A    between atoms: N_14  and  C_15 
REMARK    2  A    between atoms: C_15  and  C_16 
ROOT
ATOM      1  O   UNL d   1       6.538   4.618 -12.586  0.00  0.00    -0.291 OA
ATOM      2  C   UNL d   1       7.447   4.129 -13.259  0.00  0.00     0.172 C 
ATOM      3  C   UNL d   1       7.278   2.859 -14.037  0.00  0.00     0.031 A 
ATOM      4  C   UNL d   1       6.108   2.094 -13.838  0.00  0.00     0.003 A 
ATOM      5  C   UNL d   1       5.877   0.893 -14.527  0.00  0.00     0.000 A 
ATOM      6  C   UNL d   1       6.837   0.442 -15.462  0.00  0.00    -0.000 A 
ATOM      7  C   UNL d   1       8.028   1.176 -15.678  0.00  0.00    -0.004 A 
ATOM      8  C   UNL d   1       8.253   2.385 -14.973  0.00  0.00    -0.019 A 
ATOM      9  C   UNL d   1       9.556   3.147 -15.193  0.00  0.00     0.027 C 
ATOM     10  C   UNL d   1       9.445   4.619 -14.738  0.00  0.00     0.012 C 
ATOM     11  C   UNL d   1       8.829   4.806 -13.323  0.00  0.00     0.060 C 
ATOM     12  C   UNL d   1       9.776   4.185 -12.287  0.00  0.00     0.043 C 
ATOM     13  C   UNL d   1       9.389   4.531 -10.831  0.00  0.00     0.251 C 
ATOM     14  N   UNL d   1       9.369   5.972 -10.617  0.00  0.00     0.137 N 
ATOM     15  C   UNL d   1       8.411   6.635 -11.499  0.00  0.00     0.251 C 
ATOM     16  C   UNL d   1       8.712   6.312 -12.962  0.00  0.00     0.043 C 
ENDROOT
BRANCH  14  17
ATOM     17  C   UNL d   1       8.988   6.231  -9.233  0.00  0.00     0.250 C 
BRANCH  17  18
ATOM     18  C   UNL d   1       9.698   7.484  -8.738  0.00  0.00     0.033 C 
ATOM     19  C   UNL d   1       9.185   7.871  -7.346  0.00  0.00     0.002 C 
ATOM     20  C   UNL d   1       9.937   9.102  -6.819  0.00  0.00     0.000 C 
ATOM     21  C   UNL d   1      11.452   8.897  -6.777  0.00  0.00     0.000 C 
ATOM     22  C   UNL d   1      11.977   8.491  -8.157  0.00  0.00     0.000 C 
ATOM     23  C   UNL d   1      11.223   7.264  -8.674  0.00  0.00     0.002 C 
ENDBRANCH  17  18
ENDBRANCH  14  17
TORSDOF 2
