REMARK  13 active torsions:
REMARK  status: ('A' for Active; 'I' for Inactive)
REMARK    1  A    between atoms: O_2  and  C_3 
REMARK    2  A    between atoms: C_7  and  C_8 
REMARK    3  A    between atoms: C_8  and  C_9 
REMARK    4  A    between atoms: C_9  and  C_10 
REMARK    5  A    between atoms: C_15  and  O_16 
REMARK    6  A    between atoms: O_16  and  C_17 
REMARK    7  A    between atoms: C_17  and  C_18 
REMARK    8  A    between atoms: C_18  and  C_19 
REMARK    9  A    between atoms: C_19  and  C_20 
REMARK   10  A    between atoms: C_20  and  C_21 
REMARK   11  A    between atoms: C_21  and  N_22 
REMARK   12  A    between atoms: C_27  and  O_28 
REMARK   13  A    between atoms: C_30  and  O_31 
ROOT
ATOM      1  C   UNL d   1      10.832   4.528 -15.246  0.00  0.00     0.149 C 
ENDROOT
BRANCH   1   2
ATOM      2  O   UNL d   1      10.129   5.018 -14.111  0.00  0.00    -0.331 OA
BRANCH   2   3
ATOM      3  C   UNL d   1       8.894   4.519 -13.753  0.00  0.00     0.090 A 
ATOM      4  C   UNL d   1       8.243   5.114 -12.643  0.00  0.00     0.001 A 
ATOM      5  C   UNL d   1       6.966   4.668 -12.230  0.00  0.00    -0.002 A 
ATOM      6  C   UNL d   1       6.329   3.625 -12.918  0.00  0.00    -0.000 A 
ATOM      7  C   UNL d   1       6.971   3.025 -14.022  0.00  0.00     0.002 A 
ATOM      8  C   UNL d   1       8.247   3.459 -14.428  0.00  0.00     0.024 A 
BRANCH   4   9
ATOM      9  C   UNL d   1       8.901   6.257 -11.879  0.00  0.00     0.033 C 
BRANCH   9  10
ATOM     10  C   UNL d   1       9.206   5.913 -10.422  0.00  0.00     0.031 C 
BRANCH  10  11
ATOM     11  C   UNL d   1       9.861   7.054  -9.671  0.00  0.00    -0.020 A 
ATOM     12  C   UNL d   1      10.440   8.165 -10.326  0.00  0.00    -0.004 A 
ATOM     13  C   UNL d   1      11.047   9.190  -9.569  0.00  0.00     0.002 A 
ATOM     14  C   UNL d   1      11.048   9.128  -8.166  0.00  0.00     0.024 A 
ATOM     15  C   UNL d   1      10.491   8.029  -7.496  0.00  0.00     0.094 A 
ATOM     16  C   UNL d   1       9.888   6.990  -8.257  0.00  0.00     0.020 A 
BRANCH  15  17
ATOM     17  O   UNL d   1      10.550   7.995  -6.124  0.00  0.00    -0.328 OA
ATOM     18  C   UNL d   1      10.268   6.755  -5.513  0.00  0.00     0.181 C 
ENDBRANCH  15  17
ENDBRANCH  10  11
ENDBRANCH   9  10
ENDBRANCH   4   9
ENDBRANCH   2   3
ENDBRANCH   1   2
BRANCH   1  19
ATOM     19  C   UNL d   1      11.226   5.703 -16.137  0.00  0.00     0.033 C 
BRANCH  19  20
ATOM     20  C   UNL d   1      11.940   5.234 -17.400  0.00  0.00     0.005 C 
BRANCH  20  21
ATOM     21  C   UNL d   1      12.350   6.402 -18.297  0.00  0.00     0.035 C 
BRANCH  21  22
ATOM     22  C   UNL d   1      12.840   5.949 -19.686  0.00  0.00     0.251 C 
BRANCH  22  23
ATOM     23  N   UNL d   1      14.289   5.759 -19.756  0.00  0.00     0.142 N 
ATOM     24  C   UNL d   1      14.967   7.028 -19.512  0.00  0.00     0.277 C 
ATOM     25  C   UNL d   1      16.465   6.942 -19.687  0.00  0.00     0.009 A 
ATOM     26  C   UNL d   1      17.030   5.933 -20.485  0.00  0.00    -0.020 A 
ATOM     27  C   UNL d   1      17.297   7.902 -19.073  0.00  0.00     0.024 A 
ATOM     28  C   UNL d   1      16.134   4.878 -21.108  0.00  0.00     0.061 C 
ATOM     29  C   UNL d   1      18.432   5.886 -20.669  0.00  0.00     0.022 A 
ATOM     30  C   UNL d   1      14.651   5.287 -21.092  0.00  0.00     0.255 C 
ATOM     31  C   UNL d   1      19.273   6.853 -20.054  0.00  0.00     0.116 A 
ATOM     32  C   UNL d   1      18.703   7.862 -19.245  0.00  0.00     0.116 A 
BRANCH  31  33
ATOM     33  O   UNL d   1      20.635   6.848 -20.232  0.00  0.00    -0.326 OA
ATOM     34  C   UNL d   1      21.176   5.984 -21.226  0.00  0.00     0.181 C 
ENDBRANCH  31  33
BRANCH  32  35
ATOM     35  O   UNL d   1      19.527   8.790 -18.653  0.00  0.00    -0.326 OA
ATOM     36  C   UNL d   1      18.931   9.858 -17.917  0.00  0.00     0.181 C 
ENDBRANCH  32  35
ENDBRANCH  22  23
ENDBRANCH  21  22
ENDBRANCH  20  21
ENDBRANCH  19  20
ENDBRANCH   1  19
TORSDOF 13
