REMARK  5 active torsions:
REMARK  status: ('A' for Active; 'I' for Inactive)
REMARK    1  A    between atoms: C_10  and  S_11 
REMARK    2  A    between atoms: S_11  and  C_12 
REMARK    3  A    between atoms: C_12  and  C_13 
REMARK    4  A    between atoms: C_13  and  C_14 
REMARK    5  A    between atoms: C_14  and  N_16 
ROOT
ATOM      1  C   UNL d   1       7.989  -2.305 -20.444  0.00  0.00     0.067 C 
ENDROOT
BRANCH   1   2
ATOM      2  S   UNL d   1       6.230  -2.785 -20.534  0.00  0.00    -0.075 SA
BRANCH   2   3
ATOM      3  C   UNL d   1       5.575  -1.647 -19.398  0.00  0.00     0.193 A 
ATOM      4  N   UNL d   1       5.228  -0.398 -19.705  0.00  0.00    -0.122 NA
ATOM      5  N   UNL d   1       4.912   0.180 -18.508  0.00  0.00    -0.128 NA
ATOM      6  C   UNL d   1       5.034  -0.787 -17.584  0.00  0.00     0.167 A 
ATOM      7  C   UNL d   1       4.668  -0.618 -16.204  0.00  0.00     0.037 C 
ATOM      8  N   UNL d   1       5.436  -1.963 -18.090  0.00  0.00    -0.289 N 
ATOM      9  C   UNL d   1       5.321   0.344 -15.346  0.00  0.00     0.021 A 
ATOM     10  C   UNL d   1       3.561  -1.359 -15.737  0.00  0.00     0.003 C 
ATOM     11  C   UNL d   1       6.321   1.184 -15.809  0.00  0.00     0.003 A 
ATOM     12  C   UNL d   1       4.880   0.462 -13.984  0.00  0.00     0.081 A 
ATOM     13  C   UNL d   1       6.843   2.183 -14.935  0.00  0.00     0.015 A 
ATOM     14  C   UNL d   1       6.292   2.312 -13.645  0.00  0.00     0.059 A 
ATOM     15  C   UNL d   1       6.740   3.458 -12.726  0.00  0.00     0.052 C 
ATOM     16  N   UNL d   1       5.392   1.427 -13.172  0.00  0.00    -0.250 NA
ATOM     17  C   UNL d   1       3.797  -0.334 -13.569  0.00  0.00     0.019 C 
ATOM     18  C   UNL d   1       3.111  -1.123 -14.441  0.00  0.00     0.002 C 
ATOM     19  C   UNL d   1       5.646  -3.208 -17.371  0.00  0.00     0.134 C 
ENDBRANCH   2   3
ENDBRANCH   1   2
BRANCH   1  20
ATOM     20  C   UNL d   1       8.364  -1.148 -19.461  0.00  0.00     0.045 C 
BRANCH  20  21
ATOM     21  C   UNL d   1       9.856  -0.766 -19.339  0.00  0.00     0.220 C 
ATOM     22  C   UNL d   1      10.579  -0.644 -20.704  0.00  0.00     0.035 C 
BRANCH  21  23
ATOM     23  N   UNL d   1       9.975   0.476 -18.542  0.00  0.00     0.136 N 
ATOM     24  C   UNL d   1       9.497   1.696 -19.227  0.00  0.00     0.255 C 
ATOM     25  C   UNL d   1       9.193   2.854 -18.266  0.00  0.00     0.062 C 
ATOM     26  C   UNL d   1      10.420   3.675 -17.920  0.00  0.00    -0.016 A 
ATOM     27  C   UNL d   1      11.490   3.056 -17.224  0.00  0.00    -0.022 A 
ATOM     28  C   UNL d   1      10.520   5.041 -18.294  0.00  0.00     0.055 A 
ATOM     29  C   UNL d   1      11.424   1.593 -16.820  0.00  0.00     0.061 C 
ATOM     30  C   UNL d   1      12.648   3.790 -16.892  0.00  0.00     0.017 A 
ATOM     31  C   UNL d   1      11.337   0.626 -18.011  0.00  0.00     0.255 C 
ATOM     32  C   UNL d   1      12.760   5.143 -17.254  0.00  0.00     0.106 A 
ATOM     33  C   UNL d   1      11.690   5.735 -17.955  0.00  0.00     0.125 A 
ATOM     34  N   UNL d   1      13.761   6.070 -17.062  0.00  0.00    -0.224 NA
ATOM     35  O   UNL d   1      12.032   7.046 -18.223  0.00  0.00    -0.291 OA
ATOM     36  C   UNL d   1      13.279   7.157 -17.672  0.00  0.00     0.159 A 
ATOM     37  C   UNL d   1      13.948   8.472 -17.758  0.00  0.00     0.080 C 
ATOM     38 BR   UNL d   1       9.145   5.968 -19.242  0.00  0.00    -0.047 Br
ENDBRANCH  21  23
ENDBRANCH  20  21
ENDBRANCH   1  20
TORSDOF 5
