REMARK  2 active torsions:
REMARK  status: ('A' for Active; 'I' for Inactive)
REMARK    1  A    between atoms: S_2  and  C_4 
REMARK    2  A    between atoms: S_2  and  N_10 
ROOT
ATOM      1  N   UNL d   1       9.445   5.832 -12.131  0.00  0.00    -0.231 N 
ATOM      2  C   UNL d   1       9.286   7.189 -12.378  0.00  0.00     0.092 A 
ATOM      3  C   UNL d   1       9.380   7.963 -11.259  0.00  0.00     0.021 A 
ATOM      4  C   UNL d   1       9.493   6.993 -10.276  0.00  0.00     0.014 A 
ATOM      5  C   UNL d   1       9.347   7.172  -8.950  0.00  0.00    -0.025 A 
ATOM      6  C   UNL d   1       9.266   6.071  -8.090  0.00  0.00    -0.026 A 
ATOM      7  C   UNL d   1       9.327   4.740  -8.536  0.00  0.00    -0.003 A 
ATOM      8  C   UNL d   1       9.517   4.584  -9.915  0.00  0.00     0.018 A 
ATOM      9  C   UNL d   1       9.518   5.688 -10.765  0.00  0.00     0.075 A 
ATOM     10  C   UNL d   1       9.099   6.972  -6.887  0.00  0.00     0.028 A 
ATOM     11  C   UNL d   1      10.233   6.896  -5.894  0.00  0.00     0.043 C 
ATOM     12  C   UNL d   1      11.563   6.921  -6.578  0.00  0.00     0.290 C 
ATOM     13  N   UNL d   1      11.919   8.311  -6.800  0.00  0.00     0.339 N 
ATOM     14  C   UNL d   1      11.598   8.703  -8.135  0.00  0.00     0.290 C 
ATOM     15  C   UNL d   1      10.197   9.227  -8.034  0.00  0.00     0.043 C 
ATOM     16  C   UNL d   1       9.129   8.209  -7.906  0.00  0.00     0.028 A 
ENDROOT
BRANCH   1  17
ATOM     17  S   UNL d   1       9.460   4.552 -13.326  0.00  0.00     0.271 S 
ATOM     18  O   UNL d   1      10.478   3.589 -12.916  0.00  0.00    -0.200 OA
ATOM     19  O   UNL d   1       9.582   5.189 -14.664  0.00  0.00    -0.200 OA
BRANCH  17  20
ATOM     20  C   UNL d   1       7.864   3.783 -13.272  0.00  0.00     0.104 A 
ATOM     21  C   UNL d   1       6.918   4.154 -12.290  0.00  0.00     0.013 A 
ATOM     22  C   UNL d   1       5.723   3.436 -12.192  0.00  0.00     0.001 A 
ATOM     23  C   UNL d   1       5.461   2.371 -13.071  0.00  0.00     0.000 A 
ATOM     24  C   UNL d   1       6.384   2.020 -14.073  0.00  0.00     0.001 A 
ATOM     25  C   UNL d   1       7.605   2.722 -14.174  0.00  0.00     0.013 A 
ENDBRANCH  17  20
ENDBRANCH   1  17
TORSDOF 2
