REMARK  7 active torsions:
REMARK  status: ('A' for Active; 'I' for Inactive)
REMARK    1  A    between atoms: C_2  and  N_3 
REMARK    2  A    between atoms: N_3  and  C_4 
REMARK    3  A    between atoms: N_3  and  C_6 
REMARK    4  A    between atoms: C_6  and  C_7 
REMARK    5  A    between atoms: C_7  and  O_8 
REMARK    6  A    between atoms: O_8  and  C_9 
REMARK    7  A    between atoms: C_9  and  C_11 
ROOT
ATOM      1  C   UNL d   1      10.661   7.944  -7.449  0.00  0.00     0.296 C 
ATOM      2  O   UNL d   1      10.575   8.889  -8.235  0.00  0.00    -0.259 OA
ENDROOT
BRANCH   1   3
ATOM      3  O   UNL d   1      10.505   6.637  -7.781  0.00  0.00    -0.296 OA
BRANCH   3   4
ATOM      4  C   UNL d   1      10.470   6.242  -9.140  0.00  0.00     0.188 C 
BRANCH   4   5
ATOM      5  C   UNL d   1       9.172   6.596  -9.877  0.00  0.00     0.283 C 
BRANCH   5   6
ATOM      6  N   UNL d   1       9.244   6.201 -11.292  0.00  0.00     0.140 N 
BRANCH   6   7
ATOM      7  C   UNL d   1       8.233   6.947 -12.051  0.00  0.00     0.250 C 
ATOM      8  C   UNL d   1       8.598   8.434 -12.237  0.00  0.00     0.037 C 
ENDBRANCH   6   7
BRANCH   6   9
ATOM      9  C   UNL d   1       9.010   4.760 -11.377  0.00  0.00     0.250 C 
ATOM     10  C   UNL d   1       9.284   4.181 -12.771  0.00  0.00     0.037 C 
ENDBRANCH   6   9
ENDBRANCH   5   6
ENDBRANCH   4   5
ENDBRANCH   3   4
ENDBRANCH   1   3
BRANCH   1  11
ATOM     11  C   UNL d   1      11.031   8.108  -6.023  0.00  0.00     0.063 A 
ATOM     12  C   UNL d   1      11.408   6.999  -5.230  0.00  0.00     0.006 A 
ATOM     13  C   UNL d   1      11.851   7.189  -3.906  0.00  0.00     0.014 A 
ATOM     14  C   UNL d   1      11.864   8.486  -3.356  0.00  0.00     0.070 A 
ATOM     15  C   UNL d   1      11.451   9.588  -4.127  0.00  0.00     0.014 A 
ATOM     16  N   UNL d   1      12.277   8.674  -2.043  0.00  0.00    -0.101 NA
ATOM     17  C   UNL d   1      11.047   9.401  -5.462  0.00  0.00     0.006 A 
ENDBRANCH   1  11
TORSDOF 7
