REMARK  7 active torsions:
REMARK  status: ('A' for Active; 'I' for Inactive)
REMARK    1  A    between atoms: C_5  and  C_6 
REMARK    2  A    between atoms: C_9  and  S_10 
REMARK    3  A    between atoms: S_10  and  C_11 
REMARK    4  A    between atoms: C_11  and  C_12 
REMARK    5  A    between atoms: C_12  and  C_13 
REMARK    6  A    between atoms: C_13  and  N_14 
REMARK    7  A    between atoms: C_22  and  C_23 
ROOT
ATOM      1  N   UNL d   1      10.961   3.960 -15.897  0.00  0.00     0.138 N 
ATOM      2  C   UNL d   1      10.862   3.287 -17.194  0.00  0.00     0.255 C 
ATOM      3  C   UNL d   1      12.112   2.470 -17.567  0.00  0.00     0.061 C 
ATOM      4  C   UNL d   1      13.218   3.309 -18.178  0.00  0.00    -0.022 A 
ATOM      5  C   UNL d   1      13.652   3.026 -19.496  0.00  0.00    -0.002 A 
ATOM      6  C   UNL d   1      14.677   3.788 -20.089  0.00  0.00     0.026 A 
ATOM      7  C   UNL d   1      15.255   4.823 -19.337  0.00  0.00     0.119 A 
ATOM      8  O   UNL d   1      16.273   5.684 -19.696  0.00  0.00    -0.285 OA
ATOM      9  C   UNL d   1      16.425   6.473 -18.586  0.00  0.00     0.256 A 
ATOM     10  N   UNL d   1      15.619   6.186 -17.551  0.00  0.00    -0.217 NA
ATOM     11  C   UNL d   1      14.852   5.130 -18.019  0.00  0.00     0.102 A 
ATOM     12  C   UNL d   1      13.810   4.366 -17.440  0.00  0.00    -0.004 A 
ATOM     13  C   UNL d   1      13.348   4.681 -16.026  0.00  0.00     0.063 C 
ATOM     14  C   UNL d   1      11.880   5.100 -15.917  0.00  0.00     0.255 C 
ENDROOT
BRANCH   1  15
ATOM     15  C   UNL d   1       9.636   4.432 -15.491  0.00  0.00     0.251 C 
BRANCH  15  16
ATOM     16  C   UNL d   1       9.445   4.309 -13.970  0.00  0.00     0.047 C 
BRANCH  16  17
ATOM     17  C   UNL d   1       8.029   4.748 -13.557  0.00  0.00     0.067 C 
BRANCH  17  18
ATOM     18  S   UNL d   1       7.648   4.483 -11.800  0.00  0.00    -0.075 SA
BRANCH  18  19
ATOM     19  C   UNL d   1       8.648   5.720 -11.034  0.00  0.00     0.193 A 
ATOM     20  N   UNL d   1       9.209   6.723 -11.706  0.00  0.00    -0.122 NA
ATOM     21  N   UNL d   1       9.861   7.474 -10.762  0.00  0.00    -0.127 NA
ATOM     22  C   UNL d   1       9.658   6.873  -9.584  0.00  0.00     0.186 A 
ATOM     23  N   UNL d   1       8.912   5.742  -9.710  0.00  0.00    -0.287 N 
ATOM     24  C   UNL d   1       8.453   4.824  -8.680  0.00  0.00     0.134 C 
BRANCH  22  25
ATOM     25  C   UNL d   1      10.215   7.448  -8.344  0.00  0.00     0.136 A 
ATOM     26  N   UNL d   1      10.039   6.792  -7.169  0.00  0.00    -0.238 NA
ATOM     27  C   UNL d   1      10.559   7.351  -6.057  0.00  0.00     0.114 A 
ATOM     28  C   UNL d   1      11.265   8.572  -6.105  0.00  0.00     0.079 A 
ATOM     29  C   UNL d   1      11.861   9.196  -4.862  0.00  0.00     0.054 C 
ATOM     30  N   UNL d   1      11.453   9.238  -7.263  0.00  0.00    -0.245 NA
ATOM     31  C   UNL d   1      10.924   8.675  -8.376  0.00  0.00     0.121 A 
ENDBRANCH  22  25
ENDBRANCH  18  19
ENDBRANCH  17  18
ENDBRANCH  16  17
ENDBRANCH  15  16
ENDBRANCH   1  15
BRANCH   9  32
ATOM     32  C   UNL d   1      17.456   7.566 -18.629  0.00  0.00     0.458 C 
ATOM     33  F   UNL d   1      16.870   8.763 -18.575  0.00  0.00    -0.163 F 
ATOM     34  F   UNL d   1      18.291   7.456 -17.596  0.00  0.00    -0.163 F 
ATOM     35  F   UNL d   1      18.176   7.504 -19.750  0.00  0.00    -0.163 F 
ENDBRANCH   9  32
TORSDOF 7
