REMARK  7 active torsions:
REMARK  status: ('A' for Active; 'I' for Inactive)
REMARK    1  A    between atoms: C_2  and  C_3 
REMARK    2  A    between atoms: C_3  and  C_4 
REMARK    3  A    between atoms: C_4  and  C_5 
REMARK    4  A    between atoms: C_5  and  C_6 
REMARK    5  A    between atoms: C_6  and  N_7 
REMARK    6  A    between atoms: N_7  and  C_8 
REMARK    7  A    between atoms: C_8  and  C_9 
ROOT
ATOM      1  C   UNL d   1      10.025   8.202  -9.084  0.00  0.00     0.158 C 
ATOM      2  C   UNL d   1       9.998   6.678  -8.893  0.00  0.00     0.037 C 
ATOM      3  C   UNL d   1       9.748   6.353  -7.440  0.00  0.00     0.031 C 
ATOM      4  C   UNL d   1      10.569   7.228  -6.525  0.00  0.00     0.000 A 
ATOM      5  C   UNL d   1      10.714   6.869  -5.183  0.00  0.00    -0.000 A 
ATOM      6  C   UNL d   1      11.476   7.668  -4.304  0.00  0.00     0.027 A 
ATOM      7  C   UNL d   1      12.073   8.837  -4.776  0.00  0.00     0.133 A 
ATOM      8  O   UNL d   1      12.818   9.581  -3.925  0.00  0.00    -0.190 OA
ATOM      9  C   UNL d   1      11.943   9.204  -6.137  0.00  0.00     0.051 A 
ATOM     10  C   UNL d   1      11.184   8.415  -7.018  0.00  0.00     0.092 A 
ATOM     11  O   UNL d   1      11.098   8.779  -8.344  0.00  0.00    -0.331 OA
ENDROOT
BRANCH   1  12
ATOM     12  C   UNL d   1      10.312   8.546 -10.541  0.00  0.00     0.320 C 
BRANCH  12  13
ATOM     13  N   UNL d   1       9.136   8.309 -11.374  0.00  0.00     0.342 N 
BRANCH  13  14
ATOM     14  C   UNL d   1       9.355   7.292 -12.377  0.00  0.00     0.290 C 
BRANCH  14  15
ATOM     15  C   UNL d   1       8.037   6.792 -12.977  0.00  0.00     0.038 C 
BRANCH  15  16
ATOM     16  C   UNL d   1       7.353   5.746 -12.104  0.00  0.00     0.002 C 
BRANCH  16  17
ATOM     17  C   UNL d   1       6.251   5.023 -12.878  0.00  0.00     0.000 C 
BRANCH  17  18
ATOM     18  C   UNL d   1       5.649   3.898 -12.049  0.00  0.00     0.000 C 
ATOM     19  C   UNL d   1       4.699   3.054 -12.870  0.00  0.00     0.000 C 
ENDBRANCH  17  18
ENDBRANCH  16  17
ENDBRANCH  15  16
ENDBRANCH  14  15
ENDBRANCH  13  14
ENDBRANCH  12  13
ENDBRANCH   1  12
TORSDOF 7
