REMARK  8 active torsions:
REMARK  status: ('A' for Active; 'I' for Inactive)
REMARK    1  A    between atoms: C_2  and  C_3 
REMARK    2  A    between atoms: C_2  and  N_11 
REMARK    3  A    between atoms: C_3  and  C_4 
REMARK    4  A    between atoms: C_4  and  C_5 
REMARK    5  A    between atoms: N_11  and  C_12 
REMARK    6  A    between atoms: C_12  and  C_13 
REMARK    7  A    between atoms: C_13  and  C_15 
REMARK    8  A    between atoms: C_20  and  C_21 
ROOT
ATOM      1  C   UNL d   1       8.267   5.259 -10.830  0.00  0.00     0.157 C 
ENDROOT
BRANCH   1   2
ATOM      2  N   UNL d   1       9.045   6.412 -10.363  0.00  0.00    -0.294 NA
BRANCH   2   3
ATOM      3  C   UNL d   1       9.764   6.229  -9.112  0.00  0.00     0.099 C 
ATOM      4  C   UNL d   1       8.876   5.647  -8.001  0.00  0.00     0.026 C 
BRANCH   3   5
ATOM      5  C   UNL d   1      10.321   7.596  -8.673  0.00  0.00     0.029 C 
BRANCH   5   6
ATOM      6  C   UNL d   1      11.569   7.475  -7.778  0.00  0.00     0.028 C 
BRANCH   6   7
ATOM      7  C   UNL d   1      11.422   8.208  -6.465  0.00  0.00    -0.022 A 
ATOM      8  C   UNL d   1      11.499   7.499  -5.247  0.00  0.00    -0.004 A 
ATOM      9  C   UNL d   1      11.489   8.197  -4.030  0.00  0.00    -0.000 A 
ATOM     10  C   UNL d   1      11.271   9.590  -4.023  0.00  0.00    -0.000 A 
ATOM     11  C   UNL d   1      11.137  10.284  -5.234  0.00  0.00    -0.000 A 
ATOM     12  C   UNL d   1      11.243   9.601  -6.456  0.00  0.00    -0.004 A 
ENDBRANCH   6   7
ENDBRANCH   5   6
ENDBRANCH   3   5
ENDBRANCH   2   3
ENDBRANCH   1   2
BRANCH   1  13
ATOM     13  C   UNL d   1       7.633   5.525 -12.210  0.00  0.00     0.198 C 
ATOM     14  O   UNL d   1       6.552   6.424 -12.045  0.00  0.00    -0.216 OA
BRANCH  13  15
ATOM     15  C   UNL d   1       7.150   4.236 -12.844  0.00  0.00     0.010 A 
ATOM     16  C   UNL d   1       7.964   3.580 -13.790  0.00  0.00     0.005 A 
ATOM     17  C   UNL d   1       7.548   2.367 -14.389  0.00  0.00     0.085 A 
ATOM     18  C   UNL d   1       6.290   1.816 -14.039  0.00  0.00     0.136 A 
ATOM     19  C   UNL d   1       5.471   2.475 -13.097  0.00  0.00     0.027 A 
ATOM     20  O   UNL d   1       5.859   0.621 -14.546  0.00  0.00    -0.190 OA
ATOM     21  C   UNL d   1       5.897   3.675 -12.499  0.00  0.00     0.000 A 
BRANCH  17  22
ATOM     22  C   UNL d   1       8.446   1.689 -15.379  0.00  0.00     0.299 C 
ATOM     23  N   UNL d   1       9.719   1.558 -15.011  0.00  0.00    -0.102 N 
ATOM     24  O   UNL d   1       8.013   1.242 -16.438  0.00  0.00    -0.264 OA
ENDBRANCH  17  22
ENDBRANCH  13  15
ENDBRANCH   1  13
TORSDOF 8
