REMARK  11 active torsions:
REMARK  status: ('A' for Active; 'I' for Inactive)
REMARK    1  A    between atoms: O_2  and  C_3 
REMARK    2  A    between atoms: C_6  and  C_7 
REMARK    3  A    between atoms: C_12  and  N_13 
REMARK    4  A    between atoms: N_16  and  C_17 
REMARK    5  A    between atoms: C_17  and  C_18 
REMARK    6  A    between atoms: C_18  and  C_19 
REMARK    7  A    between atoms: C_19  and  C_20 
REMARK    8  A    between atoms: C_20  and  C_21 
REMARK    9  A    between atoms: C_21  and  C_22 
REMARK       I    between atoms: C_22  and  N_24 
REMARK   10  A    between atoms: N_24  and  C_25 
REMARK   11  A    between atoms: C_25  and  C_27 
ROOT
ATOM      1  N   UNL d   1       8.870   2.361 -14.916  0.00  0.00    -0.344 N 
ATOM      2  C   UNL d   1      10.032   2.560 -14.072  0.00  0.00     0.137 C 
ATOM      3  C   UNL d   1      10.002   3.975 -13.489  0.00  0.00     0.274 C 
ATOM      4  N   UNL d   1       8.739   4.238 -12.775  0.00  0.00     0.141 N 
ATOM      5  C   UNL d   1       7.631   4.115 -13.725  0.00  0.00     0.274 C 
ATOM      6  C   UNL d   1       7.584   2.713 -14.324  0.00  0.00     0.137 C 
ENDROOT
BRANCH   4   7
ATOM      7  C   UNL d   1       8.706   5.601 -12.239  0.00  0.00     0.250 C 
BRANCH   7   8
ATOM      8  C   UNL d   1       9.610   5.737 -11.010  0.00  0.00     0.035 C 
BRANCH   8   9
ATOM      9  C   UNL d   1       9.634   7.131 -10.404  0.00  0.00     0.003 C 
BRANCH   9  10
ATOM     10  C   UNL d   1      10.496   7.239  -9.150  0.00  0.00     0.010 C 
BRANCH  10  11
ATOM     11  C   UNL d   1      10.358   8.647  -8.508  0.00  0.00     0.090 C 
BRANCH  11  12
ATOM     12  C   UNL d   1      11.296   8.780  -7.341  0.00  0.00     0.252 C 
ATOM     13  O   UNL d   1      12.279   8.040  -7.334  0.00  0.00    -0.271 OA
ATOM     14  N   UNL d   1      10.986   9.673  -6.367  0.00  0.00    -0.235 NA
BRANCH  14  15
ATOM     15  C   UNL d   1      11.662   9.927  -5.090  0.00  0.00     0.129 C 
ATOM     16  C   UNL d   1      13.036  10.215  -5.439  0.00  0.00     0.031 C 
BRANCH  15  17
ATOM     17  C   UNL d   1      11.702   8.802  -4.087  0.00  0.00    -0.000 A 
ATOM     18  C   UNL d   1      12.209   9.031  -2.783  0.00  0.00    -0.002 A 
ATOM     19  C   UNL d   1      12.210   7.981  -1.849  0.00  0.00    -0.000 A 
ATOM     20  C   UNL d   1      11.703   6.722  -2.224  0.00  0.00    -0.000 A 
ATOM     21  C   UNL d   1      11.275   6.491  -3.534  0.00  0.00    -0.000 A 
ATOM     22  C   UNL d   1      11.263   7.518  -4.452  0.00  0.00    -0.002 A 
ENDBRANCH  15  17
ENDBRANCH  14  15
ENDBRANCH  11  12
ENDBRANCH  10  11
ENDBRANCH   9  10
ENDBRANCH   8   9
ENDBRANCH   7   8
ENDBRANCH   4   7
BRANCH   1  23
ATOM     23  C   UNL d   1       8.993   1.829 -16.214  0.00  0.00     0.056 A 
ATOM     24  C   UNL d   1       8.082   0.876 -16.739  0.00  0.00     0.015 A 
ATOM     25  C   UNL d   1       8.219   0.448 -18.078  0.00  0.00     0.001 A 
ATOM     26  C   UNL d   1       9.275   0.911 -18.877  0.00  0.00     0.000 A 
ATOM     27  C   UNL d   1      10.203   1.818 -18.345  0.00  0.00     0.002 A 
ATOM     28  C   UNL d   1      10.058   2.273 -17.026  0.00  0.00     0.017 A 
BRANCH  24  29
ATOM     29  C   UNL d   1       6.981   0.309 -15.959  0.00  0.00     0.002 A 
ATOM     30  C   UNL d   1       5.697   0.327 -16.496  0.00  0.00     0.002 A 
ATOM     31  C   UNL d   1       4.672  -0.189 -15.721  0.00  0.00     0.024 A 
ATOM     32  C   UNL d   1       4.808  -0.653 -14.413  0.00  0.00     0.094 A 
ATOM     33  C   UNL d   1       6.090  -0.677 -13.871  0.00  0.00     0.024 A 
ATOM     34  C   UNL d   1       7.154  -0.217 -14.657  0.00  0.00     0.002 A 
BRANCH  32  35
ATOM     35  O   UNL d   1       3.728  -1.069 -13.684  0.00  0.00    -0.328 OA
ATOM     36  C   UNL d   1       2.473  -0.828 -14.271  0.00  0.00     0.181 C 
ENDBRANCH  32  35
ENDBRANCH  24  29
ENDBRANCH   1  23
TORSDOF 11
