REMARK  7 active torsions:
REMARK  status: ('A' for Active; 'I' for Inactive)
REMARK       I    between atoms: C_2  and  N_3 
REMARK    1  A    between atoms: C_2  and  C_22 
REMARK    2  A    between atoms: N_3  and  C_4 
REMARK    3  A    between atoms: C_4  and  C_5 
REMARK    4  A    between atoms: C_6  and  C_7 
REMARK    5  A    between atoms: C_7  and  N_8 
REMARK    6  A    between atoms: N_11  and  C_12 
REMARK    7  A    between atoms: C_25  and  C_26 
ROOT
ATOM      1  C   UNL d   1       7.087   4.697 -13.166  0.00  0.00     0.155 C 
ENDROOT
BRANCH   1   2
ATOM      2  N   UNL d   1       7.756   5.117 -11.937  0.00  0.00    -0.229 NA
ATOM      3  C   UNL d   1       9.019   5.564 -11.871  0.00  0.00     0.275 C 
ATOM      4  O   UNL d   1       9.781   5.596 -12.837  0.00  0.00    -0.266 OA
BRANCH   3   5
ATOM      5  C   UNL d   1       9.453   6.085 -10.533  0.00  0.00     0.058 A 
ATOM      6  C   UNL d   1       9.217   5.340  -9.364  0.00  0.00     0.005 A 
ATOM      7  C   UNL d   1       9.670   5.823  -8.119  0.00  0.00     0.002 A 
ATOM      8  C   UNL d   1      10.351   7.056  -8.023  0.00  0.00     0.018 A 
ATOM      9  C   UNL d   1      10.582   7.801  -9.194  0.00  0.00     0.002 A 
ATOM     10  C   UNL d   1      10.127   7.322 -10.439  0.00  0.00     0.005 A 
BRANCH   8  11
ATOM     11  C   UNL d   1      10.866   7.558  -6.731  0.00  0.00     0.085 A 
ATOM     12  N   UNL d   1      10.755   8.936  -6.481  0.00  0.00    -0.208 NA
ATOM     13  C   UNL d   1      11.163   9.562  -5.356  0.00  0.00     0.279 A 
ATOM     14  C   UNL d   1      11.723   8.692  -4.322  0.00  0.00     0.063 A 
ATOM     15  O   UNL d   1      11.050  10.778  -5.237  0.00  0.00    -0.265 OA
ATOM     16  C   UNL d   1      11.817   7.360  -4.516  0.00  0.00     0.006 A 
ATOM     17  C   UNL d   1      11.360   6.767  -5.758  0.00  0.00     0.019 A 
ENDBRANCH   8  11
ENDBRANCH   3   5
ENDBRANCH   1   2
BRANCH   1  18
ATOM     18  C   UNL d   1       7.171   3.200 -13.358  0.00  0.00    -0.003 C 
ATOM     19  C   UNL d   1       6.117   2.396 -13.574  0.00  0.00     0.006 C 
BRANCH  19  20
ATOM     20  C   UNL d   1       6.182   0.883 -13.692  0.00  0.00     0.276 C 
BRANCH  20  21
ATOM     21  N   UNL d   1       5.463   0.388 -14.862  0.00  0.00     0.145 N 
ATOM     22  C   UNL d   1       5.183  -1.046 -14.709  0.00  0.00     0.275 C 
ATOM     23  C   UNL d   1       4.405  -1.580 -15.927  0.00  0.00     0.137 C 
ATOM     24  N   UNL d   1       5.132  -1.296 -17.155  0.00  0.00    -0.344 N 
ATOM     25  C   UNL d   1       5.548   0.090 -17.316  0.00  0.00     0.137 C 
ATOM     26  C   UNL d   1       6.284   0.588 -16.062  0.00  0.00     0.275 C 
BRANCH  24  27
ATOM     27  C   UNL d   1       5.405  -2.304 -18.102  0.00  0.00     0.068 A 
ATOM     28  C   UNL d   1       5.252  -2.103 -19.502  0.00  0.00     0.084 A 
ATOM     29  C   UNL d   1       5.569  -3.140 -20.407  0.00  0.00     0.070 A 
ATOM     30 CL   UNL d   1       4.666  -0.607 -20.148  0.00  0.00    -0.080 Cl
ATOM     31  C   UNL d   1       6.025  -4.381 -19.935  0.00  0.00     0.012 A 
ATOM     32 CL   UNL d   1       5.391  -2.914 -22.109  0.00  0.00    -0.081 Cl
ATOM     33  C   UNL d   1       6.163  -4.597 -18.556  0.00  0.00     0.002 A 
ATOM     34  C   UNL d   1       5.857  -3.567 -17.648  0.00  0.00     0.018 A 
ENDBRANCH  24  27
ENDBRANCH  20  21
ENDBRANCH  19  20
ENDBRANCH   1  18
TORSDOF 7
