REMARK  1 active torsions:
REMARK  status: ('A' for Active; 'I' for Inactive)
REMARK    1  A    between atoms: O_2  and  C_3 
ROOT
ATOM      1  C   UNL d   1       8.311   5.436 -11.652  0.00  0.00     0.119 A 
ATOM      2  C   UNL d   1       7.883   4.673 -10.555  0.00  0.00     0.026 A 
ATOM      3  C   UNL d   1       8.331   4.969  -9.252  0.00  0.00    -0.002 A 
ATOM      4  C   UNL d   1       9.182   6.067  -9.033  0.00  0.00    -0.020 A 
ATOM      5  C   UNL d   1       9.585   6.864 -10.113  0.00  0.00     0.034 A 
ATOM      6  C   UNL d   1       9.124   6.570 -11.410  0.00  0.00     0.151 A 
ATOM      7  O   UNL d   1       9.400   7.411 -12.438  0.00  0.00    -0.188 OA
ATOM      8  C   UNL d   1      10.496   8.056  -9.853  0.00  0.00     0.279 C 
ATOM      9  N   UNL d   1      10.468   8.544  -8.477  0.00  0.00     0.144 N 
ATOM     10  C   UNL d   1      11.461   9.583  -8.343  0.00  0.00     0.256 C 
ATOM     11  C   UNL d   1      11.295  10.248  -6.960  0.00  0.00     0.061 C 
ATOM     12  C   UNL d   1      11.348   9.211  -5.885  0.00  0.00    -0.020 A 
ATOM     13  C   UNL d   1      11.615   9.656  -4.589  0.00  0.00     0.022 A 
ATOM     14  C   UNL d   1      11.774   8.680  -3.622  0.00  0.00     0.119 A 
ATOM     15  C   UNL d   1      11.556   7.335  -3.876  0.00  0.00     0.119 A 
ATOM     16  C   UNL d   1      11.177   6.862  -5.136  0.00  0.00     0.024 A 
ATOM     17  C   UNL d   1      11.092   7.840  -6.163  0.00  0.00     0.007 A 
ATOM     18  C   UNL d   1      10.755   7.426  -7.573  0.00  0.00     0.246 C 
ATOM     19  C   UNL d   1       9.535   6.477  -7.603  0.00  0.00     0.064 C 
ATOM     20  O   UNL d   1      11.754   6.633  -2.750  0.00  0.00    -0.300 OA
ATOM     21  C   UNL d   1      11.978   7.596  -1.785  0.00  0.00     0.304 C 
ATOM     22  O   UNL d   1      12.104   8.867  -2.340  0.00  0.00    -0.300 OA
ENDROOT
BRANCH   1  23
ATOM     23  O   UNL d   1       7.947   5.163 -12.960  0.00  0.00    -0.326 OA
ATOM     24  C   UNL d   1       7.553   3.835 -13.277  0.00  0.00     0.181 C 
ENDBRANCH   1  23
TORSDOF 1
