REMARK  4 active torsions:
REMARK  status: ('A' for Active; 'I' for Inactive)
REMARK    1  A    between atoms: C_5  and  N_6 
REMARK    2  A    between atoms: N_9  and  C_10 
REMARK    3  A    between atoms: C_10  and  C_11 
REMARK    4  A    between atoms: C_14  and  C_15 
ROOT
ATOM      1  N   UNL d   1      10.624   6.921  -8.450  0.00  0.00    -0.179 N 
ATOM      2  C   UNL d   1      11.008   7.417  -9.764  0.00  0.00     0.155 C 
ATOM      3  C   UNL d   1       9.800   7.402 -10.713  0.00  0.00     0.275 C 
ATOM      4  N   UNL d   1       9.226   6.056 -10.818  0.00  0.00     0.147 N 
ATOM      5  C   UNL d   1       8.776   5.657  -9.481  0.00  0.00     0.275 C 
ATOM      6  C   UNL d   1       9.957   5.621  -8.496  0.00  0.00     0.155 C 
ENDROOT
BRANCH   4   7
ATOM      7  C   UNL d   1       8.085   6.077 -11.732  0.00  0.00     0.297 C 
BRANCH   7   8
ATOM      8  C   UNL d   1       8.178   5.011 -12.775  0.00  0.00     0.113 A 
ATOM      9  C   UNL d   1       9.099   4.802 -13.771  0.00  0.00     0.117 A 
ATOM     10  N   UNL d   1       8.736   3.683 -14.519  0.00  0.00    -0.224 NA
ATOM     11  C   UNL d   1       7.614   3.222 -13.967  0.00  0.00     0.162 A 
ATOM     12  N   UNL d   1       7.255   3.992 -12.924  0.00  0.00    -0.228 NA
BRANCH  11  13
ATOM     13  C   UNL d   1       6.890   2.035 -14.429  0.00  0.00     0.036 A 
ATOM     14  C   UNL d   1       7.213   1.428 -15.664  0.00  0.00     0.003 A 
ATOM     15  C   UNL d   1       6.510   0.287 -16.100  0.00  0.00     0.000 A 
ATOM     16  C   UNL d   1       5.483  -0.260 -15.307  0.00  0.00     0.000 A 
ATOM     17  C   UNL d   1       5.160   0.338 -14.074  0.00  0.00     0.000 A 
ATOM     18  C   UNL d   1       5.859   1.479 -13.639  0.00  0.00     0.003 A 
ENDBRANCH  11  13
ENDBRANCH   7   8
ENDBRANCH   4   7
BRANCH   1  19
ATOM     19  C   UNL d   1      10.872   7.614  -7.268  0.00  0.00     0.727 A 
ATOM     20  N   UNL d   1      11.047   8.937  -7.348  0.00  0.00    -0.060 NA
ATOM     21  C   UNL d   1      11.275   9.605  -6.201  0.00  0.00     0.115 A 
ATOM     22  C   UNL d   1      11.343   8.941  -4.961  0.00  0.00     0.018 A 
ATOM     23  C   UNL d   1      11.586   9.682  -3.667  0.00  0.00     0.034 C 
ATOM     24  C   UNL d   1      11.165   7.546  -4.997  0.00  0.00     0.115 A 
ATOM     25  N   UNL d   1      10.927   6.893  -6.147  0.00  0.00    -0.060 NA
ENDBRANCH   1  19
TORSDOF 4
