REMARK  8 active torsions:
REMARK  status: ('A' for Active; 'I' for Inactive)
REMARK    1  A    between atoms: N_2  and  C_4 
REMARK    2  A    between atoms: C_8  and  O_9 
REMARK    3  A    between atoms: O_9  and  C_10 
REMARK    4  A    between atoms: C_10  and  C_11 
REMARK    5  A    between atoms: C_11  and  N_12 
REMARK    6  A    between atoms: N_12  and  C_13 
REMARK    7  A    between atoms: C_13  and  C_14 
REMARK       I    between atoms: N_18  and  C_19 
REMARK    8  A    between atoms: C_19  and  C_21 
ROOT
ATOM      1  C   UNL d   1       7.841   5.005 -12.048  0.00  0.00     0.172 C 
ATOM      2  F   UNL d   1       7.695   6.125 -12.766  0.00  0.00    -0.238 F 
ATOM      3  C   UNL d   1       6.622   4.098 -12.327  0.00  0.00     0.059 C 
ATOM      4  C   UNL d   1       6.595   3.599 -13.781  0.00  0.00     0.107 C 
ATOM      5  N   UNL d   1       7.875   2.917 -14.093  0.00  0.00    -0.317 N 
ATOM      6  C   UNL d   1       8.030   1.660 -14.594  0.00  0.00     0.257 C 
ATOM      7  O   UNL d   1       9.117   1.174 -14.906  0.00  0.00    -0.267 OA
ATOM      8  C   UNL d   1       9.057   3.795 -13.926  0.00  0.00     0.107 C 
ATOM      9  C   UNL d   1       9.148   4.308 -12.486  0.00  0.00     0.059 C 
ENDROOT
BRANCH   1  10
ATOM     10  C   UNL d   1       7.879   5.375 -10.554  0.00  0.00     0.323 C 
BRANCH  10  11
ATOM     11  N   UNL d   1       9.056   6.157 -10.241  0.00  0.00     0.345 N 
BRANCH  11  12
ATOM     12  C   UNL d   1       9.368   6.013  -8.829  0.00  0.00     0.323 C 
BRANCH  12  13
ATOM     13  C   UNL d   1      10.435   7.051  -8.478  0.00  0.00     0.187 C 
BRANCH  13  14
ATOM     14  O   UNL d   1      10.949   6.712  -7.192  0.00  0.00    -0.329 OA
BRANCH  14  15
ATOM     15  C   UNL d   1      11.130   7.684  -6.233  0.00  0.00     0.096 A 
ATOM     16  C   UNL d   1      10.938   9.067  -6.459  0.00  0.00     0.024 A 
ATOM     17  C   UNL d   1      11.146   9.981  -5.411  0.00  0.00     0.004 A 
ATOM     18  C   UNL d   1      11.581   9.542  -4.146  0.00  0.00     0.017 A 
ATOM     19  C   UNL d   1      11.814   8.167  -3.906  0.00  0.00     0.058 A 
ATOM     20  C   UNL d   1      11.559   7.249  -4.958  0.00  0.00     0.041 A 
BRANCH  19  21
ATOM     21  N   UNL d   1      12.264   7.728  -2.645  0.00  0.00    -0.344 N 
ATOM     22  C   UNL d   1      12.157   6.327  -2.269  0.00  0.00     0.126 C 
ATOM     23  C   UNL d   1      12.806   8.689  -1.698  0.00  0.00     0.126 C 
ENDBRANCH  19  21
ENDBRANCH  14  15
ENDBRANCH  13  14
ENDBRANCH  12  13
ENDBRANCH  11  12
ENDBRANCH  10  11
ENDBRANCH   1  10
BRANCH   6  24
ATOM     24  C   UNL d   1       6.787   0.843 -14.855  0.00  0.00     0.057 A 
ATOM     25  C   UNL d   1       6.602   0.239 -16.122  0.00  0.00     0.018 A 
ATOM     26  C   UNL d   1       5.438  -0.514 -16.392  0.00  0.00     0.085 A 
ATOM     27  C   UNL d   1       4.461  -0.680 -15.395  0.00  0.00     0.151 A 
ATOM     28 CL   UNL d   1       5.197  -1.200 -17.963  0.00  0.00    -0.080 Cl
ATOM     29  C   UNL d   1       4.656  -0.100 -14.120  0.00  0.00     0.031 A 
ATOM     30  F   UNL d   1       3.305  -1.328 -15.660  0.00  0.00    -0.203 F 
ATOM     31  C   UNL d   1       5.828   0.632 -13.839  0.00  0.00     0.007 A 
ENDBRANCH   6  24
TORSDOF 8
