REMARK  8 active torsions:
REMARK  status: ('A' for Active; 'I' for Inactive)
REMARK    1  A    between atoms: S_2  and  C_4 
REMARK    2  A    between atoms: S_2  and  N_10 
REMARK    3  A    between atoms: C_14  and  N_15 
REMARK    4  A    between atoms: N_18  and  C_19 
REMARK    5  A    between atoms: C_19  and  C_20 
REMARK    6  A    between atoms: C_20  and  C_21 
REMARK    7  A    between atoms: C_21  and  O_22 
REMARK    8  A    between atoms: O_22  and  C_23 
ROOT
ATOM      1  N   UNL d   1       7.632   2.398 -14.990  0.00  0.00    -0.231 N 
ATOM      2  C   UNL d   1       6.579   2.986 -14.285  0.00  0.00     0.092 A 
ATOM      3  C   UNL d   1       7.079   3.835 -13.329  0.00  0.00     0.023 A 
ATOM      4  C   UNL d   1       8.495   3.868 -13.524  0.00  0.00     0.034 A 
ATOM      5  C   UNL d   1       9.532   4.554 -12.881  0.00  0.00     0.058 A 
ATOM      6  C   UNL d   1      10.862   4.390 -13.329  0.00  0.00     0.017 A 
ATOM      7  C   UNL d   1      11.175   3.521 -14.390  0.00  0.00     0.003 A 
ATOM      8  C   UNL d   1      10.159   2.793 -15.017  0.00  0.00     0.018 A 
ATOM      9  C   UNL d   1       8.822   2.963 -14.586  0.00  0.00     0.076 A 
ENDROOT
BRANCH   5  10
ATOM     10  N   UNL d   1       9.268   5.414 -11.797  0.00  0.00    -0.344 N 
ATOM     11  C   UNL d   1       8.537   6.658 -11.959  0.00  0.00     0.137 C 
ATOM     12  C   UNL d   1       9.340   7.805 -11.305  0.00  0.00     0.274 C 
ATOM     13  N   UNL d   1       9.641   7.502  -9.897  0.00  0.00     0.141 N 
ATOM     14  C   UNL d   1      10.414   6.255  -9.817  0.00  0.00     0.274 C 
ATOM     15  C   UNL d   1       9.635   5.077 -10.438  0.00  0.00     0.137 C 
BRANCH  13  16
ATOM     16  C   UNL d   1      10.366   8.627  -9.302  0.00  0.00     0.253 C 
BRANCH  16  17
ATOM     17  C   UNL d   1      10.252   8.598  -7.763  0.00  0.00     0.068 C 
BRANCH  17  18
ATOM     18  C   UNL d   1      11.321   9.466  -7.059  0.00  0.00     0.151 C 
BRANCH  18  19
ATOM     19  O   UNL d   1      11.023   9.829  -5.711  0.00  0.00    -0.331 OA
BRANCH  19  20
ATOM     20  C   UNL d   1      11.423   8.961  -4.721  0.00  0.00     0.094 A 
ATOM     21  C   UNL d   1      11.812   9.481  -3.462  0.00  0.00     0.024 A 
ATOM     22  C   UNL d   1      12.266   8.607  -2.443  0.00  0.00     0.002 A 
ATOM     23  C   UNL d   1      12.289   7.212  -2.659  0.00  0.00     0.000 A 
ATOM     24  C   UNL d   1      11.856   6.707  -3.898  0.00  0.00     0.002 A 
ATOM     25  C   UNL d   1      11.438   7.559  -4.917  0.00  0.00     0.024 A 
ENDBRANCH  19  20
ENDBRANCH  18  19
ENDBRANCH  17  18
ENDBRANCH  16  17
ENDBRANCH  13  16
ENDBRANCH   5  10
BRANCH   1  26
ATOM     26  S   UNL d   1       7.438   1.207 -16.238  0.00  0.00     0.271 S 
ATOM     27  O   UNL d   1       8.648   0.357 -16.163  0.00  0.00    -0.200 OA
ATOM     28  O   UNL d   1       7.125   1.958 -17.459  0.00  0.00    -0.200 OA
BRANCH  26  29
ATOM     29  C   UNL d   1       6.033   0.213 -15.736  0.00  0.00     0.104 A 
ATOM     30  C   UNL d   1       5.369  -0.578 -16.704  0.00  0.00     0.013 A 
ATOM     31  C   UNL d   1       4.216  -1.309 -16.328  0.00  0.00     0.001 A 
ATOM     32  C   UNL d   1       3.709  -1.201 -15.013  0.00  0.00     0.000 A 
ATOM     33  C   UNL d   1       4.378  -0.409 -14.063  0.00  0.00     0.001 A 
ATOM     34  C   UNL d   1       5.569   0.251 -14.400  0.00  0.00     0.013 A 
ENDBRANCH  26  29
ENDBRANCH   1  26
TORSDOF 8
