REMARK  6 active torsions:
REMARK  status: ('A' for Active; 'I' for Inactive)
REMARK    1  A    between atoms: C_2  and  S_3 
REMARK    2  A    between atoms: S_3  and  C_6 
REMARK    3  A    between atoms: C_9  and  O_10 
REMARK    4  A    between atoms: C_12  and  C_13 
REMARK    5  A    between atoms: C_16  and  C_17 
REMARK    6  A    between atoms: C_17  and  N_18 
ROOT
ATOM      1  C   UNL d   1       9.042   5.129 -11.103  0.00  0.00     0.083 A 
ATOM      2  C   UNL d   1       8.377   4.790  -9.962  0.00  0.00     0.020 A 
ATOM      3  C   UNL d   1       8.781   5.667  -8.920  0.00  0.00     0.018 A 
ATOM      4  C   UNL d   1       9.722   6.513  -9.434  0.00  0.00     0.092 A 
ATOM      5  N   UNL d   1       9.863   6.188 -10.764  0.00  0.00    -0.248 NA
ENDROOT
BRANCH   1   6
ATOM      6  C   UNL d   1       9.004   4.606 -12.469  0.00  0.00     0.041 A 
ATOM      7  C   UNL d   1       7.829   4.047 -13.043  0.00  0.00     0.096 A 
ATOM      8  C   UNL d   1       7.882   3.470 -14.326  0.00  0.00     0.025 A 
ATOM      9  C   UNL d   1       9.066   3.511 -15.096  0.00  0.00     0.013 A 
ATOM     10  C   UNL d   1      10.218   4.086 -14.540  0.00  0.00     0.084 A 
ATOM     11  C   UNL d   1      10.184   4.625 -13.242  0.00  0.00     0.015 A 
BRANCH   7  12
ATOM     12  O   UNL d   1       6.624   3.969 -12.389  0.00  0.00    -0.328 OA
ATOM     13  C   UNL d   1       5.983   5.204 -12.094  0.00  0.00     0.181 C 
ENDBRANCH   7  12
BRANCH  10  14
ATOM     14  S   UNL d   1      11.724   4.155 -15.502  0.00  0.00     0.190 S 
ATOM     15  O   UNL d   1      11.744   2.993 -16.402  0.00  0.00    -0.222 OA
ATOM     16  O   UNL d   1      12.827   4.382 -14.557  0.00  0.00    -0.222 OA
BRANCH  14  17
ATOM     17  C   UNL d   1      11.556   5.672 -16.536  0.00  0.00     0.127 C 
ATOM     18  C   UNL d   1      12.044   6.916 -15.783  0.00  0.00     0.018 C 
ENDBRANCH  14  17
ENDBRANCH  10  14
ENDBRANCH   1   6
BRANCH   4  19
ATOM     19  C   UNL d   1      10.477   7.655  -8.840  0.00  0.00     0.296 C 
BRANCH  19  20
ATOM     20  N   UNL d   1      10.634   7.538  -7.397  0.00  0.00     0.148 N 
ATOM     21  C   UNL d   1      11.099   8.810  -6.852  0.00  0.00     0.277 C 
ATOM     22  C   UNL d   1      11.411   8.750  -5.364  0.00  0.00     0.007 A 
ATOM     23  C   UNL d   1      11.725   7.520  -4.749  0.00  0.00    -0.022 A 
ATOM     24  C   UNL d   1      11.442   9.926  -4.599  0.00  0.00    -0.003 A 
ATOM     25  C   UNL d   1      11.652   6.261  -5.569  0.00  0.00     0.061 C 
ATOM     26  C   UNL d   1      12.064   7.455  -3.382  0.00  0.00    -0.004 A 
ATOM     27  C   UNL d   1      11.624   6.509  -7.083  0.00  0.00     0.256 C 
ATOM     28  C   UNL d   1      12.111   8.638  -2.627  0.00  0.00    -0.000 A 
ATOM     29  C   UNL d   1      11.804   9.866  -3.238  0.00  0.00    -0.000 A 
ENDBRANCH  19  20
ENDBRANCH   4  19
TORSDOF 6
