REMARK  7 active torsions:
REMARK  status: ('A' for Active; 'I' for Inactive)
REMARK    1  A    between atoms: C_2  and  S_3 
REMARK    2  A    between atoms: S_3  and  N_6 
REMARK    3  A    between atoms: N_6  and  C_7 
REMARK    4  A    between atoms: C_10  and  C_11 
REMARK    5  A    between atoms: C_11  and  C_12 
REMARK    6  A    between atoms: C_12  and  N_13 
REMARK    7  A    between atoms: C_16  and  C_17 
ROOT
ATOM      1  N   UNL d   1       9.434   5.058 -12.842  0.00  0.00     0.137 N 
ATOM      2  C   UNL d   1      10.186   4.069 -13.617  0.00  0.00     0.251 C 
ATOM      3  C   UNL d   1       9.343   2.806 -13.864  0.00  0.00     0.040 C 
ATOM      4  C   UNL d   1       8.009   3.147 -14.553  0.00  0.00     0.028 C 
ATOM      5  C   UNL d   1       7.292   4.340 -13.870  0.00  0.00     0.040 C 
ATOM      6  C   UNL d   1       8.261   5.501 -13.607  0.00  0.00     0.251 C 
ENDROOT
BRANCH   1   7
ATOM      7  C   UNL d   1       9.102   4.536 -11.504  0.00  0.00     0.250 C 
BRANCH   7   8
ATOM      8  C   UNL d   1       8.611   5.620 -10.556  0.00  0.00     0.035 C 
BRANCH   8   9
ATOM      9  C   UNL d   1       9.739   6.124  -9.649  0.00  0.00     0.002 C 
ATOM     10  C   UNL d   1      10.068   7.585  -9.977  0.00  0.00     0.002 C 
ATOM     11  C   UNL d   1      11.169   8.121  -9.066  0.00  0.00     0.025 C 
ATOM     12  C   UNL d   1      10.768   7.937  -7.593  0.00  0.00     0.116 C 
ATOM     13  C   UNL d   1      10.492   6.463  -7.261  0.00  0.00     0.025 C 
ATOM     14  C   UNL d   1       9.388   5.917  -8.167  0.00  0.00     0.002 C 
BRANCH  12  15
ATOM     15  N   UNL d   1      11.857   8.416  -6.747  0.00  0.00    -0.190 NA
BRANCH  15  16
ATOM     16  S   UNL d   1      11.638   9.761  -5.713  0.00  0.00     0.261 S 
ATOM     17  O   UNL d   1      10.263   9.729  -5.210  0.00  0.00    -0.203 OA
ATOM     18  O   UNL d   1      12.116  10.935  -6.422  0.00  0.00    -0.203 OA
BRANCH  16  19
ATOM     19  C   UNL d   1      12.771   9.374  -4.313  0.00  0.00     0.146 C 
ATOM     20  C   UNL d   1      12.063   9.583  -2.962  0.00  0.00     0.020 C 
ENDBRANCH  16  19
ENDBRANCH  15  16
ENDBRANCH  12  15
ENDBRANCH   8   9
ENDBRANCH   7   8
ENDBRANCH   1   7
BRANCH   4  21
ATOM     21  C   UNL d   1       7.105   1.961 -14.643  0.00  0.00     0.004 A 
ATOM     22  C   UNL d   1       6.953   1.063 -15.751  0.00  0.00     0.021 A 
ATOM     23  C   UNL d   1       5.979   0.107 -15.354  0.00  0.00     0.100 A 
ATOM     24  C   UNL d   1       7.510   0.927 -17.038  0.00  0.00     0.002 A 
ATOM     25  O   UNL d   1       5.550   0.382 -14.075  0.00  0.00    -0.305 OA
ATOM     26  C   UNL d   1       5.553  -0.940 -16.182  0.00  0.00     0.025 A 
ATOM     27  C   UNL d   1       6.225   1.505 -13.689  0.00  0.00     0.118 A 
ATOM     28  C   UNL d   1       6.129  -1.054 -17.461  0.00  0.00     0.002 A 
ATOM     29  C   UNL d   1       7.105  -0.125 -17.887  0.00  0.00     0.000 A 
ENDBRANCH   4  21
TORSDOF 7
