REMARK  9 active torsions:
REMARK  status: ('A' for Active; 'I' for Inactive)
REMARK    1  A    between atoms: C_2  and  C_3 
REMARK    2  A    between atoms: C_3  and  N_4 
REMARK    3  A    between atoms: N_4  and  C_5 
REMARK    4  A    between atoms: N_4  and  C_21 
REMARK    5  A    between atoms: C_5  and  C_6 
REMARK    6  A    between atoms: C_6  and  C_7 
REMARK    7  A    between atoms: C_7  and  C_8 
REMARK    8  A    between atoms: C_8  and  N_9 
REMARK    9  A    between atoms: N_12  and  C_13 
ROOT
ATOM      1  N   UNL d   1       8.032   5.086 -12.120  0.00  0.00     0.135 N 
ENDROOT
BRANCH   1   2
ATOM      2  C   UNL d   1       8.101   6.442 -12.684  0.00  0.00     0.250 C 
BRANCH   2   3
ATOM      3  C   UNL d   1       9.594   6.777 -12.926  0.00  0.00     0.035 C 
ATOM      4  C   UNL d   1      10.277   5.686 -13.844  0.00  0.00     0.002 C 
ENDBRANCH   2   3
ENDBRANCH   1   2
BRANCH   1   5
ATOM      5  C   UNL d   1       7.787   5.092 -10.674  0.00  0.00     0.250 C 
BRANCH   5   6
ATOM      6  C   UNL d   1       8.651   6.009  -9.843  0.00  0.00     0.037 C 
BRANCH   6   7
ATOM      7  C   UNL d   1      10.122   5.716  -9.912  0.00  0.00     0.037 C 
BRANCH   7   8
ATOM      8  C   UNL d   1      10.935   7.031  -9.669  0.00  0.00     0.251 C 
BRANCH   8   9
ATOM      9  N   UNL d   1      10.606   7.591  -8.383  0.00  0.00     0.141 N 
ATOM     10  C   UNL d   1      10.446   6.584  -7.340  0.00  0.00     0.274 C 
ATOM     11  C   UNL d   1       9.904   7.240  -6.096  0.00  0.00     0.137 C 
ATOM     12  N   UNL d   1      10.843   8.255  -5.670  0.00  0.00    -0.344 N 
ATOM     13  C   UNL d   1      11.260   9.241  -6.655  0.00  0.00     0.137 C 
ATOM     14  C   UNL d   1      11.659   8.538  -7.971  0.00  0.00     0.274 C 
BRANCH  12  15
ATOM     15  C   UNL d   1      11.489   8.129  -4.417  0.00  0.00     0.056 A 
ATOM     16  C   UNL d   1      11.853   6.889  -3.924  0.00  0.00     0.017 A 
ATOM     17  C   UNL d   1      12.449   6.790  -2.640  0.00  0.00     0.002 A 
ATOM     18  C   UNL d   1      12.619   7.944  -1.865  0.00  0.00     0.000 A 
ATOM     19  C   UNL d   1      12.208   9.197  -2.371  0.00  0.00     0.002 A 
ATOM     20  C   UNL d   1      11.641   9.293  -3.646  0.00  0.00     0.017 A 
ENDBRANCH  12  15
ENDBRANCH   8   9
ENDBRANCH   7   8
ENDBRANCH   6   7
ENDBRANCH   5   6
ENDBRANCH   1   5
BRANCH   1  21
ATOM     21  C   UNL d   1       7.161   4.180 -12.883  0.00  0.00     0.224 C 
ATOM     22  C   UNL d   1       8.046   3.179 -13.668  0.00  0.00     0.059 C 
ATOM     23  C   UNL d   1       7.235   2.048 -14.329  0.00  0.00    -0.022 A 
ATOM     24  C   UNL d   1       5.906   1.768 -13.953  0.00  0.00    -0.024 A 
ATOM     25  C   UNL d   1       7.848   1.290 -15.332  0.00  0.00     0.025 A 
ATOM     26  C   UNL d   1       5.168   2.642 -12.948  0.00  0.00     0.028 C 
ATOM     27  C   UNL d   1       5.224   0.693 -14.551  0.00  0.00     0.025 A 
ATOM     28  C   UNL d   1       6.058   3.467 -12.053  0.00  0.00     0.038 C 
ATOM     29  C   UNL d   1       5.807  -0.037 -15.598  0.00  0.00     0.156 A 
ATOM     30  O   UNL d   1       5.091  -1.000 -16.253  0.00  0.00    -0.188 OA
ATOM     31  C   UNL d   1       7.118   0.286 -15.983  0.00  0.00     0.156 A 
ATOM     32  O   UNL d   1       7.726  -0.399 -17.000  0.00  0.00    -0.188 OA
ENDBRANCH   1  21
TORSDOF 9
