REMARK  7 active torsions:
REMARK  status: ('A' for Active; 'I' for Inactive)
REMARK    1  A    between atoms: C_2  and  C_3 
REMARK       I    between atoms: C_2  and  N_11 
REMARK    2  A    between atoms: C_14  and  C_16 
REMARK    3  A    between atoms: C_16  and  N_17 
REMARK    4  A    between atoms: N_17  and  C_18 
REMARK    5  A    between atoms: C_18  and  C_19 
REMARK    6  A    between atoms: C_19  and  O_20 
REMARK    7  A    between atoms: O_20  and  C_21 
ROOT
ATOM      1  O   UNL d   1       5.320   1.787 -13.081  0.00  0.00    -0.267 OA
ATOM      2  C   UNL d   1       6.266   2.250 -13.736  0.00  0.00     0.257 C 
ATOM      3  N   UNL d   1       6.807   3.474 -13.480  0.00  0.00    -0.317 N 
ATOM      4  C   UNL d   1       6.297   4.314 -12.374  0.00  0.00     0.107 C 
ATOM      5  C   UNL d   1       7.438   4.714 -11.429  0.00  0.00     0.059 C 
ATOM      6  C   UNL d   1       8.631   5.336 -12.169  0.00  0.00     0.172 C 
ATOM      7  F   UNL d   1       8.233   6.530 -12.669  0.00  0.00    -0.238 F 
ATOM      8  C   UNL d   1       9.062   4.452 -13.348  0.00  0.00     0.059 C 
ATOM      9  C   UNL d   1       7.877   4.141 -14.254  0.00  0.00     0.107 C 
ENDROOT
BRANCH   6  10
ATOM     10  C   UNL d   1       9.807   5.572 -11.219  0.00  0.00     0.323 C 
BRANCH  10  11
ATOM     11  N   UNL d   1       9.474   6.514 -10.167  0.00  0.00     0.345 N 
BRANCH  11  12
ATOM     12  C   UNL d   1      10.443   6.418  -9.095  0.00  0.00     0.323 C 
BRANCH  12  13
ATOM     13  C   UNL d   1      10.098   7.457  -8.040  0.00  0.00     0.187 C 
BRANCH  13  14
ATOM     14  O   UNL d   1      10.991   7.240  -6.963  0.00  0.00    -0.327 OA
BRANCH  14  15
ATOM     15  C   UNL d   1      11.046   8.197  -5.970  0.00  0.00     0.118 A 
ATOM     16  C   UNL d   1      11.537   7.796  -4.712  0.00  0.00     0.138 A 
ATOM     17  C   UNL d   1      11.637   8.741  -3.646  0.00  0.00     0.118 A 
ATOM     18  O   UNL d   1      11.902   6.491  -4.525  0.00  0.00    -0.324 OA
ATOM     19  C   UNL d   1      11.185  10.035  -3.812  0.00  0.00     0.026 A 
ATOM     20  O   UNL d   1      12.138   8.425  -2.417  0.00  0.00    -0.326 OA
ATOM     21  C   UNL d   1      10.681  10.421  -5.059  0.00  0.00     0.004 A 
ATOM     22  C   UNL d   1      10.630   9.534  -6.147  0.00  0.00     0.026 A 
ATOM     23  C   UNL d   1      12.864   7.230  -2.411  0.00  0.00     0.181 C 
ATOM     24  C   UNL d   1      12.088   6.147  -3.158  0.00  0.00     0.182 C 
ENDBRANCH  14  15
ENDBRANCH  13  14
ENDBRANCH  12  13
ENDBRANCH  11  12
ENDBRANCH  10  11
ENDBRANCH   6  10
BRANCH   2  25
ATOM     25  C   UNL d   1       6.801   1.415 -14.875  0.00  0.00     0.057 A 
ATOM     26  C   UNL d   1       5.917   0.697 -15.711  0.00  0.00     0.017 A 
ATOM     27  C   UNL d   1       6.390  -0.050 -16.816  0.00  0.00     0.069 A 
ATOM     28  C   UNL d   1       7.775  -0.118 -17.070  0.00  0.00     0.068 A 
ATOM     29 CL   UNL d   1       5.254  -0.891 -17.819  0.00  0.00    -0.082 Cl
ATOM     30  C   UNL d   1       8.665   0.569 -16.197  0.00  0.00     0.012 A 
ATOM     31 CL   UNL d   1       8.409  -1.009 -18.407  0.00  0.00    -0.082 Cl
ATOM     32  C   UNL d   1       8.192   1.291 -15.104  0.00  0.00     0.006 A 
ENDBRANCH   2  25
TORSDOF 7
