REMARK  4 active torsions:
REMARK  status: ('A' for Active; 'I' for Inactive)
REMARK    1  A    between atoms: S_2  and  C_5 
REMARK    2  A    between atoms: C_9  and  N_10 
REMARK    3  A    between atoms: N_13  and  C_14 
REMARK    4  A    between atoms: C_14  and  C_15 
ROOT
ATOM      1  N   UNL d   1      11.180   7.543  -7.622  0.00  0.00    -0.344 N 
ATOM      2  C   UNL d   1      10.278   6.437  -7.878  0.00  0.00     0.137 C 
ATOM      3  C   UNL d   1       9.421   6.749  -9.120  0.00  0.00     0.275 C 
ATOM      4  N   UNL d   1      10.264   7.117 -10.272  0.00  0.00     0.145 N 
ATOM      5  C   UNL d   1      10.999   8.342  -9.943  0.00  0.00     0.275 C 
ATOM      6  C   UNL d   1      11.920   8.108  -8.732  0.00  0.00     0.137 C 
ENDROOT
BRANCH   1   7
ATOM      7  C   UNL d   1      11.189   8.194  -6.380  0.00  0.00     0.057 A 
ATOM      8  C   UNL d   1      10.969   9.588  -6.305  0.00  0.00     0.017 A 
ATOM      9  C   UNL d   1      11.016  10.235  -5.071  0.00  0.00     0.002 A 
ATOM     10  C   UNL d   1      11.299   9.510  -3.904  0.00  0.00     0.011 A 
ATOM     11  C   UNL d   1      11.520   8.117  -3.986  0.00  0.00     0.085 A 
ATOM     12  C   UNL d   1      11.442   7.447  -5.210  0.00  0.00     0.028 A 
BRANCH  11  13
ATOM     13  S   UNL d   1      11.897   7.185  -2.505  0.00  0.00     0.191 S 
ATOM     14  C   UNL d   1      12.713   8.442  -1.539  0.00  0.00     0.145 C 
ATOM     15  O   UNL d   1      12.903   6.172  -2.826  0.00  0.00    -0.222 OA
ATOM     16  O   UNL d   1      10.660   6.779  -1.811  0.00  0.00    -0.222 OA
ENDBRANCH  11  13
ENDBRANCH   1   7
BRANCH   4  17
ATOM     17  C   UNL d   1       9.432   7.367 -11.457  0.00  0.00     0.277 C 
BRANCH  17  18
ATOM     18  C   UNL d   1       8.776   6.129 -12.048  0.00  0.00     0.011 A 
ATOM     19  C   UNL d   1       7.371   5.996 -12.060  0.00  0.00    -0.002 A 
ATOM     20  C   UNL d   1       6.765   4.854 -12.619  0.00  0.00    -0.000 A 
ATOM     21  C   UNL d   1       7.564   3.848 -13.199  0.00  0.00    -0.000 A 
ATOM     22  C   UNL d   1       8.966   3.966 -13.172  0.00  0.00    -0.000 A 
ATOM     23  C   UNL d   1       9.567   5.101 -12.604  0.00  0.00    -0.002 A 
ENDBRANCH  17  18
ENDBRANCH   4  17
TORSDOF 4
