REMARK  5 active torsions:
REMARK  status: ('A' for Active; 'I' for Inactive)
REMARK    1  A    between atoms: C_3  and  C_4 
REMARK    2  A    between atoms: C_4  and  O_5 
REMARK    3  A    between atoms: O_5  and  C_6 
REMARK    4  A    between atoms: N_20  and  C_21 
REMARK    5  A    between atoms: C_21  and  C_22 
ROOT
ATOM      1  C   UNL d   1      13.457   8.130 -16.063  0.00  0.00     0.090 C 
ATOM      2  C   UNL d   1      12.453   7.191 -16.588  0.00  0.00    -0.087 C 
ATOM      3  C   UNL d   1      11.607   6.425 -17.029  0.00  0.00    -0.058 C 
ENDROOT
BRANCH   3   4
ATOM      4  C   UNL d   1      10.578   5.535 -17.586  0.00  0.00     0.224 C 
BRANCH   4   5
ATOM      5  O   UNL d   1      10.003   4.788 -16.516  0.00  0.00    -0.317 OA
BRANCH   5   6
ATOM      6  C   UNL d   1      10.260   3.437 -16.349  0.00  0.00     0.095 A 
ATOM      7  C   UNL d   1       9.462   2.712 -15.429  0.00  0.00     0.018 A 
ATOM      8  C   UNL d   1       9.592   1.294 -15.410  0.00  0.00    -0.018 A 
ATOM      9  C   UNL d   1       8.437   3.311 -14.509  0.00  0.00    -0.001 A 
ATOM     10  C   UNL d   1      10.541   0.621 -16.192  0.00  0.00    -0.004 A 
ATOM     11  C   UNL d   1       8.646   0.474 -14.579  0.00  0.00     0.064 C 
ATOM     12  C   UNL d   1      11.392   1.374 -17.032  0.00  0.00     0.002 A 
ATOM     13  C   UNL d   1      11.259   2.759 -17.106  0.00  0.00     0.024 A 
ATOM     14  C   UNL d   1       7.235   1.117 -14.503  0.00  0.00     0.245 C 
ATOM     15  C   UNL d   1       7.327   2.589 -14.038  0.00  0.00     0.005 A 
ATOM     16  N   UNL d   1       6.349   0.244 -13.694  0.00  0.00     0.140 N 
ATOM     17  C   UNL d   1       6.297   3.141 -13.190  0.00  0.00    -0.022 A 
ATOM     18  C   UNL d   1       6.423   4.461 -12.774  0.00  0.00    -0.004 A 
ATOM     19  C   UNL d   1       5.234   2.160 -12.712  0.00  0.00     0.061 C 
ATOM     20  C   UNL d   1       7.543   5.214 -13.159  0.00  0.00    -0.000 A 
ATOM     21  C   UNL d   1       8.527   4.649 -14.008  0.00  0.00    -0.000 A 
ATOM     22  C   UNL d   1       5.091   0.908 -13.543  0.00  0.00     0.255 C 
BRANCH  16  23
ATOM     23  C   UNL d   1       6.071  -1.052 -14.326  0.00  0.00     0.251 C 
BRANCH  23  24
ATOM     24  C   UNL d   1       5.375  -1.015 -15.733  0.00  0.00     0.035 C 
ATOM     25  C   UNL d   1       3.805  -1.032 -15.683  0.00  0.00     0.002 C 
ENDBRANCH  23  24
ENDBRANCH  16  23
ENDBRANCH   5   6
ENDBRANCH   4   5
ENDBRANCH   3   4
TORSDOF 5
