REMARK  8 active torsions:
REMARK  status: ('A' for Active; 'I' for Inactive)
REMARK    1  A    between atoms: C_2  and  C_3 
REMARK    2  A    between atoms: C_3  and  C_4 
REMARK    3  A    between atoms: C_4  and  C_5 
REMARK    4  A    between atoms: C_5  and  C_6 
REMARK    5  A    between atoms: C_6  and  O_7 
REMARK    6  A    between atoms: O_7  and  C_8 
REMARK    7  A    between atoms: C_13  and  O_14 
REMARK    8  A    between atoms: C_22  and  O_23 
ROOT
ATOM      1  C   UNL d   1      10.162   7.774  -7.810  0.00  0.00     0.116 A 
ATOM      2  C   UNL d   1      10.251   6.411  -7.458  0.00  0.00     0.026 A 
ATOM      3  C   UNL d   1       9.908   5.418  -8.393  0.00  0.00    -0.002 A 
ATOM      4  C   UNL d   1       9.526   5.742  -9.701  0.00  0.00    -0.020 A 
ATOM      5  C   UNL d   1       9.472   7.082 -10.069  0.00  0.00     0.031 A 
ATOM      6  C   UNL d   1       9.783   8.090  -9.145  0.00  0.00     0.114 A 
ATOM      7  C   UNL d   1       8.970   7.430 -11.481  0.00  0.00     0.279 C 
ATOM      8  N   UNL d   1       8.203   6.385 -12.162  0.00  0.00     0.144 N 
ATOM      9  C   UNL d   1       6.813   6.227 -11.708  0.00  0.00     0.256 C 
ATOM     10  C   UNL d   1       6.033   5.324 -12.686  0.00  0.00     0.061 C 
ATOM     11  C   UNL d   1       6.833   4.111 -13.168  0.00  0.00    -0.020 A 
ATOM     12  C   UNL d   1       6.192   3.098 -13.864  0.00  0.00     0.022 A 
ATOM     13  C   UNL d   1       6.893   1.956 -14.328  0.00  0.00     0.119 A 
ATOM     14  C   UNL d   1       8.291   1.886 -14.069  0.00  0.00     0.153 A 
ATOM     15  O   UNL d   1       9.013   0.802 -14.465  0.00  0.00    -0.188 OA
ATOM     16  C   UNL d   1       8.967   2.949 -13.440  0.00  0.00     0.027 A 
ATOM     17  C   UNL d   1       8.234   4.055 -12.955  0.00  0.00     0.007 A 
ATOM     18  C   UNL d   1       8.909   5.103 -12.102  0.00  0.00     0.246 C 
ATOM     19  C   UNL d   1       9.101   4.632 -10.634  0.00  0.00     0.064 C 
ENDROOT
BRANCH   1  20
ATOM     20  O   UNL d   1      10.388   8.822  -6.934  0.00  0.00    -0.329 OA
BRANCH  20  21
ATOM     21  C   UNL d   1      10.581   8.528  -5.563  0.00  0.00     0.149 C 
BRANCH  21  22
ATOM     22  C   UNL d   1      12.013   8.096  -5.341  0.00  0.00     0.033 C 
BRANCH  22  23
ATOM     23  C   UNL d   1      12.402   7.953  -3.893  0.00  0.00     0.003 C 
BRANCH  23  24
ATOM     24  C   UNL d   1      11.975   6.622  -3.267  0.00  0.00     0.000 C 
BRANCH  24  25
ATOM     25  C   UNL d   1      12.488   6.469  -1.847  0.00  0.00     0.000 C 
ATOM     26  C   UNL d   1      12.700   7.816  -1.169  0.00  0.00     0.000 C 
ENDBRANCH  24  25
ENDBRANCH  23  24
ENDBRANCH  22  23
ENDBRANCH  21  22
ENDBRANCH  20  21
ENDBRANCH   1  20
BRANCH   6  27
ATOM     27  O   UNL d   1       9.708   9.397  -9.534  0.00  0.00    -0.326 OA
ATOM     28  C   UNL d   1      11.015   9.952  -9.636  0.00  0.00     0.181 C 
ENDBRANCH   6  27
BRANCH  13  29
ATOM     29  O   UNL d   1       6.199   0.973 -14.980  0.00  0.00    -0.326 OA
ATOM     30  C   UNL d   1       6.119  -0.298 -14.338  0.00  0.00     0.181 C 
ENDBRANCH  13  29
TORSDOF 8
