REMARK  10 active torsions:
REMARK  status: ('A' for Active; 'I' for Inactive)
REMARK    1  A    between atoms: O_2  and  C_3 
REMARK    2  A    between atoms: C_8  and  N_9 
REMARK    3  A    between atoms: N_12  and  C_13 
REMARK    4  A    between atoms: C_13  and  C_14 
REMARK    5  A    between atoms: C_14  and  C_15 
REMARK    6  A    between atoms: C_15  and  N_16 
REMARK       I    between atoms: N_16  and  C_17 
REMARK       I    between atoms: C_17  and  N_19 
REMARK    7  A    between atoms: N_19  and  N_20 
REMARK    8  A    between atoms: N_20  and  C_21 
REMARK    9  A    between atoms: N_20  and  C_30 
REMARK   10  A    between atoms: C_21  and  C_22 
ROOT
ATOM      1  C   UNL d   1       7.031   4.467 -12.718  0.00  0.00     0.002 C 
ATOM      2  C   UNL d   1       5.827   3.964 -12.144  0.00  0.00    -0.002 C 
ATOM      3  C   UNL d   1       5.285   2.743 -12.629  0.00  0.00     0.010 C 
ATOM      4  C   UNL d   1       5.959   1.993 -13.634  0.00  0.00     0.068 C 
ATOM      5  C   UNL d   1       5.440   0.708 -14.120  0.00  0.00     0.101 C 
ATOM      6  N   UNL d   1       5.023  -0.296 -14.517  0.00  0.00    -0.191 NA
ATOM      7  C   UNL d   1       7.143   2.532 -14.201  0.00  0.00     0.010 C 
ATOM      8  C   UNL d   1       7.609   3.794 -13.830  0.00  0.00    -0.002 C 
ENDROOT
BRANCH   1   9
ATOM      9  C   UNL d   1       7.654   5.758 -12.156  0.00  0.00     0.154 C 
BRANCH   9  10
ATOM     10  N   UNL d   1       9.088   5.785 -11.854  0.00  0.00    -0.242 N 
BRANCH  10  11
ATOM     11  N   UNL d   1       9.732   4.603 -12.210  0.00  0.00    -0.110 NA
ATOM     12  C   UNL d   1      10.459   4.477 -13.333  0.00  0.00     0.381 C 
ATOM     13  N   UNL d   1      10.667   3.196 -13.642  0.00  0.00    -0.216 NA
ATOM     14  O   UNL d   1      10.848   5.420 -14.031  0.00  0.00    -0.241 OA
BRANCH  13  15
ATOM     15  C   UNL d   1      11.564   2.730 -14.697  0.00  0.00     0.133 C 
BRANCH  15  16
ATOM     16  C   UNL d   1      10.961   2.968 -16.094  0.00  0.00     0.062 C 
BRANCH  16  17
ATOM     17  C   UNL d   1      12.051   3.130 -17.169  0.00  0.00     0.253 C 
BRANCH  17  18
ATOM     18  N   UNL d   1      12.851   4.337 -16.938  0.00  0.00     0.141 N 
ATOM     19  C   UNL d   1      14.092   4.256 -17.714  0.00  0.00     0.274 C 
ATOM     20  C   UNL d   1      14.984   5.482 -17.426  0.00  0.00     0.137 C 
ATOM     21  N   UNL d   1      14.254   6.715 -17.700  0.00  0.00    -0.343 N 
ATOM     22  C   UNL d   1      12.954   6.820 -17.055  0.00  0.00     0.137 C 
ATOM     23  C   UNL d   1      12.118   5.549 -17.338  0.00  0.00     0.274 C 
BRANCH  21  24
ATOM     24  C   UNL d   1      14.716   7.698 -18.602  0.00  0.00     0.079 A 
ATOM     25  C   UNL d   1      15.312   7.346 -19.842  0.00  0.00     0.110 A 
ATOM     26  C   UNL d   1      15.795   8.370 -20.692  0.00  0.00     0.026 A 
ATOM     27  C   UNL d   1      15.671   9.728 -20.335  0.00  0.00     0.002 A 
ATOM     28  C   UNL d   1      15.061  10.070 -19.113  0.00  0.00     0.002 A 
ATOM     29  C   UNL d   1      14.586   9.062 -18.261  0.00  0.00     0.019 A 
BRANCH  25  30
ATOM     30  O   UNL d   1      15.362   6.005 -20.177  0.00  0.00    -0.327 OA
ATOM     31  C   UNL d   1      15.997   5.622 -21.385  0.00  0.00     0.181 C 
ENDBRANCH  25  30
ENDBRANCH  21  24
ENDBRANCH  17  18
ENDBRANCH  16  17
ENDBRANCH  15  16
ENDBRANCH  13  15
ENDBRANCH  10  11
BRANCH  10  32
ATOM     32  C   UNL d   1       9.471   6.547 -10.725  0.00  0.00     0.089 A 
ATOM     33  C   UNL d   1       9.455   6.024  -9.403  0.00  0.00     0.076 A 
ATOM     34  C   UNL d   1       9.873   6.823  -8.325  0.00  0.00     0.024 A 
ATOM     35 CL   UNL d   1       8.965   4.406  -9.064  0.00  0.00    -0.081 Cl
ATOM     36  C   UNL d   1      10.284   8.146  -8.545  0.00  0.00     0.059 A 
ATOM     37  C   UNL d   1      10.279   8.678  -9.846  0.00  0.00     0.013 A 
ATOM     38 CL   UNL d   1      10.800   9.117  -7.221  0.00  0.00    -0.082 Cl
ATOM     39  C   UNL d   1       9.872   7.885 -10.931  0.00  0.00     0.021 A 
ENDBRANCH  10  32
ENDBRANCH   9  10
ENDBRANCH   1   9
TORSDOF 10
