REMARK  6 active torsions:
REMARK  status: ('A' for Active; 'I' for Inactive)
REMARK    1  A    between atoms: C_6  and  N_7 
REMARK    2  A    between atoms: N_10  and  C_11 
REMARK    3  A    between atoms: C_11  and  C_12 
REMARK    4  A    between atoms: C_12  and  C_13 
REMARK    5  A    between atoms: C_13  and  O_14 
REMARK    6  A    between atoms: O_14  and  C_15 
ROOT
ATOM      1  N   UNL d   1       9.160   3.966 -13.480  0.00  0.00    -0.344 N 
ATOM      2  C   UNL d   1       9.072   5.308 -13.987  0.00  0.00     0.137 C 
ATOM      3  C   UNL d   1       8.603   6.254 -12.861  0.00  0.00     0.274 C 
ATOM      4  N   UNL d   1       9.490   6.156 -11.701  0.00  0.00     0.141 N 
ATOM      5  C   UNL d   1       9.453   4.780 -11.188  0.00  0.00     0.274 C 
ATOM      6  C   UNL d   1       9.948   3.806 -12.276  0.00  0.00     0.137 C 
ENDROOT
BRANCH   4   7
ATOM      7  C   UNL d   1       9.068   7.107 -10.684  0.00  0.00     0.253 C 
BRANCH   7   8
ATOM      8  C   UNL d   1      10.242   7.511  -9.765  0.00  0.00     0.068 C 
BRANCH   8   9
ATOM      9  C   UNL d   1       9.818   8.613  -8.748  0.00  0.00     0.151 C 
BRANCH   9  10
ATOM     10  O   UNL d   1      10.890   9.200  -7.996  0.00  0.00    -0.331 OA
BRANCH  10  11
ATOM     11  C   UNL d   1      11.175   8.663  -6.764  0.00  0.00     0.096 A 
ATOM     12  C   UNL d   1      11.629   9.535  -5.748  0.00  0.00     0.045 A 
ATOM     13  C   UNL d   1      11.876   9.013  -4.458  0.00  0.00     0.106 A 
ATOM     14  C   UNL d   1      11.732   7.629  -4.167  0.00  0.00     0.041 A 
ATOM     15  N   UNL d   1      12.261   9.541  -3.226  0.00  0.00    -0.148 NA
ATOM     16  C   UNL d   1      11.317   6.781  -5.207  0.00  0.00     0.005 A 
ATOM     17  C   UNL d   1      12.052   7.472  -2.784  0.00  0.00     0.124 A 
ATOM     18  C   UNL d   1      11.043   7.278  -6.485  0.00  0.00     0.024 A 
ATOM     19  N   UNL d   1      12.364   8.615  -2.230  0.00  0.00    -0.146 NA
ENDBRANCH  10  11
ENDBRANCH   9  10
ENDBRANCH   8   9
ENDBRANCH   7   8
ENDBRANCH   4   7
BRANCH   1  20
ATOM     20  C   UNL d   1       8.586   2.889 -14.139  0.00  0.00     0.068 A 
ATOM     21  C   UNL d   1       7.186   2.729 -14.063  0.00  0.00     0.018 A 
ATOM     22  C   UNL d   1       6.570   1.628 -14.678  0.00  0.00     0.002 A 
ATOM     23  C   UNL d   1       7.332   0.709 -15.415  0.00  0.00     0.012 A 
ATOM     24  C   UNL d   1       8.725   0.873 -15.521  0.00  0.00     0.070 A 
ATOM     25 CL   UNL d   1       9.657  -0.236 -16.466  0.00  0.00    -0.081 Cl
ATOM     26  C   UNL d   1       9.355   1.956 -14.883  0.00  0.00     0.084 A 
ATOM     27 CL   UNL d   1      11.060   2.171 -15.031  0.00  0.00    -0.080 Cl
ENDBRANCH   1  20
TORSDOF 6
