REMARK  12 active torsions:
REMARK  status: ('A' for Active; 'I' for Inactive)
REMARK    1  A    between atoms: O_2  and  C_3 
REMARK    2  A    between atoms: C_5  and  C_6 
REMARK    3  A    between atoms: C_6  and  C_7 
REMARK    4  A    between atoms: C_7  and  N_8 
REMARK    5  A    between atoms: N_8  and  C_9 
REMARK    6  A    between atoms: C_9  and  C_10 
REMARK    7  A    between atoms: C_10  and  C_12 
REMARK    8  A    between atoms: C_26  and  O_27 
REMARK    9  A    between atoms: O_27  and  C_28 
REMARK   10  A    between atoms: C_28  and  C_29 
REMARK   11  A    between atoms: C_29  and  C_30 
REMARK   12  A    between atoms: C_30  and  C_31 
ROOT
ATOM      1  C   UNL d   1       6.808   4.327 -13.265  0.00  0.00     0.116 A 
ATOM      2  C   UNL d   1       7.264   5.532 -12.687  0.00  0.00     0.022 A 
ATOM      3  C   UNL d   1       8.639   5.842 -12.664  0.00  0.00    -0.018 A 
ATOM      4  C   UNL d   1       9.561   4.965 -13.243  0.00  0.00    -0.002 A 
ATOM      5  C   UNL d   1       9.099   3.824 -13.896  0.00  0.00     0.026 A 
ATOM      6  C   UNL d   1       7.730   3.458 -13.890  0.00  0.00     0.116 A 
ENDROOT
BRANCH   3   7
ATOM      7  C   UNL d   1       9.136   7.128 -12.058  0.00  0.00     0.065 C 
BRANCH   7   8
ATOM      8  C   UNL d   1       9.692   6.898 -10.652  0.00  0.00     0.295 C 
BRANCH   8   9
ATOM      9  N   UNL d   1      10.332   8.104 -10.177  0.00  0.00     0.343 N 
BRANCH   9  10
ATOM     10  C   UNL d   1      10.096   8.372  -8.774  0.00  0.00     0.327 C 
BRANCH  10  11
ATOM     11  C   UNL d   1      11.202   7.808  -7.853  0.00  0.00     0.212 C 
ATOM     12  O   UNL d   1      12.466   7.895  -8.492  0.00  0.00    -0.216 OA
BRANCH  11  13
ATOM     13  C   UNL d   1      11.231   8.511  -6.500  0.00  0.00     0.034 A 
ATOM     14  C   UNL d   1      11.653   7.841  -5.341  0.00  0.00     0.113 A 
ATOM     15  C   UNL d   1      11.788   8.527  -4.116  0.00  0.00     0.132 A 
ATOM     16  O   UNL d   1      12.027   6.537  -5.411  0.00  0.00    -0.319 OA
ATOM     17  C   UNL d   1      11.418   9.839  -4.045  0.00  0.00     0.150 A 
ATOM     18  N   UNL d   1      12.301   7.919  -2.960  0.00  0.00    -0.206 NA
ATOM     19  C   UNL d   1      10.938  10.515  -5.161  0.00  0.00     0.029 A 
ATOM     20  O   UNL d   1      11.547  10.388  -2.849  0.00  0.00    -0.189 OA
ATOM     21  C   UNL d   1      10.881   9.854  -6.378  0.00  0.00     0.002 A 
ATOM     22  C   UNL d   1      12.531   6.630  -2.935  0.00  0.00     0.287 C 
ATOM     23  C   UNL d   1      12.049   5.894  -4.176  0.00  0.00     0.238 C 
ATOM     24  O   UNL d   1      13.037   5.993  -2.007  0.00  0.00    -0.267 OA
ENDBRANCH  11  13
ENDBRANCH  10  11
ENDBRANCH   9  10
ENDBRANCH   8   9
ENDBRANCH   7   8
ENDBRANCH   3   7
BRANCH   1  25
ATOM     25  O   UNL d   1       5.462   4.064 -13.297  0.00  0.00    -0.326 OA
ATOM     26  C   UNL d   1       5.038   2.881 -12.631  0.00  0.00     0.181 C 
ENDBRANCH   1  25
BRANCH   6  27
ATOM     27  O   UNL d   1       7.231   2.312 -14.472  0.00  0.00    -0.329 OA
BRANCH  27  28
ATOM     28  C   UNL d   1       8.064   1.515 -15.292  0.00  0.00     0.149 C 
BRANCH  28  29
ATOM     29  C   UNL d   1       9.173   0.801 -14.488  0.00  0.00     0.037 C 
BRANCH  29  30
ATOM     30  C   UNL d   1      10.247   0.201 -15.398  0.00  0.00     0.029 C 
BRANCH  30  31
ATOM     31  C   UNL d   1      10.842   1.180 -16.413  0.00  0.00    -0.022 A 
ATOM     32  C   UNL d   1      10.651   0.961 -17.794  0.00  0.00    -0.004 A 
ATOM     33  C   UNL d   1      11.196   1.853 -18.738  0.00  0.00    -0.000 A 
ATOM     34  C   UNL d   1      11.928   2.976 -18.309  0.00  0.00    -0.000 A 
ATOM     35  C   UNL d   1      12.118   3.208 -16.933  0.00  0.00    -0.000 A 
ATOM     36  C   UNL d   1      11.582   2.309 -15.992  0.00  0.00    -0.004 A 
ENDBRANCH  30  31
ENDBRANCH  29  30
ENDBRANCH  28  29
ENDBRANCH  27  28
ENDBRANCH   6  27
TORSDOF 12
