REMARK  7 active torsions:
REMARK  status: ('A' for Active; 'I' for Inactive)
REMARK    1  A    between atoms: C_6  and  C_7 
REMARK    2  A    between atoms: C_10  and  S_11 
REMARK    3  A    between atoms: S_11  and  C_12 
REMARK    4  A    between atoms: C_12  and  C_13 
REMARK    5  A    between atoms: C_13  and  C_14 
REMARK    6  A    between atoms: C_14  and  N_15 
REMARK    7  A    between atoms: C_22  and  C_23 
ROOT
ATOM      1  N   UNL d   1      12.005   3.686 -19.483  0.00  0.00     0.138 N 
ATOM      2  C   UNL d   1      10.613   4.163 -19.586  0.00  0.00     0.257 C 
ATOM      3  C   UNL d   1       9.549   3.085 -19.831  0.00  0.00     0.082 C 
ATOM      4  C   UNL d   1       9.190   2.378 -18.566  0.00  0.00     0.075 A 
ATOM      5  N   UNL d   1       7.885   1.992 -18.300  0.00  0.00    -0.231 NA
ATOM      6  C   UNL d   1       7.915   1.458 -17.081  0.00  0.00     0.147 A 
ATOM      7  C   UNL d   1       6.902   0.879 -16.276  0.00  0.00     0.041 A 
ATOM      8  C   UNL d   1       7.206   0.405 -15.019  0.00  0.00     0.076 A 
ATOM      9  C   UNL d   1       8.531   0.507 -14.529  0.00  0.00     0.023 A 
ATOM     10  C   UNL d   1       9.527   1.058 -15.297  0.00  0.00     0.081 A 
ATOM     11  N   UNL d   1       9.227   1.518 -16.544  0.00  0.00    -0.293 N 
ATOM     12  C   UNL d   1      10.023   2.098 -17.520  0.00  0.00     0.058 A 
ATOM     13  C   UNL d   1      11.494   2.358 -17.375  0.00  0.00     0.081 C 
ATOM     14  C   UNL d   1      12.225   2.446 -18.727  0.00  0.00     0.257 C 
ENDROOT
BRANCH   1  15
ATOM     15  C   UNL d   1      12.690   3.592 -20.775  0.00  0.00     0.251 C 
BRANCH  15  16
ATOM     16  C   UNL d   1      12.929   4.968 -21.429  0.00  0.00     0.047 C 
BRANCH  16  17
ATOM     17  C   UNL d   1      13.741   5.930 -20.531  0.00  0.00     0.067 C 
BRANCH  17  18
ATOM     18  S   UNL d   1      13.584   7.668 -21.043  0.00  0.00    -0.075 SA
BRANCH  18  19
ATOM     19  C   UNL d   1      11.842   7.855 -20.832  0.00  0.00     0.193 A 
ATOM     20  N   UNL d   1      11.174   7.382 -19.781  0.00  0.00    -0.122 NA
ATOM     21  N   UNL d   1       9.847   7.625 -20.050  0.00  0.00    -0.126 NA
ATOM     22  C   UNL d   1       9.818   8.293 -21.210  0.00  0.00     0.191 A 
ATOM     23  N   UNL d   1      11.052   8.445 -21.752  0.00  0.00    -0.287 N 
ATOM     24  C   UNL d   1      11.434   9.084 -23.002  0.00  0.00     0.134 C 
BRANCH  22  25
ATOM     25  C   UNL d   1       8.563   8.790 -21.774  0.00  0.00     0.151 A 
ATOM     26  C   UNL d   1       7.250   8.644 -21.389  0.00  0.00     0.087 A 
ATOM     27  C   UNL d   1       6.659   7.877 -20.247  0.00  0.00     0.054 C 
ATOM     28  N   UNL d   1       6.449   9.370 -22.262  0.00  0.00    -0.221 NA
ATOM     29  C   UNL d   1       7.302   9.896 -23.136  0.00  0.00     0.225 A 
ATOM     30  O   UNL d   1       8.600   9.578 -22.895  0.00  0.00    -0.282 OA
ENDBRANCH  22  25
ENDBRANCH  18  19
ENDBRANCH  17  18
ENDBRANCH  16  17
ENDBRANCH  15  16
ENDBRANCH   1  15
BRANCH   8  31
ATOM     31  C   UNL d   1       6.122  -0.214 -14.153  0.00  0.00     0.419 C 
ATOM     32  F   UNL d   1       5.271  -0.927 -14.892  0.00  0.00    -0.166 F 
ATOM     33  F   UNL d   1       6.662  -1.014 -13.239  0.00  0.00    -0.166 F 
ATOM     34  F   UNL d   1       5.446   0.754 -13.533  0.00  0.00    -0.166 F 
ENDBRANCH   8  31
TORSDOF 7
