REMARK  9 active torsions:
REMARK  status: ('A' for Active; 'I' for Inactive)
REMARK    1  A    between atoms: N_11  and  C_12 
REMARK    2  A    between atoms: C_12  and  C_13 
REMARK    3  A    between atoms: C_13  and  C_14 
REMARK    4  A    between atoms: C_14  and  C_15 
REMARK    5  A    between atoms: C_15  and  N_16 
REMARK    6  A    between atoms: C_19  and  N_20 
REMARK    7  A    between atoms: N_20  and  C_21 
REMARK    8  A    between atoms: N_20  and  C_28 
REMARK    9  A    between atoms: C_21  and  C_22 
ROOT
ATOM      1  N   UNL d   1      12.609   4.985 -16.466  0.00  0.00     0.137 N 
ATOM      2  C   UNL d   1      11.341   5.636 -16.830  0.00  0.00     0.252 C 
ATOM      3  C   UNL d   1      10.149   4.705 -16.546  0.00  0.00     0.058 C 
ATOM      4  C   UNL d   1      10.106   4.268 -15.076  0.00  0.00     0.086 C 
ATOM      5  C   UNL d   1      11.488   3.733 -14.661  0.00  0.00     0.058 C 
ATOM      6  C   UNL d   1      12.615   4.704 -15.031  0.00  0.00     0.252 C 
ENDROOT
BRANCH   1   7
ATOM      7  C   UNL d   1      13.752   5.841 -16.777  0.00  0.00     0.250 C 
BRANCH   7   8
ATOM      8  C   UNL d   1      14.099   5.766 -18.267  0.00  0.00     0.037 C 
BRANCH   8   9
ATOM      9  C   UNL d   1      15.422   6.471 -18.618  0.00  0.00     0.027 C 
BRANCH   9  10
ATOM     10  C   UNL d   1      15.783   6.397 -20.118  0.00  0.00     0.112 C 
BRANCH  10  11
ATOM     11  N   UNL d   1      14.913   7.236 -20.954  0.00  0.00    -0.264 N 
ATOM     12  C   UNL d   1      15.255   8.486 -21.368  0.00  0.00     0.263 A 
ATOM     13  O   UNL d   1      16.298   9.105 -21.157  0.00  0.00    -0.267 OA
ATOM     14  C   UNL d   1      14.101   8.990 -22.152  0.00  0.00     0.061 A 
ATOM     15  C   UNL d   1      13.140   8.008 -22.147  0.00  0.00     0.061 A 
ATOM     16  C   UNL d   1      13.919  10.204 -22.829  0.00  0.00     0.005 A 
ATOM     17  C   UNL d   1      11.902   8.159 -22.785  0.00  0.00     0.005 A 
ATOM     18  C   UNL d   1      13.684   6.859 -21.397  0.00  0.00     0.263 A 
ATOM     19  C   UNL d   1      11.684   9.373 -23.475  0.00  0.00     0.000 A 
ATOM     20  C   UNL d   1      12.688  10.380 -23.505  0.00  0.00     0.000 A 
ATOM     21  O   UNL d   1      13.098   5.786 -21.238  0.00  0.00    -0.267 OA
ENDBRANCH  10  11
ENDBRANCH   9  10
ENDBRANCH   8   9
ENDBRANCH   7   8
ENDBRANCH   1   7
BRANCH   4  22
ATOM     22  N   UNL d   1       9.027   3.300 -14.805  0.00  0.00    -0.346 N 
BRANCH  22  23
ATOM     23  C   UNL d   1       9.211   1.938 -15.330  0.00  0.00     0.128 C 
BRANCH  23  24
ATOM     24  C   UNL d   1       8.016   1.008 -15.380  0.00  0.00     0.000 A 
ATOM     25  C   UNL d   1       7.130   1.023 -16.497  0.00  0.00    -0.002 A 
ATOM     26  C   UNL d   1       5.930   0.282 -16.461  0.00  0.00    -0.000 A 
ATOM     27  C   UNL d   1       5.575  -0.434 -15.303  0.00  0.00    -0.000 A 
ATOM     28  C   UNL d   1       6.445  -0.464 -14.198  0.00  0.00    -0.000 A 
ATOM     29  C   UNL d   1       7.642   0.275 -14.225  0.00  0.00    -0.002 A 
ENDBRANCH  23  24
ENDBRANCH  22  23
BRANCH  22  30
ATOM     30  C   UNL d   1       7.980   3.618 -13.893  0.00  0.00     0.056 C 
ATOM     31  C   UNL d   1       8.207   4.484 -12.764  0.00  0.00     0.017 C 
ATOM     32  C   UNL d   1       7.164   4.743 -11.832  0.00  0.00     0.002 C 
ATOM     33  C   UNL d   1       5.908   4.100 -11.993  0.00  0.00     0.000 C 
ATOM     34  C   UNL d   1       5.693   3.244 -13.082  0.00  0.00     0.002 C 
ATOM     35  C   UNL d   1       6.668   3.079 -14.054  0.00  0.00     0.017 C 
ENDBRANCH  22  30
ENDBRANCH   4  22
TORSDOF 9
