REMARK  7 active torsions:
REMARK  status: ('A' for Active; 'I' for Inactive)
REMARK    1  A    between atoms: C_4  and  N_5 
REMARK    2  A    between atoms: N_8  and  C_9 
REMARK    3  A    between atoms: C_9  and  C_10 
REMARK    4  A    between atoms: C_10  and  C_11 
REMARK    5  A    between atoms: C_11  and  O_12 
REMARK    6  A    between atoms: O_12  and  C_13 
REMARK    7  A    between atoms: C_16  and  C_17 
ROOT
ATOM      1  O   UNL d   1       8.983   6.962 -11.999  0.00  0.00    -0.331 OA
ENDROOT
BRANCH   1   2
ATOM      2  C   UNL d   1       7.971   5.995 -12.229  0.00  0.00     0.151 C 
BRANCH   2   3
ATOM      3  C   UNL d   1       8.520   4.558 -12.365  0.00  0.00     0.068 C 
BRANCH   3   4
ATOM      4  C   UNL d   1       9.557   4.443 -13.488  0.00  0.00     0.253 C 
BRANCH   4   5
ATOM      5  N   UNL d   1       9.762   3.060 -13.893  0.00  0.00     0.141 N 
ATOM      6  C   UNL d   1      10.961   2.989 -14.726  0.00  0.00     0.274 C 
ATOM      7  C   UNL d   1      11.224   1.532 -15.158  0.00  0.00     0.137 C 
ATOM      8  N   UNL d   1      10.059   0.986 -15.839  0.00  0.00    -0.344 N 
ATOM      9  C   UNL d   1       8.817   1.119 -15.094  0.00  0.00     0.137 C 
ATOM     10  C   UNL d   1       8.616   2.581 -14.671  0.00  0.00     0.274 C 
BRANCH   8  11
ATOM     11  C   UNL d   1      10.113   0.385 -17.129  0.00  0.00     0.056 A 
ATOM     12  C   UNL d   1      11.169   0.679 -18.015  0.00  0.00     0.017 A 
ATOM     13  C   UNL d   1      11.218   0.073 -19.296  0.00  0.00     0.002 A 
ATOM     14  C   UNL d   1      10.205  -0.812 -19.692  0.00  0.00     0.000 A 
ATOM     15  C   UNL d   1       9.152  -1.108 -18.823  0.00  0.00     0.002 A 
ATOM     16  C   UNL d   1       9.110  -0.507 -17.536  0.00  0.00     0.017 A 
ENDBRANCH   8  11
ENDBRANCH   4   5
ENDBRANCH   3   4
ENDBRANCH   2   3
ENDBRANCH   1   2
BRANCH   1  17
ATOM     17  C   UNL d   1       9.465   7.104 -10.719  0.00  0.00     0.094 A 
ATOM     18  C   UNL d   1       9.157   6.198  -9.679  0.00  0.00     0.024 A 
ATOM     19  C   UNL d   1       9.610   6.431  -8.373  0.00  0.00     0.005 A 
ATOM     20  C   UNL d   1      10.347   7.600  -8.079  0.00  0.00     0.036 A 
ATOM     21  C   UNL d   1      10.658   8.509  -9.109  0.00  0.00     0.005 A 
ATOM     22  C   UNL d   1      10.225   8.261 -10.423  0.00  0.00     0.024 A 
BRANCH  20  23
ATOM     23  C   UNL d   1      10.769   7.816  -6.710  0.00  0.00     0.162 A 
ATOM     24  N   UNL d   1      11.092   6.799  -5.888  0.00  0.00    -0.225 NA
ATOM     25  C   UNL d   1      11.466   7.337  -4.675  0.00  0.00     0.101 A 
ATOM     26  C   UNL d   1      11.310   8.739  -4.873  0.00  0.00     0.101 A 
ATOM     27  C   UNL d   1      11.909   6.799  -3.460  0.00  0.00     0.021 A 
ATOM     28  N   UNL d   1      10.873   9.027  -6.153  0.00  0.00    -0.225 NA
ATOM     29  C   UNL d   1      11.595   9.593  -3.792  0.00  0.00     0.021 A 
ATOM     30  C   UNL d   1      12.058   9.063  -2.573  0.00  0.00     0.002 A 
ATOM     31  C   UNL d   1      12.219   7.675  -2.407  0.00  0.00     0.002 A 
ENDBRANCH  20  23
ENDBRANCH   1  17
TORSDOF 7
