REMARK  5 active torsions:
REMARK  status: ('A' for Active; 'I' for Inactive)
REMARK    1  A    between atoms: O_2  and  C_3 
REMARK    2  A    between atoms: C_8  and  C_9 
REMARK    3  A    between atoms: C_9  and  N_10 
REMARK    4  A    between atoms: N_13  and  C_14 
REMARK    5  A    between atoms: C_14  and  C_15 
ROOT
ATOM      1  N   UNL d   1       9.143   5.839 -12.350  0.00  0.00     0.146 N 
ATOM      2  C   UNL d   1       8.465   7.118 -12.177  0.00  0.00     0.286 C 
ATOM      3  C   UNL d   1       9.373   8.153 -11.465  0.00  0.00     0.286 C 
ATOM      4  N   UNL d   1       9.819   7.663 -10.142  0.00  0.00     0.148 N 
ATOM      5  C   UNL d   1      10.501   6.387 -10.331  0.00  0.00     0.286 C 
ATOM      6  C   UNL d   1       9.591   5.361 -11.048  0.00  0.00     0.286 C 
ENDROOT
BRANCH   4   7
ATOM      7  C   UNL d   1      10.636   8.640  -9.437  0.00  0.00     0.301 C 
BRANCH   7   8
ATOM      8  C   UNL d   1      10.894   8.303  -7.989  0.00  0.00     0.111 A 
ATOM      9  O   UNL d   1      11.043   9.377  -7.133  0.00  0.00    -0.309 OA
ATOM     10  C   UNL d   1      11.262   8.862  -5.875  0.00  0.00     0.100 A 
ATOM     11  C   UNL d   1      11.252   7.449  -5.948  0.00  0.00     0.025 A 
ATOM     12  C   UNL d   1      11.483   9.546  -4.664  0.00  0.00     0.025 A 
ATOM     13  C   UNL d   1      11.010   7.105  -7.304  0.00  0.00     0.024 A 
ATOM     14  C   UNL d   1      11.483   6.723  -4.772  0.00  0.00     0.002 A 
ATOM     15  C   UNL d   1      11.748   7.368  -3.550  0.00  0.00     0.000 A 
ATOM     16  C   UNL d   1      11.736   8.785  -3.502  0.00  0.00     0.002 A 
ENDBRANCH   7   8
ENDBRANCH   4   7
BRANCH   1  17
ATOM     17  C   UNL d   1       8.359   4.840 -13.074  0.00  0.00     0.279 C 
BRANCH  17  18
ATOM     18  C   UNL d   1       9.198   3.867 -13.912  0.00  0.00     0.033 A 
ATOM     19  C   UNL d   1      10.392   4.272 -14.574  0.00  0.00     0.092 A 
ATOM     20  C   UNL d   1      11.099   3.330 -15.364  0.00  0.00     0.024 A 
ATOM     21  C   UNL d   1      10.629   2.010 -15.499  0.00  0.00     0.002 A 
ATOM     22  C   UNL d   1       9.435   1.625 -14.868  0.00  0.00    -0.000 A 
ATOM     23  C   UNL d   1       8.713   2.557 -14.101  0.00  0.00    -0.000 A 
BRANCH  19  24
ATOM     24  O   UNL d   1      10.806   5.582 -14.443  0.00  0.00    -0.328 OA
ATOM     25  C   UNL d   1      11.804   6.102 -15.298  0.00  0.00     0.181 C 
ENDBRANCH  19  24
ENDBRANCH  17  18
ENDBRANCH   1  17
TORSDOF 5
