REMARK  6 active torsions:
REMARK  status: ('A' for Active; 'I' for Inactive)
REMARK    1  A    between atoms: N_3  and  C_4 
REMARK    2  A    between atoms: C_4  and  C_5 
REMARK    3  A    between atoms: C_5  and  C_6 
REMARK    4  A    between atoms: C_6  and  C_7 
REMARK    5  A    between atoms: C_7  and  N_8 
REMARK    6  A    between atoms: N_11  and  C_12 
ROOT
ATOM      1  C   UNL d   1       7.662   4.385 -11.930  0.00  0.00     0.251 C 
ENDROOT
BRANCH   1   2
ATOM      2  C   UNL d   1       6.969   4.716 -13.259  0.00  0.00     0.037 C 
BRANCH   2   3
ATOM      3  C   UNL d   1       6.343   3.517 -13.972  0.00  0.00     0.029 C 
BRANCH   3   4
ATOM      4  C   UNL d   1       7.397   2.501 -14.514  0.00  0.00     0.133 C 
BRANCH   4   5
ATOM      5  N   UNL d   1       6.789   1.426 -15.286  0.00  0.00    -0.201 N 
ATOM      6  C   UNL d   1       7.091   1.101 -16.541  0.00  0.00     0.352 A 
ATOM      7  O   UNL d   1       7.927   1.617 -17.279  0.00  0.00    -0.244 OA
ATOM      8  N   UNL d   1       6.280   0.099 -16.813  0.00  0.00    -0.239 N 
ATOM      9  C   UNL d   1       5.505  -0.161 -15.701  0.00  0.00     0.182 A 
ATOM     10  C   UNL d   1       6.155  -0.590 -18.030  0.00  0.00     0.097 A 
ATOM     11  N   UNL d   1       5.840   0.629 -14.721  0.00  0.00    -0.147 NA
ATOM     12  C   UNL d   1       4.497  -1.186 -15.844  0.00  0.00     0.095 A 
ATOM     13 CL   UNL d   1       3.423  -1.505 -14.536  0.00  0.00    -0.079 Cl
ATOM     14  C   UNL d   1       4.384  -1.859 -17.027  0.00  0.00     0.028 A 
ATOM     15  C   UNL d   1       5.242  -1.562 -18.160  0.00  0.00     0.076 A 
ATOM     16 CL   UNL d   1       5.084  -2.434 -19.639  0.00  0.00    -0.081 Cl
ENDBRANCH   4   5
ENDBRANCH   3   4
ENDBRANCH   2   3
ENDBRANCH   1   2
BRANCH   1  17
ATOM     17  N   UNL d   1       8.028   5.587 -11.166  0.00  0.00     0.141 N 
ATOM     18  C   UNL d   1       9.019   6.398 -11.886  0.00  0.00     0.274 C 
ATOM     19  C   UNL d   1       9.424   7.663 -11.116  0.00  0.00     0.137 C 
ATOM     20  N   UNL d   1       9.695   7.321  -9.711  0.00  0.00    -0.344 N 
ATOM     21  C   UNL d   1       8.878   6.363  -8.979  0.00  0.00     0.137 C 
ATOM     22  C   UNL d   1       8.565   5.153  -9.862  0.00  0.00     0.274 C 
BRANCH  20  23
ATOM     23  C   UNL d   1      10.794   7.829  -9.078  0.00  0.00     0.057 A 
ATOM     24  C   UNL d   1      10.796   8.425  -7.810  0.00  0.00     0.022 A 
ATOM     25  C   UNL d   1      12.072   8.888  -7.352  0.00  0.00     0.031 A 
ATOM     26  C   UNL d   1       9.758   8.761  -6.854  0.00  0.00     0.009 A 
ATOM     27  C   UNL d   1      13.231   8.778  -8.096  0.00  0.00     0.007 A 
ATOM     28  S   UNL d   1      12.024   9.625  -5.787  0.00  0.00    -0.086 SA
ATOM     29  C   UNL d   1      13.204   8.126  -9.311  0.00  0.00     0.002 A 
ATOM     30  C   UNL d   1      11.983   7.705  -9.792  0.00  0.00     0.017 A 
ATOM     31  C   UNL d   1      10.293   9.458  -5.801  0.00  0.00     0.035 A 
ENDBRANCH  20  23
ENDBRANCH   1  17
TORSDOF 6
