REMARK  6 active torsions:
REMARK  status: ('A' for Active; 'I' for Inactive)
REMARK    1  A    between atoms: C_2  and  C_3 
REMARK    2  A    between atoms: N_13  and  C_14 
REMARK    3  A    between atoms: C_14  and  C_15 
REMARK    4  A    between atoms: C_15  and  C_17 
REMARK    5  A    between atoms: C_17  and  N_18 
REMARK    6  A    between atoms: N_21  and  C_22 
ROOT
ATOM      1  C   UNL d   1       7.745   0.669 -14.919  0.00  0.00     0.208 C 
ATOM      2  O   UNL d   1       8.519  -0.168 -15.730  0.00  0.00    -0.219 OA
ENDROOT
BRANCH   1   3
ATOM      3  C   UNL d   1       6.424   1.054 -15.608  0.00  0.00     0.148 C 
BRANCH   3   4
ATOM      4  N   UNL d   1       5.679  -0.101 -16.125  0.00  0.00    -0.247 N 
ATOM      5  C   UNL d   1       4.916  -0.919 -15.386  0.00  0.00     0.348 A 
ATOM      6  N   UNL d   1       4.410  -1.874 -16.181  0.00  0.00    -0.209 NA
ATOM      7  O   UNL d   1       4.709  -0.811 -14.174  0.00  0.00    -0.245 OA
ATOM      8  C   UNL d   1       4.867  -1.767 -17.558  0.00  0.00     0.179 A 
ATOM      9  C   UNL d   1       3.663  -1.544 -18.490  0.00  0.00     0.039 C 
ATOM     10  C   UNL d   1       5.693  -0.487 -17.410  0.00  0.00     0.265 A 
ATOM     11  O   UNL d   1       6.268   0.080 -18.339  0.00  0.00    -0.269 OA
BRANCH   8  12
ATOM     12  C   UNL d   1       5.736  -2.956 -18.018  0.00  0.00     0.006 A 
ATOM     13  C   UNL d   1       6.428  -2.900 -19.252  0.00  0.00     0.000 A 
ATOM     14  C   UNL d   1       7.223  -3.979 -19.683  0.00  0.00     0.029 A 
ATOM     15  C   UNL d   1       7.335  -5.135 -18.890  0.00  0.00     0.140 A 
ATOM     16  C   UNL d   1       6.644  -5.215 -17.669  0.00  0.00     0.029 A 
ATOM     17  F   UNL d   1       8.106  -6.168 -19.305  0.00  0.00    -0.204 F 
ATOM     18  C   UNL d   1       5.844  -4.137 -17.240  0.00  0.00     0.000 A 
ENDBRANCH   8  12
ENDBRANCH   3   4
ENDBRANCH   1   3
BRANCH   1  19
ATOM     19  C   UNL d   1       8.574   1.887 -14.467  0.00  0.00     0.285 C 
BRANCH  19  20
ATOM     20  N   UNL d   1       9.069   2.763 -15.532  0.00  0.00     0.144 N 
ATOM     21  C   UNL d   1       9.558   4.041 -14.993  0.00  0.00     0.274 C 
ATOM     22  C   UNL d   1      10.071   4.996 -16.096  0.00  0.00     0.137 C 
ATOM     23  N   UNL d   1      11.051   4.311 -16.937  0.00  0.00    -0.344 N 
ATOM     24  C   UNL d   1      10.642   3.012 -17.445  0.00  0.00     0.137 C 
ATOM     25  C   UNL d   1      10.165   2.141 -16.292  0.00  0.00     0.274 C 
BRANCH  23  26
ATOM     26  C   UNL d   1      12.344   4.807 -17.172  0.00  0.00     0.057 A 
ATOM     27  C   UNL d   1      12.575   6.196 -17.257  0.00  0.00     0.029 A 
ATOM     28  C   UNL d   1      13.861   6.692 -17.536  0.00  0.00     0.070 A 
ATOM     29  C   UNL d   1      14.941   5.803 -17.731  0.00  0.00     0.068 A 
ATOM     30 CL   UNL d   1      14.089   8.400 -17.645  0.00  0.00    -0.081 Cl
ATOM     31  C   UNL d   1      14.715   4.418 -17.645  0.00  0.00     0.014 A 
ATOM     32 CL   UNL d   1      16.532   6.378 -18.053  0.00  0.00    -0.082 Cl
ATOM     33  C   UNL d   1      13.433   3.925 -17.359  0.00  0.00     0.018 A 
ENDBRANCH  23  26
ENDBRANCH  19  20
ENDBRANCH   1  19
TORSDOF 6
