REMARK  5 active torsions:
REMARK  status: ('A' for Active; 'I' for Inactive)
REMARK    1  A    between atoms: C_6  and  C_7 
REMARK       I    between atoms: C_7  and  N_9 
REMARK    2  A    between atoms: N_9  and  C_10 
REMARK    3  A    between atoms: C_10  and  C_11 
REMARK    4  A    between atoms: C_11  and  N_12 
REMARK    5  A    between atoms: N_15  and  C_16 
ROOT
ATOM      1  C   UNL d   1      12.272   8.856  -2.668  0.00  0.00     0.081 C 
ATOM      2  C   UNL d   1      11.900   8.655  -3.812  0.00  0.00    -0.127 C 
ATOM      3  C   UNL d   1      11.455   8.395  -5.168  0.00  0.00     0.030 A 
ATOM      4  C   UNL d   1      11.023   7.104  -5.529  0.00  0.00     0.007 A 
ATOM      5  C   UNL d   1      10.607   6.842  -6.845  0.00  0.00     0.005 A 
ATOM      6  C   UNL d   1      10.619   7.872  -7.814  0.00  0.00     0.058 A 
ATOM      7  C   UNL d   1      11.055   9.161  -7.449  0.00  0.00     0.005 A 
ATOM      8  C   UNL d   1      11.471   9.426  -6.130  0.00  0.00     0.007 A 
ENDROOT
BRANCH   6   9
ATOM      9  C   UNL d   1      10.210   7.590  -9.227  0.00  0.00     0.275 C 
ATOM     10  O   UNL d   1      10.660   8.255 -10.162  0.00  0.00    -0.266 OA
ATOM     11  N   UNL d   1       9.286   6.635  -9.367  0.00  0.00    -0.232 NA
BRANCH  11  12
ATOM     12  C   UNL d   1       8.584   6.323 -10.597  0.00  0.00     0.164 C 
BRANCH  12  13
ATOM     13  C   UNL d   1       9.315   5.235 -11.373  0.00  0.00     0.277 C 
BRANCH  13  14
ATOM     14  N   UNL d   1       8.609   4.817 -12.583  0.00  0.00     0.143 N 
ATOM     15  C   UNL d   1       9.374   3.708 -13.172  0.00  0.00     0.274 C 
ATOM     16  C   UNL d   1       8.700   3.233 -14.469  0.00  0.00     0.137 C 
ATOM     17  N   UNL d   1       7.302   2.889 -14.221  0.00  0.00    -0.344 N 
ATOM     18  C   UNL d   1       6.523   3.919 -13.537  0.00  0.00     0.137 C 
ATOM     19  C   UNL d   1       7.239   4.384 -12.271  0.00  0.00     0.274 C 
BRANCH  17  20
ATOM     20  C   UNL d   1       6.733   1.676 -14.615  0.00  0.00     0.068 A 
ATOM     21  C   UNL d   1       6.936   1.113 -15.912  0.00  0.00     0.084 A 
ATOM     22  C   UNL d   1       6.331  -0.117 -16.249  0.00  0.00     0.070 A 
ATOM     23 CL   UNL d   1       7.854   1.934 -17.136  0.00  0.00    -0.080 Cl
ATOM     24  C   UNL d   1       5.518  -0.783 -15.320  0.00  0.00     0.012 A 
ATOM     25 CL   UNL d   1       6.570  -0.802 -17.813  0.00  0.00    -0.081 Cl
ATOM     26  C   UNL d   1       5.291  -0.229 -14.055  0.00  0.00     0.002 A 
ATOM     27  C   UNL d   1       5.891   0.992 -13.701  0.00  0.00     0.018 A 
ENDBRANCH  17  20
ENDBRANCH  13  14
ENDBRANCH  12  13
ENDBRANCH  11  12
ENDBRANCH   6   9
TORSDOF 5
