REMARK  6 active torsions:
REMARK  status: ('A' for Active; 'I' for Inactive)
REMARK       I    between atoms: C_2  and  N_14 
REMARK       I    between atoms: N_3  and  C_4 
REMARK       I    between atoms: C_4  and  N_6 
REMARK    1  A    between atoms: N_6  and  C_7 
REMARK    2  A    between atoms: C_7  and  C_8 
REMARK    3  A    between atoms: N_14  and  C_15 
REMARK    4  A    between atoms: C_15  and  C_16 
REMARK    5  A    between atoms: C_16  and  C_17 
REMARK    6  A    between atoms: C_17  and  C_18 
ROOT
ATOM      1  N   UNL d   1      12.124   8.522 -10.029  0.00  0.00    -0.060 NA
ATOM      2  C   UNL d   1      10.956   8.002  -9.503  0.00  0.00     0.237 C 
ATOM      3  N   UNL d   1      10.506   8.101  -8.293  0.00  0.00    -0.159 NA
ATOM      4  C   UNL d   1      11.193   8.820  -7.333  0.00  0.00     0.367 C 
ATOM      5  O   UNL d   1      12.376   9.169  -7.331  0.00  0.00    -0.243 OA
ATOM      6  N   UNL d   1      10.366   9.147  -6.344  0.00  0.00    -0.212 NA
ATOM      7  N   UNL d   1      10.239   7.330 -10.466  0.00  0.00    -0.241 NA
ENDROOT
BRANCH   7   8
ATOM      8  C   UNL d   1       9.137   6.415 -10.219  0.00  0.00     0.129 C 
BRANCH   8   9
ATOM      9  C   UNL d   1       8.345   6.163 -11.507  0.00  0.00     0.033 C 
BRANCH   9  10
ATOM     10  C   UNL d   1       7.301   5.032 -11.383  0.00  0.00     0.057 C 
BRANCH  10  11
ATOM     11  C   UNL d   1       7.222   4.119 -12.562  0.00  0.00     0.112 A 
ATOM     12  S   UNL d   1       8.640   3.643 -13.496  0.00  0.00    -0.036 SA
ATOM     13  C   UNL d   1       7.533   2.669 -14.440  0.00  0.00     0.203 A 
ATOM     14  N   UNL d   1       6.264   2.681 -14.033  0.00  0.00    -0.127 NA
ATOM     15  N   UNL d   1       7.982   1.972 -15.548  0.00  0.00    -0.070 NA
ATOM     16  N   UNL d   1       6.074   3.547 -12.957  0.00  0.00    -0.144 NA
ENDBRANCH  10  11
ENDBRANCH   9  10
ENDBRANCH   8   9
ENDBRANCH   7   8
BRANCH   6  17
ATOM     17  C   UNL d   1      10.774   9.860  -5.139  0.00  0.00     0.157 C 
BRANCH  17  18
ATOM     18  C   UNL d   1      11.448   8.976  -4.097  0.00  0.00     0.002 A 
ATOM     19  C   UNL d   1      11.938   9.575  -2.920  0.00  0.00    -0.002 A 
ATOM     20  C   UNL d   1      12.518   8.788  -1.907  0.00  0.00    -0.000 A 
ATOM     21  C   UNL d   1      12.586   7.391  -2.050  0.00  0.00    -0.000 A 
ATOM     22  C   UNL d   1      12.098   6.788  -3.217  0.00  0.00    -0.000 A 
ATOM     23  C   UNL d   1      11.528   7.568  -4.237  0.00  0.00    -0.002 A 
ENDBRANCH  17  18
ENDBRANCH   6  17
TORSDOF 6
