REMARK  4 active torsions:
REMARK  status: ('A' for Active; 'I' for Inactive)
REMARK    1  A    between atoms: C_8  and  N_9 
REMARK    2  A    between atoms: N_9  and  S_10 
REMARK    3  A    between atoms: S_10  and  C_13 
REMARK    4  A    between atoms: C_16  and  C_17 
ROOT
ATOM      1  S   UNL d   1       8.613   5.332 -12.875  0.00  0.00     0.291 S 
ATOM      2  O   UNL d   1       7.338   6.068 -12.769  0.00  0.00    -0.198 OA
ATOM      3  O   UNL d   1       9.875   5.987 -13.243  0.00  0.00    -0.198 OA
ENDROOT
BRANCH   1   4
ATOM      4  N   UNL d   1       8.896   4.615 -11.354  0.00  0.00    -0.158 NA
BRANCH   4   5
ATOM      5  C   UNL d   1       9.127   5.269 -10.140  0.00  0.00     0.093 A 
ATOM      6  C   UNL d   1       8.304   4.968  -9.041  0.00  0.00     0.020 A 
ATOM      7  C   UNL d   1       8.516   5.636  -7.821  0.00  0.00    -0.003 A 
ATOM      8  C   UNL d   1       9.609   6.513  -7.627  0.00  0.00    -0.024 A 
ATOM      9  C   UNL d   1       9.858   7.136  -6.263  0.00  0.00     0.061 C 
ATOM     10  C   UNL d   1      10.457   6.779  -8.727  0.00  0.00    -0.022 A 
ATOM     11  C   UNL d   1      10.010   8.667  -6.272  0.00  0.00     0.255 C 
ATOM     12  N   UNL d   1      11.317   9.111  -6.739  0.00  0.00     0.140 N 
ATOM     13  C   UNL d   1      11.513  10.495  -6.335  0.00  0.00     0.285 C 
ATOM     14  C   UNL d   1      11.394   9.051  -8.188  0.00  0.00     0.255 C 
ATOM     15  C   UNL d   1      11.692   7.647  -8.649  0.00  0.00     0.061 C 
ATOM     16  C   UNL d   1      10.155   6.219  -9.991  0.00  0.00     0.015 A 
ENDBRANCH   4   5
ENDBRANCH   1   4
BRANCH   1  17
ATOM     17  C   UNL d   1       8.409   4.010 -14.024  0.00  0.00     0.135 A 
ATOM     18  S   UNL d   1       6.965   3.041 -14.039  0.00  0.00    -0.074 SA
ATOM     19  C   UNL d   1       7.604   2.076 -15.360  0.00  0.00     0.030 A 
ATOM     20  C   UNL d   1       8.844   2.519 -15.742  0.00  0.00     0.008 A 
ATOM     21  C   UNL d   1       9.310   3.625 -14.983  0.00  0.00     0.020 A 
BRANCH  19  22
ATOM     22  C   UNL d   1       6.800   0.989 -15.907  0.00  0.00     0.006 A 
ATOM     23  C   UNL d   1       7.018   0.559 -17.234  0.00  0.00     0.001 A 
ATOM     24  C   UNL d   1       6.258  -0.491 -17.785  0.00  0.00     0.011 A 
ATOM     25  C   UNL d   1       5.261  -1.122 -17.020  0.00  0.00     0.058 A 
ATOM     26  C   UNL d   1       5.032  -0.703 -15.695  0.00  0.00     0.011 A 
ATOM     27 CL   UNL d   1       4.328  -2.396 -17.718  0.00  0.00    -0.082 Cl
ATOM     28  C   UNL d   1       5.795   0.349 -15.144  0.00  0.00     0.001 A 
ENDBRANCH  19  22
ENDBRANCH   1  17
TORSDOF 4
