REMARK  2 active torsions:
REMARK  status: ('A' for Active; 'I' for Inactive)
REMARK    1  A    between atoms: O_2  and  C_3 
REMARK    2  A    between atoms: C_20  and  O_21 
ROOT
ATOM      1  C   UNL d   1      11.516   7.251  -3.374  0.00  0.00     0.119 A 
ATOM      2  C   UNL d   1      10.796   6.977  -4.557  0.00  0.00     0.024 A 
ATOM      3  C   UNL d   1      10.945   7.780  -5.708  0.00  0.00     0.007 A 
ATOM      4  C   UNL d   1      11.925   8.796  -5.728  0.00  0.00    -0.020 A 
ATOM      5  C   UNL d   1      12.675   9.050  -4.565  0.00  0.00     0.025 A 
ATOM      6  C   UNL d   1      12.441   8.317  -3.391  0.00  0.00     0.153 A 
ATOM      7  O   UNL d   1      13.028   8.645  -2.220  0.00  0.00    -0.188 OA
ATOM      8  C   UNL d   1      12.206   9.565  -7.007  0.00  0.00     0.061 C 
ATOM      9  C   UNL d   1      11.558   8.956  -8.259  0.00  0.00     0.256 C 
ATOM     10  N   UNL d   1      10.191   8.642  -7.910  0.00  0.00     0.144 N 
ATOM     11  C   UNL d   1       9.341   8.404  -9.069  0.00  0.00     0.279 C 
ATOM     12  C   UNL d   1       9.450   7.032  -9.759  0.00  0.00     0.031 A 
ATOM     13  C   UNL d   1       9.854   5.941  -8.963  0.00  0.00    -0.020 A 
ATOM     14  C   UNL d   1       9.833   4.639  -9.486  0.00  0.00    -0.002 A 
ATOM     15  C   UNL d   1       9.442   4.416 -10.812  0.00  0.00     0.029 A 
ATOM     16  C   UNL d   1       9.086   5.484 -11.660  0.00  0.00     0.153 A 
ATOM     17  O   UNL d   1       8.898   5.229 -12.978  0.00  0.00    -0.188 OA
ATOM     18  C   UNL d   1       9.043   6.799 -11.125  0.00  0.00     0.117 A 
ATOM     19  C   UNL d   1      10.522   6.213  -7.616  0.00  0.00     0.064 C 
ATOM     20  C   UNL d   1      10.111   7.534  -6.952  0.00  0.00     0.246 C 
ENDROOT
BRANCH   1  21
ATOM     21  O   UNL d   1      11.310   6.655  -2.138  0.00  0.00    -0.326 OA
ATOM     22  C   UNL d   1       9.963   6.333  -1.722  0.00  0.00     0.181 C 
ENDBRANCH   1  21
BRANCH  18  23
ATOM     23  O   UNL d   1       8.556   7.797 -11.941  0.00  0.00    -0.326 OA
ATOM     24  C   UNL d   1       7.230   7.526 -12.449  0.00  0.00     0.181 C 
ENDBRANCH  18  23
TORSDOF 2
