REMARK  4 active torsions:
REMARK  status: ('A' for Active; 'I' for Inactive)
REMARK    1  A    between atoms: N_7  and  C_8 
REMARK    2  A    between atoms: C_8  and  C_9 
REMARK    3  A    between atoms: C_9  and  N_10 
REMARK    4  A    between atoms: N_13  and  C_14 
ROOT
ATOM      1  N   UNL d   1       7.994   4.969 -12.090  0.00  0.00    -0.298 N 
ATOM      2  C   UNL d   1       6.754   4.277 -12.363  0.00  0.00     0.131 A 
ATOM      3  C   UNL d   1       7.107   3.434 -13.588  0.00  0.00     0.135 A 
ATOM      4  N   UNL d   1       8.490   3.817 -13.866  0.00  0.00    -0.280 N 
ATOM      5  C   UNL d   1       8.960   4.710 -12.982  0.00  0.00     0.328 A 
ATOM      6  O   UNL d   1      10.095   5.193 -12.990  0.00  0.00    -0.247 OA
ENDROOT
BRANCH   1   7
ATOM      7  C   UNL d   1       8.094   5.932 -11.006  0.00  0.00     0.141 C 
BRANCH   7   8
ATOM      8  C   UNL d   1       9.297   5.613 -10.087  0.00  0.00     0.274 C 
BRANCH   8   9
ATOM      9  N   UNL d   1       9.449   6.603  -9.035  0.00  0.00     0.137 N 
ATOM     10  C   UNL d   1      10.447   7.644  -9.348  0.00  0.00     0.219 C 
ATOM     11  C   UNL d   1      10.153   8.385 -10.665  0.00  0.00     0.035 C 
ATOM     12  C   UNL d   1      10.475   8.673  -8.203  0.00  0.00     0.033 C 
ATOM     13  C   UNL d   1      10.789   8.015  -6.858  0.00  0.00     0.004 C 
ATOM     14  C   UNL d   1       9.812   6.864  -6.618  0.00  0.00     0.035 C 
ATOM     15  C   UNL d   1       9.826   5.903  -7.809  0.00  0.00     0.250 C 
ENDBRANCH   8   9
ENDBRANCH   7   8
ENDBRANCH   1   7
BRANCH   4  16
ATOM     16  C   UNL d   1       9.268   3.254 -14.912  0.00  0.00     0.065 A 
ATOM     17  C   UNL d   1       9.235   1.864 -15.159  0.00  0.00     0.029 A 
ATOM     18  C   UNL d   1      10.025   1.313 -16.190  0.00  0.00     0.059 A 
ATOM     19  C   UNL d   1      10.854   2.142 -16.976  0.00  0.00     0.011 A 
ATOM     20 CL   UNL d   1       9.980  -0.383 -16.491  0.00  0.00    -0.082 Cl
ATOM     21  C   UNL d   1      10.888   3.529 -16.730  0.00  0.00     0.002 A 
ATOM     22  C   UNL d   1      10.091   4.080 -15.710  0.00  0.00     0.017 A 
ENDBRANCH   4  16
TORSDOF 4
