REMARK  7 active torsions:
REMARK  status: ('A' for Active; 'I' for Inactive)
REMARK    1  A    between atoms: C_5  and  C_6 
REMARK    2  A    between atoms: N_14  and  C_15 
REMARK    3  A    between atoms: C_15  and  C_16 
REMARK    4  A    between atoms: C_16  and  C_17 
REMARK    5  A    between atoms: C_17  and  C_18 
REMARK    6  A    between atoms: C_18  and  O_19 
REMARK    7  A    between atoms: O_19  and  C_20 
ROOT
ATOM      1  C   UNL d   1       8.826   3.473 -14.765  0.00  0.00     0.251 C 
ENDROOT
BRANCH   1   2
ATOM      2  N   UNL d   1       8.345   3.594 -13.390  0.00  0.00     0.140 N 
ATOM      3  C   UNL d   1       6.882   3.756 -13.290  0.00  0.00     0.249 C 
ATOM      4  C   UNL d   1       6.121   2.534 -13.834  0.00  0.00     0.038 C 
ATOM      5  C   UNL d   1       6.424   4.029 -11.842  0.00  0.00     0.176 C 
ATOM      6  O   UNL d   1       7.121   5.158 -11.319  0.00  0.00    -0.348 OA
ATOM      7  C   UNL d   1       8.529   4.952 -11.299  0.00  0.00     0.172 C 
ATOM      8  C   UNL d   1       8.992   4.737 -12.738  0.00  0.00     0.284 C 
BRANCH   7   9
ATOM      9  C   UNL d   1       9.216   6.145 -10.672  0.00  0.00     0.026 A 
ATOM     10  C   UNL d   1       9.261   7.387 -11.347  0.00  0.00     0.098 A 
ATOM     11  N   UNL d   1       9.858   8.477 -10.851  0.00  0.00    -0.230 NA
ATOM     12  C   UNL d   1      10.438   8.376  -9.642  0.00  0.00     0.151 A 
ATOM     13  C   UNL d   1      10.446   7.204  -8.868  0.00  0.00     0.033 A 
ATOM     14  N   UNL d   1      11.061   9.525  -9.178  0.00  0.00    -0.080 NA
ATOM     15  C   UNL d   1       9.812   6.066  -9.393  0.00  0.00     0.002 A 
ENDBRANCH   7   9
ENDBRANCH   1   2
BRANCH   1  16
ATOM     16  C   UNL d   1      10.222   2.859 -14.889  0.00  0.00     0.038 C 
BRANCH  16  17
ATOM     17  C   UNL d   1      10.715   2.968 -16.335  0.00  0.00     0.035 C 
BRANCH  17  18
ATOM     18  C   UNL d   1      12.173   2.475 -16.494  0.00  0.00     0.149 C 
BRANCH  18  19
ATOM     19  O   UNL d   1      12.779   3.009 -17.663  0.00  0.00    -0.331 OA
BRANCH  19  20
ATOM     20  C   UNL d   1      13.103   4.338 -17.689  0.00  0.00     0.096 A 
ATOM     21  C   UNL d   1      13.612   4.867 -18.903  0.00  0.00     0.043 A 
ATOM     22  C   UNL d   1      13.908   6.240 -19.009  0.00  0.00     0.082 A 
ATOM     23  C   UNL d   1      13.719   7.097 -17.909  0.00  0.00    -0.004 A 
ATOM     24  N   UNL d   1      14.413   6.777 -20.230  0.00  0.00    -0.212 NA
ATOM     25  C   UNL d   1      13.218   6.580 -16.697  0.00  0.00    -0.001 A 
ATOM     26  C   UNL d   1      14.084   8.553 -18.008  0.00  0.00     0.038 C 
ATOM     27  C   UNL d   1      12.928   5.212 -16.580  0.00  0.00     0.024 A 
ATOM     28  C   UNL d   1      13.933   9.069 -19.451  0.00  0.00     0.095 C 
ATOM     29  C   UNL d   1      14.507   8.087 -20.485  0.00  0.00     0.256 C 
ATOM     30  O   UNL d   1      15.017   8.510 -21.522  0.00  0.00    -0.270 OA
ENDBRANCH  19  20
ENDBRANCH  18  19
ENDBRANCH  17  18
ENDBRANCH  16  17
ENDBRANCH   1  16
TORSDOF 7
