REMARK  4 active torsions:
REMARK  status: ('A' for Active; 'I' for Inactive)
REMARK    1  A    between atoms: C_6  and  C_7 
REMARK    2  A    between atoms: N_13  and  C_14 
REMARK    3  A    between atoms: C_14  and  C_15 
REMARK    4  A    between atoms: C_15  and  C_16 
ROOT
ATOM      1  O   UNL d   1      10.667  -0.076 -15.692  0.00  0.00    -0.272 OA
ATOM      2  C   UNL d   1       9.910  -0.028 -16.657  0.00  0.00     0.234 C 
ATOM      3  C   UNL d   1      10.186  -0.985 -17.826  0.00  0.00     0.088 C 
ATOM      4  C   UNL d   1       8.990  -1.186 -18.767  0.00  0.00     0.012 C 
ATOM      5  C   UNL d   1       8.306   0.141 -19.079  0.00  0.00     0.027 C 
ATOM      6  C   UNL d   1       7.779   0.753 -17.760  0.00  0.00     0.106 C 
ATOM      7  N   UNL d   1       8.867   0.821 -16.737  0.00  0.00    -0.318 N 
ENDROOT
BRANCH   7   8
ATOM      8  C   UNL d   1       8.591   1.733 -15.617  0.00  0.00     0.109 C 
BRANCH   8   9
ATOM      9  C   UNL d   1       9.380   3.034 -15.684  0.00  0.00     0.050 C 
BRANCH   9  10
ATOM     10  C   UNL d   1       9.194   3.869 -14.430  0.00  0.00    -0.024 A 
ATOM     11  C   UNL d   1       7.930   4.099 -13.722  0.00  0.00    -0.008 A 
ATOM     12  C   UNL d   1       8.190   4.924 -12.626  0.00  0.00    -0.018 A 
ATOM     13  C   UNL d   1       6.598   3.656 -13.993  0.00  0.00    -0.001 A 
ATOM     14  C   UNL d   1       9.666   5.288 -12.567  0.00  0.00     0.052 A 
ATOM     15  C   UNL d   1       7.179   5.354 -11.761  0.00  0.00    -0.004 A 
ATOM     16  C   UNL d   1      10.172   4.525 -13.780  0.00  0.00    -0.026 A 
ATOM     17  C   UNL d   1       5.866   4.903 -12.015  0.00  0.00    -0.000 A 
ATOM     18  C   UNL d   1       5.571   4.055 -13.091  0.00  0.00    -0.000 A 
ENDBRANCH   9  10
ENDBRANCH   8   9
ENDBRANCH   7   8
BRANCH   6  19
ATOM     19  C   UNL d   1       6.494   0.051 -17.267  0.00  0.00    -0.002 A 
ATOM     20  C   UNL d   1       5.388  -0.117 -18.135  0.00  0.00    -0.003 A 
ATOM     21  C   UNL d   1       4.239  -0.818 -17.709  0.00  0.00    -0.000 A 
ATOM     22  C   UNL d   1       4.137  -1.306 -16.391  0.00  0.00    -0.000 A 
ATOM     23  C   UNL d   1       5.212  -1.107 -15.507  0.00  0.00    -0.000 A 
ATOM     24  C   UNL d   1       6.369  -0.457 -15.941  0.00  0.00    -0.003 A 
ENDBRANCH   6  19
TORSDOF 4
