REMARK  5 active torsions:
REMARK  status: ('A' for Active; 'I' for Inactive)
REMARK    1  A    between atoms: C_2  and  C_3 
REMARK    2  A    between atoms: C_2  and  N_12 
REMARK    3  A    between atoms: C_3  and  C_5 
REMARK    4  A    between atoms: C_15  and  C_16 
REMARK    5  A    between atoms: C_16  and  C_17 
ROOT
ATOM      1  N   UNL d   1       9.234   6.151 -10.611  0.00  0.00     0.138 N 
ATOM      2  C   UNL d   1       8.692   5.664  -9.342  0.00  0.00     0.250 C 
ATOM      3  C   UNL d   1       9.746   5.574  -8.226  0.00  0.00     0.036 C 
ATOM      4  C   UNL d   1      10.435   6.922  -8.024  0.00  0.00     0.008 C 
ATOM      5  C   UNL d   1      10.968   7.442  -9.357  0.00  0.00     0.036 C 
ATOM      6  C   UNL d   1       9.847   7.469 -10.389  0.00  0.00     0.250 C 
ENDROOT
BRANCH   1   7
ATOM      7  C   UNL d   1       8.161   6.152 -11.634  0.00  0.00     0.254 C 
ATOM      8  C   UNL d   1       8.256   7.284 -12.656  0.00  0.00     0.038 C 
BRANCH   7   9
ATOM      9  C   UNL d   1       8.035   4.762 -12.323  0.00  0.00     0.206 C 
ATOM     10  O   UNL d   1       6.735   4.663 -12.855  0.00  0.00    -0.216 OA
BRANCH   9  11
ATOM     11  C   UNL d   1       9.111   4.455 -13.370  0.00  0.00     0.010 A 
ATOM     12  C   UNL d   1       9.048   5.007 -14.668  0.00  0.00     0.000 A 
ATOM     13  C   UNL d   1      10.045   4.761 -15.630  0.00  0.00     0.027 A 
ATOM     14  C   UNL d   1      11.107   3.893 -15.323  0.00  0.00     0.131 A 
ATOM     15  C   UNL d   1      11.163   3.302 -14.048  0.00  0.00     0.027 A 
ATOM     16  O   UNL d   1      12.077   3.640 -16.251  0.00  0.00    -0.190 OA
ATOM     17  C   UNL d   1      10.175   3.589 -13.079  0.00  0.00     0.000 A 
ENDBRANCH   9  11
ENDBRANCH   7   9
ENDBRANCH   1   7
BRANCH   4  18
ATOM     18  C   UNL d   1      11.570   6.815  -6.987  0.00  0.00     0.026 C 
BRANCH  18  19
ATOM     19  C   UNL d   1      11.456   7.782  -5.829  0.00  0.00    -0.022 A 
ATOM     20  C   UNL d   1      11.102   9.133  -6.052  0.00  0.00    -0.004 A 
ATOM     21  C   UNL d   1      11.063  10.025  -4.968  0.00  0.00    -0.000 A 
ATOM     22  C   UNL d   1      11.452   9.595  -3.686  0.00  0.00    -0.000 A 
ATOM     23  C   UNL d   1      11.855   8.260  -3.470  0.00  0.00    -0.000 A 
ATOM     24  C   UNL d   1      11.839   7.355  -4.543  0.00  0.00    -0.004 A 
ENDBRANCH  18  19
ENDBRANCH   4  18
TORSDOF 5
