REMARK  6 active torsions:
REMARK  status: ('A' for Active; 'I' for Inactive)
REMARK    1  A    between atoms: C_4  and  C_5 
REMARK    2  A    between atoms: C_8  and  C_9 
REMARK    3  A    between atoms: C_9  and  N_10 
REMARK    4  A    between atoms: N_10  and  C_11 
REMARK    5  A    between atoms: C_11  and  C_12 
REMARK    6  A    between atoms: C_12  and  C_13 
ROOT
ATOM      1  C   UNL d   1       9.368   6.584 -11.123  0.00  0.00     0.341 C 
ENDROOT
BRANCH   1   2
ATOM      2  C   UNL d   1       8.526   5.650 -11.919  0.00  0.00     0.114 A 
ATOM      3  C   UNL d   1       7.175   5.494 -12.060  0.00  0.00     0.024 A 
ATOM      4  C   UNL d   1       6.997   4.410 -12.962  0.00  0.00     0.026 A 
ATOM      5  C   UNL d   1       8.249   3.988 -13.317  0.00  0.00     0.100 A 
ATOM      6  O   UNL d   1       9.191   4.743 -12.682  0.00  0.00    -0.309 OA
BRANCH   5   7
ATOM      7  C   UNL d   1       8.723   2.925 -14.204  0.00  0.00     0.023 A 
ATOM      8  C   UNL d   1       7.804   2.055 -14.836  0.00  0.00     0.002 A 
ATOM      9  C   UNL d   1       8.253   1.025 -15.687  0.00  0.00     0.000 A 
ATOM     10  C   UNL d   1       9.630   0.852 -15.917  0.00  0.00     0.000 A 
ATOM     11  C   UNL d   1      10.556   1.707 -15.293  0.00  0.00     0.000 A 
ATOM     12  C   UNL d   1      10.105   2.735 -14.440  0.00  0.00     0.002 A 
ENDBRANCH   5   7
ENDBRANCH   1   2
BRANCH   1  13
ATOM     13  N   UNL d   1       9.061   6.508  -9.706  0.00  0.00     0.346 N 
BRANCH  13  14
ATOM     14  C   UNL d   1      10.025   7.297  -8.958  0.00  0.00     0.295 C 
BRANCH  14  15
ATOM     15  C   UNL d   1       9.735   7.203  -7.452  0.00  0.00     0.066 C 
BRANCH  15  16
ATOM     16  C   UNL d   1      10.582   8.134  -6.627  0.00  0.00     0.001 A 
ATOM     17  C   UNL d   1      11.166   7.885  -5.334  0.00  0.00     0.015 A 
ATOM     18  C   UNL d   1      11.857   9.058  -4.909  0.00  0.00     0.081 A 
ATOM     19  C   UNL d   1      11.192   6.786  -4.452  0.00  0.00     0.001 A 
ATOM     20  N   UNL d   1      11.687   9.969  -5.929  0.00  0.00    -0.244 NA
ATOM     21  C   UNL d   1      12.529   9.117  -3.678  0.00  0.00     0.019 A 
ATOM     22  C   UNL d   1      10.935   9.419  -6.950  0.00  0.00     0.095 A 
ATOM     23  C   UNL d   1      12.527   8.007  -2.819  0.00  0.00     0.002 A 
ATOM     24  C   UNL d   1      11.858   6.837  -3.209  0.00  0.00     0.000 A 
ENDBRANCH  15  16
ENDBRANCH  14  15
ENDBRANCH  13  14
ENDBRANCH   1  13
TORSDOF 6
