REMARK  1 active torsions:
REMARK  status: ('A' for Active; 'I' for Inactive)
REMARK    1  A    between atoms: C_6  and  C_7 
ROOT
ATOM      1  C   UNL d   1      11.164   1.194 -16.049  0.00  0.00     0.250 C 
ATOM      2  N   UNL d   1      10.445   2.366 -16.641  0.00  0.00    -0.001 N 
ATOM      3  C   UNL d   1      11.446   3.364 -17.137  0.00  0.00     0.217 C 
ATOM      4  C   UNL d   1      12.254   4.043 -16.011  0.00  0.00     0.033 C 
ATOM      5  C   UNL d   1      11.334   4.676 -14.961  0.00  0.00     0.009 C 
ATOM      6  C   UNL d   1      10.290   3.666 -14.445  0.00  0.00     0.057 C 
ATOM      7  C   UNL d   1       9.521   3.038 -15.651  0.00  0.00     0.232 C 
ATOM      8  C   UNL d   1       8.325   2.162 -15.357  0.00  0.00     0.084 A 
ATOM      9  N   UNL d   1       7.455   2.268 -14.285  0.00  0.00    -0.248 NA
ATOM     10  C   UNL d   1       6.455   1.320 -14.368  0.00  0.00     0.081 A 
ATOM     11  C   UNL d   1       5.375   1.006 -13.524  0.00  0.00     0.019 A 
ATOM     12  C   UNL d   1       4.481  -0.013 -13.898  0.00  0.00     0.002 A 
ATOM     13  C   UNL d   1       4.687  -0.728 -15.095  0.00  0.00     0.000 A 
ATOM     14  C   UNL d   1       5.779  -0.411 -15.928  0.00  0.00     0.001 A 
ATOM     15  C   UNL d   1       6.688   0.619 -15.588  0.00  0.00     0.015 A 
ATOM     16  C   UNL d   1       7.865   1.180 -16.190  0.00  0.00    -0.003 A 
ATOM     17  C   UNL d   1       8.575   0.820 -17.455  0.00  0.00     0.060 C 
ATOM     18  C   UNL d   1       9.636   1.892 -17.817  0.00  0.00     0.222 C 
ENDROOT
BRANCH   6  19
ATOM     19  C   UNL d   1       9.395   4.335 -13.407  0.00  0.00    -0.020 A 
ATOM     20  C   UNL d   1       9.523   4.022 -12.041  0.00  0.00    -0.004 A 
ATOM     21  C   UNL d   1       8.724   4.668 -11.077  0.00  0.00    -0.000 A 
ATOM     22  C   UNL d   1       7.750   5.589 -11.475  0.00  0.00    -0.000 A 
ATOM     23  C   UNL d   1       7.614   5.911 -12.830  0.00  0.00    -0.000 A 
ATOM     24  C   UNL d   1       8.430   5.284 -13.789  0.00  0.00    -0.004 A 
ENDBRANCH   6  19
TORSDOF 1
