REMARK  9 active torsions:
REMARK  status: ('A' for Active; 'I' for Inactive)
REMARK    1  A    between atoms: O_2  and  C_3 
REMARK    2  A    between atoms: C_6  and  S_7 
REMARK    3  A    between atoms: S_7  and  N_10 
REMARK    4  A    between atoms: N_10  and  C_11 
REMARK    5  A    between atoms: C_14  and  N_15 
REMARK    6  A    between atoms: C_18  and  C_19 
REMARK    7  A    between atoms: C_24  and  O_25 
REMARK    8  A    between atoms: O_25  and  C_26 
REMARK    9  A    between atoms: C_34  and  O_35 
ROOT
ATOM      1  C   UNL d   1       8.888   4.889 -11.487  0.00  0.00     0.116 C 
ATOM      2  C   UNL d   1       7.602   4.433 -12.164  0.00  0.00     0.027 C 
ATOM      3  C   UNL d   1       7.944   3.670 -13.456  0.00  0.00     0.035 C 
ATOM      4  C   UNL d   1       8.850   4.470 -14.408  0.00  0.00     0.219 C 
ATOM      5  C   UNL d   1      10.132   4.935 -13.660  0.00  0.00     0.035 C 
ATOM      6  C   UNL d   1       9.731   5.746 -12.422  0.00  0.00     0.027 C 
ENDROOT
BRANCH   4   7
ATOM      7  N   UNL d   1       9.139   3.689 -15.620  0.00  0.00     0.135 N 
ATOM      8  C   UNL d   1       9.666   4.588 -16.654  0.00  0.00     0.251 C 
ATOM      9  C   UNL d   1       9.789   3.860 -17.990  0.00  0.00     0.040 C 
ATOM     10  C   UNL d   1      10.652   2.589 -17.845  0.00  0.00     0.028 C 
ATOM     11  C   UNL d   1      10.161   1.712 -16.675  0.00  0.00     0.040 C 
ATOM     12  C   UNL d   1      10.031   2.535 -15.402  0.00  0.00     0.251 C 
BRANCH  10  13
ATOM     13  C   UNL d   1      10.751   1.793 -19.148  0.00  0.00    -0.000 A 
ATOM     14  C   UNL d   1       9.602   1.160 -19.710  0.00  0.00     0.090 A 
ATOM     15  C   UNL d   1       9.753   0.364 -20.872  0.00  0.00     0.024 A 
ATOM     16  C   UNL d   1      11.005   0.304 -21.521  0.00  0.00     0.002 A 
ATOM     17  C   UNL d   1      12.144   0.931 -20.971  0.00  0.00    -0.000 A 
ATOM     18  C   UNL d   1      12.019   1.655 -19.770  0.00  0.00    -0.002 A 
BRANCH  14  19
ATOM     19  O   UNL d   1       8.385   1.382 -19.081  0.00  0.00    -0.334 OA
BRANCH  19  20
ATOM     20  C   UNL d   1       7.197   0.719 -19.507  0.00  0.00     0.121 C 
ATOM     21  C   UNL d   1       6.664   1.312 -20.846  0.00  0.00     0.033 C 
ATOM     22  C   UNL d   1       6.133   0.897 -18.394  0.00  0.00     0.033 C 
ENDBRANCH  19  20
ENDBRANCH  14  19
ENDBRANCH  10  13
ENDBRANCH   4   7
BRANCH   1  23
ATOM     23  N   UNL d   1       8.585   5.688 -10.301  0.00  0.00    -0.187 NA
BRANCH  23  24
ATOM     24  S   UNL d   1       9.064   5.235  -8.725  0.00  0.00     0.281 S 
ATOM     25  O   UNL d   1       9.863   3.999  -8.856  0.00  0.00    -0.199 OA
ATOM     26  O   UNL d   1       7.868   5.288  -7.894  0.00  0.00    -0.199 OA
BRANCH  24  27
ATOM     27  C   UNL d   1      10.135   6.539  -8.156  0.00  0.00     0.107 A 
ATOM     28  C   UNL d   1      10.963   7.235  -9.071  0.00  0.00     0.015 A 
ATOM     29  C   UNL d   1      11.789   8.270  -8.615  0.00  0.00     0.027 A 
ATOM     30  C   UNL d   1      11.797   8.618  -7.253  0.00  0.00     0.116 A 
ATOM     31  C   UNL d   1      10.975   7.910  -6.322  0.00  0.00     0.117 A 
ATOM     32  C   UNL d   1      10.133   6.898  -6.800  0.00  0.00     0.039 A 
BRANCH  30  33
ATOM     33  O   UNL d   1      12.605   9.607  -6.815  0.00  0.00    -0.326 OA
ATOM     34  C   UNL d   1      11.922  10.783  -6.425  0.00  0.00     0.181 C 
ENDBRANCH  30  33
BRANCH  31  35
ATOM     35  O   UNL d   1      10.975   8.200  -4.984  0.00  0.00    -0.326 OA
ATOM     36  C   UNL d   1      12.224   8.169  -4.303  0.00  0.00     0.181 C 
ENDBRANCH  31  35
ENDBRANCH  24  27
ENDBRANCH  23  24
ENDBRANCH   1  23
TORSDOF 9
