REMARK  8 active torsions:
REMARK  status: ('A' for Active; 'I' for Inactive)
REMARK    1  A    between atoms: C_6  and  C_7 
REMARK    2  A    between atoms: C_10  and  S_11 
REMARK    3  A    between atoms: S_11  and  C_12 
REMARK    4  A    between atoms: C_12  and  C_13 
REMARK    5  A    between atoms: C_13  and  C_14 
REMARK    6  A    between atoms: C_14  and  N_15 
REMARK    7  A    between atoms: C_19  and  C_20 
REMARK    8  A    between atoms: C_24  and  C_25 
ROOT
ATOM      1  N   UNL d   1      11.167   5.097 -15.667  0.00  0.00     0.137 N 
ATOM      2  C   UNL d   1      12.139   4.317 -14.898  0.00  0.00     0.251 C 
ATOM      3  C   UNL d   1      11.290   3.224 -14.303  0.00  0.00     0.040 A 
ATOM      4  C   UNL d   1      11.053   1.915 -15.018  0.00  0.00     0.009 A 
ATOM      5  C   UNL d   1      10.091   3.075 -15.182  0.00  0.00     0.054 A 
ATOM      6  C   UNL d   1      10.260   4.115 -16.268  0.00  0.00     0.254 C 
ENDROOT
BRANCH   1   7
ATOM      7  C   UNL d   1      11.785   5.924 -16.702  0.00  0.00     0.251 C 
BRANCH   7   8
ATOM      8  C   UNL d   1      12.754   6.964 -16.119  0.00  0.00     0.047 C 
BRANCH   8   9
ATOM      9  C   UNL d   1      13.119   8.081 -17.098  0.00  0.00     0.067 C 
BRANCH   9  10
ATOM     10  S   UNL d   1      13.680   7.448 -18.712  0.00  0.00    -0.075 SA
BRANCH  10  11
ATOM     11  C   UNL d   1      15.269   8.200 -18.781  0.00  0.00     0.193 A 
ATOM     12  N   UNL d   1      15.494   9.475 -18.469  0.00  0.00    -0.122 NA
ATOM     13  N   UNL d   1      16.853   9.636 -18.560  0.00  0.00    -0.126 NA
ATOM     14  C   UNL d   1      17.349   8.452 -18.933  0.00  0.00     0.191 A 
ATOM     15  N   UNL d   1      16.385   7.519 -19.117  0.00  0.00    -0.287 N 
ATOM     16  C   UNL d   1      16.517   6.128 -19.523  0.00  0.00     0.134 C 
BRANCH  14  17
ATOM     17  C   UNL d   1      18.787   8.256 -19.098  0.00  0.00     0.151 A 
ATOM     18  C   UNL d   1      19.852   9.115 -18.944  0.00  0.00     0.087 A 
ATOM     19  C   UNL d   1      19.875  10.555 -18.523  0.00  0.00     0.054 C 
ATOM     20  N   UNL d   1      21.016   8.422 -19.251  0.00  0.00    -0.221 NA
ATOM     21  C   UNL d   1      20.607   7.199 -19.572  0.00  0.00     0.225 A 
ATOM     22  O   UNL d   1      19.262   7.029 -19.481  0.00  0.00    -0.282 OA
ENDBRANCH  14  17
ENDBRANCH  10  11
ENDBRANCH   9  10
ENDBRANCH   8   9
ENDBRANCH   7   8
ENDBRANCH   1   7
BRANCH   5  23
ATOM     23  C   UNL d   1       8.718   3.033 -14.564  0.00  0.00     0.007 A 
ATOM     24  C   UNL d   1       7.913   1.878 -14.687  0.00  0.00     0.140 A 
ATOM     25  C   UNL d   1       6.642   1.813 -14.077  0.00  0.00     0.099 A 
ATOM     26  F   UNL d   1       8.371   0.817 -15.392  0.00  0.00    -0.205 F 
ATOM     27  C   UNL d   1       6.162   2.931 -13.357  0.00  0.00     0.006 A 
ATOM     28  C   UNL d   1       6.954   4.083 -13.235  0.00  0.00    -0.000 A 
ATOM     29  C   UNL d   1       8.228   4.135 -13.830  0.00  0.00    -0.002 A 
BRANCH  25  30
ATOM     30  C   UNL d   1       5.821   0.534 -14.187  0.00  0.00     0.421 C 
ATOM     31  F   UNL d   1       5.468   0.355 -15.458  0.00  0.00    -0.166 F 
ATOM     32  F   UNL d   1       6.553  -0.508 -13.794  0.00  0.00    -0.166 F 
ATOM     33  F   UNL d   1       4.715   0.564 -13.440  0.00  0.00    -0.166 F 
ENDBRANCH  25  30
ENDBRANCH   5  23
TORSDOF 8
