REMARK  1 active torsions:
REMARK  status: ('A' for Active; 'I' for Inactive)
REMARK    1  A    between atoms: C_2  and  C_3 
ROOT
ATOM      1  C   UNL d   1      10.685   7.842  -8.033  0.00  0.00     0.082 A 
ATOM      2  C   UNL d   1      11.639   7.856  -9.256  0.00  0.00     0.010 C 
ATOM      3  C   UNL d   1      10.480   9.282  -7.513  0.00  0.00     0.099 A 
ATOM      4  C   UNL d   1      11.012   9.255  -6.081  0.00  0.00     0.259 A 
ATOM      5  O   UNL d   1      11.044  10.231  -5.336  0.00  0.00    -0.270 OA
ATOM      6  N   UNL d   1      11.437   8.036  -5.782  0.00  0.00    -0.177 NA
ATOM      7  C   UNL d   1      11.338   7.189  -6.807  0.00  0.00     0.258 A 
ATOM      8  O   UNL d   1      11.755   6.036  -6.774  0.00  0.00    -0.270 OA
ENDROOT
BRANCH   1   9
ATOM      9  C   UNL d   1       9.317   7.190  -8.373  0.00  0.00     0.009 C 
ATOM     10  C   UNL d   1       9.343   5.742  -8.901  0.00  0.00     0.001 C 
ENDBRANCH   1   9
TORSDOF 1
