REMARK  5 active torsions:
REMARK  status: ('A' for Active; 'I' for Inactive)
REMARK    1  A    between atoms: C_2  and  C_3 
REMARK    2  A    between atoms: C_3  and  C_4 
REMARK    3  A    between atoms: C_4  and  C_5 
REMARK    4  A    between atoms: C_4  and  N_17 
REMARK    5  A    between atoms: C_5  and  C_7 
ROOT
ATOM      1  C   UNL d   1       8.598   4.750 -13.252  0.00  0.00     0.204 C 
ATOM      2  O   UNL d   1       9.559   4.937 -14.011  0.00  0.00    -0.289 OA
ENDROOT
BRANCH   1   3
ATOM      3  C   UNL d   1       8.368   5.671 -12.029  0.00  0.00     0.280 C 
BRANCH   3   4
ATOM      4  C   UNL d   1       7.023   6.478 -12.168  0.00  0.00     0.041 C 
BRANCH   4   5
ATOM      5  C   UNL d   1       7.189   7.816 -12.846  0.00  0.00     0.003 C 
ATOM      6  C   UNL d   1       8.305   8.816 -12.418  0.00  0.00     0.000 C 
ENDBRANCH   4   5
ENDBRANCH   3   4
BRANCH   3   7
ATOM      7  N   UNL d   1       8.439   4.964 -10.720  0.00  0.00     0.142 N 
ATOM      8  C   UNL d   1       9.789   4.550 -10.396  0.00  0.00     0.251 C 
ATOM      9  C   UNL d   1       9.777   4.155  -8.931  0.00  0.00     0.037 C 
ATOM     10  C   UNL d   1       8.664   5.010  -8.373  0.00  0.00     0.037 C 
ATOM     11  C   UNL d   1       8.212   5.817  -9.569  0.00  0.00     0.251 C 
ENDBRANCH   3   7
ENDBRANCH   1   3
BRANCH   1  12
ATOM     12  C   UNL d   1       7.619   3.637 -13.470  0.00  0.00     0.037 A 
ATOM     13  C   UNL d   1       7.871   2.671 -14.471  0.00  0.00     0.003 A 
ATOM     14  C   UNL d   1       6.981   1.587 -14.657  0.00  0.00     0.000 A 
ATOM     15  C   UNL d   1       5.829   1.468 -13.841  0.00  0.00     0.000 A 
ATOM     16  C   UNL d   1       7.212   0.622 -15.655  0.00  0.00     0.000 A 
ATOM     17  C   UNL d   1       5.549   2.450 -12.873  0.00  0.00     0.000 A 
ATOM     18  C   UNL d   1       4.930   0.394 -14.006  0.00  0.00     0.000 A 
ATOM     19  C   UNL d   1       6.446   3.503 -12.670  0.00  0.00     0.003 A 
ATOM     20  C   UNL d   1       5.146  -0.548 -15.025  0.00  0.00     0.000 A 
ATOM     21  C   UNL d   1       6.281  -0.421 -15.844  0.00  0.00     0.000 A 
ENDBRANCH   1  12
TORSDOF 5
