REMARK  7 active torsions:
REMARK  status: ('A' for Active; 'I' for Inactive)
REMARK    1  A    between atoms: C_3  and  C_4 
REMARK    2  A    between atoms: N_15  and  C_16 
REMARK    3  A    between atoms: C_16  and  C_17 
REMARK    4  A    between atoms: C_17  and  C_18 
REMARK    5  A    between atoms: C_18  and  C_19 
REMARK    6  A    between atoms: C_19  and  N_20 
REMARK    7  A    between atoms: C_24  and  C_25 
ROOT
ATOM      1  O   UNL d   1      10.368   3.700 -16.363  0.00  0.00    -0.267 OA
ATOM      2  C   UNL d   1       9.481   2.981 -16.830  0.00  0.00     0.265 A 
ATOM      3  C   UNL d   1       9.330   2.720 -18.257  0.00  0.00     0.069 A 
ATOM      4  C   UNL d   1       8.249   1.995 -18.711  0.00  0.00     0.046 A 
ATOM      5  N   UNL d   1       7.289   1.476 -17.844  0.00  0.00    -0.285 N 
ATOM      6  C   UNL d   1       7.422   1.631 -16.449  0.00  0.00     0.333 A 
ATOM      7  O   UNL d   1       6.593   1.154 -15.659  0.00  0.00    -0.246 OA
ATOM      8  N   UNL d   1       8.516   2.376 -15.992  0.00  0.00    -0.249 N 
ATOM      9  C   UNL d   1       6.131   0.703 -18.262  0.00  0.00     0.110 C 
ATOM     10  C   UNL d   1       5.858   0.702 -19.766  0.00  0.00     0.025 C 
ATOM     11  C   UNL d   1       7.161   0.531 -20.527  0.00  0.00     0.008 C 
ATOM     12  C   UNL d   1       8.080   1.710 -20.206  0.00  0.00     0.044 C 
ENDROOT
BRANCH   8  13
ATOM     13  C   UNL d   1       8.632   2.629 -14.576  0.00  0.00     0.114 C 
BRANCH  13  14
ATOM     14  C   UNL d   1       8.031   3.985 -14.162  0.00  0.00     0.027 C 
BRANCH  14  15
ATOM     15  C   UNL d   1       8.281   4.219 -12.680  0.00  0.00     0.037 C 
BRANCH  15  16
ATOM     16  C   UNL d   1       8.349   5.723 -12.316  0.00  0.00     0.250 C 
BRANCH  16  17
ATOM     17  N   UNL d   1       8.673   5.957 -10.913  0.00  0.00     0.137 N 
ATOM     18  C   UNL d   1       9.867   5.245 -10.465  0.00  0.00     0.255 C 
ATOM     19  C   UNL d   1      10.257   5.561  -9.005  0.00  0.00     0.057 C 
ATOM     20  C   UNL d   1       9.091   5.167  -8.115  0.00  0.00     0.009 C 
ATOM     21  C   UNL d   1       7.885   5.912  -8.591  0.00  0.00     0.036 C 
ATOM     22  C   UNL d   1       7.565   5.571 -10.070  0.00  0.00     0.250 C 
BRANCH  19  23
ATOM     23  C   UNL d   1      10.636   6.999  -8.819  0.00  0.00     0.000 A 
ATOM     24  C   UNL d   1      10.863   7.696  -7.584  0.00  0.00     0.015 A 
ATOM     25  C   UNL d   1      11.168   9.053  -7.886  0.00  0.00     0.081 A 
ATOM     26  C   UNL d   1      10.846   7.329  -6.207  0.00  0.00     0.001 A 
ATOM     27  N   UNL d   1      11.123   9.147  -9.273  0.00  0.00    -0.244 NA
ATOM     28  C   UNL d   1      11.443   9.991  -6.886  0.00  0.00     0.019 A 
ATOM     29  C   UNL d   1      10.784   7.939  -9.825  0.00  0.00     0.095 A 
ATOM     30  C   UNL d   1      11.416   9.601  -5.534  0.00  0.00     0.002 A 
ATOM     31  C   UNL d   1      11.105   8.274  -5.204  0.00  0.00     0.000 A 
ENDBRANCH  19  23
ENDBRANCH  16  17
ENDBRANCH  15  16
ENDBRANCH  14  15
ENDBRANCH  13  14
ENDBRANCH   8  13
BRANCH   3  32
ATOM     32  C   UNL d   1      10.308   3.300 -19.197  0.00  0.00     0.016 A 
ATOM     33  C   UNL d   1      11.642   2.824 -19.243  0.00  0.00     0.058 A 
ATOM     34  C   UNL d   1      12.560   3.404 -20.143  0.00  0.00     0.011 A 
ATOM     35 CL   UNL d   1      12.174   1.517 -18.244  0.00  0.00    -0.082 Cl
ATOM     36  C   UNL d   1      12.156   4.449 -20.995  0.00  0.00     0.001 A 
ATOM     37  C   UNL d   1      10.834   4.926 -20.949  0.00  0.00     0.000 A 
ATOM     38  C   UNL d   1       9.912   4.359 -20.046  0.00  0.00     0.001 A 
ENDBRANCH   3  32
TORSDOF 7
