REMARK  12 active torsions:
REMARK  status: ('A' for Active; 'I' for Inactive)
REMARK    1  A    between atoms: O_2  and  C_3 
REMARK    2  A    between atoms: C_7  and  C_8 
REMARK    3  A    between atoms: C_8  and  C_9 
REMARK    4  A    between atoms: C_9  and  C_10 
REMARK    5  A    between atoms: C_15  and  O_16 
REMARK    6  A    between atoms: O_16  and  C_17 
REMARK    7  A    between atoms: C_17  and  C_18 
REMARK    8  A    between atoms: C_18  and  C_19 
REMARK    9  A    between atoms: C_19  and  C_20 
REMARK   10  A    between atoms: C_20  and  N_21 
REMARK   11  A    between atoms: C_26  and  O_27 
REMARK   12  A    between atoms: C_29  and  O_30 
ROOT
ATOM      1  C   UNL d   1       9.369   4.534 -14.133  0.00  0.00     0.149 C 
ENDROOT
BRANCH   1   2
ATOM      2  O   UNL d   1       9.289   3.349 -14.922  0.00  0.00    -0.331 OA
BRANCH   2   3
ATOM      3  C   UNL d   1      10.108   3.161 -16.021  0.00  0.00     0.090 A 
ATOM      4  C   UNL d   1       9.955   1.946 -16.742  0.00  0.00     0.001 A 
ATOM      5  C   UNL d   1      10.750   1.679 -17.877  0.00  0.00    -0.002 A 
ATOM      6  C   UNL d   1      11.706   2.617 -18.309  0.00  0.00    -0.000 A 
ATOM      7  C   UNL d   1      11.863   3.824 -17.604  0.00  0.00     0.002 A 
ATOM      8  C   UNL d   1      11.072   4.099 -16.474  0.00  0.00     0.024 A 
BRANCH   4   9
ATOM      9  C   UNL d   1       8.903   0.931 -16.324  0.00  0.00     0.033 C 
BRANCH   9  10
ATOM     10  C   UNL d   1       7.588   1.130 -17.104  0.00  0.00     0.031 C 
BRANCH  10  11
ATOM     11  C   UNL d   1       6.422   0.346 -16.524  0.00  0.00    -0.020 A 
ATOM     12  C   UNL d   1       5.645  -0.494 -17.347  0.00  0.00    -0.004 A 
ATOM     13  C   UNL d   1       4.567  -1.216 -16.797  0.00  0.00     0.002 A 
ATOM     14  C   UNL d   1       4.254  -1.087 -15.431  0.00  0.00     0.024 A 
ATOM     15  C   UNL d   1       5.000  -0.226 -14.602  0.00  0.00     0.094 A 
ATOM     16  C   UNL d   1       6.091   0.483 -15.159  0.00  0.00     0.020 A 
BRANCH  15  17
ATOM     17  O   UNL d   1       4.601  -0.098 -13.290  0.00  0.00    -0.328 OA
ATOM     18  C   UNL d   1       5.510   0.485 -12.369  0.00  0.00     0.181 C 
ENDBRANCH  15  17
ENDBRANCH  10  11
ENDBRANCH   9  10
ENDBRANCH   4   9
ENDBRANCH   2   3
ENDBRANCH   1   2
BRANCH   1  19
ATOM     19  C   UNL d   1       9.281   4.144 -12.651  0.00  0.00     0.035 C 
BRANCH  19  20
ATOM     20  C   UNL d   1       9.628   5.328 -11.744  0.00  0.00     0.038 C 
BRANCH  20  21
ATOM     21  C   UNL d   1       9.594   4.989 -10.239  0.00  0.00     0.251 C 
BRANCH  21  22
ATOM     22  N   UNL d   1      10.082   6.091  -9.403  0.00  0.00     0.142 N 
ATOM     23  C   UNL d   1      10.266   5.630  -8.036  0.00  0.00     0.277 C 
ATOM     24  C   UNL d   1      10.621   6.732  -7.034  0.00  0.00     0.009 C 
ATOM     25  C   UNL d   1      10.210   8.052  -7.279  0.00  0.00    -0.020 C 
ATOM     26  C   UNL d   1      11.307   6.461  -5.847  0.00  0.00     0.024 C 
ATOM     27  C   UNL d   1       9.543   8.386  -8.600  0.00  0.00     0.061 C 
ATOM     28  C   UNL d   1      10.483   9.055  -6.312  0.00  0.00     0.022 C 
ATOM     29  C   UNL d   1       9.070   7.126  -9.342  0.00  0.00     0.255 C 
ATOM     30  C   UNL d   1      11.112   8.714  -5.092  0.00  0.00     0.116 C 
ATOM     31  C   UNL d   1      11.485   7.390  -4.833  0.00  0.00     0.116 C 
BRANCH  30  32
ATOM     32  O   UNL d   1      11.396   9.725  -4.222  0.00  0.00    -0.326 OA
ATOM     33  C   UNL d   1      12.678   9.705  -3.647  0.00  0.00     0.181 C 
ENDBRANCH  30  32
BRANCH  31  34
ATOM     34  O   UNL d   1      12.118   6.949  -3.691  0.00  0.00    -0.326 OA
ATOM     35  C   UNL d   1      11.412   7.080  -2.463  0.00  0.00     0.181 C 
ENDBRANCH  31  34
ENDBRANCH  21  22
ENDBRANCH  20  21
ENDBRANCH  19  20
ENDBRANCH   1  19
TORSDOF 12
