REMARK  6 active torsions:
REMARK  status: ('A' for Active; 'I' for Inactive)
REMARK    1  A    between atoms: C_8  and  O_9 
REMARK    2  A    between atoms: O_9  and  C_10 
REMARK    3  A    between atoms: C_10  and  C_11 
REMARK    4  A    between atoms: C_11  and  C_12 
REMARK    5  A    between atoms: C_12  and  C_13 
REMARK    6  A    between atoms: C_13  and  N_14 
ROOT
ATOM      1  C   UNL d   1       9.213   6.655 -11.509  0.00  0.00     0.251 C 
ENDROOT
BRANCH   1   2
ATOM      2  C   UNL d   1       9.042   8.183 -11.515  0.00  0.00     0.038 C 
BRANCH   2   3
ATOM      3  C   UNL d   1       9.499   8.806 -10.189  0.00  0.00     0.035 C 
BRANCH   3   4
ATOM      4  C   UNL d   1      11.030   8.871 -10.066  0.00  0.00     0.149 C 
BRANCH   4   5
ATOM      5  O   UNL d   1      11.360   9.496  -8.840  0.00  0.00    -0.331 OA
BRANCH   5   6
ATOM      6  C   UNL d   1      11.371   8.763  -7.673  0.00  0.00     0.096 A 
ATOM      7  C   UNL d   1      11.241   7.359  -7.650  0.00  0.00     0.024 A 
ATOM      8  C   UNL d   1      11.301   6.673  -6.442  0.00  0.00    -0.001 A 
ATOM      9  C   UNL d   1      11.453   7.367  -5.235  0.00  0.00    -0.004 A 
ATOM     10  C   UNL d   1      11.552   6.591  -3.944  0.00  0.00     0.038 C 
ATOM     11  C   UNL d   1      11.596   8.771  -5.230  0.00  0.00     0.082 A 
ATOM     12  C   UNL d   1      12.435   7.306  -2.914  0.00  0.00     0.095 C 
ATOM     13  C   UNL d   1      12.179   8.800  -2.861  0.00  0.00     0.256 C 
ATOM     14  O   UNL d   1      12.257   9.365  -1.780  0.00  0.00    -0.270 OA
ATOM     15  N   UNL d   1      11.824   9.441  -3.998  0.00  0.00    -0.212 NA
ATOM     16  C   UNL d   1      11.549   9.475  -6.455  0.00  0.00     0.043 A 
ENDBRANCH   5   6
ENDBRANCH   4   5
ENDBRANCH   3   4
ENDBRANCH   2   3
ENDBRANCH   1   2
BRANCH   1  17
ATOM     17  N   UNL d   1       8.326   5.933 -12.424  0.00  0.00     0.143 N 
ATOM     18  C   UNL d   1       8.846   4.630 -12.863  0.00  0.00     0.280 C 
ATOM     19  C   UNL d   1       7.813   3.956 -13.776  0.00  0.00     0.173 C 
ATOM     20  C   UNL d   1      10.172   4.674 -13.664  0.00  0.00     0.185 C 
ATOM     21  O   UNL d   1       6.577   3.736 -13.096  0.00  0.00    -0.348 OA
ATOM     22  C   UNL d   1       8.355   2.696 -14.408  0.00  0.00     0.031 A 
ATOM     23  C   UNL d   1       6.009   4.946 -12.610  0.00  0.00     0.178 C 
ATOM     24  C   UNL d   1       7.037   5.700 -11.752  0.00  0.00     0.282 C 
ATOM     25  C   UNL d   1       9.756   2.474 -14.467  0.00  0.00     0.092 A 
ATOM     26  C   UNL d   1       7.475   1.739 -14.946  0.00  0.00     0.028 A 
ATOM     27  C   UNL d   1      10.255   1.274 -15.011  0.00  0.00     0.026 A 
ATOM     28  O   UNL d   1      10.660   3.375 -13.978  0.00  0.00    -0.329 OA
ATOM     29  C   UNL d   1       9.365   0.306 -15.522  0.00  0.00     0.029 A 
ATOM     30  C   UNL d   1       7.975   0.554 -15.496  0.00  0.00     0.131 A 
ATOM     31  O   UNL d   1       7.076  -0.349 -15.985  0.00  0.00    -0.190 OA
ENDBRANCH   1  17
TORSDOF 6
