REMARK  2 active torsions:
REMARK  status: ('A' for Active; 'I' for Inactive)
REMARK    1  A    between atoms: N_13  and  C_14 
REMARK    2  A    between atoms: C_14  and  C_15 
ROOT
ATOM      1  N   UNL d   1      12.040   9.928  -2.975  0.00  0.00    -0.072 NA
ATOM      2  C   UNL d   1      11.862   9.233  -4.156  0.00  0.00     0.181 C 
ATOM      3  N   UNL d   1      11.812   9.832  -5.343  0.00  0.00    -0.225 NA
ATOM      4  C   UNL d   1      11.458   8.893  -6.308  0.00  0.00     0.089 A 
ATOM      5  C   UNL d   1      11.283   9.117  -7.696  0.00  0.00     0.015 A 
ATOM      6  C   UNL d   1      10.929   8.063  -8.553  0.00  0.00    -0.022 A 
ATOM      7  C   UNL d   1      10.610   6.804  -8.010  0.00  0.00    -0.024 A 
ATOM      8  C   UNL d   1      10.786   6.559  -6.643  0.00  0.00     0.004 A 
ATOM      9  C   UNL d   1      11.243   7.576  -5.805  0.00  0.00     0.049 A 
ATOM     10  S   UNL d   1      11.655   7.488  -4.098  0.00  0.00    -0.052 SA
ATOM     11  C   UNL d   1      10.180   5.682  -8.902  0.00  0.00     0.061 C 
ATOM     12  C   UNL d   1       8.919   5.910  -9.701  0.00  0.00     0.255 C 
ATOM     13  N   UNL d   1       9.180   6.656 -10.931  0.00  0.00     0.142 N 
ATOM     14  C   UNL d   1       9.529   8.073 -10.670  0.00  0.00     0.255 C 
ATOM     15  C   UNL d   1      10.889   8.323 -10.055  0.00  0.00     0.061 C 
ENDROOT
BRANCH  13  16
ATOM     16  C   UNL d   1       7.957   6.545 -11.729  0.00  0.00     0.278 C 
BRANCH  16  17
ATOM     17  C   UNL d   1       7.848   5.344 -12.597  0.00  0.00     0.030 A 
ATOM     18  C   UNL d   1       6.719   4.503 -12.511  0.00  0.00     0.097 A 
ATOM     19  N   UNL d   1       6.557   3.431 -13.309  0.00  0.00    -0.243 NA
ATOM     20  C   UNL d   1       7.545   3.167 -14.191  0.00  0.00     0.099 A 
ATOM     21  C   UNL d   1       8.689   3.971 -14.365  0.00  0.00     0.020 A 
ATOM     22  C   UNL d   1       8.838   5.099 -13.550  0.00  0.00     0.001 A 
ENDBRANCH  16  17
ENDBRANCH  13  16
TORSDOF 2
