REMARK  2 active torsions:
REMARK  status: ('A' for Active; 'I' for Inactive)
REMARK    1  A    between atoms: C_4  and  C_5 
REMARK    2  A    between atoms: C_5  and  N_6 
ROOT
ATOM      1  N   UNL d   1       9.456   5.559 -10.142  0.00  0.00     0.142 N 
ATOM      2  C   UNL d   1       9.671   6.890 -10.736  0.00  0.00     0.254 C 
ATOM      3  C   UNL d   1      10.472   7.612  -9.662  0.00  0.00     0.070 C 
ATOM      4  C   UNL d   1      10.494   9.134  -9.611  0.00  0.00     0.151 C 
ATOM      5  O   UNL d   1      11.240   9.587  -8.473  0.00  0.00    -0.331 OA
ATOM      6  C   UNL d   1      11.155   8.877  -7.292  0.00  0.00     0.090 A 
ATOM      7  C   UNL d   1      11.806   9.393  -6.150  0.00  0.00     0.024 A 
ATOM      8  C   UNL d   1      11.771   8.687  -4.929  0.00  0.00     0.002 A 
ATOM      9  C   UNL d   1      11.113   7.443  -4.857  0.00  0.00    -0.000 A 
ATOM     10  C   UNL d   1      10.445   6.933  -5.986  0.00  0.00    -0.002 A 
ATOM     11  C   UNL d   1      10.469   7.641  -7.199  0.00  0.00     0.002 A 
ATOM     12  C   UNL d   1       9.763   7.135  -8.432  0.00  0.00     0.062 C 
ATOM     13  C   UNL d   1       9.684   5.645  -8.695  0.00  0.00     0.255 C 
ENDROOT
BRANCH   1  14
ATOM     14  C   UNL d   1       8.128   5.059 -10.473  0.00  0.00     0.277 C 
BRANCH  14  15
ATOM     15  C   UNL d   1       7.994   4.468 -11.867  0.00  0.00     0.011 A 
ATOM     16  C   UNL d   1       6.705   4.259 -12.398  0.00  0.00    -0.002 A 
ATOM     17  C   UNL d   1       6.550   3.612 -13.643  0.00  0.00    -0.000 A 
ATOM     18  C   UNL d   1       7.685   3.171 -14.352  0.00  0.00    -0.000 A 
ATOM     19  C   UNL d   1       8.972   3.383 -13.828  0.00  0.00    -0.000 A 
ATOM     20  C   UNL d   1       9.126   4.010 -12.584  0.00  0.00    -0.002 A 
ENDBRANCH  14  15
ENDBRANCH   1  14
TORSDOF 2
