REMARK  8 active torsions:
REMARK  status: ('A' for Active; 'I' for Inactive)
REMARK    1  A    between atoms: O_2  and  C_3 
REMARK    2  A    between atoms: C_8  and  N_9 
REMARK    3  A    between atoms: N_12  and  C_13 
REMARK    4  A    between atoms: C_13  and  C_14 
REMARK    5  A    between atoms: C_14  and  C_15 
REMARK    6  A    between atoms: C_15  and  C_16 
REMARK    7  A    between atoms: C_16  and  N_17 
REMARK    8  A    between atoms: N_17  and  C_18 
ROOT
ATOM      1  N   UNL d   1      10.777   2.682 -16.575  0.00  0.00    -0.343 N 
ATOM      2  C   UNL d   1       9.724   3.693 -16.495  0.00  0.00     0.137 C 
ATOM      3  C   UNL d   1       9.839   4.487 -15.181  0.00  0.00     0.274 C 
ATOM      4  N   UNL d   1       9.795   3.570 -14.037  0.00  0.00     0.141 N 
ATOM      5  C   UNL d   1      10.943   2.663 -14.117  0.00  0.00     0.274 C 
ATOM      6  C   UNL d   1      10.876   1.812 -15.400  0.00  0.00     0.137 C 
ENDROOT
BRANCH   4   7
ATOM      7  C   UNL d   1       9.840   4.315 -12.776  0.00  0.00     0.251 C 
BRANCH   7   8
ATOM      8  C   UNL d   1       8.461   4.920 -12.439  0.00  0.00     0.037 C 
BRANCH   8   9
ATOM      9  C   UNL d   1       8.491   5.750 -11.156  0.00  0.00     0.029 C 
BRANCH   9  10
ATOM     10  C   UNL d   1       8.725   4.902  -9.878  0.00  0.00     0.145 C 
BRANCH  10  11
ATOM     11  N   UNL d   1       8.829   5.673  -8.639  0.00  0.00    -0.085 NA
BRANCH  11  12
ATOM     12  C   UNL d   1       9.767   6.643  -8.368  0.00  0.00     0.776 A 
ATOM     13  N   UNL d   1       9.702   7.172  -7.145  0.00  0.00     0.136 NA
ATOM     14  C   UNL d   1      10.605   8.142  -6.978  0.00  0.00     0.799 A 
ATOM     15  N   UNL d   1      11.506   8.614  -7.843  0.00  0.00     0.138 NA
ATOM     16  N   UNL d   1      10.659   8.687  -5.731  0.00  0.00     0.063 N 
ATOM     17  C   UNL d   1      11.435   7.977  -9.006  0.00  0.00     0.799 A 
ATOM     18  N   UNL d   1      10.640   6.951  -9.337  0.00  0.00     0.136 NA
ATOM     19  N   UNL d   1      12.285   8.385  -9.992  0.00  0.00     0.063 N 
ENDBRANCH  11  12
ENDBRANCH  10  11
ENDBRANCH   9  10
ENDBRANCH   8   9
ENDBRANCH   7   8
ENDBRANCH   4   7
BRANCH   1  20
ATOM     20  C   UNL d   1      11.700   2.619 -17.610  0.00  0.00     0.079 A 
ATOM     21  C   UNL d   1      12.336   3.783 -18.136  0.00  0.00     0.110 A 
ATOM     22  C   UNL d   1      13.247   3.652 -19.219  0.00  0.00     0.026 A 
ATOM     23  C   UNL d   1      13.532   2.388 -19.768  0.00  0.00     0.002 A 
ATOM     24  C   UNL d   1      12.918   1.240 -19.250  0.00  0.00     0.002 A 
ATOM     25  C   UNL d   1      12.012   1.355 -18.175  0.00  0.00     0.019 A 
BRANCH  21  26
ATOM     26  O   UNL d   1      12.057   4.993 -17.533  0.00  0.00    -0.327 OA
ATOM     27  C   UNL d   1      12.629   6.175 -18.063  0.00  0.00     0.181 C 
ENDBRANCH  21  26
ENDBRANCH   1  20
TORSDOF 8
