REMARK  7 active torsions:
REMARK  status: ('A' for Active; 'I' for Inactive)
REMARK       I    between atoms: C_2  and  N_3 
REMARK    1  A    between atoms: C_2  and  C_27 
REMARK    2  A    between atoms: N_3  and  C_4 
REMARK    3  A    between atoms: C_7  and  C_8 
REMARK    4  A    between atoms: C_8  and  C_9 
REMARK    5  A    between atoms: C_9  and  N_10 
REMARK    6  A    between atoms: N_13  and  C_14 
REMARK    7  A    between atoms: C_30  and  N_31 
ROOT
ATOM      1  C   UNL d   1       8.056   5.212 -12.087  0.00  0.00     0.107 C 
ATOM      2  C   UNL d   1       8.921   4.017 -12.489  0.00  0.00     0.024 C 
ATOM      3  C   UNL d   1       8.343   3.294 -13.693  0.00  0.00     0.002 C 
ATOM      4  C   UNL d   1       6.836   2.936 -13.579  0.00  0.00     0.002 C 
ATOM      5  C   UNL d   1       5.995   4.167 -13.181  0.00  0.00     0.002 C 
ATOM      6  C   UNL d   1       6.578   4.829 -11.917  0.00  0.00     0.024 C 
ENDROOT
BRANCH   4   7
ATOM      7  C   UNL d   1       6.319   2.284 -14.833  0.00  0.00     0.035 C 
BRANCH   7   8
ATOM      8  C   UNL d   1       7.066   1.072 -15.368  0.00  0.00     0.250 C 
BRANCH   8   9
ATOM      9  N   UNL d   1       6.840   0.825 -16.795  0.00  0.00     0.141 N 
ATOM     10  C   UNL d   1       7.368   1.851 -17.713  0.00  0.00     0.274 C 
ATOM     11  C   UNL d   1       8.886   2.084 -17.550  0.00  0.00     0.138 C 
ATOM     12  N   UNL d   1       9.554   0.802 -17.694  0.00  0.00    -0.330 N 
ATOM     13  C   UNL d   1       9.015  -0.373 -17.013  0.00  0.00     0.138 C 
ATOM     14  C   UNL d   1       7.467  -0.438 -17.192  0.00  0.00     0.274 C 
BRANCH  12  15
ATOM     15  C   UNL d   1      10.586   0.662 -18.604  0.00  0.00     0.138 A 
ATOM     16  C   UNL d   1      10.417   0.014 -19.846  0.00  0.00     0.036 A 
ATOM     17  C   UNL d   1      11.469  -0.095 -20.721  0.00  0.00     0.095 A 
ATOM     18  C   UNL d   1       9.195  -0.582 -20.457  0.00  0.00     0.064 C 
ATOM     19  C   UNL d   1      12.727   0.433 -20.370  0.00  0.00     0.045 A 
ATOM     20  O   UNL d   1      11.140  -0.730 -21.885  0.00  0.00    -0.331 OA
ATOM     21  C   UNL d   1      12.816   1.069 -19.106  0.00  0.00     0.103 A 
ATOM     22  N   UNL d   1      11.778   1.190 -18.253  0.00  0.00    -0.228 NA
ATOM     23  C   UNL d   1       9.780  -1.185 -21.755  0.00  0.00     0.154 C 
ENDBRANCH  12  15
ENDBRANCH   8   9
ENDBRANCH   7   8
ENDBRANCH   4   7
BRANCH   1  24
ATOM     24  N   UNL d   1       8.600   5.696 -10.841  0.00  0.00    -0.236 NA
ATOM     25  C   UNL d   1       9.366   6.803 -10.734  0.00  0.00     0.275 C 
ATOM     26  O   UNL d   1       9.539   7.565 -11.674  0.00  0.00    -0.266 OA
BRANCH  25  27
ATOM     27  C   UNL d   1       9.971   7.046  -9.388  0.00  0.00     0.058 A 
ATOM     28  C   UNL d   1      11.006   8.021  -9.241  0.00  0.00     0.006 A 
ATOM     29  C   UNL d   1      11.558   8.295  -7.971  0.00  0.00     0.017 A 
ATOM     30  C   UNL d   1      11.081   7.605  -6.820  0.00  0.00     0.056 A 
ATOM     31  C   UNL d   1      10.101   6.613  -6.989  0.00  0.00     0.017 A 
ATOM     32  C   UNL d   1       9.544   6.341  -8.242  0.00  0.00     0.006 A 
BRANCH  30  33
ATOM     33  N   UNL d   1      11.479   7.863  -5.508  0.00  0.00    -0.348 N 
ATOM     34  C   UNL d   1      11.960   9.202  -5.155  0.00  0.00     0.101 C 
ATOM     35  C   UNL d   1      11.457   9.467  -3.742  0.00  0.00     0.024 C 
ATOM     36  C   UNL d   1      11.874   8.334  -2.753  0.00  0.00     0.004 C 
ATOM     37  C   UNL d   1      11.558   6.869  -3.237  0.00  0.00     0.024 C 
ATOM     38  C   UNL d   1      12.011   6.759  -4.668  0.00  0.00     0.101 C 
ENDBRANCH  30  33
ENDBRANCH  25  27
ENDBRANCH   1  24
TORSDOF 7
