REMARK  8 active torsions:
REMARK  status: ('A' for Active; 'I' for Inactive)
REMARK    1  A    between atoms: N_2  and  C_3 
REMARK    2  A    between atoms: N_2  and  C_22 
REMARK    3  A    between atoms: C_3  and  C_4 
REMARK    4  A    between atoms: C_4  and  C_5 
REMARK    5  A    between atoms: C_5  and  C_7 
REMARK    6  A    between atoms: C_7  and  N_8 
REMARK    7  A    between atoms: N_11  and  C_12 
REMARK    8  A    between atoms: C_22  and  C_23 
ROOT
ATOM      1  C   UNL d   1      13.251   1.550 -19.433  0.00  0.00     0.070 C 
ENDROOT
BRANCH   1   2
ATOM      2  C   UNL d   1      13.096   3.004 -18.862  0.00  0.00     0.253 C 
BRANCH   2   3
ATOM      3  N   UNL d   1      12.278   3.893 -19.703  0.00  0.00     0.144 N 
ATOM      4  C   UNL d   1      12.981   4.168 -20.956  0.00  0.00     0.286 C 
BRANCH   3   5
ATOM      5  C   UNL d   1      12.012   5.144 -18.971  0.00  0.00     0.277 C 
BRANCH   5   6
ATOM      6  C   UNL d   1      11.077   6.127 -19.677  0.00  0.00     0.011 A 
ATOM      7  C   UNL d   1       9.704   6.186 -19.339  0.00  0.00    -0.006 A 
ATOM      8  C   UNL d   1       8.877   7.072 -20.059  0.00  0.00    -0.018 A 
ATOM      9  C   UNL d   1       9.383   7.868 -21.093  0.00  0.00    -0.004 A 
ATOM     10  C   UNL d   1       7.392   7.297 -19.865  0.00  0.00     0.053 A 
ATOM     11  C   UNL d   1      10.741   7.832 -21.431  0.00  0.00    -0.001 A 
ATOM     12  C   UNL d   1       8.287   8.651 -21.649  0.00  0.00    -0.004 A 
ATOM     13  C   UNL d   1      11.588   6.978 -20.692  0.00  0.00    -0.002 A 
ATOM     14  C   UNL d   1       7.127   8.342 -20.936  0.00  0.00    -0.018 A 
ATOM     15  C   UNL d   1       8.268   9.584 -22.699  0.00  0.00    -0.000 A 
ATOM     16  C   UNL d   1       5.901   8.957 -21.239  0.00  0.00    -0.004 A 
ATOM     17  C   UNL d   1       5.868   9.902 -22.290  0.00  0.00    -0.000 A 
ATOM     18  C   UNL d   1       7.045  10.216 -23.012  0.00  0.00    -0.000 A 
ENDBRANCH   5   6
ENDBRANCH   3   5
ENDBRANCH   2   3
ENDBRANCH   1   2
BRANCH   1  19
ATOM     19  C   UNL d   1      11.965   0.681 -19.472  0.00  0.00     0.188 C 
ATOM     20  O   UNL d   1      12.262  -0.476 -20.216  0.00  0.00    -0.221 OA
BRANCH  19  21
ATOM     21  C   UNL d   1      11.486   0.192 -18.094  0.00  0.00     0.283 C 
BRANCH  21  22
ATOM     22  N   UNL d   1      11.065   1.268 -17.186  0.00  0.00     0.144 N 
ATOM     23  C   UNL d   1      10.901   0.789 -15.800  0.00  0.00     0.274 C 
ATOM     24  C   UNL d   1      10.568   1.944 -14.839  0.00  0.00     0.137 C 
ATOM     25  N   UNL d   1       9.411   2.675 -15.332  0.00  0.00    -0.344 N 
ATOM     26  C   UNL d   1       9.474   3.119 -16.720  0.00  0.00     0.137 C 
ATOM     27  C   UNL d   1       9.844   1.950 -17.639  0.00  0.00     0.274 C 
BRANCH  25  28
ATOM     28  C   UNL d   1       8.323   2.913 -14.538  0.00  0.00     0.068 A 
ATOM     29  C   UNL d   1       8.274   4.036 -13.660  0.00  0.00     0.084 A 
ATOM     30  C   UNL d   1       7.146   4.247 -12.861  0.00  0.00     0.070 A 
ATOM     31 CL   UNL d   1       9.621   5.128 -13.596  0.00  0.00    -0.080 Cl
ATOM     32  C   UNL d   1       6.053   3.358 -12.894  0.00  0.00     0.012 A 
ATOM     33 CL   UNL d   1       7.071   5.597 -11.784  0.00  0.00    -0.081 Cl
ATOM     34  C   UNL d   1       6.111   2.234 -13.758  0.00  0.00     0.002 A 
ATOM     35  C   UNL d   1       7.223   2.031 -14.574  0.00  0.00     0.018 A 
ENDBRANCH  25  28
ENDBRANCH  21  22
ENDBRANCH  19  21
ENDBRANCH   1  19
TORSDOF 8
