REMARK  7 active torsions:
REMARK  status: ('A' for Active; 'I' for Inactive)
REMARK    1  A    between atoms: C_2  and  C_3 
REMARK    2  A    between atoms: C_2  and  C_20 
REMARK    3  A    between atoms: C_3  and  C_4 
REMARK    4  A    between atoms: C_4  and  N_5 
REMARK    5  A    between atoms: C_7  and  C_8 
REMARK    6  A    between atoms: C_20  and  N_21 
REMARK    7  A    between atoms: N_24  and  C_25 
ROOT
ATOM      1  O   UNL d   1       6.217   4.450 -12.038  0.00  0.00    -0.221 OA
ATOM      2  C   UNL d   1       7.621   4.550 -12.171  0.00  0.00     0.188 C 
ENDROOT
BRANCH   2   3
ATOM      3  C   UNL d   1       8.071   5.761 -11.329  0.00  0.00     0.061 C 
BRANCH   3   4
ATOM      4  C   UNL d   1       9.581   5.755 -11.043  0.00  0.00     0.132 C 
BRANCH   4   5
ATOM      5  N   UNL d   1       9.963   6.730 -10.033  0.00  0.00    -0.230 N 
ATOM      6  N   UNL d   1      10.121   8.031 -10.366  0.00  0.00    -0.064 NA
ATOM      7  N   UNL d   1      10.481   8.659  -9.290  0.00  0.00    -0.129 NA
ATOM      8  C   UNL d   1      10.543   7.765  -8.216  0.00  0.00     0.123 A 
ATOM      9  C   UNL d   1      10.222   6.524  -8.694  0.00  0.00     0.118 A 
BRANCH   8  10
ATOM     10  C   UNL d   1      10.909   8.196  -6.863  0.00  0.00     0.021 A 
ATOM     11  C   UNL d   1      11.211   7.244  -5.866  0.00  0.00     0.003 A 
ATOM     12  C   UNL d   1      11.565   7.670  -4.573  0.00  0.00     0.018 A 
ATOM     13  C   UNL d   1      11.607   9.045  -4.225  0.00  0.00     0.081 A 
ATOM     14  C   UNL d   1      11.894   6.720  -3.589  0.00  0.00     0.003 A 
ATOM     15  C   UNL d   1      11.284   9.983  -5.223  0.00  0.00     0.019 A 
ATOM     16  N   UNL d   1      11.934   9.463  -2.990  0.00  0.00    -0.244 NA
ATOM     17  C   UNL d   1      10.955   9.564  -6.520  0.00  0.00     0.003 A 
ATOM     18  C   UNL d   1      12.264   8.544  -2.059  0.00  0.00     0.099 A 
ATOM     19  C   UNL d   1      12.259   7.161  -2.312  0.00  0.00     0.021 A 
ENDBRANCH   8  10
ENDBRANCH   4   5
ENDBRANCH   3   4
ENDBRANCH   2   3
BRANCH   2  20
ATOM     20  C   UNL d   1       7.941   4.686 -13.678  0.00  0.00     0.283 C 
BRANCH  20  21
ATOM     21  N   UNL d   1       9.231   4.169 -14.120  0.00  0.00     0.144 N 
ATOM     22  C   UNL d   1       9.462   4.500 -15.529  0.00  0.00     0.274 C 
ATOM     23  C   UNL d   1      10.844   4.067 -16.011  0.00  0.00     0.137 C 
ATOM     24  N   UNL d   1      11.015   2.643 -15.776  0.00  0.00    -0.344 N 
ATOM     25  C   UNL d   1      10.706   2.182 -14.429  0.00  0.00     0.137 C 
ATOM     26  C   UNL d   1       9.339   2.714 -13.979  0.00  0.00     0.274 C 
BRANCH  24  27
ATOM     27  C   UNL d   1      11.406   1.755 -16.806  0.00  0.00     0.068 A 
ATOM     28  C   UNL d   1      12.456   2.071 -17.712  0.00  0.00     0.084 A 
ATOM     29  C   UNL d   1      12.800   1.158 -18.731  0.00  0.00     0.070 A 
ATOM     30 CL   UNL d   1      13.398   3.529 -17.593  0.00  0.00    -0.080 Cl
ATOM     31  C   UNL d   1      12.122  -0.063 -18.850  0.00  0.00     0.012 A 
ATOM     32 CL   UNL d   1      14.092   1.514 -19.821  0.00  0.00    -0.081 Cl
ATOM     33  C   UNL d   1      11.089  -0.389 -17.960  0.00  0.00     0.002 A 
ATOM     34  C   UNL d   1      10.736   0.514 -16.937  0.00  0.00     0.018 A 
ENDBRANCH  24  27
ENDBRANCH  20  21
ENDBRANCH   2  20
TORSDOF 7
