REMARK  11 active torsions:
REMARK  status: ('A' for Active; 'I' for Inactive)
REMARK    1  A    between atoms: C_2  and  C_3 
REMARK    2  A    between atoms: C_3  and  N_4 
REMARK    3  A    between atoms: N_4  and  C_5 
REMARK    4  A    between atoms: N_4  and  C_22 
REMARK    5  A    between atoms: C_5  and  C_6 
REMARK    6  A    between atoms: C_6  and  C_7 
REMARK    7  A    between atoms: C_7  and  C_8 
REMARK    8  A    between atoms: C_8  and  N_9 
REMARK       I    between atoms: N_9  and  C_10 
REMARK    9  A    between atoms: C_10  and  C_12 
REMARK   10  A    between atoms: C_22  and  C_23 
REMARK   11  A    between atoms: C_25  and  C_26 
ROOT
ATOM      1  C   UNL d   1      10.248   3.867 -12.650  0.00  0.00     0.250 C 
ENDROOT
BRANCH   1   2
ATOM      2  N   UNL d   1       9.803   3.264 -13.912  0.00  0.00     0.137 N 
BRANCH   2   3
ATOM      3  C   UNL d   1       8.342   3.260 -13.972  0.00  0.00     0.250 C 
BRANCH   3   4
ATOM      4  C   UNL d   1       7.779   2.176 -14.903  0.00  0.00     0.035 C 
ATOM      5  C   UNL d   1       6.272   2.176 -14.886  0.00  0.00     0.002 C 
ENDBRANCH   3   4
ENDBRANCH   2   3
BRANCH   2   6
ATOM      6  C   UNL d   1      10.348   4.056 -15.002  0.00  0.00     0.251 C 
BRANCH   6   7
ATOM      7  C   UNL d   1      10.292   3.389 -16.372  0.00  0.00     0.038 A 
ATOM      8  C   UNL d   1      11.200   3.816 -17.467  0.00  0.00     0.025 A 
ATOM      9  C   UNL d   1      11.402   2.470 -16.812  0.00  0.00     0.007 A 
BRANCH   8  10
ATOM     10  C   UNL d   1      12.144   4.950 -17.265  0.00  0.00    -0.011 A 
ATOM     11  C   UNL d   1      13.494   4.794 -17.628  0.00  0.00     0.064 A 
ATOM     12  C   UNL d   1      14.403   5.830 -17.342  0.00  0.00     0.068 A 
ATOM     13 CL   UNL d   1      14.020   3.336 -18.407  0.00  0.00    -0.082 Cl
ATOM     14  C   UNL d   1      13.968   7.005 -16.705  0.00  0.00     0.012 A 
ATOM     15 CL   UNL d   1      16.058   5.673 -17.777  0.00  0.00    -0.082 Cl
ATOM     16  C   UNL d   1      12.624   7.166 -16.341  0.00  0.00     0.001 A 
ATOM     17  C   UNL d   1      11.711   6.155 -16.662  0.00  0.00    -0.003 A 
ENDBRANCH   8  10
ENDBRANCH   6   7
ENDBRANCH   2   6
ENDBRANCH   1   2
BRANCH   1  18
ATOM     18  C   UNL d   1       9.671   5.264 -12.325  0.00  0.00     0.037 C 
BRANCH  18  19
ATOM     19  C   UNL d   1      10.105   5.822 -10.967  0.00  0.00     0.029 C 
BRANCH  19  20
ATOM     20  C   UNL d   1       9.201   6.938 -10.495  0.00  0.00     0.129 C 
BRANCH  20  21
ATOM     21  N   UNL d   1       9.679   7.446  -9.215  0.00  0.00    -0.234 NA
ATOM     22  C   UNL d   1       9.697   6.770  -8.064  0.00  0.00     0.275 C 
ATOM     23  O   UNL d   1       9.383   5.583  -7.967  0.00  0.00    -0.266 OA
BRANCH  22  24
ATOM     24  C   UNL d   1      10.194   7.534  -6.876  0.00  0.00     0.058 A 
ATOM     25  C   UNL d   1      10.778   6.868  -5.781  0.00  0.00     0.005 A 
ATOM     26  C   UNL d   1      11.260   7.572  -4.669  0.00  0.00     0.000 A 
ATOM     27  C   UNL d   1      11.140   8.980  -4.642  0.00  0.00     0.000 A 
ATOM     28  C   UNL d   1      11.815   6.904  -3.561  0.00  0.00     0.000 A 
ATOM     29  C   UNL d   1      10.571   9.653  -5.726  0.00  0.00     0.000 A 
ATOM     30  C   UNL d   1      11.560   9.700  -3.507  0.00  0.00     0.000 A 
ATOM     31  C   UNL d   1      10.084   8.943  -6.833  0.00  0.00     0.005 A 
ATOM     32  C   UNL d   1      12.133   9.022  -2.413  0.00  0.00     0.000 A 
ATOM     33  C   UNL d   1      12.252   7.625  -2.438  0.00  0.00     0.000 A 
ENDBRANCH  22  24
ENDBRANCH  20  21
ENDBRANCH  19  20
ENDBRANCH  18  19
ENDBRANCH   1  18
TORSDOF 11
