REMARK  7 active torsions:
REMARK  status: ('A' for Active; 'I' for Inactive)
REMARK    1  A    between atoms: O_2  and  C_3 
REMARK    2  A    between atoms: C_6  and  O_7 
REMARK    3  A    between atoms: O_7  and  C_8 
REMARK    4  A    between atoms: C_8  and  C_9 
REMARK    5  A    between atoms: C_9  and  N_10 
REMARK       I    between atoms: N_13  and  C_14 
REMARK    6  A    between atoms: C_14  and  C_16 
REMARK    7  A    between atoms: C_19  and  O_20 
ROOT
ATOM      1  N   UNL d   1       8.164   4.794 -11.088  0.00  0.00     0.144 N 
ATOM      2  C   UNL d   1       8.346   6.088 -11.747  0.00  0.00     0.274 C 
ATOM      3  C   UNL d   1       9.709   6.664 -11.371  0.00  0.00     0.140 C 
ATOM      4  N   UNL d   1       9.872   6.793  -9.908  0.00  0.00    -0.312 N 
ATOM      5  C   UNL d   1      10.324   7.924  -9.336  0.00  0.00     0.257 C 
ATOM      6  O   UNL d   1      10.451   8.983  -9.985  0.00  0.00    -0.267 OA
ATOM      7  C   UNL d   1       9.563   5.536  -9.197  0.00  0.00     0.140 C 
ATOM      8  C   UNL d   1       8.210   5.008  -9.642  0.00  0.00     0.274 C 
ENDROOT
BRANCH   1   9
ATOM      9  C   UNL d   1       6.853   4.244 -11.395  0.00  0.00     0.283 C 
BRANCH   9  10
ATOM     10  C   UNL d   1       6.826   3.658 -12.804  0.00  0.00     0.184 C 
BRANCH  10  11
ATOM     11  O   UNL d   1       5.842   2.635 -12.823  0.00  0.00    -0.329 OA
BRANCH  11  12
ATOM     12  C   UNL d   1       5.930   1.681 -13.808  0.00  0.00     0.094 A 
ATOM     13  C   UNL d   1       5.061   0.578 -13.676  0.00  0.00     0.026 A 
ATOM     14  C   UNL d   1       5.020  -0.414 -14.663  0.00  0.00     0.026 A 
ATOM     15  C   UNL d   1       5.845  -0.346 -15.811  0.00  0.00     0.094 A 
ATOM     16  C   UNL d   1       6.746   0.742 -15.924  0.00  0.00     0.026 A 
ATOM     17  C   UNL d   1       6.785   1.745 -14.934  0.00  0.00     0.026 A 
BRANCH  15  18
ATOM     18  O   UNL d   1       5.811  -1.272 -16.827  0.00  0.00    -0.328 OA
ATOM     19  C   UNL d   1       4.974  -2.404 -16.650  0.00  0.00     0.181 C 
ENDBRANCH  15  18
ENDBRANCH  11  12
ENDBRANCH  10  11
ENDBRANCH   9  10
ENDBRANCH   1   9
BRANCH   5  20
ATOM     20  C   UNL d   1      10.634   7.961  -7.870  0.00  0.00     0.056 C 
ATOM     21  C   UNL d   1      11.201   6.846  -7.180  0.00  0.00     0.007 C 
ATOM     22  C   UNL d   1      11.370   6.865  -5.818  0.00  0.00     0.024 C 
ATOM     23  C   UNL d   1      11.183   8.056  -5.054  0.00  0.00     0.094 C 
ATOM     24  C   UNL d   1      10.651   9.177  -5.738  0.00  0.00     0.024 C 
ATOM     25  C   UNL d   1      10.373   9.114  -7.106  0.00  0.00     0.007 C 
BRANCH  23  26
ATOM     26  O   UNL d   1      11.571   8.032  -3.746  0.00  0.00    -0.328 OA
ATOM     27  C   UNL d   1      11.947   9.267  -3.161  0.00  0.00     0.181 C 
ENDBRANCH  23  26
ENDBRANCH   5  20
TORSDOF 7
