REMARK  8 active torsions:
REMARK  status: ('A' for Active; 'I' for Inactive)
REMARK    1  A    between atoms: O_2  and  C_3 
REMARK    2  A    between atoms: C_8  and  N_9 
REMARK    3  A    between atoms: N_12  and  C_13 
REMARK    4  A    between atoms: C_13  and  C_14 
REMARK    5  A    between atoms: C_14  and  C_15 
REMARK    6  A    between atoms: C_15  and  C_16 
REMARK    7  A    between atoms: C_16  and  N_17 
REMARK       I    between atoms: N_17  and  C_18 
REMARK    8  A    between atoms: C_18  and  C_20 
ROOT
ATOM      1  C   UNL d   1       8.531   6.065 -13.137  0.00  0.00     0.251 C 
ENDROOT
BRANCH   1   2
ATOM      2  N   UNL d   1       9.464   4.962 -13.372  0.00  0.00     0.141 N 
ATOM      3  C   UNL d   1      10.150   5.125 -14.658  0.00  0.00     0.274 C 
ATOM      4  C   UNL d   1      11.154   4.000 -14.922  0.00  0.00     0.137 C 
ATOM      5  N   UNL d   1      10.472   2.728 -14.851  0.00  0.00    -0.343 N 
ATOM      6  C   UNL d   1       9.678   2.522 -13.655  0.00  0.00     0.137 C 
ATOM      7  C   UNL d   1       8.705   3.708 -13.434  0.00  0.00     0.274 C 
BRANCH   5   8
ATOM      8  C   UNL d   1      10.508   1.823 -15.947  0.00  0.00     0.079 A 
ATOM      9  C   UNL d   1       9.339   1.157 -16.384  0.00  0.00     0.110 A 
ATOM     10  C   UNL d   1       9.456   0.216 -17.448  0.00  0.00     0.026 A 
ATOM     11  C   UNL d   1      10.688  -0.016 -18.076  0.00  0.00     0.002 A 
ATOM     12  C   UNL d   1      11.831   0.690 -17.657  0.00  0.00     0.002 A 
ATOM     13  C   UNL d   1      11.731   1.607 -16.592  0.00  0.00     0.019 A 
BRANCH   9  14
ATOM     14  O   UNL d   1       8.134   1.475 -15.795  0.00  0.00    -0.327 OA
ATOM     15  C   UNL d   1       6.984   0.720 -16.128  0.00  0.00     0.181 C 
ENDBRANCH   9  14
ENDBRANCH   5   8
ENDBRANCH   1   2
BRANCH   1  16
ATOM     16  C   UNL d   1       9.235   7.355 -12.652  0.00  0.00     0.037 C 
BRANCH  16  17
ATOM     17  C   UNL d   1       9.542   7.222 -11.184  0.00  0.00     0.029 C 
BRANCH  17  18
ATOM     18  C   UNL d   1      10.007   8.519 -10.527  0.00  0.00     0.129 C 
BRANCH  18  19
ATOM     19  N   UNL d   1      10.183   8.462  -9.087  0.00  0.00    -0.234 NA
ATOM     20  C   UNL d   1      10.373   7.372  -8.333  0.00  0.00     0.275 C 
ATOM     21  O   UNL d   1      10.254   6.218  -8.738  0.00  0.00    -0.266 OA
BRANCH  20  22
ATOM     22  C   UNL d   1      10.846   7.639  -6.928  0.00  0.00     0.059 A 
ATOM     23  C   UNL d   1      10.698   8.905  -6.301  0.00  0.00     0.028 A 
ATOM     24  C   UNL d   1      11.129   9.068  -4.986  0.00  0.00     0.130 A 
ATOM     25  C   UNL d   1      11.709   7.967  -4.267  0.00  0.00     0.130 A 
ATOM     26  N   UNL d   1      11.074  10.131  -4.194  0.00  0.00    -0.102 NA
ATOM     27  C   UNL d   1      11.841   6.731  -4.864  0.00  0.00     0.023 A 
ATOM     28  N   UNL d   1      12.037   8.351  -3.032  0.00  0.00    -0.102 NA
ATOM     29  C   UNL d   1      11.433   6.578  -6.201  0.00  0.00     0.006 A 
ATOM     30  O   UNL d   1      11.668   9.702  -2.989  0.00  0.00    -0.106 OA
ENDBRANCH  20  22
ENDBRANCH  18  19
ENDBRANCH  17  18
ENDBRANCH  16  17
ENDBRANCH   1  16
TORSDOF 8
