REMARK  7 active torsions:
REMARK  status: ('A' for Active; 'I' for Inactive)
REMARK       I    between atoms: C_2  and  N_3 
REMARK    1  A    between atoms: C_2  and  C_38 
REMARK    2  A    between atoms: N_3  and  N_4 
REMARK    3  A    between atoms: C_13  and  N_14 
REMARK    4  A    between atoms: N_17  and  C_18 
REMARK    5  A    between atoms: C_18  and  C_19 
REMARK    6  A    between atoms: C_23  and  O_24 
REMARK    7  A    between atoms: O_24  and  C_25 
ROOT
ATOM      1  N   UNL d   1       6.443  -0.824 -20.893  0.00  0.00    -0.225 N 
ATOM      2  C   UNL d   1       6.908  -2.076 -21.306  0.00  0.00     0.101 A 
ATOM      3  C   UNL d   1       6.003  -3.157 -21.370  0.00  0.00     0.022 A 
ATOM      4  C   UNL d   1       6.415  -4.411 -21.854  0.00  0.00     0.013 A 
ATOM      5  C   UNL d   1       7.745  -4.593 -22.277  0.00  0.00     0.059 A 
ATOM      6 CL   UNL d   1       8.261  -6.131 -22.861  0.00  0.00    -0.082 Cl
ATOM      7  C   UNL d   1       8.651  -3.522 -22.212  0.00  0.00     0.032 A 
ATOM      8  C   UNL d   1       8.256  -2.258 -21.729  0.00  0.00     0.101 A 
ATOM      9  N   UNL d   1       9.280  -1.310 -21.594  0.00  0.00    -0.227 NA
ATOM     10  C   UNL d   1       9.150  -0.029 -21.747  0.00  0.00     0.142 C 
ATOM     11  C   UNL d   1       7.882   0.664 -22.192  0.00  0.00     0.051 A 
ATOM     12  C   UNL d   1       7.981   1.786 -23.052  0.00  0.00     0.004 A 
ATOM     13  C   UNL d   1       6.844   2.542 -23.386  0.00  0.00     0.000 A 
ATOM     14  C   UNL d   1       5.582   2.181 -22.884  0.00  0.00     0.002 A 
ATOM     15  C   UNL d   1       5.463   1.063 -22.046  0.00  0.00     0.019 A 
ATOM     16  C   UNL d   1       6.599   0.296 -21.710  0.00  0.00     0.086 A 
ENDROOT
BRANCH  10  17
ATOM     17  N   UNL d   1      10.207   0.832 -21.455  0.00  0.00    -0.330 N 
ATOM     18  C   UNL d   1      11.595   0.585 -21.831  0.00  0.00     0.138 C 
ATOM     19  C   UNL d   1      12.534   0.691 -20.613  0.00  0.00     0.275 C 
ATOM     20  N   UNL d   1      12.384   1.999 -19.964  0.00  0.00     0.145 N 
ATOM     21  C   UNL d   1      10.992   2.118 -19.515  0.00  0.00     0.275 C 
ATOM     22  C   UNL d   1      10.039   2.068 -20.703  0.00  0.00     0.138 C 
BRANCH  20  23
ATOM     23  C   UNL d   1      13.308   2.074 -18.836  0.00  0.00     0.277 C 
BRANCH  23  24
ATOM     24  C   UNL d   1      13.191   3.354 -18.024  0.00  0.00     0.013 A 
ATOM     25  C   UNL d   1      13.934   4.503 -18.364  0.00  0.00     0.022 A 
ATOM     26  C   UNL d   1      13.790   5.703 -17.628  0.00  0.00     0.102 A 
ATOM     27  C   UNL d   1      12.895   5.732 -16.534  0.00  0.00     0.025 A 
ATOM     28  C   UNL d   1      12.145   4.588 -16.194  0.00  0.00     0.002 A 
ATOM     29  C   UNL d   1      12.302   3.401 -16.927  0.00  0.00    -0.002 A 
BRANCH  26  30
ATOM     30  O   UNL d   1      14.592   6.773 -17.951  0.00  0.00    -0.254 OA
BRANCH  30  31
ATOM     31  C   UNL d   1      14.056   8.021 -18.075  0.00  0.00     0.530 C 
ATOM     32  F   UNL d   1      13.070   8.051 -19.003  0.00  0.00    -0.144 F 
ATOM     33  F   UNL d   1      13.563   8.504 -16.907  0.00  0.00    -0.144 F 
ATOM     34  F   UNL d   1      15.020   8.878 -18.494  0.00  0.00    -0.144 F 
ENDBRANCH  30  31
ENDBRANCH  26  30
ENDBRANCH  23  24
ENDBRANCH  20  23
ENDBRANCH  10  17
BRANCH   1  35
ATOM     35  N   UNL d   1       5.729  -0.726 -19.691  0.00  0.00    -0.123 NA
ATOM     36  C   UNL d   1       6.014   0.166 -18.719  0.00  0.00     0.296 C 
ATOM     37  O   UNL d   1       6.731   1.155 -18.896  0.00  0.00    -0.264 OA
BRANCH  36  38
ATOM     38  C   UNL d   1       5.438  -0.168 -17.362  0.00  0.00     0.070 A 
ATOM     39  C   UNL d   1       6.021   0.306 -16.147  0.00  0.00     0.062 A 
ATOM     40  C   UNL d   1       5.432  -0.025 -14.910  0.00  0.00     0.012 A 
ATOM     41 CL   UNL d   1       7.454   1.274 -16.078  0.00  0.00    -0.082 Cl
ATOM     42  C   UNL d   1       4.271  -0.813 -14.852  0.00  0.00     0.001 A 
ATOM     43  C   UNL d   1       3.693  -1.279 -16.038  0.00  0.00     0.000 A 
ATOM     44  C   UNL d   1       4.263  -0.957 -17.283  0.00  0.00     0.006 A 
ENDBRANCH  36  38
ENDBRANCH   1  35
TORSDOF 7
