REMARK  6 active torsions:
REMARK  status: ('A' for Active; 'I' for Inactive)
REMARK    1  A    between atoms: C_2  and  C_3 
REMARK    2  A    between atoms: C_2  and  C_18 
REMARK    3  A    between atoms: C_3  and  C_4 
REMARK    4  A    between atoms: C_4  and  C_5 
REMARK    5  A    between atoms: C_5  and  N_6 
REMARK    6  A    between atoms: C_9  and  C_10 
ROOT
ATOM      1  C   UNL d   1       9.216   7.035 -11.130  0.00  0.00     0.043 C 
ENDROOT
BRANCH   1   2
ATOM      2  C   UNL d   1       8.274   6.688 -12.310  0.00  0.00     0.073 C 
BRANCH   2   3
ATOM      3  C   UNL d   1       8.163   5.191 -12.609  0.00  0.00     0.197 C 
ATOM      4  O   UNL d   1       7.277   4.514 -12.084  0.00  0.00    -0.289 OA
BRANCH   3   5
ATOM      5  C   UNL d   1       9.127   4.592 -13.568  0.00  0.00     0.145 A 
ATOM      6  S   UNL d   1       8.760   2.990 -14.222  0.00  0.00    -0.064 SA
ATOM      7  C   UNL d   1      10.226   3.091 -15.184  0.00  0.00     0.049 A 
ATOM      8  C   UNL d   1      10.875   4.335 -14.934  0.00  0.00     0.088 A 
ATOM      9  C   UNL d   1      10.759   2.150 -16.085  0.00  0.00     0.008 A 
ATOM     10  N   UNL d   1      10.257   5.169 -14.011  0.00  0.00    -0.236 NA
ATOM     11  C   UNL d   1      12.075   4.602 -15.627  0.00  0.00     0.020 A 
ATOM     12  C   UNL d   1      12.615   3.666 -16.533  0.00  0.00     0.002 A 
ATOM     13  C   UNL d   1      11.958   2.441 -16.761  0.00  0.00     0.001 A 
ENDBRANCH   3   5
ENDBRANCH   2   3
ENDBRANCH   1   2
BRANCH   1  14
ATOM     14  C   UNL d   1       8.953   6.205  -9.860  0.00  0.00     0.251 C 
BRANCH  14  15
ATOM     15  N   UNL d   1       9.743   6.714  -8.754  0.00  0.00     0.137 N 
ATOM     16  C   UNL d   1       8.847   7.398  -7.826  0.00  0.00     0.251 C 
ATOM     17  C   UNL d   1       9.634   8.033  -6.700  0.00  0.00     0.040 C 
ATOM     18  C   UNL d   1      10.469   6.987  -5.924  0.00  0.00     0.026 C 
ATOM     19  C   UNL d   1      11.313   6.200  -6.938  0.00  0.00     0.040 C 
ATOM     20  C   UNL d   1      10.399   5.631  -8.043  0.00  0.00     0.251 C 
BRANCH  18  21
ATOM     21  C   UNL d   1      11.324   7.582  -4.830  0.00  0.00    -0.022 C 
ATOM     22  C   UNL d   1      11.984   8.804  -5.035  0.00  0.00    -0.004 C 
ATOM     23  C   UNL d   1      12.782   9.318  -4.020  0.00  0.00    -0.000 C 
ATOM     24  C   UNL d   1      12.847   8.711  -2.752  0.00  0.00    -0.000 C 
ATOM     25  C   UNL d   1      12.233   7.475  -2.553  0.00  0.00    -0.000 C 
ATOM     26  C   UNL d   1      11.516   6.899  -3.600  0.00  0.00    -0.004 C 
ENDBRANCH  18  21
ENDBRANCH  14  15
ENDBRANCH   1  14
TORSDOF 6
