REMARK  8 active torsions:
REMARK  status: ('A' for Active; 'I' for Inactive)
REMARK    1  A    between atoms: C_4  and  N_5 
REMARK    2  A    between atoms: N_8  and  C_9 
REMARK    3  A    between atoms: C_9  and  C_10 
REMARK    4  A    between atoms: C_10  and  C_11 
REMARK    5  A    between atoms: C_11  and  C_12 
REMARK    6  A    between atoms: C_12  and  C_13 
REMARK    7  A    between atoms: C_13  and  N_14 
REMARK    8  A    between atoms: N_14  and  C_15 
ROOT
ATOM      1  C   UNL d   1       6.552   4.060 -12.279  0.00  0.00     0.035 C 
ENDROOT
BRANCH   1   2
ATOM      2  C   UNL d   1       6.436   3.579 -13.741  0.00  0.00     0.250 C 
BRANCH   2   3
ATOM      3  N   UNL d   1       7.309   2.445 -14.105  0.00  0.00     0.141 N 
ATOM      4  C   UNL d   1       8.706   2.875 -14.296  0.00  0.00     0.274 C 
ATOM      5  C   UNL d   1       9.603   1.666 -14.536  0.00  0.00     0.137 C 
ATOM      6  N   UNL d   1       9.134   0.914 -15.671  0.00  0.00    -0.344 N 
ATOM      7  C   UNL d   1       7.716   0.526 -15.591  0.00  0.00     0.137 C 
ATOM      8  C   UNL d   1       6.835   1.764 -15.293  0.00  0.00     0.274 C 
BRANCH   6   9
ATOM      9  C   UNL d   1       9.953   0.638 -16.771  0.00  0.00     0.056 A 
ATOM     10  C   UNL d   1      11.084   1.440 -17.073  0.00  0.00     0.017 A 
ATOM     11  C   UNL d   1      11.909   1.133 -18.176  0.00  0.00     0.002 A 
ATOM     12  C   UNL d   1      11.608   0.028 -18.986  0.00  0.00     0.000 A 
ATOM     13  C   UNL d   1      10.490  -0.770 -18.702  0.00  0.00     0.002 A 
ATOM     14  C   UNL d   1       9.671  -0.470 -17.598  0.00  0.00     0.017 A 
ENDBRANCH   6   9
ENDBRANCH   2   3
ENDBRANCH   1   2
BRANCH   1  15
ATOM     15  C   UNL d   1       7.774   4.964 -11.977  0.00  0.00     0.004 C 
BRANCH  15  16
ATOM     16  C   UNL d   1       7.915   5.335 -10.506  0.00  0.00     0.026 C 
BRANCH  16  17
ATOM     17  C   UNL d   1       9.274   6.011 -10.279  0.00  0.00     0.127 C 
BRANCH  17  18
ATOM     18  N   UNL d   1       9.737   5.812  -8.912  0.00  0.00    -0.255 NA
BRANCH  18  19
ATOM     19  C   UNL d   1      10.126   6.775  -7.995  0.00  0.00     0.165 C 
ATOM     20  C   UNL d   1      10.088   8.227  -8.480  0.00  0.00     0.214 C 
ATOM     21  O   UNL d   1      10.063   9.211  -7.451  0.00  0.00    -0.321 OA
ATOM     22  C   UNL d   1      10.664   8.873  -6.269  0.00  0.00     0.112 A 
ATOM     23  C   UNL d   1      10.905   7.519  -5.946  0.00  0.00     0.105 A 
ATOM     24  C   UNL d   1      11.000   9.900  -5.372  0.00  0.00     0.026 A 
ATOM     25  N   UNL d   1      10.551   6.478  -6.808  0.00  0.00    -0.227 NA
ATOM     26  C   UNL d   1      11.499   7.210  -4.707  0.00  0.00     0.021 A 
ATOM     27  C   UNL d   1      11.858   8.239  -3.812  0.00  0.00     0.002 A 
ATOM     28  C   UNL d   1      11.600   9.587  -4.141  0.00  0.00     0.002 A 
ENDBRANCH  18  19
ENDBRANCH  17  18
ENDBRANCH  16  17
ENDBRANCH  15  16
ENDBRANCH   1  15
TORSDOF 8
