REMARK  4 active torsions:
REMARK  status: ('A' for Active; 'I' for Inactive)
REMARK    1  A    between atoms: C_5  and  C_6 
REMARK    2  A    between atoms: C_17  and  C_18 
REMARK    3  A    between atoms: C_18  and  N_19 
REMARK    4  A    between atoms: N_22  and  C_23 
ROOT
ATOM      1  C   UNL d   1       5.470   5.057 -12.328  0.00  0.00     0.054 C 
ATOM      2  C   UNL d   1       6.747   4.553 -12.913  0.00  0.00     0.079 A 
ATOM      3  N   UNL d   1       6.737   3.468 -13.652  0.00  0.00    -0.170 NA
ATOM      4  N   UNL d   1       8.044   3.285 -14.037  0.00  0.00    -0.231 N 
ATOM      5  C   UNL d   1       8.533   2.275 -14.814  0.00  0.00     0.083 A 
ATOM      6  C   UNL d   1       9.884   2.281 -15.104  0.00  0.00     0.019 A 
ATOM      7  C   UNL d   1      10.732   3.305 -14.616  0.00  0.00     0.003 A 
ATOM      8  C   UNL d   1      10.228   4.309 -13.828  0.00  0.00     0.019 A 
ATOM      9  C   UNL d   1       8.848   4.317 -13.510  0.00  0.00     0.082 A 
ATOM     10  C   UNL d   1       8.031   5.142 -12.795  0.00  0.00     0.044 A 
ENDROOT
BRANCH  10  11
ATOM     11  C   UNL d   1       8.377   6.417 -12.096  0.00  0.00     0.280 C 
BRANCH  11  12
ATOM     12  N   UNL d   1       9.466   6.404 -11.126  0.00  0.00     0.146 N 
ATOM     13  C   UNL d   1       9.912   7.774 -10.870  0.00  0.00     0.275 C 
ATOM     14  C   UNL d   1      11.119   7.748  -9.919  0.00  0.00     0.137 C 
ATOM     15  N   UNL d   1      10.705   7.117  -8.663  0.00  0.00    -0.344 N 
ATOM     16  C   UNL d   1      10.104   5.788  -8.824  0.00  0.00     0.137 C 
ATOM     17  C   UNL d   1       8.986   5.816  -9.869  0.00  0.00     0.275 C 
BRANCH  15  18
ATOM     18  C   UNL d   1      10.916   7.693  -7.414  0.00  0.00     0.056 A 
ATOM     19  C   UNL d   1      10.928   9.103  -7.256  0.00  0.00     0.018 A 
ATOM     20  C   UNL d   1      11.133   9.683  -5.989  0.00  0.00     0.013 A 
ATOM     21  C   UNL d   1      11.321   8.869  -4.861  0.00  0.00     0.058 A 
ATOM     22  C   UNL d   1      11.298   7.471  -4.994  0.00  0.00     0.013 A 
ATOM     23 CL   UNL d   1      11.531   9.586  -3.311  0.00  0.00    -0.082 Cl
ATOM     24  C   UNL d   1      11.111   6.886  -6.263  0.00  0.00     0.018 A 
ENDBRANCH  15  18
ENDBRANCH  11  12
ENDBRANCH  10  11
BRANCH   5  25
ATOM     25  C   UNL d   1       7.636   1.220 -15.340  0.00  0.00     0.018 A 
ATOM     26  C   UNL d   1       6.727   0.536 -14.497  0.00  0.00     0.004 A 
ATOM     27  C   UNL d   1       5.865  -0.452 -15.010  0.00  0.00     0.030 A 
ATOM     28  C   UNL d   1       5.912  -0.785 -16.375  0.00  0.00     0.140 A 
ATOM     29  C   UNL d   1       6.822  -0.128 -17.223  0.00  0.00     0.030 A 
ATOM     30  F   UNL d   1       5.104  -1.753 -16.866  0.00  0.00    -0.204 F 
ATOM     31  C   UNL d   1       7.677   0.867 -16.708  0.00  0.00     0.004 A 
ENDBRANCH   5  25
TORSDOF 4
