REMARK  7 active torsions:
REMARK  status: ('A' for Active; 'I' for Inactive)
REMARK       I    between atoms: C_2  and  N_3 
REMARK    1  A    between atoms: C_2  and  C_21 
REMARK    2  A    between atoms: N_3  and  C_4 
REMARK    3  A    between atoms: C_4  and  C_5 
REMARK    4  A    between atoms: C_5  and  C_6 
REMARK    5  A    between atoms: C_6  and  C_7 
REMARK    6  A    between atoms: C_7  and  N_8 
REMARK    7  A    between atoms: N_11  and  C_12 
ROOT
ATOM      1  C   UNL d   1       8.860   4.770 -12.771  0.00  0.00     0.029 C 
ENDROOT
BRANCH   1   2
ATOM      2  C   UNL d   1       7.869   5.165 -11.680  0.00  0.00     0.129 C 
BRANCH   2   3
ATOM      3  N   UNL d   1       8.543   5.993 -10.693  0.00  0.00    -0.233 NA
ATOM      4  C   UNL d   1       9.290   5.575  -9.662  0.00  0.00     0.293 C 
ATOM      5  O   UNL d   1       9.461   4.391  -9.378  0.00  0.00    -0.264 OA
BRANCH   4   6
ATOM      6  C   UNL d   1       9.872   6.668  -8.805  0.00  0.00     0.139 A 
ATOM      7  N   UNL d   1      10.229   7.837  -9.383  0.00  0.00    -0.239 NA
ATOM      8  C   UNL d   1      10.776   8.796  -8.606  0.00  0.00     0.099 A 
ATOM      9  C   UNL d   1      11.013   8.635  -7.224  0.00  0.00     0.019 A 
ATOM     10  C   UNL d   1      10.660   7.407  -6.628  0.00  0.00     0.003 A 
ATOM     11  C   UNL d   1      11.581   9.657  -6.432  0.00  0.00     0.002 A 
ATOM     12  C   UNL d   1      10.083   6.415  -7.437  0.00  0.00     0.024 A 
ATOM     13  C   UNL d   1      10.899   7.184  -5.255  0.00  0.00     0.000 A 
ATOM     14  C   UNL d   1      11.471   8.202  -4.469  0.00  0.00     0.000 A 
ATOM     15  C   UNL d   1      11.804   9.432  -5.061  0.00  0.00     0.000 A 
ENDBRANCH   4   6
ENDBRANCH   2   3
ENDBRANCH   1   2
BRANCH   1  16
ATOM     16  C   UNL d   1       8.229   4.061 -13.974  0.00  0.00     0.037 C 
BRANCH  16  17
ATOM     17  C   UNL d   1       9.235   3.560 -15.031  0.00  0.00     0.251 C 
BRANCH  17  18
ATOM     18  N   UNL d   1       9.983   4.660 -15.645  0.00  0.00     0.141 N 
ATOM     19  C   UNL d   1      10.268   4.348 -17.053  0.00  0.00     0.274 C 
ATOM     20  C   UNL d   1      11.013   5.516 -17.734  0.00  0.00     0.137 C 
ATOM     21  N   UNL d   1      12.224   5.850 -16.986  0.00  0.00    -0.344 N 
ATOM     22  C   UNL d   1      12.012   6.056 -15.560  0.00  0.00     0.137 C 
ATOM     23  C   UNL d   1      11.268   4.856 -14.956  0.00  0.00     0.274 C 
BRANCH  21  24
ATOM     24  C   UNL d   1      13.495   5.887 -17.570  0.00  0.00     0.056 A 
ATOM     25  C   UNL d   1      14.654   5.547 -16.825  0.00  0.00     0.019 A 
ATOM     26  C   UNL d   1      15.932   5.597 -17.403  0.00  0.00     0.029 A 
ATOM     27  C   UNL d   1      16.080   5.980 -18.745  0.00  0.00     0.131 A 
ATOM     28  C   UNL d   1      14.945   6.314 -19.507  0.00  0.00     0.029 A 
ATOM     29  O   UNL d   1      17.322   6.000 -19.305  0.00  0.00    -0.190 OA
ATOM     30  C   UNL d   1      13.664   6.269 -18.924  0.00  0.00     0.019 A 
ENDBRANCH  21  24
ENDBRANCH  17  18
ENDBRANCH  16  17
ENDBRANCH   1  16
TORSDOF 7
