REMARK  4 active torsions:
REMARK  status: ('A' for Active; 'I' for Inactive)
REMARK    1  A    between atoms: N_5  and  C_6 
REMARK    2  A    between atoms: N_15  and  N_16 
REMARK       I    between atoms: N_16  and  C_17 
REMARK    3  A    between atoms: C_17  and  C_19 
REMARK    4  A    between atoms: C_22  and  C_23 
ROOT
ATOM      1  C   UNL d   1       7.888   2.342 -14.437  0.00  0.00     0.142 C 
ATOM      2  N   UNL d   1       9.039   2.305 -15.060  0.00  0.00    -0.227 NA
ATOM      3  C   UNL d   1       9.857   3.418 -15.284  0.00  0.00     0.101 A 
ATOM      4  C   UNL d   1      10.604   3.404 -16.485  0.00  0.00     0.032 A 
ATOM      5  C   UNL d   1      11.522   4.424 -16.797  0.00  0.00     0.059 A 
ATOM      6 CL   UNL d   1      12.428   4.367 -18.259  0.00  0.00    -0.082 Cl
ATOM      7  C   UNL d   1      11.701   5.492 -15.909  0.00  0.00     0.013 A 
ATOM      8  C   UNL d   1      10.958   5.508 -14.722  0.00  0.00     0.022 A 
ATOM      9  C   UNL d   1      10.060   4.491 -14.368  0.00  0.00     0.101 A 
ATOM     10  N   UNL d   1       9.270   4.657 -13.216  0.00  0.00    -0.225 N 
ATOM     11  C   UNL d   1       7.896   4.731 -13.362  0.00  0.00     0.086 C 
ATOM     12  C   UNL d   1       7.155   5.816 -12.822  0.00  0.00     0.019 C 
ATOM     13  C   UNL d   1       5.752   5.795 -12.838  0.00  0.00     0.002 C 
ATOM     14  C   UNL d   1       5.104   4.751 -13.524  0.00  0.00     0.000 C 
ATOM     15  C   UNL d   1       5.861   3.700 -14.016  0.00  0.00     0.004 C 
ATOM     16  C   UNL d   1       7.241   3.631 -13.953  0.00  0.00     0.051 C 
ENDROOT
BRANCH  10  17
ATOM     17  N   UNL d   1       9.822   5.061 -11.998  0.00  0.00    -0.123 NA
ATOM     18  C   UNL d   1       9.232   5.055 -10.771  0.00  0.00     0.295 C 
ATOM     19  O   UNL d   1       8.262   4.396 -10.434  0.00  0.00    -0.264 OA
BRANCH  18  20
ATOM     20  C   UNL d   1       9.851   5.978  -9.773  0.00  0.00     0.059 A 
ATOM     21  C   UNL d   1       9.845   5.594  -8.431  0.00  0.00     0.005 A 
ATOM     22  C   UNL d   1      10.355   6.455  -7.451  0.00  0.00     0.004 A 
ATOM     23  C   UNL d   1      10.881   7.716  -7.813  0.00  0.00     0.071 A 
ATOM     24  C   UNL d   1      10.874   8.103  -9.175  0.00  0.00     0.004 A 
ATOM     25  C   UNL d   1      10.345   7.239 -10.148  0.00  0.00     0.005 A 
BRANCH  23  26
ATOM     26  C   UNL d   1      11.443   8.643  -6.755  0.00  0.00     0.419 C 
ATOM     27  F   UNL d   1      10.567   9.606  -6.508  0.00  0.00    -0.166 F 
ATOM     28  F   UNL d   1      11.678   7.998  -5.610  0.00  0.00    -0.166 F 
ATOM     29  F   UNL d   1      12.572   9.185  -7.201  0.00  0.00    -0.166 F 
ENDBRANCH  23  26
ENDBRANCH  18  20
ENDBRANCH  10  17
BRANCH   1  30
ATOM     30  N   UNL d   1       7.161   1.177 -14.179  0.00  0.00    -0.330 N 
ATOM     31  C   UNL d   1       6.249   0.904 -13.035  0.00  0.00     0.138 C 
ATOM     32  C   UNL d   1       4.937   0.355 -13.533  0.00  0.00     0.274 C 
ATOM     33  N   UNL d   1       5.144  -0.888 -14.247  0.00  0.00     0.143 N 
ATOM     34  C   UNL d   1       3.844  -1.349 -14.692  0.00  0.00     0.286 C 
ATOM     35  C   UNL d   1       5.998  -0.620 -15.396  0.00  0.00     0.274 C 
ATOM     36  C   UNL d   1       7.348  -0.059 -14.919  0.00  0.00     0.138 C 
ENDBRANCH   1  30
TORSDOF 4
