REMARK  10 active torsions:
REMARK  status: ('A' for Active; 'I' for Inactive)
REMARK    1  A    between atoms: C_2  and  C_4 
REMARK    2  A    between atoms: C_9  and  N_10 
REMARK    3  A    between atoms: N_13  and  C_14 
REMARK    4  A    between atoms: C_14  and  C_15 
REMARK    5  A    between atoms: C_15  and  C_16 
REMARK    6  A    between atoms: C_16  and  C_17 
REMARK    7  A    between atoms: C_17  and  C_18 
REMARK    8  A    between atoms: C_18  and  C_19 
REMARK       I    between atoms: C_19  and  N_21 
REMARK    9  A    between atoms: N_21  and  C_22 
REMARK   10  A    between atoms: C_22  and  C_23 
ROOT
ATOM      1  C   UNL d   1       8.659   7.687 -20.965  0.00  0.00     0.002 A 
ATOM      2  C   UNL d   1       8.890   8.701 -21.919  0.00  0.00    -0.002 A 
ATOM      3  C   UNL d   1       7.852   9.585 -22.274  0.00  0.00     0.010 A 
ATOM      4  C   UNL d   1       6.580   9.464 -21.674  0.00  0.00     0.068 A 
ATOM      5  C   UNL d   1       5.511  10.381 -22.041  0.00  0.00     0.101 C 
ATOM      6  N   UNL d   1       4.659  11.109 -22.328  0.00  0.00    -0.191 NA
ATOM      7  C   UNL d   1       6.354   8.455 -20.721  0.00  0.00     0.010 A 
ATOM      8  C   UNL d   1       7.388   7.570 -20.370  0.00  0.00    -0.002 A 
ENDROOT
BRANCH   1   9
ATOM      9  C   UNL d   1       9.777   6.728 -20.597  0.00  0.00     0.155 C 
BRANCH   9  10
ATOM     10  N   UNL d   1       9.781   6.389 -19.186  0.00  0.00    -0.233 NA
ATOM     11  C   UNL d   1      10.249   5.240 -18.677  0.00  0.00     0.252 C 
ATOM     12  O   UNL d   1      10.631   4.291 -19.368  0.00  0.00    -0.271 OA
BRANCH  11  13
ATOM     13  C   UNL d   1      10.191   5.101 -17.171  0.00  0.00     0.090 C 
BRANCH  13  14
ATOM     14  C   UNL d   1      11.568   4.887 -16.499  0.00  0.00     0.010 C 
BRANCH  14  15
ATOM     15  C   UNL d   1      11.505   4.854 -14.953  0.00  0.00     0.003 C 
BRANCH  15  16
ATOM     16  C   UNL d   1      10.757   3.642 -14.366  0.00  0.00     0.035 C 
BRANCH  16  17
ATOM     17  C   UNL d   1       9.194   3.779 -14.494  0.00  0.00     0.250 C 
BRANCH  17  18
ATOM     18  N   UNL d   1       8.571   2.468 -14.321  0.00  0.00     0.141 N 
ATOM     19  C   UNL d   1       8.859   1.635 -15.518  0.00  0.00     0.274 C 
ATOM     20  C   UNL d   1       8.182   0.234 -15.349  0.00  0.00     0.137 C 
ATOM     21  N   UNL d   1       6.744   0.439 -15.212  0.00  0.00    -0.344 N 
ATOM     22  C   UNL d   1       6.338   1.336 -14.129  0.00  0.00     0.137 C 
ATOM     23  C   UNL d   1       7.108   2.668 -14.298  0.00  0.00     0.274 C 
BRANCH  21  24
ATOM     24  C   UNL d   1       5.802  -0.236 -16.033  0.00  0.00     0.052 A 
ATOM     25  C   UNL d   1       5.951  -0.370 -17.463  0.00  0.00    -0.007 A 
ATOM     26  C   UNL d   1       4.971  -1.031 -18.204  0.00  0.00    -0.003 A 
ATOM     27  C   UNL d   1       3.833  -1.630 -17.594  0.00  0.00    -0.000 A 
ATOM     28  C   UNL d   1       3.723  -1.529 -16.187  0.00  0.00     0.002 A 
ATOM     29  C   UNL d   1       4.678  -0.847 -15.434  0.00  0.00     0.017 A 
BRANCH  25  30
ATOM     30  C   UNL d   1       7.141   0.247 -18.228  0.00  0.00     0.024 C 
ATOM     31  C   UNL d   1       6.719   0.928 -19.548  0.00  0.00     0.005 C 
ATOM     32  C   UNL d   1       8.294  -0.788 -18.495  0.00  0.00     0.005 C 
ENDBRANCH  25  30
ENDBRANCH  21  24
ENDBRANCH  17  18
ENDBRANCH  16  17
ENDBRANCH  15  16
ENDBRANCH  14  15
ENDBRANCH  13  14
ENDBRANCH  11  13
ENDBRANCH   9  10
ENDBRANCH   1   9
TORSDOF 10
