REMARK  7 active torsions:
REMARK  status: ('A' for Active; 'I' for Inactive)
REMARK    1  A    between atoms: O_2  and  C_3 
REMARK    2  A    between atoms: C_3  and  C_4 
REMARK       I    between atoms: C_4  and  N_6 
REMARK    3  A    between atoms: N_6  and  C_7 
REMARK    4  A    between atoms: C_10  and  C_11 
REMARK    5  A    between atoms: C_11  and  C_12 
REMARK    6  A    between atoms: C_12  and  N_13 
REMARK    7  A    between atoms: N_16  and  C_17 
ROOT
ATOM      1  N   UNL d   1       7.592   5.159 -12.406  0.00  0.00     0.141 N 
ATOM      2  C   UNL d   1       6.254   4.559 -12.298  0.00  0.00     0.274 C 
ATOM      3  C   UNL d   1       5.825   3.974 -13.649  0.00  0.00     0.138 C 
ATOM      4  N   UNL d   1       6.862   3.066 -14.137  0.00  0.00    -0.330 N 
ATOM      5  C   UNL d   1       8.211   3.599 -14.175  0.00  0.00     0.138 C 
ATOM      6  C   UNL d   1       8.578   4.160 -12.811  0.00  0.00     0.274 C 
ENDROOT
BRANCH   1   7
ATOM      7  C   UNL d   1       7.931   5.716 -11.103  0.00  0.00     0.250 C 
BRANCH   7   8
ATOM      8  C   UNL d   1       9.398   6.173 -10.980  0.00  0.00     0.035 C 
BRANCH   8   9
ATOM      9  C   UNL d   1       9.704   7.097  -9.799  0.00  0.00     0.002 C 
ATOM     10  C   UNL d   1       9.444   6.410  -8.446  0.00  0.00     0.002 C 
ATOM     11  C   UNL d   1       9.761   7.353  -7.291  0.00  0.00     0.024 C 
ATOM     12  C   UNL d   1      11.208   7.884  -7.376  0.00  0.00     0.106 C 
ATOM     13  C   UNL d   1      11.493   8.551  -8.731  0.00  0.00     0.024 C 
ATOM     14  C   UNL d   1      11.151   7.621  -9.893  0.00  0.00     0.002 C 
BRANCH  12  15
ATOM     15  N   UNL d   1      11.456   8.847  -6.312  0.00  0.00    -0.238 NA
ATOM     16  C   UNL d   1      11.537   8.495  -5.024  0.00  0.00     0.282 C 
ATOM     17  O   UNL d   1      11.378   7.339  -4.638  0.00  0.00    -0.268 OA
BRANCH  16  18
ATOM     18  C   UNL d   1      11.859   9.603  -4.035  0.00  0.00     0.232 C 
BRANCH  18  19
ATOM     19  O   UNL d   1      11.653   9.172  -2.701  0.00  0.00    -0.342 OA
ATOM     20  C   UNL d   1      12.638   8.324  -2.137  0.00  0.00     0.175 C 
ENDBRANCH  18  19
ENDBRANCH  16  18
ENDBRANCH  12  15
ENDBRANCH   8   9
ENDBRANCH   7   8
ENDBRANCH   1   7
BRANCH   4  21
ATOM     21  C   UNL d   1       6.592   1.774 -14.557  0.00  0.00     0.142 A 
ATOM     22  C   UNL d   1       7.167   1.225 -15.744  0.00  0.00     0.059 A 
ATOM     23  C   UNL d   1       6.757  -0.074 -16.107  0.00  0.00     0.104 A 
ATOM     24  C   UNL d   1       8.084   1.642 -16.777  0.00  0.00     0.032 A 
ATOM     25  C   UNL d   1       5.849  -0.812 -15.342  0.00  0.00     0.045 A 
ATOM     26  O   UNL d   1       7.380  -0.456 -17.274  0.00  0.00    -0.305 OA
ATOM     27  C   UNL d   1       5.354  -0.190 -14.187  0.00  0.00     0.103 A 
ATOM     28  N   UNL d   1       5.716   1.049 -13.813  0.00  0.00    -0.227 NA
ATOM     29  C   UNL d   1       8.193   0.580 -17.641  0.00  0.00     0.123 A 
ENDBRANCH   4  21
TORSDOF 7
