REMARK  13 active torsions:
REMARK  status: ('A' for Active; 'I' for Inactive)
REMARK    1  A    between atoms: C_2  and  C_3 
REMARK    2  A    between atoms: C_7  and  O_8 
REMARK    3  A    between atoms: C_10  and  C_11 
REMARK       I    between atoms: C_11  and  N_13 
REMARK    4  A    between atoms: N_13  and  C_14 
REMARK    5  A    between atoms: C_14  and  C_15 
REMARK    6  A    between atoms: C_17  and  O_18 
REMARK    7  A    between atoms: O_18  and  C_19 
REMARK    8  A    between atoms: C_19  and  C_20 
REMARK    9  A    between atoms: C_20  and  C_21 
REMARK   10  A    between atoms: C_21  and  C_22 
REMARK   11  A    between atoms: C_22  and  N_23 
REMARK       I    between atoms: N_23  and  C_24 
REMARK   12  A    between atoms: C_24  and  C_26 
REMARK   13  A    between atoms: N_36  and  C_37 
ROOT
ATOM      1  C   UNL d   1       6.884   0.575 -15.971  0.00  0.00     0.246 C 
ATOM      2  C   UNL d   1       7.250   1.561 -14.837  0.00  0.00     0.067 C 
ATOM      3  C   UNL d   1       6.076   1.456 -13.872  0.00  0.00     0.151 C 
ATOM      4  C   UNL d   1       5.123   0.474 -14.580  0.00  0.00     0.280 C 
ATOM      5  N   UNL d   1       5.947  -0.385 -15.384  0.00  0.00     0.140 N 
ENDROOT
BRANCH   3   6
ATOM      6  O   UNL d   1       5.484   2.724 -13.604  0.00  0.00    -0.355 OA
BRANCH   6   7
ATOM      7  C   UNL d   1       5.840   3.398 -12.407  0.00  0.00     0.142 C 
BRANCH   7   8
ATOM      8  C   UNL d   1       6.821   4.543 -12.675  0.00  0.00     0.034 C 
BRANCH   8   9
ATOM      9  C   UNL d   1       7.938   4.591 -11.631  0.00  0.00     0.029 C 
BRANCH   9  10
ATOM     10  C   UNL d   1       8.932   5.724 -11.910  0.00  0.00     0.129 C 
BRANCH  10  11
ATOM     11  N   UNL d   1       9.463   6.272 -10.668  0.00  0.00    -0.233 NA
ATOM     12  C   UNL d   1       9.861   7.527 -10.488  0.00  0.00     0.293 C 
ATOM     13  O   UNL d   1       9.857   8.383 -11.385  0.00  0.00    -0.264 OA
BRANCH  12  14
ATOM     14  C   UNL d   1      10.363   7.885  -9.147  0.00  0.00     0.139 A 
ATOM     15  N   UNL d   1      10.213   7.000  -8.097  0.00  0.00    -0.241 NA
ATOM     16  C   UNL d   1      10.751   7.523  -6.936  0.00  0.00     0.082 A 
ATOM     17  C   UNL d   1      11.240   8.814  -7.289  0.00  0.00     0.019 A 
ATOM     18  C   UNL d   1      10.852   7.005  -5.645  0.00  0.00     0.019 A 
ATOM     19  C   UNL d   1      10.984   9.020  -8.686  0.00  0.00     0.025 A 
ATOM     20  C   UNL d   1      11.843   9.573  -6.251  0.00  0.00     0.002 A 
ATOM     21  C   UNL d   1      11.949   9.060  -4.943  0.00  0.00     0.000 A 
ATOM     22  C   UNL d   1      11.466   7.772  -4.639  0.00  0.00     0.002 A 
ENDBRANCH  12  14
ENDBRANCH  10  11
ENDBRANCH   9  10
ENDBRANCH   8   9
ENDBRANCH   7   8
ENDBRANCH   6   7
ENDBRANCH   3   6
BRANCH   1  23
ATOM     23  C   UNL d   1       8.101  -0.058 -16.629  0.00  0.00     0.162 C 
BRANCH  23  24
ATOM     24  N   UNL d   1       9.072   0.927 -17.056  0.00  0.00    -0.232 NA
ATOM     25  C   UNL d   1      10.259   1.118 -16.490  0.00  0.00     0.279 C 
ATOM     26  O   UNL d   1      10.652   0.556 -15.466  0.00  0.00    -0.265 OA
BRANCH  25  27
ATOM     27  C   UNL d   1      11.105   2.143 -17.182  0.00  0.00     0.106 A 
ATOM     28  C   UNL d   1      11.269   2.106 -18.593  0.00  0.00     0.111 A 
ATOM     29  C   UNL d   1      12.012   3.121 -19.236  0.00  0.00     0.080 A 
ATOM     30  C   UNL d   1      12.615   4.136 -18.480  0.00  0.00     0.011 A 
ATOM     31 CL   UNL d   1      12.187   3.125 -20.956  0.00  0.00    -0.080 Cl
ATOM     32  C   UNL d   1      12.478   4.169 -17.075  0.00  0.00     0.004 A 
ATOM     33  C   UNL d   1      11.724   3.174 -16.422  0.00  0.00     0.134 A 
ATOM     34  O   UNL d   1      11.544   3.235 -15.059  0.00  0.00    -0.190 OA
BRANCH  28  35
ATOM     35  O   UNL d   1      10.676   1.129 -19.355  0.00  0.00    -0.327 OA
ATOM     36  C   UNL d   1      11.529   0.028 -19.635  0.00  0.00     0.181 C 
ENDBRANCH  28  35
BRANCH  32  37
ATOM     37  C   UNL d   1      13.139   5.290 -16.293  0.00  0.00     0.029 C 
ATOM     38  C   UNL d   1      12.149   6.396 -15.906  0.00  0.00     0.005 C 
ENDBRANCH  32  37
ENDBRANCH  25  27
ENDBRANCH  23  24
ENDBRANCH   1  23
BRANCH   5  39
ATOM     39  C   UNL d   1       5.114  -1.090 -16.389  0.00  0.00     0.250 C 
ATOM     40  C   UNL d   1       5.691  -2.421 -16.856  0.00  0.00     0.037 C 
ENDBRANCH   5  39
TORSDOF 13
