REMARK  7 active torsions:
REMARK  status: ('A' for Active; 'I' for Inactive)
REMARK    1  A    between atoms: C_2  and  C_3 
REMARK       I    between atoms: C_2  and  N_11 
REMARK    2  A    between atoms: C_14  and  C_16 
REMARK    3  A    between atoms: C_16  and  N_17 
REMARK    4  A    between atoms: N_17  and  C_18 
REMARK    5  A    between atoms: C_18  and  C_19 
REMARK    6  A    between atoms: C_19  and  O_20 
REMARK    7  A    between atoms: O_20  and  C_21 
ROOT
ATOM      1  O   UNL d   1       5.970   2.589 -13.870  0.00  0.00    -0.267 OA
ATOM      2  C   UNL d   1       7.126   2.885 -14.043  0.00  0.00     0.257 C 
ATOM      3  N   UNL d   1       7.684   3.988 -13.450  0.00  0.00    -0.317 N 
ATOM      4  C   UNL d   1       6.886   4.830 -12.534  0.00  0.00     0.107 C 
ATOM      5  C   UNL d   1       7.564   4.935 -11.160  0.00  0.00     0.059 C 
ATOM      6  C   UNL d   1       9.038   5.359 -11.277  0.00  0.00     0.172 C 
ATOM      7  F   UNL d   1       9.073   6.607 -11.739  0.00  0.00    -0.238 F 
ATOM      8  C   UNL d   1       9.757   4.489 -12.322  0.00  0.00     0.059 C 
ATOM      9  C   UNL d   1       9.034   4.504 -13.677  0.00  0.00     0.107 C 
ENDROOT
BRANCH   6  10
ATOM     10  C   UNL d   1       9.785   5.302  -9.926  0.00  0.00     0.323 C 
BRANCH  10  11
ATOM     11  N   UNL d   1       8.976   5.822  -8.831  0.00  0.00     0.345 N 
BRANCH  11  12
ATOM     12  C   UNL d   1       9.243   7.230  -8.575  0.00  0.00     0.323 C 
BRANCH  12  13
ATOM     13  C   UNL d   1      10.636   7.343  -7.935  0.00  0.00     0.189 C 
BRANCH  13  14
ATOM     14  O   UNL d   1      10.696   8.522  -7.139  0.00  0.00    -0.312 OA
BRANCH  14  15
ATOM     15  C   UNL d   1      11.114   8.439  -5.826  0.00  0.00     0.178 A 
ATOM     16  N   UNL d   1      11.453   7.231  -5.319  0.00  0.00    -0.221 NA
ATOM     17  C   UNL d   1      11.858   7.165  -4.038  0.00  0.00     0.101 A 
ATOM     18  C   UNL d   1      11.952   8.291  -3.202  0.00  0.00     0.021 A 
ATOM     19  C   UNL d   1      11.598   9.550  -3.725  0.00  0.00     0.005 A 
ATOM     20  C   UNL d   1      11.169   9.624  -5.068  0.00  0.00     0.044 A 
ENDBRANCH  14  15
ENDBRANCH  13  14
ENDBRANCH  12  13
ENDBRANCH  11  12
ENDBRANCH  10  11
ENDBRANCH   6  10
BRANCH   2  21
ATOM     21  C   UNL d   1       7.957   1.977 -14.906  0.00  0.00     0.057 A 
ATOM     22  C   UNL d   1       7.420   1.495 -16.127  0.00  0.00     0.018 A 
ATOM     23  C   UNL d   1       8.192   0.643 -16.950  0.00  0.00     0.085 A 
ATOM     24  C   UNL d   1       9.479   0.249 -16.530  0.00  0.00     0.151 A 
ATOM     25 CL   UNL d   1       7.551   0.096 -18.452  0.00  0.00    -0.080 Cl
ATOM     26  C   UNL d   1       9.989   0.681 -15.295  0.00  0.00     0.031 A 
ATOM     27  F   UNL d   1      10.251  -0.539 -17.322  0.00  0.00    -0.203 F 
ATOM     28  C   UNL d   1       9.202   1.516 -14.462  0.00  0.00     0.007 A 
ENDBRANCH   2  21
TORSDOF 7
