REMARK  4 active torsions:
REMARK  status: ('A' for Active; 'I' for Inactive)
REMARK    1  A    between atoms: C_12  and  C_13 
REMARK    2  A    between atoms: C_13  and  N_14 
REMARK    3  A    between atoms: N_14  and  C_15 
REMARK    4  A    between atoms: C_15  and  C_16 
ROOT
ATOM      1  N   UNL d   1       8.540   5.123  -9.573  0.00  0.00     0.342 N 
ENDROOT
BRANCH   1   2
ATOM      2  C   UNL d   1       7.904   5.598 -10.815  0.00  0.00     0.323 C 
BRANCH   2   3
ATOM      3  C   UNL d   1       7.873   4.468 -11.885  0.00  0.00     0.188 C 
ATOM      4  C   UNL d   1       6.802   4.621 -12.977  0.00  0.00     0.181 C 
ATOM      5  O   UNL d   1       6.805   3.503 -13.881  0.00  0.00    -0.326 OA
ATOM      6  C   UNL d   1       8.089   3.115 -14.270  0.00  0.00     0.114 A 
ATOM      7  C   UNL d   1       8.320   2.229 -15.351  0.00  0.00     0.029 A 
ATOM      8  C   UNL d   1       9.239   3.597 -13.626  0.00  0.00     0.116 A 
ATOM      9  C   UNL d   1       7.337   1.551 -16.244  0.00  0.00     0.120 A 
ATOM     10  C   UNL d   1       9.625   1.902 -15.739  0.00  0.00     0.083 A 
ATOM     11  C   UNL d   1       8.310   0.819 -17.157  0.00  0.00     0.260 A 
ATOM     12  O   UNL d   1       7.931   0.122 -18.092  0.00  0.00    -0.270 OA
ATOM     13  N   UNL d   1       9.582   1.041 -16.831  0.00  0.00    -0.212 NA
ATOM     14  C   UNL d   1      10.789   2.390 -15.129  0.00  0.00     0.021 A 
ATOM     15  C   UNL d   1      10.538   3.265 -14.041  0.00  0.00     0.028 A 
ATOM     16  O   UNL d   1       9.137   4.452 -12.546  0.00  0.00    -0.327 OA
ENDBRANCH   2   3
ENDBRANCH   1   2
BRANCH   1  17
ATOM     17  C   UNL d   1       9.978   5.329  -9.611  0.00  0.00     0.291 C 
BRANCH  17  18
ATOM     18  C   UNL d   1      10.485   6.544  -8.808  0.00  0.00     0.041 C 
ATOM     19  C   UNL d   1      10.686   6.203  -7.307  0.00  0.00     0.030 C 
ATOM     20  C   UNL d   1      10.838   7.445  -6.449  0.00  0.00    -0.007 A 
ATOM     21  C   UNL d   1      10.516   8.679  -6.935  0.00  0.00     0.055 A 
ATOM     22  C   UNL d   1      11.305   7.670  -5.105  0.00  0.00     0.017 A 
ATOM     23  C   UNL d   1      10.030   9.016  -8.278  0.00  0.00     0.046 C 
ATOM     24  N   UNL d   1      10.738   9.634  -6.001  0.00  0.00    -0.250 NA
ATOM     25  C   UNL d   1       9.637   7.802  -9.071  0.00  0.00     0.009 C 
ATOM     26  C   UNL d   1      11.227   9.089  -4.839  0.00  0.00     0.081 A 
ATOM     27  C   UNL d   1      11.592   9.663  -3.615  0.00  0.00     0.021 A 
ATOM     28  C   UNL d   1      12.097   8.846  -2.598  0.00  0.00     0.031 A 
ATOM     29  C   UNL d   1      12.197   7.455  -2.818  0.00  0.00     0.140 A 
ATOM     30  F   UNL d   1      12.665   6.628  -1.857  0.00  0.00    -0.204 F 
ATOM     31  C   UNL d   1      11.793   6.890  -4.045  0.00  0.00     0.031 A 
ENDBRANCH  17  18
ENDBRANCH   1  17
TORSDOF 4
