REMARK  4 active torsions:
REMARK  status: ('A' for Active; 'I' for Inactive)
REMARK    1  A    between atoms: S_2  and  C_4 
REMARK    2  A    between atoms: S_2  and  C_20 
REMARK    3  A    between atoms: C_7  and  C_8 
REMARK    4  A    between atoms: C_9  and  C_10 
ROOT
ATOM      1  C   UNL d   1       9.103   5.971 -11.115  0.00  0.00     0.107 A 
ATOM      2  C   UNL d   1       8.740   4.995 -10.169  0.00  0.00     0.015 A 
ATOM      3  C   UNL d   1       9.106   5.212  -8.839  0.00  0.00     0.020 A 
ATOM      4  C   UNL d   1       9.877   6.346  -8.512  0.00  0.00     0.082 A 
ATOM      5  N   UNL d   1      10.268   7.258  -9.431  0.00  0.00    -0.243 NA
ATOM      6  C   UNL d   1       9.857   7.088 -10.707  0.00  0.00     0.110 A 
ENDROOT
BRANCH   1   7
ATOM      7  S   UNL d   1       8.624   5.824 -12.825  0.00  0.00     0.214 S 
ATOM      8  O   UNL d   1       7.813   7.019 -13.098  0.00  0.00    -0.217 OA
ATOM      9  O   UNL d   1       9.847   5.546 -13.553  0.00  0.00    -0.217 OA
BRANCH   7  10
ATOM     10  C   UNL d   1       7.507   4.440 -13.010  0.00  0.00     0.115 C 
ATOM     11  C   UNL d   1       7.692   3.445 -14.006  0.00  0.00     0.151 C 
ATOM     12  C   UNL d   1       6.808   2.337 -14.067  0.00  0.00     0.030 C 
ATOM     13  F   UNL d   1       8.729   3.502 -14.877  0.00  0.00    -0.203 F 
ATOM     14  C   UNL d   1       5.800   2.217 -13.105  0.00  0.00     0.002 C 
ATOM     15  C   UNL d   1       5.631   3.223 -12.129  0.00  0.00     0.001 C 
ATOM     16  C   UNL d   1       6.414   4.360 -12.129  0.00  0.00     0.014 C 
ENDBRANCH   7  10
ENDBRANCH   1   7
BRANCH   4  17
ATOM     17  C   UNL d   1      10.265   6.511  -7.117  0.00  0.00     0.019 C 
ATOM     18  C   UNL d   1      10.925   7.563  -6.620  0.00  0.00     0.004 C 
BRANCH  18  19
ATOM     19  C   UNL d   1      11.345   7.731  -5.223  0.00  0.00     0.028 A 
ATOM     20  C   UNL d   1      11.578   9.033  -4.740  0.00  0.00     0.142 A 
ATOM     21  C   UNL d   1      11.962   9.235  -3.404  0.00  0.00     0.059 A 
ATOM     22  F   UNL d   1      11.425  10.100  -5.564  0.00  0.00    -0.204 F 
ATOM     23  C   UNL d   1      12.120   8.138  -2.538  0.00  0.00     0.142 A 
ATOM     24  C   UNL d   1      11.863   6.837  -2.997  0.00  0.00     0.030 A 
ATOM     25  F   UNL d   1      12.511   8.351  -1.261  0.00  0.00    -0.204 F 
ATOM     26  C   UNL d   1      11.467   6.637  -4.336  0.00  0.00     0.004 A 
ENDBRANCH  18  19
ENDBRANCH   4  17
TORSDOF 4
