REMARK  9 active torsions:
REMARK  status: ('A' for Active; 'I' for Inactive)
REMARK    1  A    between atoms: C_2  and  C_4 
REMARK    2  A    between atoms: C_9  and  O_10 
REMARK    3  A    between atoms: O_10  and  C_11 
REMARK    4  A    between atoms: C_11  and  C_12 
REMARK    5  A    between atoms: C_12  and  C_13 
REMARK    6  A    between atoms: C_13  and  N_14 
REMARK    7  A    between atoms: C_17  and  C_18 
REMARK    8  A    between atoms: N_20  and  S_21 
REMARK    9  A    between atoms: S_21  and  C_24 
ROOT
ATOM      1  N   UNL d   1       9.399   5.731 -10.306  0.00  0.00     0.142 N 
ATOM      2  C   UNL d   1       8.128   5.079 -10.578  0.00  0.00     0.276 C 
ATOM      3  C   UNL d   1       8.096   4.392 -11.931  0.00  0.00     0.005 C 
ATOM      4  C   UNL d   1       8.993   4.571 -12.911  0.00  0.00    -0.021 C 
ATOM      5  C   UNL d   1      10.088   5.595 -12.674  0.00  0.00     0.061 C 
ATOM      6  C   UNL d   1       9.769   6.528 -11.469  0.00  0.00     0.255 C 
ENDROOT
BRANCH   4   7
ATOM      7  C   UNL d   1       8.988   3.798 -14.181  0.00  0.00     0.015 A 
ATOM      8  C   UNL d   1       8.053   2.775 -14.604  0.00  0.00     0.018 A 
ATOM      9  C   UNL d   1       8.486   2.346 -15.912  0.00  0.00     0.075 A 
ATOM     10  C   UNL d   1       6.871   2.161 -14.091  0.00  0.00     0.002 A 
ATOM     11  N   UNL d   1       9.626   3.091 -16.221  0.00  0.00    -0.231 N 
ATOM     12  C   UNL d   1       7.765   1.365 -16.635  0.00  0.00     0.018 A 
ATOM     13  C   UNL d   1       9.927   3.946 -15.168  0.00  0.00     0.091 A 
ATOM     14  C   UNL d   1       6.629   0.758 -16.072  0.00  0.00     0.002 A 
ATOM     15  C   UNL d   1       6.196   1.158 -14.798  0.00  0.00     0.000 A 
BRANCH  11  16
ATOM     16  S   UNL d   1      10.582   3.047 -17.670  0.00  0.00     0.271 S 
ATOM     17  O   UNL d   1      11.983   3.061 -17.192  0.00  0.00    -0.200 OA
ATOM     18  O   UNL d   1      10.078   1.964 -18.523  0.00  0.00    -0.200 OA
BRANCH  16  19
ATOM     19  C   UNL d   1      10.203   4.602 -18.461  0.00  0.00     0.104 A 
ATOM     20  C   UNL d   1      11.050   5.702 -18.247  0.00  0.00     0.013 A 
ATOM     21  C   UNL d   1      10.773   6.925 -18.884  0.00  0.00     0.001 A 
ATOM     22  C   UNL d   1       9.643   7.049 -19.715  0.00  0.00     0.000 A 
ATOM     23  C   UNL d   1       8.789   5.947 -19.922  0.00  0.00     0.001 A 
ATOM     24  C   UNL d   1       9.066   4.715 -19.296  0.00  0.00     0.013 A 
ENDBRANCH  16  19
ENDBRANCH  11  16
ENDBRANCH   4   7
BRANCH   1  25
ATOM     25  C   UNL d   1       9.211   6.575  -9.136  0.00  0.00     0.253 C 
BRANCH  25  26
ATOM     26  C   UNL d   1       9.174   5.763  -7.843  0.00  0.00     0.068 C 
BRANCH  26  27
ATOM     27  C   UNL d   1       9.015   6.643  -6.603  0.00  0.00     0.151 C 
BRANCH  27  28
ATOM     28  O   UNL d   1      10.123   7.543  -6.584  0.00  0.00    -0.331 OA
BRANCH  28  29
ATOM     29  C   UNL d   1      10.949   7.709  -5.485  0.00  0.00     0.099 A 
ATOM     30  C   UNL d   1      11.711   8.902  -5.379  0.00  0.00     0.082 A 
ATOM     31  C   UNL d   1      12.532   9.102  -4.242  0.00  0.00     0.007 A 
ATOM     32  C   UNL d   1      12.624   8.141  -3.226  0.00  0.00     0.000 A 
ATOM     33  C   UNL d   1      11.908   6.948  -3.350  0.00  0.00     0.002 A 
ATOM     34  C   UNL d   1      11.104   6.728  -4.485  0.00  0.00     0.024 A 
BRANCH  30  35
ATOM     35  C   UNL d   1      11.667   9.970  -6.433  0.00  0.00     0.299 C 
ATOM     36  N   UNL d   1      11.461   9.560  -7.689  0.00  0.00    -0.102 N 
ATOM     37  O   UNL d   1      11.872  11.146  -6.175  0.00  0.00    -0.264 OA
ENDBRANCH  30  35
ENDBRANCH  28  29
ENDBRANCH  27  28
ENDBRANCH  26  27
ENDBRANCH  25  26
ENDBRANCH   1  25
TORSDOF 9
