REMARK  11 active torsions:
REMARK  status: ('A' for Active; 'I' for Inactive)
REMARK    1  A    between atoms: C_2  and  C_3 
REMARK       I    between atoms: C_2  and  N_27 
REMARK    2  A    between atoms: C_3  and  C_4 
REMARK    3  A    between atoms: C_4  and  O_5 
REMARK    4  A    between atoms: O_5  and  C_6 
REMARK    5  A    between atoms: C_6  and  C_7 
REMARK    6  A    between atoms: C_7  and  N_8 
REMARK    7  A    between atoms: N_11  and  C_12 
REMARK    8  A    between atoms: C_17  and  C_18 
REMARK    9  A    between atoms: N_27  and  C_28 
REMARK   10  A    between atoms: C_28  and  C_29 
REMARK   11  A    between atoms: C_32  and  C_33 
ROOT
ATOM      1  N   UNL d   1       9.538   2.669 -14.142  0.00  0.00     0.144 N 
ATOM      2  C   UNL d   1      10.483   2.060 -15.086  0.00  0.00     0.274 C 
ATOM      3  C   UNL d   1      10.023   0.663 -15.547  0.00  0.00     0.137 C 
ATOM      4  N   UNL d   1       8.672   0.779 -16.097  0.00  0.00    -0.343 N 
ATOM      5  C   UNL d   1       7.716   1.484 -15.235  0.00  0.00     0.137 C 
ATOM      6  C   UNL d   1       8.239   2.819 -14.790  0.00  0.00     0.274 C 
ENDROOT
BRANCH   1   7
ATOM      7  C   UNL d   1      10.012   3.964 -13.689  0.00  0.00     0.282 C 
BRANCH   7   8
ATOM      8  C   UNL d   1       9.249   4.480 -12.460  0.00  0.00     0.178 C 
BRANCH   8   9
ATOM      9  O   UNL d   1       9.804   5.729 -12.120  0.00  0.00    -0.352 OA
BRANCH   9  10
ATOM     10  C   UNL d   1       9.496   6.181 -10.819  0.00  0.00     0.152 C 
BRANCH  10  11
ATOM     11  C   UNL d   1      10.539   7.236 -10.399  0.00  0.00     0.122 C 
BRANCH  11  12
ATOM     12  C   UNL d   1      10.263   7.787  -9.000  0.00  0.00     0.254 C 
ATOM     13  O   UNL d   1       9.389   7.290  -8.295  0.00  0.00    -0.270 OA
ATOM     14  N   UNL d   1      11.035   8.804  -8.597  0.00  0.00    -0.233 NA
BRANCH  14  15
ATOM     15  C   UNL d   1      10.813   9.557  -7.369  0.00  0.00     0.155 C 
BRANCH  15  16
ATOM     16  C   UNL d   1      11.184   8.888  -6.058  0.00  0.00     0.002 A 
ATOM     17  C   UNL d   1      11.174   7.485  -5.918  0.00  0.00    -0.002 A 
ATOM     18  C   UNL d   1      11.491   6.883  -4.697  0.00  0.00     0.004 A 
ATOM     19  C   UNL d   1      11.861   7.669  -3.599  0.00  0.00     0.071 A 
ATOM     20  C   UNL d   1      11.869   9.077  -3.723  0.00  0.00     0.004 A 
ATOM     21  C   UNL d   1      11.518   9.685  -4.944  0.00  0.00    -0.002 A 
BRANCH  19  22
ATOM     22  C   UNL d   1      12.154   6.981  -2.294  0.00  0.00     0.419 C 
ATOM     23  F   UNL d   1      11.037   6.472  -1.817  0.00  0.00    -0.166 F 
ATOM     24  F   UNL d   1      13.060   6.007  -2.433  0.00  0.00    -0.166 F 
ATOM     25  F   UNL d   1      12.563   7.893  -1.418  0.00  0.00    -0.166 F 
ENDBRANCH  19  22
ENDBRANCH  15  16
ENDBRANCH  14  15
ENDBRANCH  11  12
ENDBRANCH  10  11
ENDBRANCH   9  10
ENDBRANCH   8   9
ENDBRANCH   7   8
ENDBRANCH   1   7
BRANCH   4  26
ATOM     26  C   UNL d   1       8.318   0.220 -17.339  0.00  0.00     0.074 A 
ATOM     27  C   UNL d   1       7.059  -0.409 -17.601  0.00  0.00     0.097 A 
ATOM     28  N   UNL d   1       6.742  -0.853 -18.842  0.00  0.00    -0.243 NA
ATOM     29  C   UNL d   1       7.629  -0.756 -19.846  0.00  0.00     0.099 A 
ATOM     30  C   UNL d   1       8.911  -0.218 -19.675  0.00  0.00     0.022 A 
ATOM     31  C   UNL d   1       9.257   0.272 -18.403  0.00  0.00     0.020 A 
BRANCH  27  32
ATOM     32  C   UNL d   1       5.997  -0.689 -16.600  0.00  0.00     0.019 C 
ATOM     33  C   UNL d   1       4.641  -0.850 -16.970  0.00  0.00     0.004 C 
ATOM     34  C   UNL d   1       3.652  -1.054 -15.982  0.00  0.00     0.030 C 
ATOM     35  C   UNL d   1       3.965  -1.012 -14.609  0.00  0.00     0.140 C 
ATOM     36  C   UNL d   1       5.304  -0.845 -14.233  0.00  0.00     0.030 C 
ATOM     37  F   UNL d   1       3.017  -1.192 -13.660  0.00  0.00    -0.204 F 
ATOM     38  C   UNL d   1       6.286  -0.806 -15.222  0.00  0.00     0.004 C 
ENDBRANCH  27  32
ENDBRANCH   4  26
TORSDOF 11
