REMARK  9 active torsions:
REMARK  status: ('A' for Active; 'I' for Inactive)
REMARK    1  A    between atoms: O_2  and  C_3 
REMARK    2  A    between atoms: C_9  and  C_10 
REMARK    3  A    between atoms: C_12  and  C_13 
REMARK    4  A    between atoms: C_13  and  N_14 
REMARK    5  A    between atoms: N_14  and  C_15 
REMARK    6  A    between atoms: C_15  and  C_16 
REMARK    7  A    between atoms: C_16  and  C_17 
REMARK    8  A    between atoms: N_20  and  C_21 
REMARK    9  A    between atoms: C_21  and  C_22 
ROOT
ATOM      1  C   UNL d   1       7.567   4.500 -12.861  0.00  0.00     0.338 C 
ENDROOT
BRANCH   1   2
ATOM      2  C   UNL d   1       8.456   3.622 -13.708  0.00  0.00     0.122 A 
ATOM      3  N   UNL d   1       7.925   2.766 -14.661  0.00  0.00    -0.222 NA
ATOM      4  C   UNL d   1       8.976   2.150 -15.209  0.00  0.00     0.184 A 
ATOM      5  O   UNL d   1      10.156   2.549 -14.676  0.00  0.00    -0.286 OA
ATOM      6  C   UNL d   1       9.824   3.469 -13.735  0.00  0.00     0.141 A 
BRANCH   4   7
ATOM      7  C   UNL d   1       9.052   1.160 -16.273  0.00  0.00     0.064 A 
ATOM      8  C   UNL d   1       7.900   0.467 -16.721  0.00  0.00     0.098 A 
ATOM      9  C   UNL d   1       8.053  -0.486 -17.754  0.00  0.00     0.025 A 
ATOM     10  C   UNL d   1       9.315  -0.751 -18.318  0.00  0.00     0.009 A 
ATOM     11  C   UNL d   1      10.450  -0.062 -17.864  0.00  0.00     0.035 A 
ATOM     12 BR   UNL d   1      12.149  -0.409 -18.645  0.00  0.00    -0.049 Br
ATOM     13  C   UNL d   1      10.319   0.888 -16.841  0.00  0.00     0.012 A 
BRANCH   8  14
ATOM     14  O   UNL d   1       6.688   0.749 -16.125  0.00  0.00    -0.328 OA
ATOM     15  C   UNL d   1       5.543   0.022 -16.534  0.00  0.00     0.181 C 
ENDBRANCH   8  14
ENDBRANCH   4   7
ENDBRANCH   1   2
BRANCH   1  16
ATOM     16  N   UNL d   1       8.044   5.801 -12.412  0.00  0.00     0.346 N 
BRANCH  16  17
ATOM     17  C   UNL d   1       9.124   5.598 -11.462  0.00  0.00     0.291 C 
BRANCH  17  18
ATOM     18  C   UNL d   1       9.536   6.942 -10.864  0.00  0.00     0.040 C 
BRANCH  18  19
ATOM     19  C   UNL d   1      10.490   6.784  -9.677  0.00  0.00     0.037 C 
ATOM     20  C   UNL d   1      10.727   8.108  -8.944  0.00  0.00     0.251 C 
ATOM     21  N   UNL d   1      10.912   7.679  -7.560  0.00  0.00     0.141 N 
ATOM     22  C   UNL d   1       9.835   6.713  -7.360  0.00  0.00     0.251 C 
ATOM     23  C   UNL d   1       9.943   5.849  -8.591  0.00  0.00     0.037 C 
BRANCH  21  24
ATOM     24  C   UNL d   1      10.837   8.814  -6.641  0.00  0.00     0.277 C 
BRANCH  24  25
ATOM     25  C   UNL d   1      11.302   8.500  -5.221  0.00  0.00     0.011 A 
ATOM     26  C   UNL d   1      11.512   7.174  -4.768  0.00  0.00    -0.002 A 
ATOM     27  C   UNL d   1      11.906   6.923  -3.448  0.00  0.00    -0.000 A 
ATOM     28  C   UNL d   1      12.171   7.984  -2.559  0.00  0.00    -0.000 A 
ATOM     29  C   UNL d   1      12.002   9.314  -3.010  0.00  0.00    -0.000 A 
ATOM     30  C   UNL d   1      11.552   9.575  -4.322  0.00  0.00    -0.002 A 
ENDBRANCH  24  25
ENDBRANCH  21  24
ENDBRANCH  18  19
ENDBRANCH  17  18
ENDBRANCH  16  17
ENDBRANCH   1  16
TORSDOF 9
