REMARK  7 active torsions:
REMARK  status: ('A' for Active; 'I' for Inactive)
REMARK    1  A    between atoms: C_2  and  N_3 
REMARK    2  A    between atoms: C_7  and  C_8 
REMARK    3  A    between atoms: C_8  and  N_9 
REMARK       I    between atoms: N_9  and  C_10 
REMARK    4  A    between atoms: C_10  and  C_12 
REMARK    5  A    between atoms: C_14  and  S_15 
REMARK    6  A    between atoms: S_15  and  C_18 
REMARK    7  A    between atoms: C_23  and  O_24 
ROOT
ATOM      1  C   UNL d   1       8.132   4.733 -13.377  0.00  0.00     0.081 A 
ATOM      2  C   UNL d   1       7.151   3.715 -13.387  0.00  0.00     0.019 A 
ATOM      3  C   UNL d   1       7.395   2.502 -14.063  0.00  0.00     0.097 A 
ATOM      4  C   UNL d   1       8.606   2.310 -14.756  0.00  0.00     0.082 A 
ATOM      5  N   UNL d   1       8.888   1.118 -15.417  0.00  0.00    -0.100 NA
ATOM      6  C   UNL d   1       9.576   3.334 -14.776  0.00  0.00     0.039 A 
ATOM      7  C   UNL d   1       9.349   4.548 -14.072  0.00  0.00     0.100 A 
ENDROOT
BRANCH   1   8
ATOM      8  C   UNL d   1       7.851   5.980 -12.577  0.00  0.00     0.277 C 
ATOM      9  N   UNL d   1       7.843   5.853 -11.253  0.00  0.00    -0.232 NA
ATOM     10  O   UNL d   1       7.562   7.037 -13.121  0.00  0.00    -0.266 OA
BRANCH   9  11
ATOM     11  C   UNL d   1       8.561   4.883 -10.461  0.00  0.00     0.162 C 
BRANCH  11  12
ATOM     12  C   UNL d   1       9.755   5.533  -9.757  0.00  0.00     0.243 C 
ATOM     13  N   UNL d   1       9.535   6.845  -9.166  0.00  0.00     0.137 N 
ATOM     14  C   UNL d   1      10.654   6.991  -8.242  0.00  0.00     0.250 C 
ATOM     15  C   UNL d   1      10.760   5.633  -7.577  0.00  0.00     0.037 C 
ATOM     16  C   UNL d   1      10.157   4.668  -8.588  0.00  0.00     0.037 C 
BRANCH  13  17
ATOM     17  C   UNL d   1       9.562   7.920 -10.155  0.00  0.00     0.250 C 
ATOM     18  C   UNL d   1       9.363   9.276  -9.467  0.00  0.00     0.037 C 
ENDBRANCH  13  17
ENDBRANCH  11  12
ENDBRANCH   9  11
ENDBRANCH   1   8
BRANCH   7  19
ATOM     19  O   UNL d   1      10.321   5.528 -13.993  0.00  0.00    -0.328 OA
ATOM     20  C   UNL d   1      11.312   5.579 -15.012  0.00  0.00     0.181 C 
ENDBRANCH   7  19
BRANCH   3  21
ATOM     21  S   UNL d   1       6.120   1.242 -14.027  0.00  0.00     0.191 S 
ATOM     22  O   UNL d   1       5.035   1.766 -13.203  0.00  0.00    -0.222 OA
ATOM     23  O   UNL d   1       5.856   0.778 -15.400  0.00  0.00    -0.222 OA
BRANCH  21  24
ATOM     24  C   UNL d   1       6.798  -0.147 -13.075  0.00  0.00     0.127 C 
ATOM     25  C   UNL d   1       6.283  -1.462 -13.636  0.00  0.00     0.018 C 
ENDBRANCH  21  24
ENDBRANCH   3  21
TORSDOF 7
