REMARK  8 active torsions:
REMARK  status: ('A' for Active; 'I' for Inactive)
REMARK    1  A    between atoms: S_2  and  N_5 
REMARK    2  A    between atoms: N_5  and  C_6 
REMARK    3  A    between atoms: C_10  and  O_11 
REMARK    4  A    between atoms: O_11  and  C_12 
REMARK    5  A    between atoms: C_12  and  C_13 
REMARK    6  A    between atoms: C_13  and  N_14 
REMARK    7  A    between atoms: C_17  and  O_18 
REMARK    8  A    between atoms: O_18  and  C_19 
ROOT
ATOM      1  N   UNL d   1       8.129   2.445 -15.152  0.00  0.00     0.140 N 
ATOM      2  C   UNL d   1       9.403   2.242 -14.469  0.00  0.00     0.253 C 
ATOM      3  C   UNL d   1       9.929   3.578 -13.908  0.00  0.00     0.066 C 
ATOM      4  C   UNL d   1       8.928   4.162 -12.912  0.00  0.00     0.125 C 
ATOM      5  C   UNL d   1       7.542   4.272 -13.575  0.00  0.00     0.066 C 
ATOM      6  C   UNL d   1       7.115   2.926 -14.201  0.00  0.00     0.253 C 
ENDROOT
BRANCH   1   7
ATOM      7  C   UNL d   1       7.695   1.193 -15.775  0.00  0.00     0.283 C 
BRANCH   7   8
ATOM      8  C   UNL d   1       6.831   1.500 -17.012  0.00  0.00     0.184 C 
BRANCH   8   9
ATOM      9  O   UNL d   1       5.845   0.478 -17.182  0.00  0.00    -0.329 OA
BRANCH   9  10
ATOM     10  C   UNL d   1       6.230  -0.723 -17.748  0.00  0.00     0.096 A 
ATOM     11  C   UNL d   1       7.263  -0.819 -18.712  0.00  0.00     0.024 A 
ATOM     12  C   UNL d   1       7.627  -2.063 -19.249  0.00  0.00     0.004 A 
ATOM     13  C   UNL d   1       6.963  -3.232 -18.837  0.00  0.00     0.020 A 
ATOM     14  C   UNL d   1       5.911  -3.162 -17.896  0.00  0.00     0.096 A 
ATOM     15  C   UNL d   1       5.548  -1.903 -17.362  0.00  0.00     0.044 A 
BRANCH  14  16
ATOM     16  N   UNL d   1       5.222  -4.307 -17.475  0.00  0.00    -0.162 NA
BRANCH  16  17
ATOM     17  S   UNL d   1       5.769  -5.956 -17.464  0.00  0.00     0.266 S 
ATOM     18  C   UNL d   1       4.255  -6.878 -17.026  0.00  0.00     0.165 C 
ATOM     19  O   UNL d   1       6.737  -6.072 -16.362  0.00  0.00    -0.203 OA
ATOM     20  O   UNL d   1       6.146  -6.296 -18.843  0.00  0.00    -0.203 OA
ENDBRANCH  16  17
ENDBRANCH  14  16
ENDBRANCH   9  10
ENDBRANCH   8   9
ENDBRANCH   7   8
ENDBRANCH   1   7
BRANCH   4  21
ATOM     21  O   UNL d   1       9.402   5.427 -12.435  0.00  0.00    -0.333 OA
BRANCH  21  22
ATOM     22  C   UNL d   1       9.308   5.724 -11.088  0.00  0.00     0.095 A 
ATOM     23  C   UNL d   1       9.959   6.874 -10.573  0.00  0.00     0.043 A 
ATOM     24  C   UNL d   1       9.965   7.142  -9.188  0.00  0.00     0.082 A 
ATOM     25  C   UNL d   1       9.319   6.249  -8.315  0.00  0.00    -0.004 A 
ATOM     26  N   UNL d   1      10.627   8.294  -8.667  0.00  0.00    -0.212 NA
ATOM     27  C   UNL d   1       8.653   5.118  -8.817  0.00  0.00    -0.001 A 
ATOM     28  C   UNL d   1       9.341   6.522  -6.832  0.00  0.00     0.038 C 
ATOM     29  C   UNL d   1       8.611   4.880 -10.194  0.00  0.00     0.024 A 
ATOM     30  C   UNL d   1       9.415   8.028  -6.536  0.00  0.00     0.095 C 
ATOM     31  C   UNL d   1      10.452   8.742  -7.409  0.00  0.00     0.256 C 
ATOM     32  O   UNL d   1      11.080   9.696  -6.949  0.00  0.00    -0.270 OA
ENDBRANCH  21  22
ENDBRANCH   4  21
TORSDOF 8
