REMARK  8 active torsions:
REMARK  status: ('A' for Active; 'I' for Inactive)
REMARK    1  A    between atoms: C_2  and  C_3 
REMARK    2  A    between atoms: C_3  and  S_4 
REMARK    3  A    between atoms: S_4  and  N_7 
REMARK    4  A    between atoms: N_7  and  C_8 
REMARK    5  A    between atoms: C_11  and  C_12 
REMARK    6  A    between atoms: C_12  and  C_13 
REMARK    7  A    between atoms: C_13  and  N_14 
REMARK    8  A    between atoms: N_17  and  C_18 
ROOT
ATOM      1  N   UNL d   1       8.170   4.994 -11.895  0.00  0.00     0.141 N 
ATOM      2  C   UNL d   1       6.868   4.315 -11.882  0.00  0.00     0.274 C 
ATOM      3  C   UNL d   1       6.408   3.987 -13.313  0.00  0.00     0.138 C 
ATOM      4  N   UNL d   1       7.425   3.231 -14.027  0.00  0.00    -0.329 N 
ATOM      5  C   UNL d   1       8.759   3.817 -13.973  0.00  0.00     0.138 C 
ATOM      6  C   UNL d   1       9.166   4.128 -12.529  0.00  0.00     0.274 C 
ENDROOT
BRANCH   1   7
ATOM      7  C   UNL d   1       8.560   5.322 -10.528  0.00  0.00     0.250 C 
BRANCH   7   8
ATOM      8  C   UNL d   1       9.652   6.412 -10.494  0.00  0.00     0.035 C 
BRANCH   8   9
ATOM      9  C   UNL d   1       9.653   7.219  -9.193  0.00  0.00     0.002 C 
ATOM     10  C   UNL d   1       9.908   6.346  -7.950  0.00  0.00     0.002 C 
ATOM     11  C   UNL d   1       9.883   7.202  -6.681  0.00  0.00     0.025 C 
ATOM     12  C   UNL d   1      10.920   8.337  -6.779  0.00  0.00     0.116 C 
ATOM     13  C   UNL d   1      10.684   9.189  -8.019  0.00  0.00     0.025 C 
ATOM     14  C   UNL d   1      10.707   8.343  -9.290  0.00  0.00     0.002 C 
BRANCH  12  15
ATOM     15  N   UNL d   1      10.824   9.203  -5.612  0.00  0.00    -0.190 NA
BRANCH  15  16
ATOM     16  S   UNL d   1      11.930   9.080  -4.317  0.00  0.00     0.261 S 
ATOM     17  O   UNL d   1      11.351   9.884  -3.234  0.00  0.00    -0.203 OA
ATOM     18  O   UNL d   1      13.254   9.434  -4.827  0.00  0.00    -0.203 OA
BRANCH  16  19
ATOM     19  C   UNL d   1      11.892   7.258  -3.883  0.00  0.00     0.146 C 
BRANCH  19  20
ATOM     20  C   UNL d   1      12.662   6.897  -2.603  0.00  0.00     0.019 C 
ATOM     21  C   UNL d   1      12.569   7.928  -1.476  0.00  0.00     0.001 C 
ENDBRANCH  19  20
ENDBRANCH  16  19
ENDBRANCH  15  16
ENDBRANCH  12  15
ENDBRANCH   8   9
ENDBRANCH   7   8
ENDBRANCH   1   7
BRANCH   4  22
ATOM     22  C   UNL d   1       7.146   1.995 -14.664  0.00  0.00     0.148 A 
ATOM     23  C   UNL d   1       7.795   1.577 -15.891  0.00  0.00     0.042 A 
ATOM     24  C   UNL d   1       7.258   0.326 -16.305  0.00  0.00     0.050 A 
ATOM     25  C   UNL d   1       8.786   2.152 -16.740  0.00  0.00     0.004 A 
ATOM     26  S   UNL d   1       6.046  -0.155 -15.132  0.00  0.00     0.015 SA
ATOM     27  C   UNL d   1       7.686  -0.330 -17.475  0.00  0.00     0.008 A 
ATOM     28  N   UNL d   1       6.219   1.198 -14.164  0.00  0.00    -0.192 NA
ATOM     29  C   UNL d   1       8.688   0.260 -18.272  0.00  0.00     0.001 A 
ATOM     30  C   UNL d   1       9.234   1.498 -17.899  0.00  0.00     0.000 A 
ENDBRANCH   4  22
TORSDOF 8
