REMARK  11 active torsions:
REMARK  status: ('A' for Active; 'I' for Inactive)
REMARK       I    between atoms: C_2  and  N_3 
REMARK    1  A    between atoms: C_2  and  C_13 
REMARK    2  A    between atoms: N_3  and  C_4 
REMARK    3  A    between atoms: C_4  and  C_5 
REMARK    4  A    between atoms: C_5  and  C_6 
REMARK    5  A    between atoms: C_6  and  C_7 
REMARK    6  A    between atoms: C_24  and  C_25 
REMARK    7  A    between atoms: C_25  and  N_26 
REMARK    8  A    between atoms: N_26  and  C_27 
REMARK    9  A    between atoms: C_27  and  C_28 
REMARK   10  A    between atoms: C_28  and  C_29 
REMARK   11  A    between atoms: C_29  and  C_30 
ROOT
ATOM      1  C   UNL d   1       8.849   6.350 -12.031  0.00  0.00     0.139 A 
ATOM      2  C   UNL d   1       9.206   5.389 -12.969  0.00  0.00     0.028 A 
ATOM      3  C   UNL d   1       8.081   4.456 -13.105  0.00  0.00     0.044 A 
ATOM      4  C   UNL d   1       7.755   3.236 -13.827  0.00  0.00     0.118 A 
ATOM      5  C   UNL d   1       6.457   2.717 -13.713  0.00  0.00     0.116 A 
ATOM      6  C   UNL d   1       5.495   3.274 -12.842  0.00  0.00     0.028 A 
ATOM      7  C   UNL d   1       5.807   4.410 -12.075  0.00  0.00     0.021 A 
ATOM      8  C   UNL d   1       7.053   4.975 -12.241  0.00  0.00     0.084 A 
ATOM      9  N   UNL d   1       7.569   6.095 -11.628  0.00  0.00    -0.241 NA
ATOM     10  O   UNL d   1       6.043   1.592 -14.374  0.00  0.00    -0.326 OA
ATOM     11  C   UNL d   1       6.798   1.264 -15.524  0.00  0.00     0.181 C 
ATOM     12  C   UNL d   1       8.303   1.326 -15.156  0.00  0.00     0.188 C 
ATOM     13  O   UNL d   1       8.721   2.592 -14.580  0.00  0.00    -0.327 OA
ENDROOT
BRANCH   1  14
ATOM     14  C   UNL d   1       9.441   7.543 -11.448  0.00  0.00     0.293 C 
ATOM     15  O   UNL d   1       9.147   8.653 -11.878  0.00  0.00    -0.264 OA
ATOM     16  N   UNL d   1      10.267   7.338 -10.394  0.00  0.00    -0.233 NA
BRANCH  16  17
ATOM     17  C   UNL d   1      11.056   8.383  -9.707  0.00  0.00     0.129 C 
BRANCH  17  18
ATOM     18  C   UNL d   1      10.552   8.714  -8.308  0.00  0.00     0.031 C 
BRANCH  18  19
ATOM     19  C   UNL d   1      10.628   7.540  -7.293  0.00  0.00     0.028 C 
BRANCH  19  20
ATOM     20  C   UNL d   1      11.036   7.924  -5.869  0.00  0.00    -0.022 A 
ATOM     21  C   UNL d   1      11.454   6.909  -4.973  0.00  0.00    -0.004 A 
ATOM     22  C   UNL d   1      11.863   7.226  -3.660  0.00  0.00    -0.000 A 
ATOM     23  C   UNL d   1      11.880   8.571  -3.231  0.00  0.00    -0.000 A 
ATOM     24  C   UNL d   1      11.458   9.579  -4.116  0.00  0.00    -0.000 A 
ATOM     25  C   UNL d   1      11.021   9.265  -5.416  0.00  0.00    -0.004 A 
ENDBRANCH  19  20
ENDBRANCH  18  19
ENDBRANCH  17  18
ENDBRANCH  16  17
ENDBRANCH   1  14
BRANCH  12  26
ATOM     26  C   UNL d   1       9.119   0.957 -16.411  0.00  0.00     0.323 C 
BRANCH  26  27
ATOM     27  N   UNL d   1       8.947   1.881 -17.534  0.00  0.00     0.342 N 
BRANCH  27  28
ATOM     28  C   UNL d   1       9.494   3.194 -17.204  0.00  0.00     0.291 C 
BRANCH  28  29
ATOM     29  C   UNL d   1       9.385   4.147 -18.391  0.00  0.00     0.043 C 
BRANCH  29  30
ATOM     30  C   UNL d   1       9.739   5.564 -17.919  0.00  0.00     0.029 C 
BRANCH  30  31
ATOM     31  C   UNL d   1       9.701   6.551 -19.060  0.00  0.00    -0.022 A 
ATOM     32  C   UNL d   1      10.884   7.199 -19.468  0.00  0.00    -0.004 A 
ATOM     33  C   UNL d   1      10.854   8.092 -20.553  0.00  0.00    -0.000 A 
ATOM     34  C   UNL d   1       9.648   8.334 -21.238  0.00  0.00    -0.000 A 
ATOM     35  C   UNL d   1       8.466   7.682 -20.836  0.00  0.00    -0.000 A 
ATOM     36  C   UNL d   1       8.491   6.794 -19.744  0.00  0.00    -0.004 A 
ENDBRANCH  30  31
ENDBRANCH  29  30
ENDBRANCH  28  29
ENDBRANCH  27  28
ENDBRANCH  26  27
ENDBRANCH  12  26
TORSDOF 11
