REMARK  1 active torsions:
REMARK  status: ('A' for Active; 'I' for Inactive)
REMARK    1  A    between atoms: S_2  and  C_5 
ROOT
ATOM      1  C   UNL d   1      10.227   7.443  -9.192  0.00  0.00     0.118 A 
ATOM      2  C   UNL d   1       9.961   7.294 -10.578  0.00  0.00     0.028 A 
ATOM      3  C   UNL d   1       9.101   6.282 -11.014  0.00  0.00     0.123 A 
ATOM      4  C   UNL d   1       8.501   5.428 -10.081  0.00  0.00     0.091 A 
ATOM      5  C   UNL d   1       8.756   5.581  -8.706  0.00  0.00     0.032 A 
ATOM      6  C   UNL d   1       9.613   6.585  -8.253  0.00  0.00     0.071 A 
ATOM      7 CL   UNL d   1       9.879   6.736  -6.550  0.00  0.00    -0.082 Cl
ATOM      8  N   UNL d   1       7.673   4.400 -10.479  0.00  0.00    -0.243 NA
ATOM      9  C   UNL d   1       7.062   4.239 -11.789  0.00  0.00     0.264 C 
ATOM     10  N   UNL d   1       8.106   4.446 -12.761  0.00  0.00    -0.157 NA
ATOM     11  S   UNL d   1       8.751   6.011 -12.743  0.00  0.00     0.284 S 
ATOM     12  O   UNL d   1       7.690   6.938 -13.143  0.00  0.00    -0.199 OA
ATOM     13  O   UNL d   1      10.006   5.930 -13.493  0.00  0.00    -0.199 OA
ENDROOT
BRANCH   1  14
ATOM     14  S   UNL d   1      11.348   8.744  -8.672  0.00  0.00     0.303 S 
ATOM     15  N   UNL d   1      12.887   7.981  -8.848  0.00  0.00    -0.043 N 
ATOM     16  O   UNL d   1      11.200   9.093  -7.248  0.00  0.00    -0.197 OA
ATOM     17  O   UNL d   1      11.254   9.805  -9.671  0.00  0.00    -0.197 OA
ENDBRANCH   1  14
TORSDOF 1
