REMARK  8 active torsions:
REMARK  status: ('A' for Active; 'I' for Inactive)
REMARK    1  A    between atoms: C_2  and  N_4 
REMARK    2  A    between atoms: C_5  and  C_6 
REMARK    3  A    between atoms: C_7  and  C_8 
REMARK    4  A    between atoms: C_8  and  C_10 
REMARK    5  A    between atoms: C_10  and  C_11 
REMARK    6  A    between atoms: C_11  and  C_13 
REMARK    7  A    between atoms: C_13  and  C_14 
REMARK    8  A    between atoms: C_17  and  C_18 
ROOT
ATOM      1  N   UNL d   1       7.085   2.567 -14.125  0.00  0.00    -0.329 N 
ATOM      2  C   UNL d   1       7.500   1.630 -15.086  0.00  0.00     0.060 A 
ATOM      3  C   UNL d   1       8.814   1.836 -15.436  0.00  0.00     0.017 A 
ATOM      4  C   UNL d   1       9.272   2.923 -14.611  0.00  0.00     0.017 A 
ATOM      5  C   UNL d   1      10.507   3.586 -14.444  0.00  0.00     0.002 A 
ATOM      6  C   UNL d   1      10.633   4.684 -13.576  0.00  0.00     0.000 A 
ATOM      7  C   UNL d   1       9.544   5.118 -12.795  0.00  0.00     0.002 A 
ATOM      8  C   UNL d   1       8.318   4.444 -12.894  0.00  0.00     0.017 A 
ATOM      9  C   UNL d   1       8.174   3.376 -13.806  0.00  0.00     0.060 A 
ENDROOT
BRANCH   2  10
ATOM     10  C   UNL d   1       6.616   0.639 -15.632  0.00  0.00     0.015 C 
ATOM     11  C   UNL d   1       5.764  -0.203 -15.009  0.00  0.00     0.008 C 
BRANCH  11  12
ATOM     12  C   UNL d   1       4.811  -1.197 -15.648  0.00  0.00     0.177 C 
ATOM     13  O   UNL d   1       3.517  -1.053 -15.102  0.00  0.00    -0.218 OA
BRANCH  12  14
ATOM     14  C   UNL d   1       4.746  -1.099 -17.192  0.00  0.00     0.071 C 
BRANCH  14  15
ATOM     15  C   UNL d   1       4.067  -2.291 -17.900  0.00  0.00     0.166 C 
ATOM     16  O   UNL d   1       3.875  -1.962 -19.251  0.00  0.00    -0.223 OA
BRANCH  15  17
ATOM     17  C   UNL d   1       4.851  -3.635 -17.781  0.00  0.00     0.131 C 
BRANCH  17  18
ATOM     18  C   UNL d   1       6.304  -3.679 -18.301  0.00  0.00     0.188 C 
ATOM     19  O   UNL d   1       6.866  -2.778 -18.907  0.00  0.00    -0.647 OA
ATOM     20  O   UNL d   1       6.921  -4.853 -17.994  0.00  0.00    -0.647 OA
ENDBRANCH  17  18
ENDBRANCH  15  17
ENDBRANCH  14  15
ENDBRANCH  12  14
ENDBRANCH  11  12
ENDBRANCH   2  10
BRANCH   1  21
ATOM     21  C   UNL d   1       5.736   2.695 -13.547  0.00  0.00     0.086 C 
ATOM     22  C   UNL d   1       5.123   4.094 -13.733  0.00  0.00     0.025 C 
ATOM     23  C   UNL d   1       5.657   2.209 -12.111  0.00  0.00     0.025 C 
ENDBRANCH   1  21
BRANCH   3  24
ATOM     24  C   UNL d   1       9.694   1.137 -16.413  0.00  0.00     0.002 A 
ATOM     25  C   UNL d   1       9.520  -0.241 -16.688  0.00  0.00     0.002 A 
ATOM     26  C   UNL d   1      10.367  -0.915 -17.602  0.00  0.00     0.030 A 
ATOM     27  C   UNL d   1      11.427  -0.225 -18.212  0.00  0.00     0.140 A 
ATOM     28  C   UNL d   1      11.618   1.139 -17.945  0.00  0.00     0.030 A 
ATOM     29  F   UNL d   1      12.264  -0.871 -19.062  0.00  0.00    -0.204 F 
ATOM     30  C   UNL d   1      10.731   1.828 -17.080  0.00  0.00     0.002 A 
ENDBRANCH   3  24
TORSDOF 8
