REMARK  3 active torsions:
REMARK  status: ('A' for Active; 'I' for Inactive)
REMARK    1  A    between atoms: C_5  and  C_6 
REMARK    2  A    between atoms: C_6  and  C_7 
REMARK    3  A    between atoms: C_7  and  N_8 
ROOT
ATOM      1  N   UNL d   1       9.110   4.786 -11.100  0.00  0.00     0.138 N 
ATOM      2  C   UNL d   1       8.020   5.155 -11.995  0.00  0.00     0.253 C 
ATOM      3  C   UNL d   1       8.636   5.523 -13.358  0.00  0.00     0.067 C 
ATOM      4  C   UNL d   1       9.405   4.362 -13.993  0.00  0.00     0.121 C 
ATOM      5  C   UNL d   1      10.052   4.769 -15.314  0.00  0.00     0.001 C 
ATOM      6  C   UNL d   1       9.987   4.017 -16.415  0.00  0.00    -0.000 C 
ATOM      7  C   UNL d   1       9.265   2.753 -16.364  0.00  0.00     0.024 A 
ATOM      8  C   UNL d   1       9.302   1.846 -17.451  0.00  0.00     0.032 A 
ATOM      9  C   UNL d   1       8.596   0.631 -17.378  0.00  0.00     0.140 A 
ATOM     10  F   UNL d   1       8.618  -0.239 -18.411  0.00  0.00    -0.204 F 
ATOM     11  C   UNL d   1       7.848   0.324 -16.220  0.00  0.00     0.032 A 
ATOM     12  C   UNL d   1       7.820   1.221 -15.139  0.00  0.00     0.026 A 
ATOM     13  C   UNL d   1       8.534   2.429 -15.194  0.00  0.00     0.094 A 
ATOM     14  O   UNL d   1       8.462   3.269 -14.103  0.00  0.00    -0.332 OA
ATOM     15  C   UNL d   1      10.486   3.952 -13.018  0.00  0.00     0.067 C 
ATOM     16  C   UNL d   1       9.810   3.646 -11.687  0.00  0.00     0.253 C 
ENDROOT
BRANCH   1  17
ATOM     17  C   UNL d   1       8.633   4.484  -9.744  0.00  0.00     0.255 C 
BRANCH  17  18
ATOM     18  C   UNL d   1       8.370   5.756  -8.940  0.00  0.00     0.064 C 
BRANCH  18  19
ATOM     19  C   UNL d   1       9.626   6.540  -8.628  0.00  0.00     0.007 A 
ATOM     20  C   UNL d   1      10.147   6.513  -7.307  0.00  0.00     0.000 A 
ATOM     21  C   UNL d   1      11.317   7.217  -7.003  0.00  0.00     0.029 A 
ATOM     22  C   UNL d   1      11.942   7.998  -7.999  0.00  0.00     0.142 A 
ATOM     23  F   UNL d   1      13.004   8.780  -7.718  0.00  0.00    -0.204 F 
ATOM     24  C   UNL d   1      11.450   8.001  -9.309  0.00  0.00     0.059 A 
ATOM     25  C   UNL d   1      10.280   7.314  -9.616  0.00  0.00     0.138 A 
ATOM     26  F   UNL d   1       9.795   7.446 -10.877  0.00  0.00    -0.204 F 
ENDBRANCH  18  19
ENDBRANCH  17  18
ENDBRANCH   1  17
TORSDOF 3
