REMARK  4 active torsions:
REMARK  status: ('A' for Active; 'I' for Inactive)
REMARK    1  A    between atoms: N_4  and  C_5 
REMARK    2  A    between atoms: C_5  and  C_6 
REMARK       I    between atoms: C_6  and  N_8 
REMARK    3  A    between atoms: N_19  and  C_20 
REMARK    4  A    between atoms: C_20  and  C_21 
ROOT
ATOM      1  C   UNL d   1       9.795   1.495 -14.451  0.00  0.00     0.037 C 
ATOM      2  C   UNL d   1      10.292   2.905 -14.101  0.00  0.00     0.253 C 
ATOM      3  C   UNL d   1       9.395   3.455 -12.953  0.00  0.00     0.284 C 
ATOM      4  N   UNL d   1       9.793   4.761 -12.477  0.00  0.00     0.151 N 
ATOM      5  C   UNL d   1       9.776   5.646 -13.629  0.00  0.00     0.286 C 
ATOM      6  C   UNL d   1      10.703   5.154 -14.759  0.00  0.00     0.286 C 
ATOM      7  N   UNL d   1      10.315   3.840 -15.256  0.00  0.00     0.144 N 
ENDROOT
BRANCH   4   8
ATOM      8  C   UNL d   1       8.923   5.210 -11.355  0.00  0.00     0.337 C 
BRANCH   8   9
ATOM      9  C   UNL d   1       9.490   6.421 -10.588  0.00  0.00     0.272 C 
ATOM     10  O   UNL d   1       9.817   7.417 -11.226  0.00  0.00    -0.270 OA
ATOM     11  N   UNL d   1       9.561   6.363  -9.256  0.00  0.00    -0.298 N 
ATOM     12  C   UNL d   1      10.403   7.243  -8.532  0.00  0.00     0.058 A 
ATOM     13  C   UNL d   1       8.440   5.945  -8.410  0.00  0.00     0.114 A 
ATOM     14  C   UNL d   1       9.895   7.467  -7.268  0.00  0.00    -0.004 A 
ATOM     15  C   UNL d   1      11.588   7.837  -8.965  0.00  0.00     0.017 A 
ATOM     16  C   UNL d   1       8.633   6.682  -7.052  0.00  0.00     0.052 A 
ATOM     17  C   UNL d   1      10.526   8.352  -6.384  0.00  0.00    -0.003 A 
ATOM     18  C   UNL d   1      11.715   9.000  -6.815  0.00  0.00    -0.000 A 
ATOM     19  C   UNL d   1      12.246   8.705  -8.100  0.00  0.00     0.002 A 
ENDBRANCH   8   9
ENDBRANCH   4   8
BRANCH   7  20
ATOM     20  C   UNL d   1      11.222   3.423 -16.351  0.00  0.00     0.277 C 
BRANCH  20  21
ATOM     21  C   UNL d   1      10.705   2.294 -17.266  0.00  0.00     0.011 A 
ATOM     22  C   UNL d   1       9.738   2.552 -18.244  0.00  0.00    -0.002 A 
ATOM     23  C   UNL d   1       9.219   1.502 -19.024  0.00  0.00     0.011 A 
ATOM     24  C   UNL d   1       9.651   0.174 -18.800  0.00  0.00     0.058 A 
ATOM     25  C   UNL d   1      10.608  -0.111 -17.848  0.00  0.00     0.011 A 
ATOM     26 CL   UNL d   1       9.001  -1.125 -19.756  0.00  0.00    -0.082 Cl
ATOM     27  C   UNL d   1      11.197   0.981 -17.100  0.00  0.00    -0.002 A 
ENDBRANCH  20  21
ENDBRANCH   7  20
TORSDOF 4
