REMARK  6 active torsions:
REMARK  status: ('A' for Active; 'I' for Inactive)
REMARK    1  A    between atoms: O_2  and  C_3 
REMARK    2  A    between atoms: C_6  and  O_7 
REMARK    3  A    between atoms: O_7  and  C_8 
REMARK    4  A    between atoms: C_8  and  C_9 
REMARK    5  A    between atoms: C_9  and  N_10 
REMARK       I    between atoms: N_13  and  C_14 
REMARK    6  A    between atoms: C_14  and  C_16 
ROOT
ATOM      1  N   UNL d   1       9.278   6.771  -9.677  0.00  0.00     0.144 N 
ATOM      2  C   UNL d   1      10.014   7.333 -10.798  0.00  0.00     0.274 C 
ATOM      3  C   UNL d   1       9.261   7.062 -12.114  0.00  0.00     0.140 C 
ATOM      4  N   UNL d   1       8.965   5.637 -12.268  0.00  0.00    -0.311 N 
ATOM      5  C   UNL d   1       9.355   4.920 -13.366  0.00  0.00     0.280 C 
ATOM      6  O   UNL d   1      10.348   5.232 -14.013  0.00  0.00    -0.265 OA
ATOM      7  C   UNL d   1       8.279   5.080 -11.110  0.00  0.00     0.140 C 
ATOM      8  C   UNL d   1       9.082   5.342  -9.841  0.00  0.00     0.274 C 
ENDROOT
BRANCH   1   9
ATOM      9  C   UNL d   1       9.962   7.051  -8.433  0.00  0.00     0.283 C 
BRANCH   9  10
ATOM     10  C   UNL d   1       9.518   8.381  -7.795  0.00  0.00     0.184 C 
BRANCH  10  11
ATOM     11  O   UNL d   1      10.607   9.034  -7.170  0.00  0.00    -0.329 OA
BRANCH  11  12
ATOM     12  C   UNL d   1      11.101   8.563  -5.982  0.00  0.00     0.094 A 
ATOM     13  C   UNL d   1      11.729   9.522  -5.180  0.00  0.00     0.026 A 
ATOM     14  C   UNL d   1      12.245   9.187  -3.919  0.00  0.00     0.026 A 
ATOM     15  C   UNL d   1      12.159   7.834  -3.459  0.00  0.00     0.094 A 
ATOM     16  C   UNL d   1      11.579   6.868  -4.287  0.00  0.00     0.026 A 
ATOM     17  C   UNL d   1      11.043   7.215  -5.536  0.00  0.00     0.026 A 
BRANCH  15  18
ATOM     18  O   UNL d   1      12.604   7.410  -2.228  0.00  0.00    -0.328 OA
ATOM     19  C   UNL d   1      13.035   8.416  -1.333  0.00  0.00     0.181 C 
ENDBRANCH  15  18
ENDBRANCH  11  12
ENDBRANCH  10  11
ENDBRANCH   9  10
ENDBRANCH   1   9
BRANCH   5  20
ATOM     20  C   UNL d   1       8.507   3.785 -13.802  0.00  0.00     0.156 A 
ATOM     21  O   UNL d   1       9.043   2.922 -14.730  0.00  0.00    -0.302 OA
ATOM     22  C   UNL d   1       8.094   1.952 -15.001  0.00  0.00     0.100 A 
ATOM     23  C   UNL d   1       6.944   2.208 -14.221  0.00  0.00     0.025 A 
ATOM     24  C   UNL d   1       8.196   0.873 -15.885  0.00  0.00     0.025 A 
ATOM     25  C   UNL d   1       7.202   3.423 -13.519  0.00  0.00     0.032 A 
ATOM     26  C   UNL d   1       5.884   1.266 -14.307  0.00  0.00     0.002 A 
ATOM     27  C   UNL d   1       5.953   0.183 -15.203  0.00  0.00     0.000 A 
ATOM     28  C   UNL d   1       7.101  -0.010 -16.001  0.00  0.00     0.002 A 
ENDBRANCH   5  20
TORSDOF 6
