REMARK  7 active torsions:
REMARK  status: ('A' for Active; 'I' for Inactive)
REMARK    1  A    between atoms: O_2  and  C_3 
REMARK    2  A    between atoms: C_7  and  N_8 
REMARK    3  A    between atoms: N_11  and  C_12 
REMARK    4  A    between atoms: C_12  and  C_13 
REMARK    5  A    between atoms: C_13  and  C_15 
REMARK    6  A    between atoms: C_15  and  N_16 
REMARK    7  A    between atoms: C_20  and  C_22 
ROOT
ATOM      1  C   UNL d   1       8.063   4.760 -11.909  0.00  0.00     0.208 C 
ATOM      2  O   UNL d   1       6.697   4.438 -11.963  0.00  0.00    -0.219 OA
ENDROOT
BRANCH   1   3
ATOM      3  C   UNL d   1       8.115   6.021 -11.053  0.00  0.00     0.285 C 
BRANCH   3   4
ATOM      4  N   UNL d   1       9.329   6.136 -10.235  0.00  0.00     0.144 N 
ATOM      5  C   UNL d   1       9.033   5.750  -8.854  0.00  0.00     0.274 C 
ATOM      6  C   UNL d   1      10.264   5.848  -7.929  0.00  0.00     0.137 C 
ATOM      7  N   UNL d   1      10.868   7.175  -8.004  0.00  0.00    -0.344 N 
ATOM      8  C   UNL d   1      11.108   7.648  -9.377  0.00  0.00     0.137 C 
ATOM      9  C   UNL d   1       9.832   7.505 -10.229  0.00  0.00     0.274 C 
BRANCH   7  10
ATOM     10  C   UNL d   1      11.113   7.961  -6.851  0.00  0.00     0.058 A 
ATOM     11  C   UNL d   1      11.153   9.358  -6.973  0.00  0.00     0.017 A 
ATOM     12  C   UNL d   1      11.428  10.173  -5.870  0.00  0.00     0.004 A 
ATOM     13  C   UNL d   1      11.655   9.603  -4.611  0.00  0.00     0.024 A 
ATOM     14  C   UNL d   1      11.631   8.195  -4.443  0.00  0.00     0.096 A 
ATOM     15  C   UNL d   1      11.344   7.388  -5.570  0.00  0.00     0.041 A 
BRANCH  14  16
ATOM     16  O   UNL d   1      11.885   7.579  -3.233  0.00  0.00    -0.328 OA
ATOM     17  C   UNL d   1      12.261   8.417  -2.153  0.00  0.00     0.181 C 
ENDBRANCH  14  16
ENDBRANCH   7  10
ENDBRANCH   3   4
ENDBRANCH   1   3
BRANCH   1  18
ATOM     18  C   UNL d   1       8.572   4.984 -13.346  0.00  0.00     0.148 C 
BRANCH  18  19
ATOM     19  N   UNL d   1       8.914   3.720 -14.018  0.00  0.00    -0.247 N 
ATOM     20  C   UNL d   1       8.020   2.830 -14.481  0.00  0.00     0.265 A 
ATOM     21  C   UNL d   1       8.757   1.677 -15.140  0.00  0.00     0.179 A 
ATOM     22  O   UNL d   1       6.791   2.890 -14.425  0.00  0.00    -0.269 OA
ATOM     23  N   UNL d   1      10.116   2.103 -14.841  0.00  0.00    -0.209 NA
ATOM     24  C   UNL d   1       8.447   0.358 -14.418  0.00  0.00     0.039 C 
ATOM     25  C   UNL d   1      10.169   3.292 -14.229  0.00  0.00     0.348 A 
ATOM     26  O   UNL d   1      11.207   3.883 -13.928  0.00  0.00    -0.245 OA
BRANCH  21  27
ATOM     27  C   UNL d   1       8.436   1.618 -16.647  0.00  0.00     0.006 A 
ATOM     28  C   UNL d   1       7.234   1.016 -17.098  0.00  0.00     0.000 A 
ATOM     29  C   UNL d   1       6.938   0.927 -18.471  0.00  0.00     0.029 A 
ATOM     30  C   UNL d   1       7.831   1.456 -19.418  0.00  0.00     0.140 A 
ATOM     31  C   UNL d   1       9.019   2.075 -18.990  0.00  0.00     0.029 A 
ATOM     32  F   UNL d   1       7.533   1.395 -20.736  0.00  0.00    -0.204 F 
ATOM     33  C   UNL d   1       9.322   2.154 -17.616  0.00  0.00     0.000 A 
ENDBRANCH  21  27
ENDBRANCH  18  19
ENDBRANCH   1  18
TORSDOF 7
