REMARK  3 active torsions:
REMARK  status: ('A' for Active; 'I' for Inactive)
REMARK    1  A    between atoms: C_2  and  C_3 
REMARK    2  A    between atoms: C_3  and  N_4 
REMARK    3  A    between atoms: N_7  and  C_8 
ROOT
ATOM      1  N   UNL d   1      11.873   8.650  -4.841  0.00  0.00     0.141 N 
ATOM      2  C   UNL d   1      11.071   7.434  -5.048  0.00  0.00     0.274 C 
ATOM      3  C   UNL d   1      11.557   6.711  -6.282  0.00  0.00     0.137 C 
ATOM      4  N   UNL d   1      11.393   7.571  -7.445  0.00  0.00    -0.344 N 
ATOM      5  C   UNL d   1      12.007   8.897  -7.307  0.00  0.00     0.137 C 
ATOM      6  C   UNL d   1      11.591   9.552  -5.973  0.00  0.00     0.274 C 
ENDROOT
BRANCH   4   7
ATOM      7  C   UNL d   1      10.604   7.191  -8.547  0.00  0.00     0.058 A 
ATOM      8  C   UNL d   1       9.785   6.025  -8.507  0.00  0.00     0.044 A 
ATOM      9  C   UNL d   1       9.035   5.621  -9.610  0.00  0.00     0.132 A 
ATOM     10  C   UNL d   1       9.050   6.367 -10.797  0.00  0.00     0.028 A 
ATOM     11  O   UNL d   1       8.259   4.510  -9.486  0.00  0.00    -0.190 OA
ATOM     12  C   UNL d   1       9.829   7.537 -10.859  0.00  0.00     0.004 A 
ATOM     13  C   UNL d   1      10.617   7.930  -9.764  0.00  0.00     0.017 A 
ENDBRANCH   4   7
BRANCH   1  14
ATOM     14  C   UNL d   1      11.553   9.325  -3.583  0.00  0.00     0.250 C 
BRANCH  14  15
ATOM     15  C   UNL d   1      12.296   8.747  -2.354  0.00  0.00     0.035 C 
ATOM     16  C   UNL d   1      12.207   7.229  -2.148  0.00  0.00     0.002 C 
ENDBRANCH  14  15
ENDBRANCH   1  14
TORSDOF 3
