REMARK  3 active torsions:
REMARK  status: ('A' for Active; 'I' for Inactive)
REMARK    1  A    between atoms: C_3  and  C_4 
REMARK    2  A    between atoms: N_15  and  C_16 
REMARK    3  A    between atoms: C_16  and  C_17 
ROOT
ATOM      1  O   UNL d   1      10.543   4.205 -12.864  0.00  0.00    -0.289 OA
ATOM      2  C   UNL d   1       9.340   4.381 -12.692  0.00  0.00     0.202 A 
ATOM      3  C   UNL d   1       8.254   4.013 -13.569  0.00  0.00     0.061 A 
ATOM      4  C   UNL d   1       7.145   4.367 -12.903  0.00  0.00     0.119 A 
ATOM      5  O   UNL d   1       7.340   4.934 -11.677  0.00  0.00    -0.324 OA
ATOM      6  C   UNL d   1       8.734   5.039 -11.470  0.00  0.00     0.186 A 
ATOM      7  C   UNL d   1       9.162   4.401 -10.155  0.00  0.00     0.073 C 
ATOM      8  C   UNL d   1       9.787   5.502  -9.410  0.00  0.00     0.254 C 
ATOM      9  N   UNL d   1       9.188   6.713  -9.874  0.00  0.00     0.144 N 
ATOM     10  C   UNL d   1       9.121   6.508 -11.321  0.00  0.00     0.285 C 
ENDROOT
BRANCH   3  11
ATOM     11  C   UNL d   1       8.369   3.269 -14.830  0.00  0.00     0.005 A 
ATOM     12  C   UNL d   1       9.435   3.526 -15.719  0.00  0.00     0.000 A 
ATOM     13  C   UNL d   1       9.485   2.861 -16.960  0.00  0.00     0.000 A 
ATOM     14  C   UNL d   1       8.475   1.946 -17.308  0.00  0.00     0.000 A 
ATOM     15  C   UNL d   1       7.410   1.698 -16.425  0.00  0.00     0.000 A 
ATOM     16  C   UNL d   1       7.349   2.361 -15.186  0.00  0.00     0.000 A 
ENDBRANCH   3  11
BRANCH   9  17
ATOM     17  C   UNL d   1       9.904   7.949  -9.522  0.00  0.00     0.277 C 
BRANCH  17  18
ATOM     18  C   UNL d   1      10.358   8.063  -8.065  0.00  0.00     0.011 C 
ATOM     19  C   UNL d   1      11.151   7.062  -7.447  0.00  0.00    -0.002 C 
ATOM     20  C   UNL d   1      11.453   7.063  -6.096  0.00  0.00    -0.000 C 
ATOM     21  C   UNL d   1      11.137   8.186  -5.331  0.00  0.00    -0.000 C 
ATOM     22  C   UNL d   1      10.432   9.252  -5.936  0.00  0.00    -0.000 C 
ATOM     23  C   UNL d   1      10.017   9.173  -7.281  0.00  0.00    -0.002 C 
ENDBRANCH  17  18
ENDBRANCH   9  17
TORSDOF 3
