REMARK  9 active torsions:
REMARK  status: ('A' for Active; 'I' for Inactive)
REMARK    1  A    between atoms: C_2  and  C_5 
REMARK    2  A    between atoms: C_7  and  N_8 
REMARK    3  A    between atoms: N_11  and  C_12 
REMARK    4  A    between atoms: C_12  and  C_13 
REMARK    5  A    between atoms: C_13  and  C_14 
REMARK    6  A    between atoms: C_14  and  C_15 
REMARK    7  A    between atoms: C_15  and  N_16 
REMARK       I    between atoms: N_16  and  C_17 
REMARK    8  A    between atoms: C_17  and  C_19 
REMARK    9  A    between atoms: C_31  and  C_32 
ROOT
ATOM      1  N   UNL d   1      10.811   3.543 -17.423  0.00  0.00    -0.330 N 
ATOM      2  C   UNL d   1      10.355   4.421 -16.363  0.00  0.00     0.138 C 
ATOM      3  C   UNL d   1       9.814   3.636 -15.187  0.00  0.00     0.274 C 
ATOM      4  N   UNL d   1       8.687   2.783 -15.648  0.00  0.00     0.141 N 
ATOM      5  C   UNL d   1       9.216   1.815 -16.619  0.00  0.00     0.274 C 
ATOM      6  C   UNL d   1       9.830   2.551 -17.846  0.00  0.00     0.138 C 
ENDROOT
BRANCH   4   7
ATOM      7  C   UNL d   1       8.050   2.090 -14.535  0.00  0.00     0.251 C 
BRANCH   7   8
ATOM      8  C   UNL d   1       7.069   2.976 -13.711  0.00  0.00     0.037 C 
BRANCH   8   9
ATOM      9  C   UNL d   1       7.790   3.958 -12.799  0.00  0.00     0.029 C 
BRANCH   9  10
ATOM     10  C   UNL d   1       7.002   4.729 -11.753  0.00  0.00     0.129 C 
BRANCH  10  11
ATOM     11  N   UNL d   1       7.864   5.573 -10.902  0.00  0.00    -0.232 NA
ATOM     12  C   UNL d   1       9.168   5.920 -11.031  0.00  0.00     0.311 C 
ATOM     13  O   UNL d   1       9.855   5.654 -12.014  0.00  0.00    -0.262 OA
BRANCH  12  14
ATOM     14  C   UNL d   1       9.759   6.669  -9.887  0.00  0.00     0.221 A 
ATOM     15  N   UNL d   1       9.069   6.820  -8.737  0.00  0.00    -0.221 NA
ATOM     16  C   UNL d   1       9.845   7.615  -7.926  0.00  0.00     0.101 A 
ATOM     17  C   UNL d   1      11.032   7.843  -8.675  0.00  0.00     0.101 A 
ATOM     18  C   UNL d   1       9.642   8.173  -6.667  0.00  0.00     0.021 A 
ATOM     19  N   UNL d   1      10.965   7.235  -9.900  0.00  0.00    -0.221 NA
ATOM     20  C   UNL d   1      12.053   8.620  -8.097  0.00  0.00     0.021 A 
ATOM     21  C   UNL d   1      11.868   9.164  -6.812  0.00  0.00     0.002 A 
ATOM     22  C   UNL d   1      10.671   8.946  -6.101  0.00  0.00     0.002 A 
ENDBRANCH  12  14
ENDBRANCH  10  11
ENDBRANCH   9  10
ENDBRANCH   8   9
ENDBRANCH   7   8
ENDBRANCH   4   7
BRANCH   1  23
ATOM     23  C   UNL d   1      12.150   3.562 -17.883  0.00  0.00     0.143 A 
ATOM     24  N   UNL d   1      12.556   2.532 -18.651  0.00  0.00    -0.214 NA
ATOM     25  C   UNL d   1      13.795   2.538 -19.105  0.00  0.00     0.140 A 
ATOM     26  N   UNL d   1      14.689   3.527 -18.924  0.00  0.00    -0.227 NA
ATOM     27  C   UNL d   1      14.305   4.566 -18.143  0.00  0.00     0.157 A 
ATOM     28  C   UNL d   1      13.034   4.638 -17.587  0.00  0.00     0.060 A 
BRANCH  25  29
ATOM     29  C   UNL d   1      14.175   1.424 -20.095  0.00  0.00     0.052 C 
ATOM     30  C   UNL d   1      13.809   1.839 -21.528  0.00  0.00     0.008 C 
ATOM     31  C   UNL d   1      13.432   0.105 -19.769  0.00  0.00     0.008 C 
ATOM     32  C   UNL d   1      15.686   1.131 -20.007  0.00  0.00     0.008 C 
ENDBRANCH  25  29
BRANCH  27  33
ATOM     33  C   UNL d   1      15.336   5.675 -17.926  0.00  0.00     0.435 C 
ATOM     34  F   UNL d   1      14.809   6.701 -17.251  0.00  0.00    -0.165 F 
ATOM     35  F   UNL d   1      16.363   5.199 -17.230  0.00  0.00    -0.165 F 
ATOM     36  F   UNL d   1      15.771   6.118 -19.101  0.00  0.00    -0.165 F 
ENDBRANCH  27  33
ENDBRANCH   1  23
TORSDOF 9
