REMARK  6 active torsions:
REMARK  status: ('A' for Active; 'I' for Inactive)
REMARK    1  A    between atoms: C_2  and  C_3 
REMARK    2  A    between atoms: N_13  and  C_14 
REMARK    3  A    between atoms: C_14  and  C_15 
REMARK    4  A    between atoms: C_15  and  C_17 
REMARK    5  A    between atoms: C_17  and  N_18 
REMARK    6  A    between atoms: N_21  and  C_22 
ROOT
ATOM      1  C   UNL d   1       9.425   6.183 -11.528  0.00  0.00     0.066 A 
ATOM      2  C   UNL d   1       9.403   7.413 -12.177  0.00  0.00     0.018 A 
ATOM      3  C   UNL d   1       9.459   8.611 -11.467  0.00  0.00     0.002 A 
ATOM      4  C   UNL d   1       9.589   8.623 -10.078  0.00  0.00     0.001 A 
ATOM      5  C   UNL d   1       9.577   7.401  -9.380  0.00  0.00     0.012 A 
ATOM      6  C   UNL d   1       9.482   6.188 -10.110  0.00  0.00     0.084 A 
ATOM      7  C   UNL d   1       9.449   4.975  -9.326  0.00  0.00     0.102 C 
ATOM      8  N   UNL d   1       9.404   3.995  -8.724  0.00  0.00    -0.191 NA
ENDROOT
BRANCH   1   9
ATOM      9  N   UNL d   1       9.333   5.055 -12.371  0.00  0.00    -0.344 N 
ATOM     10  C   UNL d   1      10.165   4.834 -13.552  0.00  0.00     0.137 C 
ATOM     11  C   UNL d   1       9.277   4.371 -14.717  0.00  0.00     0.274 C 
ATOM     12  N   UNL d   1       8.484   3.182 -14.370  0.00  0.00     0.144 N 
ATOM     13  C   UNL d   1       7.630   3.542 -13.245  0.00  0.00     0.274 C 
ATOM     14  C   UNL d   1       8.472   3.953 -12.035  0.00  0.00     0.137 C 
BRANCH  12  15
ATOM     15  C   UNL d   1       7.679   2.709 -15.474  0.00  0.00     0.285 C 
BRANCH  15  16
ATOM     16  C   UNL d   1       7.438   1.199 -15.569  0.00  0.00     0.208 C 
ATOM     17  O   UNL d   1       6.483   0.998 -16.589  0.00  0.00    -0.219 OA
BRANCH  16  18
ATOM     18  C   UNL d   1       8.684   0.329 -15.884  0.00  0.00     0.148 C 
BRANCH  18  19
ATOM     19  N   UNL d   1       9.681   0.973 -16.755  0.00  0.00    -0.247 N 
ATOM     20  C   UNL d   1      10.777   1.624 -16.325  0.00  0.00     0.348 A 
ATOM     21  N   UNL d   1      11.394   2.161 -17.382  0.00  0.00    -0.209 NA
ATOM     22  O   UNL d   1      11.152   1.744 -15.161  0.00  0.00    -0.245 OA
ATOM     23  C   UNL d   1      10.770   1.801 -18.643  0.00  0.00     0.179 A 
ATOM     24  C   UNL d   1      10.341   3.083 -19.395  0.00  0.00     0.039 C 
ATOM     25  C   UNL d   1       9.571   1.042 -18.089  0.00  0.00     0.265 A 
ATOM     26  O   UNL d   1       8.665   0.587 -18.786  0.00  0.00    -0.269 OA
BRANCH  23  27
ATOM     27  C   UNL d   1      11.630   0.838 -19.479  0.00  0.00     0.006 A 
ATOM     28  C   UNL d   1      12.663   0.080 -18.878  0.00  0.00    -0.002 A 
ATOM     29  C   UNL d   1      13.451  -0.802 -19.641  0.00  0.00     0.006 A 
ATOM     30  C   UNL d   1      13.211  -0.946 -21.017  0.00  0.00     0.035 A 
ATOM     31  C   UNL d   1      12.173  -0.218 -21.627  0.00  0.00     0.006 A 
ATOM     32 BR   UNL d   1      14.268  -2.150 -22.041  0.00  0.00    -0.049 Br
ATOM     33  C   UNL d   1      11.382   0.661 -20.862  0.00  0.00    -0.002 A 
ENDBRANCH  23  27
ENDBRANCH  18  19
ENDBRANCH  16  18
ENDBRANCH  15  16
ENDBRANCH  12  15
ENDBRANCH   1   9
TORSDOF 6
