REMARK  5 active torsions:
REMARK  status: ('A' for Active; 'I' for Inactive)
REMARK    1  A    between atoms: O_2  and  C_3 
REMARK    2  A    between atoms: C_8  and  O_9 
REMARK    3  A    between atoms: C_14  and  C_15 
REMARK    4  A    between atoms: C_15  and  N_16 
REMARK    5  A    between atoms: C_19  and  C_20 
ROOT
ATOM      1  N   UNL d   1       8.508   5.067 -12.943  0.00  0.00     0.137 N 
ATOM      2  C   UNL d   1       8.872   4.417 -11.696  0.00  0.00     0.251 C 
ATOM      3  C   UNL d   1       9.733   5.396 -10.883  0.00  0.00     0.041 C 
ATOM      4  C   UNL d   1       8.992   6.667 -10.541  0.00  0.00     0.047 C 
ATOM      5  C   UNL d   1       8.511   7.273 -11.872  0.00  0.00     0.041 C 
ATOM      6  C   UNL d   1       7.704   6.253 -12.670  0.00  0.00     0.251 C 
ENDROOT
BRANCH   1   7
ATOM      7  C   UNL d   1       7.721   4.144 -13.750  0.00  0.00     0.251 C 
BRANCH   7   8
ATOM      8  C   UNL d   1       8.610   3.170 -14.546  0.00  0.00     0.045 C 
ATOM      9  C   UNL d   1       7.736   2.167 -15.332  0.00  0.00     0.071 C 
ATOM     10  C   UNL d   1       8.547   1.159 -16.125  0.00  0.00     0.173 C 
ATOM     11  C   UNL d   1       9.849   1.611 -16.665  0.00  0.00     0.033 A 
ATOM     12  O   UNL d   1       8.090   0.033 -16.318  0.00  0.00    -0.291 OA
ATOM     13  C   UNL d   1      10.361   2.905 -16.368  0.00  0.00    -0.017 A 
ATOM     14  C   UNL d   1      10.602   0.751 -17.487  0.00  0.00     0.029 A 
ATOM     15  C   UNL d   1      11.603   3.293 -16.900  0.00  0.00     0.022 A 
ATOM     16  C   UNL d   1       9.599   3.874 -15.493  0.00  0.00     0.029 C 
ATOM     17  C   UNL d   1      12.365   2.433 -17.733  0.00  0.00     0.116 A 
ATOM     18  C   UNL d   1      11.853   1.141 -18.033  0.00  0.00     0.116 A 
BRANCH  17  19
ATOM     19  O   UNL d   1      13.579   2.789 -18.281  0.00  0.00    -0.326 OA
ATOM     20  C   UNL d   1      14.111   4.071 -17.949  0.00  0.00     0.181 C 
ENDBRANCH  17  19
BRANCH  18  21
ATOM     21  O   UNL d   1      12.606   0.322 -18.842  0.00  0.00    -0.326 OA
ATOM     22  C   UNL d   1      12.038  -0.922 -19.244  0.00  0.00     0.181 C 
ENDBRANCH  18  21
ENDBRANCH   7   8
ENDBRANCH   1   7
BRANCH   4  23
ATOM     23  C   UNL d   1       9.870   7.644  -9.771  0.00  0.00     0.087 A 
ATOM     24  C   UNL d   1      10.130   7.745  -8.394  0.00  0.00     0.041 A 
ATOM     25  C   UNL d   1      11.030   8.787  -8.171  0.00  0.00     0.129 A 
ATOM     26  C   UNL d   1       9.669   6.980  -7.306  0.00  0.00     0.006 A 
ATOM     27  O   UNL d   1      11.320   9.291  -9.424  0.00  0.00    -0.211 OA
ATOM     28  C   UNL d   1      11.498   9.144  -6.903  0.00  0.00     0.057 A 
ATOM     29  N   UNL d   1      10.618   8.541 -10.407  0.00  0.00    -0.131 NA
ATOM     30  C   UNL d   1      11.048   8.379  -5.807  0.00  0.00     0.142 A 
ATOM     31  F   UNL d   1      11.468   8.678  -4.553  0.00  0.00    -0.204 F 
ATOM     32  C   UNL d   1      10.149   7.297  -6.012  0.00  0.00     0.030 A 
ENDBRANCH   4  23
TORSDOF 5
