REMARK  8 active torsions:
REMARK  status: ('A' for Active; 'I' for Inactive)
REMARK    1  A    between atoms: N_4  and  C_5 
REMARK    2  A    between atoms: C_5  and  C_6 
REMARK    3  A    between atoms: C_6  and  C_7 
REMARK    4  A    between atoms: C_7  and  C_8 
REMARK    5  A    between atoms: C_8  and  C_9 
REMARK    6  A    between atoms: C_9  and  C_10 
REMARK    7  A    between atoms: C_10  and  N_11 
REMARK    8  A    between atoms: N_14  and  C_15 
ROOT
ATOM      1  C   UNL d   1       7.280   3.736 -13.683  0.00  0.00     0.002 C 
ENDROOT
BRANCH   1   2
ATOM      2  C   UNL d   1       8.635   3.697 -14.403  0.00  0.00     0.025 C 
BRANCH   2   3
ATOM      3  C   UNL d   1       8.786   2.535 -15.384  0.00  0.00     0.120 C 
BRANCH   3   4
ATOM      4  N   UNL d   1      10.093   2.554 -16.032  0.00  0.00    -0.239 N 
ATOM      5  S   UNL d   1      10.981   3.992 -16.371  0.00  0.00     0.330 S 
ATOM      6  O   UNL d   1      10.130   4.905 -17.154  0.00  0.00    -0.182 OA
ATOM      7  N   UNL d   1      11.961   3.084 -17.443  0.00  0.00    -0.240 N 
ATOM      8  O   UNL d   1      11.770   4.366 -15.187  0.00  0.00    -0.182 OA
ATOM      9  C   UNL d   1      11.586   1.733 -17.639  0.00  0.00     0.084 A 
ATOM     10  C   UNL d   1      12.753   3.691 -18.498  0.00  0.00     0.120 C 
ATOM     11  C   UNL d   1      10.505   1.453 -16.790  0.00  0.00     0.088 A 
ATOM     12  C   UNL d   1      12.204   0.849 -18.547  0.00  0.00    -0.004 A 
ATOM     13  C   UNL d   1       9.995   0.137 -16.854  0.00  0.00     0.019 A 
ATOM     14  C   UNL d   1      10.579  -0.804 -17.739  0.00  0.00     0.001 A 
ATOM     15  C   UNL d   1      11.667  -0.453 -18.576  0.00  0.00    -0.003 A 
ATOM     16  C   UNL d   1      13.325   1.421 -19.408  0.00  0.00     0.030 C 
ATOM     17  C   UNL d   1      13.889   2.757 -18.910  0.00  0.00     0.030 C 
ENDBRANCH   3   4
ENDBRANCH   2   3
ENDBRANCH   1   2
BRANCH   1  18
ATOM     18  C   UNL d   1       7.156   4.891 -12.670  0.00  0.00     0.002 C 
BRANCH  18  19
ATOM     19  C   UNL d   1       8.305   4.970 -11.648  0.00  0.00     0.035 C 
BRANCH  19  20
ATOM     20  C   UNL d   1       8.325   6.293 -10.896  0.00  0.00     0.250 C 
BRANCH  20  21
ATOM     21  N   UNL d   1       9.496   6.372 -10.031  0.00  0.00     0.141 N 
ATOM     22  C   UNL d   1       9.945   7.769  -9.929  0.00  0.00     0.274 C 
ATOM     23  C   UNL d   1      11.182   7.878  -9.016  0.00  0.00     0.137 C 
ATOM     24  N   UNL d   1      10.897   7.291  -7.717  0.00  0.00    -0.344 N 
ATOM     25  C   UNL d   1      10.318   5.965  -7.729  0.00  0.00     0.137 C 
ATOM     26  C   UNL d   1       9.117   5.909  -8.687  0.00  0.00     0.274 C 
BRANCH  24  27
ATOM     27  C   UNL d   1      11.071   8.013  -6.497  0.00  0.00     0.057 A 
ATOM     28  C   UNL d   1      11.438   7.338  -5.315  0.00  0.00     0.028 A 
ATOM     29  C   UNL d   1      11.659   8.058  -4.120  0.00  0.00     0.059 A 
ATOM     30  C   UNL d   1      11.464   9.450  -4.091  0.00  0.00     0.011 A 
ATOM     31 CL   UNL d   1      12.138   7.226  -2.685  0.00  0.00    -0.082 Cl
ATOM     32  C   UNL d   1      11.070  10.120  -5.262  0.00  0.00     0.002 A 
ATOM     33  C   UNL d   1      10.883   9.404  -6.460  0.00  0.00     0.017 A 
ENDBRANCH  24  27
ENDBRANCH  20  21
ENDBRANCH  19  20
ENDBRANCH  18  19
ENDBRANCH   1  18
TORSDOF 8
