REMARK  3 active torsions:
REMARK  status: ('A' for Active; 'I' for Inactive)
REMARK       I    between atoms: N_4  and  C_5 
REMARK    1  A    between atoms: C_5  and  C_7 
REMARK    2  A    between atoms: C_10  and  C_11 
REMARK       I    between atoms: N_22  and  C_23 
REMARK    3  A    between atoms: C_23  and  C_25 
ROOT
ATOM      1  C   UNL d   1      10.854   4.417 -14.658  0.00  0.00     0.026 C 
ATOM      2  C   UNL d   1      10.266   3.310 -13.735  0.00  0.00     0.106 C 
ATOM      3  C   UNL d   1       9.806   3.891 -12.398  0.00  0.00     0.127 C 
ATOM      4  N   UNL d   1       8.581   4.682 -12.517  0.00  0.00    -0.313 N 
ATOM      5  C   UNL d   1       8.509   5.992 -12.184  0.00  0.00     0.257 C 
ATOM      6  O   UNL d   1       7.821   6.785 -12.811  0.00  0.00    -0.267 OA
ATOM      7  C   UNL d   1       7.485   3.986 -13.175  0.00  0.00     0.129 C 
ATOM      8  C   UNL d   1       7.981   3.340 -14.466  0.00  0.00     0.129 C 
ATOM      9  N   UNL d   1       9.179   2.512 -14.307  0.00  0.00    -0.315 N 
ATOM     10  C   UNL d   1       9.309   1.219 -14.709  0.00  0.00     0.257 C 
ATOM     11  O   UNL d   1      10.359   0.578 -14.636  0.00  0.00    -0.267 OA
ENDROOT
BRANCH   5  12
ATOM     12  C   UNL d   1       9.199   6.411 -10.925  0.00  0.00     0.056 A 
ATOM     13  C   UNL d   1       9.016   5.674  -9.743  0.00  0.00     0.005 A 
ATOM     14  C   UNL d   1       9.501   6.148  -8.508  0.00  0.00     0.000 A 
ATOM     15  C   UNL d   1      10.231   7.367  -8.420  0.00  0.00     0.000 A 
ATOM     16  C   UNL d   1      10.409   8.101  -9.619  0.00  0.00     0.000 A 
ATOM     17  C   UNL d   1       9.870   7.654 -10.843  0.00  0.00     0.005 A 
BRANCH  15  18
ATOM     18  C   UNL d   1      10.775   7.849  -7.119  0.00  0.00     0.000 A 
ATOM     19  C   UNL d   1      10.945   6.968  -6.018  0.00  0.00     0.002 A 
ATOM     20  C   UNL d   1      11.461   7.398  -4.783  0.00  0.00     0.030 A 
ATOM     21  C   UNL d   1      11.854   8.735  -4.618  0.00  0.00     0.140 A 
ATOM     22  C   UNL d   1      11.715   9.630  -5.695  0.00  0.00     0.030 A 
ATOM     23  F   UNL d   1      12.377   9.154  -3.437  0.00  0.00    -0.204 F 
ATOM     24  C   UNL d   1      11.170   9.197  -6.918  0.00  0.00     0.002 A 
ENDBRANCH  15  18
ENDBRANCH   5  12
BRANCH  10  25
ATOM     25  C   UNL d   1       8.110   0.562 -15.312  0.00  0.00     0.057 A 
ATOM     26  C   UNL d   1       8.122   0.251 -16.684  0.00  0.00     0.024 A 
ATOM     27  C   UNL d   1       7.008  -0.383 -17.256  0.00  0.00     0.082 A 
ATOM     28  C   UNL d   1       5.849  -0.719 -16.498  0.00  0.00     0.019 A 
ATOM     29  N   UNL d   1       6.748  -0.823 -18.542  0.00  0.00    -0.244 NA
ATOM     30  C   UNL d   1       5.855  -0.384 -15.121  0.00  0.00     0.002 A 
ATOM     31  C   UNL d   1       4.914  -1.372 -17.373  0.00  0.00     0.022 A 
ATOM     32  C   UNL d   1       6.972   0.253 -14.532  0.00  0.00     0.005 A 
ATOM     33  C   UNL d   1       5.498  -1.414 -18.612  0.00  0.00     0.099 A 
ENDBRANCH  10  25
TORSDOF 3
