REMARK  3 active torsions:
REMARK  status: ('A' for Active; 'I' for Inactive)
REMARK    1  A    between atoms: C_12  and  N_13 
REMARK    2  A    between atoms: N_16  and  C_17 
REMARK    3  A    between atoms: C_17  and  C_18 
ROOT
ATOM      1  N   UNL d   1      10.419   2.289 -16.104  0.00  0.00     0.148 N 
ATOM      2  C   UNL d   1      10.403   0.894 -15.741  0.00  0.00     0.286 C 
ATOM      3  C   UNL d   1      10.283   0.007 -17.004  0.00  0.00     0.286 C 
ATOM      4  N   UNL d   1      11.368   0.226 -17.974  0.00  0.00     0.146 N 
ATOM      5  C   UNL d   1      11.348   1.614 -18.343  0.00  0.00     0.286 C 
ATOM      6  C   UNL d   1      11.487   2.407 -17.102  0.00  0.00     0.286 C 
ENDROOT
BRANCH   1   7
ATOM      7  C   UNL d   1      10.530   3.224 -14.948  0.00  0.00     0.299 C 
ATOM      8  C   UNL d   1       9.486   4.344 -14.966  0.00  0.00     0.287 C 
ATOM      9  O   UNL d   1       8.721   4.496 -14.029  0.00  0.00    -0.268 OA
ATOM     10  N   UNL d   1       9.457   5.202 -16.015  0.00  0.00    -0.210 NA
ATOM     11  C   UNL d   1      10.426   5.403 -17.036  0.00  0.00     0.080 A 
ATOM     12  C   UNL d   1      11.818   5.356 -16.809  0.00  0.00    -0.004 A 
ATOM     13  C   UNL d   1       9.915   5.458 -18.366  0.00  0.00     0.019 A 
ATOM     14  C   UNL d   1      12.703   5.318 -17.913  0.00  0.00    -0.003 A 
ATOM     15  C   UNL d   1      12.377   5.103 -15.394  0.00  0.00     0.030 C 
ATOM     16  C   UNL d   1      12.194   5.335 -19.230  0.00  0.00    -0.000 A 
ATOM     17  C   UNL d   1      10.806   5.429 -19.455  0.00  0.00     0.002 A 
ATOM     18  C   UNL d   1      11.949   3.792 -14.652  0.00  0.00     0.048 C 
ENDBRANCH   1   7
BRANCH   4  19
ATOM     19  C   UNL d   1      11.248  -0.593 -19.152  0.00  0.00     0.277 C 
BRANCH  19  20
ATOM     20  C   UNL d   1      12.404  -0.431 -20.125  0.00  0.00     0.011 A 
ATOM     21  C   UNL d   1      12.203   0.228 -21.357  0.00  0.00    -0.002 A 
ATOM     22  C   UNL d   1      13.271   0.369 -22.264  0.00  0.00     0.011 A 
ATOM     23  C   UNL d   1      14.541  -0.150 -21.945  0.00  0.00     0.058 A 
ATOM     24  C   UNL d   1      14.743  -0.810 -20.717  0.00  0.00     0.011 A 
ATOM     25 CL   UNL d   1      15.848   0.025 -23.055  0.00  0.00    -0.082 Cl
ATOM     26  C   UNL d   1      13.676  -0.949 -19.808  0.00  0.00    -0.002 A 
ENDBRANCH  19  20
ENDBRANCH   4  19
TORSDOF 3
