REMARK  1 active torsions:
REMARK  status: ('A' for Active; 'I' for Inactive)
REMARK    1  A    between atoms: C_9  and  C_10 
ROOT
ATOM      1  C   UNL d   1      12.896   2.749 -18.908  0.00  0.00     0.285 C 
ATOM      2  N   UNL d   1      12.305   3.228 -17.667  0.00  0.00     0.139 N 
ATOM      3  C   UNL d   1      11.024   3.871 -17.956  0.00  0.00     0.253 C 
ATOM      4  C   UNL d   1      10.405   4.432 -16.668  0.00  0.00     0.071 C 
ATOM      5  C   UNL d   1      10.238   3.339 -15.592  0.00  0.00     0.157 A 
ATOM      6  C   UNL d   1      11.566   2.588 -15.404  0.00  0.00     0.071 C 
ATOM      7  C   UNL d   1      12.107   2.100 -16.756  0.00  0.00     0.253 C 
ATOM      8  O   UNL d   1       9.200   2.405 -15.933  0.00  0.00    -0.328 OA
ATOM      9  C   UNL d   1       8.282   2.345 -14.929  0.00  0.00     0.097 A 
ATOM     10  C   UNL d   1       8.524   3.223 -13.956  0.00  0.00     0.064 A 
ATOM     11  C   UNL d   1       9.741   3.926 -14.281  0.00  0.00     0.200 A 
ATOM     12  O   UNL d   1      10.299   4.827 -13.653  0.00  0.00    -0.289 OA
ENDROOT
BRANCH   9  13
ATOM     13  C   UNL d   1       7.170   1.377 -14.998  0.00  0.00     0.022 A 
ATOM     14  C   UNL d   1       7.061   0.509 -16.102  0.00  0.00     0.002 A 
ATOM     15  C   UNL d   1       5.992  -0.408 -16.186  0.00  0.00     0.000 A 
ATOM     16  C   UNL d   1       5.033  -0.472 -15.156  0.00  0.00     0.000 A 
ATOM     17  C   UNL d   1       5.140   0.381 -14.044  0.00  0.00     0.000 A 
ATOM     18  C   UNL d   1       6.204   1.304 -13.964  0.00  0.00     0.002 A 
ENDBRANCH   9  13
TORSDOF 1
