REMARK  3 active torsions:
REMARK  status: ('A' for Active; 'I' for Inactive)
REMARK    1  A    between atoms: C_6  and  N_7 
REMARK    2  A    between atoms: N_10  and  C_11 
REMARK    3  A    between atoms: C_11  and  C_12 
ROOT
ATOM      1  N   UNL d   1      10.649   6.892  -8.478  0.00  0.00    -0.344 N 
ATOM      2  C   UNL d   1       9.952   5.607  -8.549  0.00  0.00     0.137 C 
ATOM      3  C   UNL d   1       8.785   5.680  -9.551  0.00  0.00     0.275 C 
ATOM      4  N   UNL d   1       9.243   6.156 -10.865  0.00  0.00     0.145 N 
ATOM      5  C   UNL d   1       9.809   7.502 -10.700  0.00  0.00     0.275 C 
ATOM      6  C   UNL d   1      11.023   7.467  -9.763  0.00  0.00     0.137 C 
ENDROOT
BRANCH   1   7
ATOM      7  C   UNL d   1      10.879   7.569  -7.270  0.00  0.00     0.058 A 
ATOM      8  C   UNL d   1      10.821   8.981  -7.196  0.00  0.00     0.017 A 
ATOM      9  C   UNL d   1      11.084   9.646  -5.982  0.00  0.00     0.004 A 
ATOM     10  C   UNL d   1      11.399   8.915  -4.827  0.00  0.00     0.028 A 
ATOM     11  C   UNL d   1      11.454   7.509  -4.880  0.00  0.00     0.132 A 
ATOM     12  O   UNL d   1      11.754   6.794  -3.758  0.00  0.00    -0.190 OA
ATOM     13  C   UNL d   1      11.196   6.843  -6.099  0.00  0.00     0.044 A 
ENDBRANCH   1   7
BRANCH   4  14
ATOM     14  C   UNL d   1       8.111   6.204 -11.791  0.00  0.00     0.277 C 
BRANCH  14  15
ATOM     15  C   UNL d   1       7.947   4.943 -12.613  0.00  0.00     0.011 A 
ATOM     16  C   UNL d   1       6.667   4.384 -12.817  0.00  0.00    -0.002 A 
ATOM     17  C   UNL d   1       6.522   3.249 -13.638  0.00  0.00    -0.000 A 
ATOM     18  C   UNL d   1       7.652   2.673 -14.255  0.00  0.00    -0.000 A 
ATOM     19  C   UNL d   1       8.928   3.229 -14.047  0.00  0.00    -0.000 A 
ATOM     20  C   UNL d   1       9.073   4.364 -13.232  0.00  0.00    -0.002 A 
ENDBRANCH  14  15
ENDBRANCH   4  14
TORSDOF 3
