REMARK  3 active torsions:
REMARK  status: ('A' for Active; 'I' for Inactive)
REMARK    1  A    between atoms: S_2  and  C_4 
REMARK    2  A    between atoms: S_2  and  N_11 
REMARK    3  A    between atoms: C_13  and  C_14 
ROOT
ATOM      1  N   UNL d   1       7.861   1.107 -16.543  0.00  0.00    -0.231 N 
ATOM      2  C   UNL d   1       8.049   1.532 -17.851  0.00  0.00     0.091 A 
ATOM      3  C   UNL d   1       7.056   0.978 -18.637  0.00  0.00     0.015 A 
ATOM      4  C   UNL d   1       6.202   0.172 -17.787  0.00  0.00     0.018 A 
ATOM      5  C   UNL d   1       5.034  -0.634 -17.934  0.00  0.00     0.002 A 
ATOM      6  C   UNL d   1       4.416  -1.258 -16.843  0.00  0.00     0.000 A 
ATOM      7  C   UNL d   1       4.982  -1.160 -15.550  0.00  0.00     0.002 A 
ATOM      8  C   UNL d   1       6.179  -0.453 -15.375  0.00  0.00     0.018 A 
ATOM      9  C   UNL d   1       6.762   0.250 -16.464  0.00  0.00     0.075 A 
ENDROOT
BRANCH   1  10
ATOM     10  S   UNL d   1       8.881   1.603 -15.240  0.00  0.00     0.274 S 
ATOM     11  O   UNL d   1      10.035   2.252 -15.891  0.00  0.00    -0.200 OA
ATOM     12  O   UNL d   1       9.070   0.401 -14.425  0.00  0.00    -0.200 OA
BRANCH  10  13
ATOM     13  C   UNL d   1       7.916   2.827 -14.311  0.00  0.00     0.131 A 
ATOM     14  C   UNL d   1       8.513   4.021 -13.836  0.00  0.00     0.152 A 
ATOM     15  C   UNL d   1       7.733   4.941 -13.089  0.00  0.00     0.030 A 
ATOM     16  F   UNL d   1       9.819   4.323 -14.082  0.00  0.00    -0.203 F 
ATOM     17  C   UNL d   1       6.373   4.667 -12.797  0.00  0.00     0.002 A 
ATOM     18  C   UNL d   1       5.797   3.474 -13.257  0.00  0.00     0.001 A 
ATOM     19  C   UNL d   1       6.546   2.568 -14.024  0.00  0.00     0.015 A 
ENDBRANCH  10  13
ENDBRANCH   1  10
BRANCH   3  20
ATOM     20  C   UNL d   1       6.951   1.225 -20.083  0.00  0.00    -0.021 C 
ATOM     21  C   UNL d   1       8.072   1.957 -20.827  0.00  0.00     0.064 C 
ATOM     22  C   UNL d   1       7.999   1.742 -22.348  0.00  0.00     0.295 C 
ATOM     23  N   UNL d   1       6.656   2.012 -22.851  0.00  0.00     0.344 N 
ATOM     24  C   UNL d   1       5.707   1.054 -22.289  0.00  0.00     0.316 C 
ATOM     25  C   UNL d   1       5.862   0.828 -20.801  0.00  0.00     0.007 C 
ENDBRANCH   3  20
TORSDOF 3
