REMARK  7 active torsions:
REMARK  status: ('A' for Active; 'I' for Inactive)
REMARK    1  A    between atoms: S_2  and  N_4 
REMARK    2  A    between atoms: S_2  and  C_24 
REMARK    3  A    between atoms: N_4  and  C_5 
REMARK    4  A    between atoms: C_5  and  C_6 
REMARK    5  A    between atoms: C_6  and  C_7 
REMARK    6  A    between atoms: C_7  and  N_8 
REMARK    7  A    between atoms: C_11  and  C_12 
ROOT
ATOM      1  N   UNL d   1       9.009   5.171 -13.279  0.00  0.00     0.137 N 
ATOM      2  C   UNL d   1       8.151   4.154 -12.672  0.00  0.00     0.251 C 
ATOM      3  C   UNL d   1       7.500   3.336 -13.778  0.00  0.00     0.041 C 
ATOM      4  C   UNL d   1       8.544   2.613 -14.645  0.00  0.00     0.047 C 
ATOM      5  C   UNL d   1       9.568   3.662 -15.142  0.00  0.00     0.041 C 
ATOM      6  C   UNL d   1      10.117   4.526 -14.007  0.00  0.00     0.251 C 
ENDROOT
BRANCH   1   7
ATOM      7  C   UNL d   1       9.573   6.081 -12.292  0.00  0.00     0.252 C 
BRANCH   7   8
ATOM      8  C   UNL d   1       8.669   6.506 -11.111  0.00  0.00     0.062 C 
BRANCH   8   9
ATOM      9  C   UNL d   1       9.057   5.734  -9.806  0.00  0.00     0.141 C 
BRANCH   9  10
ATOM     10  N   UNL d   1       9.116   6.642  -8.671  0.00  0.00    -0.184 NA
BRANCH  10  11
ATOM     11  S   UNL d   1      10.226   7.940  -8.698  0.00  0.00     0.287 S 
ATOM     12  O   UNL d   1      11.397   7.527  -9.499  0.00  0.00    -0.198 OA
ATOM     13  O   UNL d   1       9.499   9.187  -9.011  0.00  0.00    -0.198 OA
BRANCH  11  14
ATOM     14  C   UNL d   1      10.783   8.057  -7.035  0.00  0.00     0.134 A 
ATOM     15  S   UNL d   1      11.005   9.604  -6.289  0.00  0.00    -0.074 SA
ATOM     16  C   UNL d   1      11.472   8.838  -4.786  0.00  0.00     0.030 A 
ATOM     17  C   UNL d   1      11.489   7.412  -4.917  0.00  0.00     0.007 A 
ATOM     18  C   UNL d   1      11.822   9.461  -3.575  0.00  0.00     0.006 A 
ATOM     19  C   UNL d   1      11.066   6.982  -6.229  0.00  0.00     0.020 A 
ATOM     20  C   UNL d   1      11.876   6.682  -3.778  0.00  0.00     0.001 A 
ATOM     21  C   UNL d   1      12.246   7.298  -2.567  0.00  0.00     0.000 A 
ATOM     22  C   UNL d   1      12.229   8.698  -2.472  0.00  0.00     0.001 A 
ENDBRANCH  11  14
ENDBRANCH  10  11
ENDBRANCH   9  10
ENDBRANCH   8   9
ENDBRANCH   7   8
ENDBRANCH   1   7
BRANCH   4  23
ATOM     23  C   UNL d   1       7.884   1.858 -15.776  0.00  0.00     0.087 A 
ATOM     24  C   UNL d   1       6.870   0.869 -15.753  0.00  0.00     0.041 A 
ATOM     25  C   UNL d   1       6.540   0.530 -17.066  0.00  0.00     0.129 A 
ATOM     26  C   UNL d   1       6.183   0.241 -14.679  0.00  0.00     0.006 A 
ATOM     27  O   UNL d   1       7.332   1.324 -17.875  0.00  0.00    -0.211 OA
ATOM     28  C   UNL d   1       5.586  -0.426 -17.397  0.00  0.00     0.057 A 
ATOM     29  N   UNL d   1       8.154   2.142 -17.063  0.00  0.00    -0.131 NA
ATOM     30  C   UNL d   1       4.914  -1.063 -16.338  0.00  0.00     0.142 A 
ATOM     31  F   UNL d   1       3.984  -1.993 -16.632  0.00  0.00    -0.204 F 
ATOM     32  C   UNL d   1       5.202  -0.732 -14.993  0.00  0.00     0.030 A 
ENDBRANCH   4  23
TORSDOF 7
