REMARK  8 active torsions:
REMARK  status: ('A' for Active; 'I' for Inactive)
REMARK    1  A    between atoms: C_2  and  C_4 
REMARK    2  A    between atoms: C_9  and  O_10 
REMARK    3  A    between atoms: O_10  and  C_11 
REMARK    4  A    between atoms: C_11  and  C_12 
REMARK    5  A    between atoms: C_12  and  N_13 
REMARK    6  A    between atoms: C_16  and  N_17 
REMARK    7  A    between atoms: N_17  and  S_18 
REMARK    8  A    between atoms: S_18  and  C_21 
ROOT
ATOM      1  N   UNL d   1       9.508   6.535  -8.784  0.00  0.00     0.140 N 
ATOM      2  C   UNL d   1      10.103   5.252  -8.984  0.00  0.00     0.252 C 
ATOM      3  C   UNL d   1       9.232   4.277  -9.727  0.00  0.00     0.060 C 
ATOM      4  C   UNL d   1       8.743   4.811 -11.084  0.00  0.00     0.120 C 
ATOM      5  C   UNL d   1       8.245   6.233 -10.869  0.00  0.00     0.060 C 
ATOM      6  C   UNL d   1       9.286   7.092 -10.113  0.00  0.00     0.252 C 
ENDROOT
BRANCH   1   7
ATOM      7  C   UNL d   1      10.498   7.339  -8.086  0.00  0.00     0.283 C 
BRANCH   7   8
ATOM      8  C   UNL d   1      10.701   6.826  -6.651  0.00  0.00     0.184 C 
BRANCH   8   9
ATOM      9  O   UNL d   1      11.121   7.927  -5.896  0.00  0.00    -0.329 OA
BRANCH   9  10
ATOM     10  C   UNL d   1      11.570   7.720  -4.615  0.00  0.00     0.090 A 
ATOM     11  C   UNL d   1      11.794   8.856  -3.807  0.00  0.00    -0.000 A 
ATOM     12  C   UNL d   1      12.254   8.774  -2.475  0.00  0.00    -0.002 A 
ATOM     13  C   UNL d   1      12.502   7.526  -1.940  0.00  0.00    -0.000 A 
ATOM     14  C   UNL d   1      12.296   6.396  -2.731  0.00  0.00     0.002 A 
ATOM     15  C   UNL d   1      11.841   6.481  -4.048  0.00  0.00     0.024 A 
BRANCH  11  16
ATOM     16  C   UNL d   1      11.512  10.184  -4.387  0.00  0.00     0.024 C 
ATOM     17  C   UNL d   1      10.094  10.463  -4.592  0.00  0.00     0.005 C 
ATOM     18  C   UNL d   1      12.300  10.491  -5.662  0.00  0.00     0.005 C 
ENDBRANCH  11  16
ENDBRANCH   9  10
ENDBRANCH   8   9
ENDBRANCH   7   8
ENDBRANCH   1   7
BRANCH   4  19
ATOM     19  N   UNL d   1       7.625   4.032 -11.670  0.00  0.00    -0.187 NA
BRANCH  19  20
ATOM     20  S   UNL d   1       7.336   4.076 -13.373  0.00  0.00     0.284 S 
ATOM     21  O   UNL d   1       5.897   3.880 -13.624  0.00  0.00    -0.199 OA
ATOM     22  O   UNL d   1       8.089   5.194 -13.948  0.00  0.00    -0.199 OA
BRANCH  20  23
ATOM     23  C   UNL d   1       8.150   2.643 -14.082  0.00  0.00     0.144 A 
ATOM     24  C   UNL d   1       9.464   2.565 -14.432  0.00  0.00     0.110 A 
ATOM     25  N   UNL d   1       9.622   1.290 -14.934  0.00  0.00    -0.247 N 
ATOM     26  N   UNL d   1       8.463   0.584 -14.932  0.00  0.00    -0.167 NA
ATOM     27  C   UNL d   1      10.830   0.663 -15.415  0.00  0.00     0.154 C 
ATOM     28  C   UNL d   1       7.558   1.400 -14.413  0.00  0.00     0.135 A 
ENDBRANCH  20  23
ENDBRANCH  19  20
ENDBRANCH   4  19
TORSDOF 8
