REMARK  2 active torsions:
REMARK  status: ('A' for Active; 'I' for Inactive)
REMARK    1  A    between atoms: C_2  and  C_3 
REMARK    2  A    between atoms: C_3  and  N_4 
ROOT
ATOM      1  N   UNL d   1       7.756   6.080 -12.571  0.00  0.00     0.141 N 
ATOM      2  C   UNL d   1       6.633   5.805 -11.698  0.00  0.00     0.282 C 
ATOM      3  C   UNL d   1       5.665   4.780 -12.262  0.00  0.00     0.178 C 
ATOM      4  O   UNL d   1       6.394   3.603 -12.647  0.00  0.00    -0.348 OA
ATOM      5  C   UNL d   1       7.385   3.864 -13.631  0.00  0.00     0.170 C 
ATOM      6  C   UNL d   1       7.928   2.586 -14.232  0.00  0.00     0.017 A 
ATOM      7  C   UNL d   1       6.985   1.587 -14.585  0.00  0.00     0.026 A 
ATOM      8  C   UNL d   1       7.402   0.386 -15.152  0.00  0.00     0.131 A 
ATOM      9  O   UNL d   1       6.471  -0.566 -15.452  0.00  0.00    -0.190 OA
ATOM     10  C   UNL d   1       8.768   0.148 -15.401  0.00  0.00     0.028 A 
ATOM     11  C   UNL d   1       9.720   1.131 -15.058  0.00  0.00     0.011 A 
ATOM     12  C   UNL d   1       9.304   2.334 -14.483  0.00  0.00     0.055 A 
ATOM     13  S   UNL d   1      10.618   3.522 -14.049  0.00  0.00     0.067 S 
ATOM     14  O   UNL d   1      11.523   3.613 -15.281  0.00  0.00    -0.252 OA
ATOM     15  C   UNL d   1       9.575   5.051 -14.056  0.00  0.00     0.133 C 
ATOM     16  C   UNL d   1       8.418   4.846 -13.044  0.00  0.00     0.264 C 
ENDROOT
BRANCH   1  17
ATOM     17  C   UNL d   1       8.691   7.064 -12.009  0.00  0.00     0.250 C 
BRANCH  17  18
ATOM     18  C   UNL d   1       9.650   6.563 -10.884  0.00  0.00     0.035 C 
ATOM     19  C   UNL d   1       9.048   5.995  -9.576  0.00  0.00     0.002 C 
ENDBRANCH  17  18
ENDBRANCH   1  17
TORSDOF 2
