REMARK  9 active torsions:
REMARK  status: ('A' for Active; 'I' for Inactive)
REMARK    1  A    between atoms: O_2  and  C_3 
REMARK    2  A    between atoms: C_6  and  N_7 
REMARK    3  A    between atoms: C_9  and  C_10 
REMARK       I    between atoms: C_10  and  N_12 
REMARK    4  A    between atoms: N_12  and  C_13 
REMARK    5  A    between atoms: C_13  and  C_14 
REMARK    6  A    between atoms: C_14  and  C_15 
REMARK    7  A    between atoms: C_15  and  C_16 
REMARK    8  A    between atoms: C_16  and  N_17 
REMARK    9  A    between atoms: N_20  and  C_21 
ROOT
ATOM      1  C   UNL d   1       6.728   5.873 -12.650  0.00  0.00     0.129 C 
ENDROOT
BRANCH   1   2
ATOM      2  N   UNL d   1       7.536   5.881 -11.444  0.00  0.00    -0.233 NA
ATOM      3  C   UNL d   1       8.798   6.303 -11.382  0.00  0.00     0.296 C 
ATOM      4  O   UNL d   1       9.443   6.679 -12.364  0.00  0.00    -0.264 OA
BRANCH   3   5
ATOM      5  C   UNL d   1       9.336   6.341 -10.005  0.00  0.00     0.181 A 
ATOM      6  C   UNL d   1       9.673   7.458  -9.294  0.00  0.00     0.128 A 
ATOM      7  N   UNL d   1      10.114   6.961  -8.081  0.00  0.00    -0.209 N 
ATOM      8  N   UNL d   1      10.030   5.606  -8.068  0.00  0.00    -0.059 NA
ATOM      9  N   UNL d   1       9.555   5.218  -9.208  0.00  0.00    -0.124 NA
BRANCH   7  10
ATOM     10  C   UNL d   1      10.573   7.665  -6.934  0.00  0.00     0.085 A 
ATOM     11  C   UNL d   1      10.627   9.077  -6.909  0.00  0.00     0.021 A 
ATOM     12  C   UNL d   1      11.072   9.763  -5.755  0.00  0.00     0.026 A 
ATOM     13  C   UNL d   1      11.474   9.053  -4.603  0.00  0.00     0.094 A 
ATOM     14  C   UNL d   1      11.442   7.638  -4.639  0.00  0.00     0.026 A 
ATOM     15  C   UNL d   1      10.991   6.962  -5.784  0.00  0.00     0.021 A 
BRANCH  13  16
ATOM     16  O   UNL d   1      11.885   9.755  -3.491  0.00  0.00    -0.328 OA
ATOM     17  C   UNL d   1      12.298   9.005  -2.359  0.00  0.00     0.181 C 
ENDBRANCH  13  16
ENDBRANCH   7  10
ENDBRANCH   3   5
ENDBRANCH   1   2
BRANCH   1  18
ATOM     18  C   UNL d   1       5.650   4.792 -12.560  0.00  0.00     0.029 C 
BRANCH  18  19
ATOM     19  C   UNL d   1       6.267   3.421 -12.829  0.00  0.00     0.037 C 
BRANCH  19  20
ATOM     20  C   UNL d   1       5.261   2.249 -12.739  0.00  0.00     0.251 C 
BRANCH  20  21
ATOM     21  N   UNL d   1       5.727   1.003 -13.350  0.00  0.00     0.141 N 
ATOM     22  C   UNL d   1       6.517   1.279 -14.553  0.00  0.00     0.274 C 
ATOM     23  C   UNL d   1       6.990  -0.014 -15.226  0.00  0.00     0.137 C 
ATOM     24  N   UNL d   1       5.825  -0.823 -15.557  0.00  0.00    -0.344 N 
ATOM     25  C   UNL d   1       4.980  -1.137 -14.413  0.00  0.00     0.137 C 
ATOM     26  C   UNL d   1       4.562   0.180 -13.718  0.00  0.00     0.274 C 
BRANCH  24  27
ATOM     27  C   UNL d   1       5.588  -1.327 -16.846  0.00  0.00     0.068 A 
ATOM     28  C   UNL d   1       5.645  -0.505 -18.007  0.00  0.00     0.084 A 
ATOM     29  C   UNL d   1       5.452  -1.068 -19.290  0.00  0.00     0.070 A 
ATOM     30 CL   UNL d   1       5.949   1.181 -17.922  0.00  0.00    -0.080 Cl
ATOM     31  C   UNL d   1       5.199  -2.439 -19.431  0.00  0.00     0.012 A 
ATOM     32 CL   UNL d   1       5.519  -0.061 -20.704  0.00  0.00    -0.081 Cl
ATOM     33  C   UNL d   1       5.131  -3.253 -18.289  0.00  0.00     0.002 A 
ATOM     34  C   UNL d   1       5.316  -2.703 -17.005  0.00  0.00     0.018 A 
ENDBRANCH  24  27
ENDBRANCH  20  21
ENDBRANCH  19  20
ENDBRANCH  18  19
ENDBRANCH   1  18
TORSDOF 9
