REMARK  8 active torsions:
REMARK  status: ('A' for Active; 'I' for Inactive)
REMARK    1  A    between atoms: O_2  and  C_3 
REMARK    2  A    between atoms: C_8  and  N_9 
REMARK    3  A    between atoms: N_12  and  C_13 
REMARK    4  A    between atoms: C_13  and  C_14 
REMARK    5  A    between atoms: C_14  and  C_15 
REMARK    6  A    between atoms: C_15  and  C_16 
REMARK    7  A    between atoms: C_16  and  C_17 
REMARK    8  A    between atoms: N_19  and  C_20 
ROOT
ATOM      1  C   UNL d   1       9.163   6.379 -11.802  0.00  0.00     0.101 A 
ATOM      2  C   UNL d   1       9.475   6.143 -10.495  0.00  0.00     0.119 A 
ATOM      3  N   UNL d   1       9.862   7.386 -10.022  0.00  0.00    -0.209 N 
ATOM      4  N   UNL d   1       9.787   8.316 -11.009  0.00  0.00    -0.060 NA
ATOM      5  N   UNL d   1       9.361   7.727 -12.078  0.00  0.00    -0.133 NA
ENDROOT
BRANCH   1   6
ATOM      6  C   UNL d   1       8.743   5.423 -12.863  0.00  0.00     0.049 C 
BRANCH   6   7
ATOM      7  C   UNL d   1       9.944   4.890 -13.659  0.00  0.00     0.009 C 
BRANCH   7   8
ATOM      8  C   UNL d   1       9.469   4.059 -14.837  0.00  0.00     0.036 C 
BRANCH   8   9
ATOM      9  C   UNL d   1      10.618   3.393 -15.624  0.00  0.00     0.250 C 
BRANCH   9  10
ATOM     10  N   UNL d   1      10.172   2.368 -16.580  0.00  0.00     0.141 N 
ATOM     11  C   UNL d   1       9.415   1.290 -15.933  0.00  0.00     0.274 C 
ATOM     12  C   UNL d   1       9.019   0.204 -16.936  0.00  0.00     0.137 C 
ATOM     13  N   UNL d   1       8.272   0.828 -18.034  0.00  0.00    -0.343 N 
ATOM     14  C   UNL d   1       8.996   1.911 -18.703  0.00  0.00     0.137 C 
ATOM     15  C   UNL d   1       9.416   2.971 -17.675  0.00  0.00     0.274 C 
BRANCH  13  16
ATOM     16  C   UNL d   1       7.011   0.412 -18.465  0.00  0.00     0.079 A 
ATOM     17  C   UNL d   1       5.973   0.005 -17.566  0.00  0.00     0.110 A 
ATOM     18  C   UNL d   1       4.725  -0.419 -18.091  0.00  0.00     0.026 A 
ATOM     19  C   UNL d   1       4.476  -0.406 -19.474  0.00  0.00     0.002 A 
ATOM     20  C   UNL d   1       5.480   0.011 -20.363  0.00  0.00     0.002 A 
ATOM     21  C   UNL d   1       6.733   0.408 -19.858  0.00  0.00     0.019 A 
BRANCH  17  22
ATOM     22  O   UNL d   1       6.207   0.089 -16.206  0.00  0.00    -0.327 OA
ATOM     23  C   UNL d   1       5.254  -0.453 -15.303  0.00  0.00     0.181 C 
ENDBRANCH  17  22
ENDBRANCH  13  16
ENDBRANCH   9  10
ENDBRANCH   8   9
ENDBRANCH   7   8
ENDBRANCH   6   7
ENDBRANCH   1   6
BRANCH   3  24
ATOM     24  C   UNL d   1      10.259   7.752  -8.710  0.00  0.00     0.084 A 
ATOM     25  C   UNL d   1      10.628   6.763  -7.773  0.00  0.00     0.015 A 
ATOM     26  C   UNL d   1      11.008   7.162  -6.484  0.00  0.00    -0.016 A 
ATOM     27  C   UNL d   1      11.036   8.508  -6.119  0.00  0.00    -0.004 A 
ATOM     28  C   UNL d   1      11.461   6.278  -5.342  0.00  0.00     0.053 A 
ATOM     29  C   UNL d   1      10.670   9.512  -7.028  0.00  0.00     0.001 A 
ATOM     30  C   UNL d   1      11.474   8.590  -4.739  0.00  0.00    -0.004 A 
ATOM     31  C   UNL d   1      10.280   9.120  -8.330  0.00  0.00     0.019 A 
ATOM     32  C   UNL d   1      11.740   7.303  -4.275  0.00  0.00    -0.018 A 
ATOM     33  C   UNL d   1      11.621   9.701  -3.898  0.00  0.00    -0.000 A 
ATOM     34  C   UNL d   1      12.181   7.064  -2.965  0.00  0.00    -0.004 A 
ATOM     35  C   UNL d   1      12.350   8.172  -2.112  0.00  0.00    -0.000 A 
ATOM     36  C   UNL d   1      12.080   9.475  -2.584  0.00  0.00    -0.000 A 
ENDBRANCH   3  24
TORSDOF 8
