REMARK  4 active torsions:
REMARK  status: ('A' for Active; 'I' for Inactive)
REMARK    1  A    between atoms: C_6  and  C_7 
REMARK       I    between atoms: C_7  and  N_9 
REMARK    2  A    between atoms: N_9  and  C_10 
REMARK    3  A    between atoms: C_10  and  N_11 
REMARK    4  A    between atoms: C_14  and  C_15 
ROOT
ATOM      1  N   UNL d   1      10.209   7.211  -9.204  0.00  0.00    -0.235 NA
ATOM      2  C   UNL d   1       9.080   7.489  -8.309  0.00  0.00     0.079 C 
ATOM      3  C   UNL d   1       9.522   7.384  -6.847  0.00  0.00     0.024 C 
ATOM      4  C   UNL d   1      10.688   8.344  -6.558  0.00  0.00     0.044 C 
ATOM      5  C   UNL d   1      11.803   8.152  -7.592  0.00  0.00     0.024 C 
ATOM      6  C   UNL d   1      11.251   8.222  -9.020  0.00  0.00     0.079 C 
ENDROOT
BRANCH   1   7
ATOM      7  C   UNL d   1       9.754   7.236 -10.591  0.00  0.00     0.152 C 
BRANCH   7   8
ATOM      8  N   UNL d   1       8.944   6.112 -11.043  0.00  0.00    -0.194 NA
ATOM      9  C   UNL d   1       9.110   5.431 -12.190  0.00  0.00     0.280 C 
ATOM     10  O   UNL d   1      10.117   5.501 -12.895  0.00  0.00    -0.265 OA
BRANCH   9  11
ATOM     11  C   UNL d   1       7.983   4.534 -12.606  0.00  0.00     0.058 A 
ATOM     12  C   UNL d   1       6.691   4.676 -12.049  0.00  0.00     0.005 A 
ATOM     13  C   UNL d   1       5.644   3.842 -12.475  0.00  0.00    -0.000 A 
ATOM     14  C   UNL d   1       5.874   2.860 -13.452  0.00  0.00    -0.004 A 
ATOM     15  C   UNL d   1       7.143   2.739 -14.050  0.00  0.00    -0.022 A 
ATOM     16  C   UNL d   1       7.399   1.687 -15.111  0.00  0.00     0.031 C 
ATOM     17  C   UNL d   1       8.192   3.582 -13.634  0.00  0.00     0.001 A 
ENDBRANCH   9  11
ENDBRANCH   7   8
ENDBRANCH   1   7
BRANCH   4  18
ATOM     18  C   UNL d   1      11.227   8.199  -5.134  0.00  0.00     0.068 A 
ATOM     19  N   UNL d   1      11.381   9.316  -4.348  0.00  0.00    -0.188 N 
ATOM     20  C   UNL d   1      11.864   9.192  -3.073  0.00  0.00     0.108 A 
ATOM     21  O   UNL d   1      11.048  10.478  -4.784  0.00  0.00    -0.080 OA
ATOM     22  C   UNL d   1      12.215   7.943  -2.529  0.00  0.00     0.021 A 
ATOM     23  C   UNL d   1      12.064   6.793  -3.316  0.00  0.00     0.003 A 
ATOM     24  C   UNL d   1      11.574   6.926  -4.621  0.00  0.00     0.015 A 
ENDBRANCH   4  18
TORSDOF 4
