REMARK  3 active torsions:
REMARK  status: ('A' for Active; 'I' for Inactive)
REMARK       I    between atoms: C_2  and  N_4 
REMARK    1  A    between atoms: C_13  and  C_14 
REMARK    2  A    between atoms: N_16  and  S_17 
REMARK    3  A    between atoms: S_17  and  C_20 
ROOT
ATOM      1  C   UNL d   1       9.114   3.617 -14.535  0.00  0.00     0.037 A 
ATOM      2  C   UNL d   1       9.032   4.779 -13.818  0.00  0.00     0.093 A 
ATOM      3  N   UNL d   1       7.857   4.812 -13.088  0.00  0.00    -0.231 N 
ATOM      4  C   UNL d   1       7.138   3.646 -13.311  0.00  0.00     0.075 A 
ATOM      5  C   UNL d   1       5.911   3.169 -12.826  0.00  0.00     0.018 A 
ATOM      6  C   UNL d   1       5.456   1.906 -13.214  0.00  0.00     0.002 A 
ATOM      7  C   UNL d   1       6.191   1.129 -14.121  0.00  0.00     0.000 A 
ATOM      8  C   UNL d   1       7.396   1.624 -14.632  0.00  0.00     0.002 A 
ATOM      9  C   UNL d   1       7.922   2.879 -14.226  0.00  0.00     0.020 A 
ENDROOT
BRANCH   1  10
ATOM     10  C   UNL d   1      10.191   3.201 -15.422  0.00  0.00     0.092 A 
ATOM     11  N   UNL d   1      10.859   4.083 -16.281  0.00  0.00    -0.162 N 
ATOM     12  C   UNL d   1      10.683   5.516 -16.435  0.00  0.00     0.127 C 
ATOM     13  C   UNL d   1      11.766   3.330 -16.937  0.00  0.00     0.714 A 
ATOM     14  C   UNL d   1      11.269   6.005 -17.760  0.00  0.00     0.050 C 
ATOM     15  C   UNL d   1      12.643   5.388 -18.062  0.00  0.00     0.129 C 
ATOM     16  N   UNL d   1      12.675   3.922 -17.884  0.00  0.00    -0.132 N 
ATOM     17  C   UNL d   1      13.622   3.219 -18.565  0.00  0.00     0.252 C 
ATOM     18  C   UNL d   1      13.354   1.752 -18.959  0.00  0.00     0.099 C 
ATOM     19  O   UNL d   1      14.694   3.706 -18.921  0.00  0.00    -0.271 OA
ATOM     20  N   UNL d   1      11.756   2.054 -16.576  0.00  0.00    -0.065 NA
ATOM     21  C   UNL d   1      10.753   1.953 -15.629  0.00  0.00     0.094 A 
ATOM     22  C   UNL d   1      10.456   0.611 -15.022  0.00  0.00     0.054 C 
ENDBRANCH   1  10
BRANCH   3  23
ATOM     23  S   UNL d   1       7.436   6.137 -12.086  0.00  0.00     0.271 S 
ATOM     24  O   UNL d   1       7.864   7.316 -12.833  0.00  0.00    -0.200 OA
ATOM     25  O   UNL d   1       6.034   5.944 -11.698  0.00  0.00    -0.200 OA
BRANCH  23  26
ATOM     26  C   UNL d   1       8.511   5.934 -10.683  0.00  0.00     0.104 A 
ATOM     27  C   UNL d   1       8.355   4.817  -9.847  0.00  0.00     0.013 A 
ATOM     28  C   UNL d   1       9.166   4.699  -8.709  0.00  0.00     0.001 A 
ATOM     29  C   UNL d   1      10.121   5.692  -8.410  0.00  0.00     0.000 A 
ATOM     30  C   UNL d   1      10.280   6.801  -9.256  0.00  0.00     0.001 A 
ATOM     31  C   UNL d   1       9.478   6.920 -10.403  0.00  0.00     0.013 A 
ENDBRANCH  23  26
ENDBRANCH   3  23
TORSDOF 3
