REMARK  9 active torsions:
REMARK  status: ('A' for Active; 'I' for Inactive)
REMARK    1  A    between atoms: C_3  and  C_4 
REMARK    2  A    between atoms: C_4  and  C_5 
REMARK    3  A    between atoms: C_5  and  N_6 
REMARK    4  A    between atoms: N_6  and  C_7 
REMARK    5  A    between atoms: N_6  and  C_22 
REMARK    6  A    between atoms: C_7  and  C_8 
REMARK    7  A    between atoms: C_8  and  C_9 
REMARK    8  A    between atoms: C_9  and  N_10 
REMARK    9  A    between atoms: N_13  and  C_14 
ROOT
ATOM      1  N   UNL d   1       8.338   9.157 -12.056  0.00  0.00    -0.196 NA
ATOM      2  C   UNL d   1       7.195   8.979 -12.092  0.00  0.00     0.074 C 
ATOM      3  C   UNL d   1       5.730   8.646 -12.174  0.00  0.00     0.107 C 
ENDROOT
BRANCH   3   4
ATOM      4  C   UNL d   1       5.720   7.253 -12.759  0.00  0.00     0.051 C 
BRANCH   4   5
ATOM      5  C   UNL d   1       5.962   6.133 -11.765  0.00  0.00     0.251 C 
BRANCH   5   6
ATOM      6  N   UNL d   1       7.067   5.277 -12.213  0.00  0.00     0.135 N 
BRANCH   6   7
ATOM      7  C   UNL d   1       8.042   4.912 -11.167  0.00  0.00     0.252 C 
BRANCH   7   8
ATOM      8  C   UNL d   1       8.335   5.981 -10.104  0.00  0.00     0.071 C 
BRANCH   8   9
ATOM      9  C   UNL d   1       9.047   5.434  -8.884  0.00  0.00     0.253 C 
BRANCH   9  10
ATOM     10  N   UNL d   1       9.907   6.495  -8.370  0.00  0.00     0.141 N 
ATOM     11  C   UNL d   1      10.877   5.850  -7.518  0.00  0.00     0.274 C 
ATOM     12  C   UNL d   1      11.863   6.828  -6.919  0.00  0.00     0.137 C 
ATOM     13  N   UNL d   1      11.148   7.874  -6.208  0.00  0.00    -0.344 N 
ATOM     14  C   UNL d   1      10.097   8.522  -6.982  0.00  0.00     0.137 C 
ATOM     15  C   UNL d   1       9.147   7.451  -7.546  0.00  0.00     0.274 C 
BRANCH  13  16
ATOM     16  C   UNL d   1      11.472   8.236  -4.901  0.00  0.00     0.056 A 
ATOM     17  C   UNL d   1      11.867   7.269  -3.941  0.00  0.00     0.017 A 
ATOM     18  C   UNL d   1      12.204   7.646  -2.629  0.00  0.00     0.002 A 
ATOM     19  C   UNL d   1      12.164   8.999  -2.263  0.00  0.00     0.000 A 
ATOM     20  C   UNL d   1      11.775   9.960  -3.205  0.00  0.00     0.002 A 
ATOM     21  C   UNL d   1      11.428   9.594  -4.514  0.00  0.00     0.017 A 
ENDBRANCH  13  16
ENDBRANCH   9  10
ENDBRANCH   8   9
ENDBRANCH   7   8
ENDBRANCH   6   7
BRANCH   6  22
ATOM     22  C   UNL d   1       6.531   4.104 -12.934  0.00  0.00     0.224 C 
ATOM     23  C   UNL d   1       7.598   3.330 -13.748  0.00  0.00     0.059 C 
ATOM     24  C   UNL d   1       7.088   2.027 -14.358  0.00  0.00    -0.022 A 
ATOM     25  C   UNL d   1       5.907   1.405 -13.884  0.00  0.00    -0.026 A 
ATOM     26  C   UNL d   1       7.824   1.411 -15.389  0.00  0.00     0.023 A 
ATOM     27  C   UNL d   1       5.075   2.039 -12.790  0.00  0.00     0.028 C 
ATOM     28  C   UNL d   1       5.473   0.186 -14.444  0.00  0.00    -0.003 A 
ATOM     29  C   UNL d   1       5.757   3.152 -12.012  0.00  0.00     0.038 C 
ATOM     30  C   UNL d   1       6.207  -0.412 -15.482  0.00  0.00     0.027 A 
ATOM     31  C   UNL d   1       7.383   0.203 -15.955  0.00  0.00     0.131 A 
ATOM     32  O   UNL d   1       8.103  -0.385 -16.955  0.00  0.00    -0.190 OA
ENDBRANCH   6  22
ENDBRANCH   5   6
ENDBRANCH   4   5
ENDBRANCH   3   4
TORSDOF 9
