REMARK  1 active torsions:
REMARK  status: ('A' for Active; 'I' for Inactive)
REMARK    1  A    between atoms: C_7  and  C_8 
ROOT
ATOM      1  N   UNL d   1      12.095   6.655  -2.397  0.00  0.00    -0.191 NA
ATOM      2  C   UNL d   1      11.896   7.252  -3.372  0.00  0.00     0.101 C 
ATOM      3  C   UNL d   1      11.659   8.005  -4.581  0.00  0.00     0.068 A 
ATOM      4  C   UNL d   1      12.227   9.281  -4.748  0.00  0.00     0.010 A 
ATOM      5  C   UNL d   1      11.995   9.991  -5.941  0.00  0.00     0.000 A 
ATOM      6  C   UNL d   1      11.204   9.430  -6.960  0.00  0.00    -0.004 A 
ATOM      7  C   UNL d   1      10.642   8.150  -6.811  0.00  0.00    -0.020 A 
ATOM      8  C   UNL d   1      10.872   7.441  -5.607  0.00  0.00     0.006 A 
ENDROOT
BRANCH   7   9
ATOM      9  C   UNL d   1       9.809   7.562  -7.971  0.00  0.00     0.059 C 
ATOM     10  C   UNL d   1      10.591   7.601  -9.310  0.00  0.00     0.294 C 
ATOM     11  N   UNL d   1       9.824   7.024 -10.417  0.00  0.00     0.339 N 
ATOM     12  C   UNL d   1       9.460   5.640 -10.152  0.00  0.00     0.290 C 
ATOM     13  C   UNL d   1       8.623   5.511  -8.886  0.00  0.00     0.038 C 
ATOM     14  C   UNL d   1       9.351   6.122  -7.696  0.00  0.00     0.009 C 
ENDBRANCH   7   9
TORSDOF 1
