REMARK  8 active torsions:
REMARK  status: ('A' for Active; 'I' for Inactive)
REMARK    1  A    between atoms: C_5  and  C_6 
REMARK    2  A    between atoms: C_9  and  S_10 
REMARK    3  A    between atoms: S_10  and  C_11 
REMARK    4  A    between atoms: C_11  and  C_12 
REMARK    5  A    between atoms: C_12  and  C_13 
REMARK    6  A    between atoms: C_13  and  N_14 
REMARK    7  A    between atoms: C_19  and  C_20 
REMARK    8  A    between atoms: C_23  and  C_24 
ROOT
ATOM      1  C   UNL d   1       7.279   1.268 -14.815  0.00  0.00     0.251 C 
ENDROOT
BRANCH   1   2
ATOM      2  C   UNL d   1       8.772   1.016 -15.093  0.00  0.00     0.047 C 
BRANCH   2   3
ATOM      3  C   UNL d   1       9.624   2.292 -14.960  0.00  0.00     0.067 C 
BRANCH   3   4
ATOM      4  S   UNL d   1      11.266   2.051 -15.689  0.00  0.00    -0.075 SA
BRANCH   4   5
ATOM      5  C   UNL d   1      11.762   3.732 -15.940  0.00  0.00     0.193 A 
ATOM      6  N   UNL d   1      11.400   4.755 -15.159  0.00  0.00    -0.122 NA
ATOM      7  N   UNL d   1      11.952   5.878 -15.737  0.00  0.00    -0.133 NA
ATOM      8  C   UNL d   1      12.639   5.436 -16.794  0.00  0.00     0.144 A 
ATOM      9  N   UNL d   1      12.548   4.103 -16.976  0.00  0.00    -0.292 N 
ATOM     10  C   UNL d   1      13.119   3.291 -18.042  0.00  0.00     0.134 C 
BRANCH   8  11
ATOM     11  C   UNL d   1      13.354   6.342 -17.764  0.00  0.00     0.070 C 
ATOM     12  C   UNL d   1      14.207   7.410 -17.081  0.00  0.00     0.032 C 
ATOM     13  C   UNL d   1      14.998   8.217 -18.125  0.00  0.00     0.105 C 
ATOM     14  N   UNL d   1      14.198   8.627 -19.295  0.00  0.00    -0.318 N 
ATOM     15  C   UNL d   1      14.804   9.708 -20.084  0.00  0.00     0.128 C 
ATOM     16  C   UNL d   1      13.036   8.052 -19.654  0.00  0.00     0.234 C 
ATOM     17  C   UNL d   1      12.383   7.004 -18.756  0.00  0.00     0.095 C 
ATOM     18  O   UNL d   1      12.423   8.356 -20.684  0.00  0.00    -0.272 OA
ENDBRANCH   8  11
ENDBRANCH   4   5
ENDBRANCH   3   4
ENDBRANCH   2   3
ENDBRANCH   1   2
BRANCH   1  19
ATOM     19  N   UNL d   1       6.514   0.025 -14.915  0.00  0.00     0.137 N 
ATOM     20  C   UNL d   1       6.297  -0.361 -16.303  0.00  0.00     0.251 C 
ATOM     21  C   UNL d   1       5.174  -1.364 -16.267  0.00  0.00     0.037 A 
ATOM     22  C   UNL d   1       4.433  -1.038 -15.006  0.00  0.00     0.038 C 
ATOM     23  C   UNL d   1       4.491  -1.839 -17.538  0.00  0.00     0.024 A 
ATOM     24  C   UNL d   1       5.348  -2.795 -16.744  0.00  0.00     0.007 A 
ATOM     25  C   UNL d   1       5.163   0.156 -14.404  0.00  0.00     0.250 C 
BRANCH  23  26
ATOM     26  C   UNL d   1       4.948  -1.287 -18.857  0.00  0.00    -0.022 A 
ATOM     27  C   UNL d   1       4.555   0.005 -19.254  0.00  0.00    -0.004 A 
ATOM     28  C   UNL d   1       5.043   0.567 -20.448  0.00  0.00     0.004 A 
ATOM     29  C   UNL d   1       5.922  -0.172 -21.272  0.00  0.00     0.071 A 
ATOM     30  C   UNL d   1       6.315  -1.463 -20.873  0.00  0.00     0.004 A 
ATOM     31  C   UNL d   1       5.825  -2.021 -19.680  0.00  0.00    -0.004 A 
BRANCH  29  32
ATOM     32  C   UNL d   1       6.448   0.427 -22.565  0.00  0.00     0.419 C 
ATOM     33  F   UNL d   1       5.535   1.225 -23.119  0.00  0.00    -0.166 F 
ATOM     34  F   UNL d   1       7.543   1.140 -22.306  0.00  0.00    -0.166 F 
ATOM     35  F   UNL d   1       6.758  -0.532 -23.440  0.00  0.00    -0.166 F 
ENDBRANCH  29  32
ENDBRANCH  23  26
ENDBRANCH   1  19
TORSDOF 8
