REMARK  1 active torsions:
REMARK  status: ('A' for Active; 'I' for Inactive)
REMARK    1  A    between atoms: C_6  and  C_7 
ROOT
ATOM      1  N   UNL d   1       8.692   6.295  -8.375  0.00  0.00    -0.100 N 
ATOM      2  C   UNL d   1       9.693   7.165  -8.023  0.00  0.00     0.292 A 
ATOM      3  N   UNL d   1      10.839   7.315  -8.578  0.00  0.00    -0.167 NA
ATOM      4  C   UNL d   1      11.452   8.291  -7.833  0.00  0.00     0.291 A 
ATOM      5  O   UNL d   1      12.580   8.751  -7.975  0.00  0.00    -0.267 OA
ATOM      6  C   UNL d   1      10.521   8.731  -6.709  0.00  0.00     0.227 A 
ATOM      7  O   UNL d   1       9.394   7.918  -6.930  0.00  0.00    -0.287 OA
ENDROOT
BRANCH   6   8
ATOM      8  C   UNL d   1      11.126   8.488  -5.334  0.00  0.00     0.014 A 
ATOM      9  C   UNL d   1      11.458   9.589  -4.517  0.00  0.00    -0.001 A 
ATOM     10  C   UNL d   1      11.981   9.380  -3.228  0.00  0.00    -0.000 A 
ATOM     11  C   UNL d   1      12.224   8.078  -2.759  0.00  0.00    -0.000 A 
ATOM     12  C   UNL d   1      11.893   6.975  -3.565  0.00  0.00    -0.000 A 
ATOM     13  C   UNL d   1      11.354   7.178  -4.851  0.00  0.00    -0.001 A 
ENDBRANCH   6   8
TORSDOF 1
