REMARK  7 active torsions:
REMARK  status: ('A' for Active; 'I' for Inactive)
REMARK    1  A    between atoms: C_2  and  C_4 
REMARK    2  A    between atoms: N_7  and  C_8 
REMARK    3  A    between atoms: C_12  and  N_13 
REMARK       I    between atoms: N_13  and  C_14 
REMARK       I    between atoms: C_14  and  N_16 
REMARK    4  A    between atoms: N_16  and  C_17 
REMARK    5  A    between atoms: C_17  and  C_18 
REMARK    6  A    between atoms: C_18  and  N_19 
REMARK    7  A    between atoms: N_22  and  C_23 
ROOT
ATOM      1  N   UNL d   1       8.104   3.592 -13.242  0.00  0.00    -0.191 NA
ATOM      2  C   UNL d   1       8.672   4.735 -12.818  0.00  0.00     0.364 C 
ATOM      3  O   UNL d   1       9.324   5.511 -13.516  0.00  0.00    -0.243 OA
ATOM      4  N   UNL d   1       8.395   4.972 -11.537  0.00  0.00    -0.215 NA
ENDROOT
BRANCH   1   5
ATOM      5  C   UNL d   1       8.191   2.958 -14.509  0.00  0.00     0.088 A 
ATOM      6  C   UNL d   1       9.191   3.260 -15.464  0.00  0.00     0.019 A 
ATOM      7  C   UNL d   1       9.200   2.604 -16.705  0.00  0.00     0.003 A 
ATOM      8  C   UNL d   1       8.228   1.629 -17.005  0.00  0.00     0.018 A 
ATOM      9  C   UNL d   1       7.230   1.304 -16.058  0.00  0.00     0.066 A 
ATOM     10  C   UNL d   1       7.220   1.978 -14.815  0.00  0.00     0.037 A 
BRANCH   9  11
ATOM     11  N   UNL d   1       6.246   0.320 -16.355  0.00  0.00    -0.304 N 
ATOM     12  C   UNL d   1       5.537  -0.430 -15.426  0.00  0.00     0.080 A 
ATOM     13  C   UNL d   1       4.683  -1.259 -16.095  0.00  0.00     0.025 A 
ATOM     14  C   UNL d   1       4.869  -1.039 -17.488  0.00  0.00     0.078 A 
ATOM     15  C   UNL d   1       5.819  -0.060 -17.621  0.00  0.00     0.085 A 
BRANCH  14  16
ATOM     16  C   UNL d   1       4.206  -1.653 -18.657  0.00  0.00     0.298 C 
ATOM     17  N   UNL d   1       3.507  -2.767 -18.439  0.00  0.00    -0.102 N 
ATOM     18  O   UNL d   1       4.305  -1.179 -19.785  0.00  0.00    -0.264 OA
ENDBRANCH  14  16
ENDBRANCH   9  11
ENDBRANCH   1   5
BRANCH   4  19
ATOM     19  C   UNL d   1       8.575   6.256 -10.878  0.00  0.00     0.166 C 
BRANCH  19  20
ATOM     20  C   UNL d   1       9.944   6.376 -10.192  0.00  0.00     0.277 C 
BRANCH  20  21
ATOM     21  N   UNL d   1       9.957   7.394  -9.140  0.00  0.00     0.143 N 
ATOM     22  C   UNL d   1       9.269   6.881  -7.942  0.00  0.00     0.274 C 
ATOM     23  C   UNL d   1       9.266   7.932  -6.824  0.00  0.00     0.137 C 
ATOM     24  N   UNL d   1      10.625   8.358  -6.539  0.00  0.00    -0.344 N 
ATOM     25  C   UNL d   1      11.406   8.788  -7.682  0.00  0.00     0.137 C 
ATOM     26  C   UNL d   1      11.344   7.710  -8.779  0.00  0.00     0.274 C 
BRANCH  24  27
ATOM     27  C   UNL d   1      11.165   8.349  -5.247  0.00  0.00     0.056 A 
ATOM     28  C   UNL d   1      11.420   9.569  -4.595  0.00  0.00     0.017 A 
ATOM     29  C   UNL d   1      11.952   9.574  -3.291  0.00  0.00     0.002 A 
ATOM     30  C   UNL d   1      12.258   8.366  -2.643  0.00  0.00     0.000 A 
ATOM     31  C   UNL d   1      12.005   7.144  -3.288  0.00  0.00     0.002 A 
ATOM     32  C   UNL d   1      11.459   7.134  -4.591  0.00  0.00     0.017 A 
ENDBRANCH  24  27
ENDBRANCH  20  21
ENDBRANCH  19  20
ENDBRANCH   4  19
TORSDOF 7
