REMARK  5 active torsions:
REMARK  status: ('A' for Active; 'I' for Inactive)
REMARK    1  A    between atoms: C_9  and  C_10 
REMARK    2  A    between atoms: C_10  and  C_11 
REMARK    3  A    between atoms: C_11  and  C_12 
REMARK    4  A    between atoms: C_12  and  N_13 
REMARK    5  A    between atoms: N_16  and  C_17 
ROOT
ATOM      1  N   UNL d   1       9.798   7.010  -9.854  0.00  0.00     0.141 N 
ATOM      2  C   UNL d   1       9.494   7.330 -11.267  0.00  0.00     0.274 C 
ATOM      3  C   UNL d   1       9.615   6.076 -12.162  0.00  0.00     0.137 C 
ATOM      4  N   UNL d   1       8.779   5.045 -11.620  0.00  0.00    -0.343 N 
ATOM      5  C   UNL d   1       8.971   4.724 -10.220  0.00  0.00     0.137 C 
ATOM      6  C   UNL d   1       8.844   5.989  -9.374  0.00  0.00     0.274 C 
ENDROOT
BRANCH   1   7
ATOM      7  C   UNL d   1       9.695   8.251  -9.088  0.00  0.00     0.251 C 
BRANCH   7   8
ATOM      8  C   UNL d   1       9.964   8.109  -7.574  0.00  0.00     0.040 C 
BRANCH   8   9
ATOM      9  C   UNL d   1      11.371   8.595  -7.217  0.00  0.00     0.030 C 
BRANCH   9  10
ATOM     10  C   UNL d   1      11.381   8.999  -5.790  0.00  0.00     0.001 C 
ATOM     11  C   UNL d   1      11.053  10.245  -5.322  0.00  0.00     0.095 C 
ATOM     12  N   UNL d   1      11.187  10.259  -3.951  0.00  0.00    -0.244 NA
ATOM     13  C   UNL d   1      11.644   9.054  -3.490  0.00  0.00     0.083 A 
ATOM     14  C   UNL d   1      12.038   8.634  -2.224  0.00  0.00     0.019 A 
ATOM     15  C   UNL d   1      11.674   8.199  -4.646  0.00  0.00     0.043 A 
ATOM     16  C   UNL d   1      12.409   7.301  -2.043  0.00  0.00     0.004 A 
ATOM     17  C   UNL d   1      12.368   6.417  -3.132  0.00  0.00     0.030 A 
ATOM     18  C   UNL d   1      12.004   6.844  -4.414  0.00  0.00     0.141 A 
ATOM     19  F   UNL d   1      12.080   6.007  -5.460  0.00  0.00    -0.204 F 
ENDBRANCH   9  10
ENDBRANCH   8   9
ENDBRANCH   7   8
ENDBRANCH   1   7
BRANCH   4  20
ATOM     20  C   UNL d   1       7.932   4.315 -12.443  0.00  0.00     0.081 A 
ATOM     21  C   UNL d   1       8.436   3.600 -13.544  0.00  0.00     0.132 A 
ATOM     22  C   UNL d   1       7.549   2.802 -14.312  0.00  0.00     0.118 A 
ATOM     23  O   UNL d   1       9.788   3.630 -13.822  0.00  0.00    -0.325 OA
ATOM     24  C   UNL d   1       6.199   2.764 -13.965  0.00  0.00     0.026 A 
ATOM     25  O   UNL d   1       7.988   2.050 -15.376  0.00  0.00    -0.326 OA
ATOM     26  C   UNL d   1       5.691   3.501 -12.888  0.00  0.00     0.004 A 
ATOM     27  C   UNL d   1       6.570   4.268 -12.115  0.00  0.00     0.019 A 
ATOM     28  C   UNL d   1       9.392   1.831 -15.400  0.00  0.00     0.181 C 
ATOM     29  C   UNL d   1      10.128   3.151 -15.111  0.00  0.00     0.182 C 
ENDBRANCH   4  20
TORSDOF 5
