REMARK  7 active torsions:
REMARK  status: ('A' for Active; 'I' for Inactive)
REMARK    1  A    between atoms: C_7  and  S_8 
REMARK    2  A    between atoms: S_8  and  N_11 
REMARK    3  A    between atoms: N_11  and  C_12 
REMARK    4  A    between atoms: N_15  and  C_16 
REMARK    5  A    between atoms: C_16  and  C_17 
REMARK    6  A    between atoms: C_17  and  C_18 
REMARK    7  A    between atoms: C_18  and  C_19 
ROOT
ATOM      1  C   UNL d   1       8.906   4.696 -10.873  0.00  0.00     0.151 C 
ATOM      2  C   UNL d   1       9.060   4.476  -9.376  0.00  0.00     0.063 C 
ATOM      3  C   UNL d   1       9.523   5.808  -8.879  0.00  0.00     0.252 C 
ATOM      4  N   UNL d   1      10.172   6.487  -9.989  0.00  0.00     0.139 N 
ATOM      5  C   UNL d   1       9.271   6.181 -11.079  0.00  0.00     0.275 C 
ENDROOT
BRANCH   1   6
ATOM      6  N   UNL d   1       7.522   4.409 -11.271  0.00  0.00    -0.185 NA
BRANCH   6   7
ATOM      7  S   UNL d   1       7.008   4.766 -12.860  0.00  0.00     0.281 S 
ATOM      8  O   UNL d   1       7.526   6.083 -13.226  0.00  0.00    -0.199 OA
ATOM      9  O   UNL d   1       5.564   4.462 -12.922  0.00  0.00    -0.199 OA
BRANCH   7  10
ATOM     10  C   UNL d   1       7.920   3.579 -13.831  0.00  0.00     0.105 A 
ATOM     11  C   UNL d   1       9.273   3.822 -14.160  0.00  0.00     0.014 A 
ATOM     12  C   UNL d   1      10.007   2.883 -14.928  0.00  0.00     0.018 A 
ATOM     13  C   UNL d   1      11.349   2.813 -15.417  0.00  0.00     0.020 A 
ATOM     14  C   UNL d   1       9.319   1.705 -15.352  0.00  0.00     0.060 A 
ATOM     15  C   UNL d   1      11.445   1.637 -16.109  0.00  0.00     0.076 A 
ATOM     16  N   UNL d   1      10.242   0.956 -16.076  0.00  0.00    -0.324 N 
ATOM     17  C   UNL d   1       9.990  -0.325 -16.699  0.00  0.00     0.131 C 
ATOM     18  C   UNL d   1       7.974   1.472 -15.039  0.00  0.00     0.018 A 
ATOM     19  C   UNL d   1       7.264   2.422 -14.277  0.00  0.00     0.014 A 
ENDBRANCH   7  10
ENDBRANCH   6   7
ENDBRANCH   1   6
BRANCH   4  20
ATOM     20  C   UNL d   1      10.306   7.943  -9.818  0.00  0.00     0.251 C 
BRANCH  20  21
ATOM     21  C   UNL d   1      11.056   8.347  -8.528  0.00  0.00     0.042 C 
BRANCH  21  22
ATOM     22  C   UNL d   1      10.279   8.011  -7.226  0.00  0.00     0.050 C 
BRANCH  22  23
ATOM     23  C   UNL d   1      10.765   8.752  -6.043  0.00  0.00     0.088 A 
ATOM     24  C   UNL d   1      11.283   8.231  -4.847  0.00  0.00     0.041 A 
ATOM     25  C   UNL d   1      11.543   9.290  -3.982  0.00  0.00     0.126 A 
ATOM     26  C   UNL d   1      11.501   6.899  -4.390  0.00  0.00     0.003 A 
ATOM     27  O   UNL d   1      11.132  10.428  -4.662  0.00  0.00    -0.211 OA
ATOM     28  C   UNL d   1      12.060   9.130  -2.704  0.00  0.00     0.027 A 
ATOM     29  N   UNL d   1      10.676  10.078  -5.955  0.00  0.00    -0.131 NA
ATOM     30  C   UNL d   1      12.294   7.820  -2.248  0.00  0.00     0.002 A 
ATOM     31  C   UNL d   1      12.014   6.720  -3.085  0.00  0.00     0.000 A 
ENDBRANCH  22  23
ENDBRANCH  21  22
ENDBRANCH  20  21
ENDBRANCH   4  20
TORSDOF 7
