REMARK  5 active torsions:
REMARK  status: ('A' for Active; 'I' for Inactive)
REMARK    1  A    between atoms: O_2  and  C_3 
REMARK    2  A    between atoms: C_8  and  C_9 
REMARK    3  A    between atoms: C_13  and  C_14 
REMARK    4  A    between atoms: C_14  and  N_15 
REMARK    5  A    between atoms: N_18  and  C_19 
ROOT
ATOM      1  C   UNL d   1       8.781   5.698 -11.318  0.00  0.00     0.002 A 
ATOM      2  C   UNL d   1       7.379   5.580 -11.396  0.00  0.00     0.000 A 
ATOM      3  C   UNL d   1       6.778   4.992 -12.529  0.00  0.00    -0.000 A 
ATOM      4  C   UNL d   1       7.567   4.564 -13.592  0.00  0.00    -0.002 A 
ATOM      5  C   UNL d   1       8.983   4.582 -13.501  0.00  0.00     0.011 A 
ATOM      6  C   UNL d   1       9.579   5.176 -12.366  0.00  0.00    -0.002 A 
ENDROOT
BRANCH   5   7
ATOM      7  C   UNL d   1       9.872   3.994 -14.598  0.00  0.00     0.277 C 
BRANCH   7   8
ATOM      8  N   UNL d   1       9.668   2.565 -14.885  0.00  0.00     0.145 N 
ATOM      9  C   UNL d   1      10.636   2.120 -15.892  0.00  0.00     0.275 C 
ATOM     10  C   UNL d   1      10.433   0.613 -16.182  0.00  0.00     0.155 C 
ATOM     11  N   UNL d   1       9.065   0.336 -16.621  0.00  0.00    -0.179 N 
ATOM     12  C   UNL d   1       8.065   0.858 -15.705  0.00  0.00     0.155 C 
ATOM     13  C   UNL d   1       8.319   2.324 -15.416  0.00  0.00     0.275 C 
BRANCH  11  14
ATOM     14  C   UNL d   1       8.729  -0.321 -17.800  0.00  0.00     0.727 A 
ATOM     15  N   UNL d   1       7.442  -0.626 -17.995  0.00  0.00    -0.060 NA
ATOM     16  C   UNL d   1       7.131  -1.288 -19.122  0.00  0.00     0.120 A 
ATOM     17  C   UNL d   1       8.112  -1.612 -20.074  0.00  0.00     0.043 A 
ATOM     18  C   UNL d   1       9.426  -1.207 -19.775  0.00  0.00     0.120 A 
ATOM     19  N   UNL d   1       9.732  -0.585 -18.633  0.00  0.00    -0.060 NA
ENDBRANCH  11  14
ENDBRANCH   7   8
ENDBRANCH   5   7
BRANCH   1  20
ATOM     20  C   UNL d   1       9.374   6.377 -10.166  0.00  0.00     0.022 A 
ATOM     21  C   UNL d   1       9.890   7.695 -10.249  0.00  0.00     0.094 A 
ATOM     22  C   UNL d   1      10.477   8.290  -9.117  0.00  0.00     0.024 A 
ATOM     23  C   UNL d   1      10.515   7.601  -7.892  0.00  0.00     0.002 A 
ATOM     24  C   UNL d   1       9.968   6.312  -7.800  0.00  0.00     0.000 A 
ATOM     25  C   UNL d   1       9.407   5.700  -8.927  0.00  0.00     0.002 A 
BRANCH  21  26
ATOM     26  O   UNL d   1       9.884   8.389 -11.434  0.00  0.00    -0.328 OA
ATOM     27  C   UNL d   1       8.636   8.888 -11.885  0.00  0.00     0.181 C 
ENDBRANCH  21  26
ENDBRANCH   1  20
TORSDOF 5
