REMARK  5 active torsions:
REMARK  status: ('A' for Active; 'I' for Inactive)
REMARK       I    between atoms: N_10  and  C_11 
REMARK    1  A    between atoms: C_11  and  C_13 
REMARK    2  A    between atoms: C_13  and  N_14 
REMARK    3  A    between atoms: N_17  and  C_18 
REMARK    4  A    between atoms: C_18  and  C_19 
REMARK    5  A    between atoms: C_19  and  C_20 
ROOT
ATOM      1  N   UNL d   1       9.851   5.070 -12.493  0.00  0.00     0.151 N 
ATOM      2  C   UNL d   1       9.268   6.389 -12.436  0.00  0.00     0.286 C 
ATOM      3  C   UNL d   1       9.559   7.032 -11.071  0.00  0.00     0.285 C 
ATOM      4  N   UNL d   1       9.063   6.232  -9.944  0.00  0.00     0.142 N 
ATOM      5  C   UNL d   1       9.589   4.889  -9.997  0.00  0.00     0.285 C 
ATOM      6  C   UNL d   1       9.342   4.262 -11.384  0.00  0.00     0.286 C 
ENDROOT
BRANCH   1   7
ATOM      7  C   UNL d   1       9.614   4.342 -13.757  0.00  0.00     0.337 C 
BRANCH   7   8
ATOM      8  C   UNL d   1      10.627   4.621 -14.880  0.00  0.00     0.271 C 
ATOM      9  N   UNL d   1      10.820   3.676 -15.852  0.00  0.00    -0.299 N 
ATOM     10  C   UNL d   1      11.707   3.968 -17.031  0.00  0.00     0.093 A 
ATOM     11  C   UNL d   1      10.268   2.350 -15.995  0.00  0.00     0.058 A 
ATOM     12  C   UNL d   1      13.176   4.400 -16.731  0.00  0.00     0.025 C 
ATOM     13  C   UNL d   1      11.694   2.691 -17.913  0.00  0.00     0.051 A 
ATOM     14  C   UNL d   1      10.764   1.775 -17.167  0.00  0.00    -0.004 A 
ATOM     15  C   UNL d   1      10.390   0.479 -17.586  0.00  0.00    -0.003 A 
ATOM     16  C   UNL d   1       9.498  -0.271 -16.787  0.00  0.00    -0.000 A 
ATOM     17  C   UNL d   1       9.009   0.285 -15.588  0.00  0.00     0.002 A 
ATOM     18  C   UNL d   1       9.351   1.601 -15.160  0.00  0.00     0.017 A 
ATOM     19  O   UNL d   1      11.288   5.656 -14.855  0.00  0.00    -0.270 OA
ENDBRANCH   7   8
ENDBRANCH   1   7
BRANCH   4  20
ATOM     20  C   UNL d   1       9.305   6.845  -8.650  0.00  0.00     0.255 C 
BRANCH  20  21
ATOM     21  C   UNL d   1      10.685   7.501  -8.488  0.00  0.00     0.062 C 
BRANCH  21  22
ATOM     22  C   UNL d   1      10.972   7.918  -7.069  0.00  0.00    -0.020 A 
ATOM     23  C   UNL d   1      11.056   9.280  -6.748  0.00  0.00    -0.003 A 
ATOM     24  C   UNL d   1      11.329   9.681  -5.434  0.00  0.00     0.011 A 
ATOM     25  C   UNL d   1      11.545   8.703  -4.448  0.00  0.00     0.058 A 
ATOM     26  C   UNL d   1      11.474   7.332  -4.766  0.00  0.00     0.011 A 
ATOM     27 CL   UNL d   1      11.892   9.191  -2.842  0.00  0.00    -0.082 Cl
ATOM     28  C   UNL d   1      11.182   6.943  -6.083  0.00  0.00    -0.003 A 
ENDBRANCH  21  22
ENDBRANCH  20  21
ENDBRANCH   4  20
TORSDOF 5
