REMARK  4 active torsions:
REMARK  status: ('A' for Active; 'I' for Inactive)
REMARK    1  A    between atoms: O_2  and  C_3 
REMARK    2  A    between atoms: C_4  and  C_5 
REMARK    3  A    between atoms: C_5  and  O_6 
REMARK    4  A    between atoms: O_6  and  C_7 
ROOT
ATOM      1  C   UNL d   1       9.998   1.554 -16.444  0.00  0.00     0.201 A 
ATOM      2  C   UNL d   1       8.523   1.457 -15.902  0.00  0.00     0.104 A 
ATOM      3  C   UNL d   1       8.512   2.542 -14.856  0.00  0.00     0.043 A 
ATOM      4  C   UNL d   1       9.700   3.133 -14.730  0.00  0.00     0.096 A 
ATOM      5  C   UNL d   1       9.939   4.227 -13.758  0.00  0.00     0.208 A 
ATOM      6  O   UNL d   1      11.045   4.763 -13.643  0.00  0.00    -0.285 OA
ATOM      7  C   UNL d   1       8.761   4.638 -12.935  0.00  0.00     0.035 A 
ATOM      8  C   UNL d   1       8.978   5.762 -11.927  0.00  0.00     0.036 C 
ATOM      9  C   UNL d   1       7.550   4.033 -13.078  0.00  0.00     0.108 A 
ATOM     10  N   UNL d   1       6.445   4.405 -12.333  0.00  0.00    -0.097 NA
ATOM     11  C   UNL d   1       7.339   2.915 -14.043  0.00  0.00     0.206 A 
ATOM     12  O   UNL d   1       6.261   2.331 -14.123  0.00  0.00    -0.286 OA
ATOM     13  N   UNL d   1      10.633   2.598 -15.607  0.00  0.00    -0.324 N 
ATOM     14  C   UNL d   1      11.564   3.401 -16.408  0.00  0.00     0.142 C 
ATOM     15  C   UNL d   1      11.211   3.123 -17.846  0.00  0.00     0.317 A 
ATOM     16  N   UNL d   1       9.810   3.366 -18.155  0.00  0.00     0.346 N 
ATOM     17  C   UNL d   1      10.252   1.998 -17.896  0.00  0.00     0.337 A 
ENDROOT
BRANCH   2  18
ATOM     18  C   UNL d   1       7.437   1.582 -16.996  0.00  0.00     0.163 C 
BRANCH  18  19
ATOM     19  O   UNL d   1       6.456   0.579 -16.791  0.00  0.00    -0.282 OA
BRANCH  19  20
ATOM     20  C   UNL d   1       5.632   0.243 -17.789  0.00  0.00     0.406 C 
ATOM     21  N   UNL d   1       4.850  -0.807 -17.374  0.00  0.00    -0.079 N 
ATOM     22  O   UNL d   1       5.589   0.787 -18.891  0.00  0.00    -0.234 OA
ENDBRANCH  19  20
ENDBRANCH  18  19
ENDBRANCH   2  18
BRANCH   1  23
ATOM     23  O   UNL d   1      10.627   0.313 -16.249  0.00  0.00    -0.335 OA
ATOM     24  C   UNL d   1      10.170  -0.779 -17.054  0.00  0.00     0.176 C 
ENDBRANCH   1  23
TORSDOF 4
