REMARK  5 active torsions:
REMARK  status: ('A' for Active; 'I' for Inactive)
REMARK    1  A    between atoms: C_2  and  C_3 
REMARK    2  A    between atoms: C_3  and  N_4 
REMARK    3  A    between atoms: N_4  and  C_5 
REMARK    4  A    between atoms: N_4  and  C_8 
REMARK    5  A    between atoms: C_5  and  C_6 
ROOT
ATOM      1  C   UNL d   1       7.599   4.288 -13.168  0.00  0.00     0.224 C 
ATOM      2  C   UNL d   1       8.851   3.541 -13.661  0.00  0.00     0.040 C 
ATOM      3  C   UNL d   1       8.525   2.626 -14.845  0.00  0.00     0.048 C 
ATOM      4  C   UNL d   1       7.263   1.806 -14.629  0.00  0.00     0.055 A 
ATOM      5  N   UNL d   1       7.128   0.738 -15.431  0.00  0.00    -0.249 NA
ATOM      6  C   UNL d   1       6.044  -0.047 -15.277  0.00  0.00     0.099 A 
ATOM      7  C   UNL d   1       5.040   0.201 -14.319  0.00  0.00     0.020 A 
ATOM      8  C   UNL d   1       5.186   1.313 -13.484  0.00  0.00    -0.002 A 
ATOM      9  C   UNL d   1       6.293   2.157 -13.647  0.00  0.00    -0.007 A 
ATOM     10  C   UNL d   1       6.417   3.382 -12.772  0.00  0.00     0.061 C 
ENDROOT
BRANCH   1  11
ATOM     11  N   UNL d   1       7.920   5.281 -12.105  0.00  0.00     0.135 N 
BRANCH  11  12
ATOM     12  C   UNL d   1       6.716   6.016 -11.735  0.00  0.00     0.250 C 
BRANCH  12  13
ATOM     13  C   UNL d   1       6.171   6.925 -12.837  0.00  0.00     0.035 C 
ATOM     14  C   UNL d   1       5.452   8.194 -12.360  0.00  0.00     0.002 C 
ENDBRANCH  12  13
ENDBRANCH  11  12
BRANCH  11  15
ATOM     15  C   UNL d   1       8.571   4.736 -10.911  0.00  0.00     0.250 C 
BRANCH  15  16
ATOM     16  C   UNL d   1       9.223   5.768  -9.964  0.00  0.00     0.035 C 
ATOM     17  C   UNL d   1       9.692   5.118  -8.666  0.00  0.00     0.002 C 
ENDBRANCH  15  16
ENDBRANCH  11  15
ENDBRANCH   1  11
TORSDOF 5
