REMARK  5 active torsions:
REMARK  status: ('A' for Active; 'I' for Inactive)
REMARK    1  A    between atoms: C_2  and  N_4 
REMARK    2  A    between atoms: N_7  and  C_8 
REMARK    3  A    between atoms: C_8  and  C_9 
REMARK    4  A    between atoms: C_9  and  N_10 
REMARK    5  A    between atoms: N_13  and  C_14 
ROOT
ATOM      1  N   UNL d   1       8.225   4.072 -13.483  0.00  0.00    -0.298 N 
ATOM      2  C   UNL d   1       6.899   3.873 -12.931  0.00  0.00     0.131 A 
ATOM      3  C   UNL d   1       7.043   4.503 -11.552  0.00  0.00     0.135 A 
ATOM      4  N   UNL d   1       8.405   5.030 -11.542  0.00  0.00    -0.280 N 
ATOM      5  C   UNL d   1       9.055   4.756 -12.687  0.00  0.00     0.328 A 
ATOM      6  O   UNL d   1      10.224   5.067 -12.961  0.00  0.00    -0.247 OA
ENDROOT
BRANCH   1   7
ATOM      7  C   UNL d   1       8.567   3.567 -14.797  0.00  0.00     0.141 C 
BRANCH   7   8
ATOM      8  C   UNL d   1       9.749   2.597 -14.745  0.00  0.00     0.274 C 
BRANCH   8   9
ATOM      9  N   UNL d   1      10.102   2.064 -16.044  0.00  0.00     0.143 N 
ATOM     10  C   UNL d   1      11.540   1.846 -16.117  0.00  0.00     0.286 C 
ATOM     11  C   UNL d   1      11.960   1.308 -17.490  0.00  0.00     0.285 C 
ATOM     12  N   UNL d   1      11.305   0.032 -17.800  0.00  0.00     0.139 N 
ATOM     13  C   UNL d   1       9.846   0.190 -17.655  0.00  0.00     0.285 C 
ATOM     14  C   UNL d   1       9.445   0.779 -16.291  0.00  0.00     0.286 C 
BRANCH  12  15
ATOM     15  C   UNL d   1      11.695  -0.532 -19.108  0.00  0.00     0.220 C 
ATOM     16  C   UNL d   1      13.194  -0.876 -19.223  0.00  0.00     0.035 C 
ATOM     17  C   UNL d   1      11.258   0.297 -20.333  0.00  0.00     0.035 C 
ENDBRANCH  12  15
ENDBRANCH   8   9
ENDBRANCH   7   8
ENDBRANCH   1   7
BRANCH   4  18
ATOM     18  C   UNL d   1       8.971   5.705 -10.430  0.00  0.00     0.065 A 
ATOM     19  C   UNL d   1       9.830   6.810 -10.610  0.00  0.00     0.029 A 
ATOM     20  C   UNL d   1      10.399   7.473  -9.508  0.00  0.00     0.059 A 
ATOM     21  C   UNL d   1      10.115   7.058  -8.197  0.00  0.00     0.011 A 
ATOM     22 CL   UNL d   1      11.457   8.801  -9.767  0.00  0.00    -0.082 Cl
ATOM     23  C   UNL d   1       9.239   5.980  -8.009  0.00  0.00     0.002 A 
ATOM     24  C   UNL d   1       8.672   5.300  -9.106  0.00  0.00     0.017 A 
ENDBRANCH   4  18
TORSDOF 5
