REMARK  2 active torsions:
REMARK  status: ('A' for Active; 'I' for Inactive)
REMARK    1  A    between atoms: C_18  and  N_19 
REMARK    2  A    between atoms: N_19  and  S_20 
ROOT
ATOM      1  C   UNL d   1      10.098   0.117 -17.825  0.00  0.00     0.285 C 
ATOM      2  N   UNL d   1      10.395   0.554 -16.461  0.00  0.00     0.138 N 
ATOM      3  C   UNL d   1       9.306   0.243 -15.534  0.00  0.00     0.255 C 
ATOM      4  C   UNL d   1       8.014   1.066 -15.717  0.00  0.00     0.061 C 
ATOM      5  C   UNL d   1       8.107   2.448 -15.094  0.00  0.00    -0.023 A 
ATOM      6  C   UNL d   1       7.238   2.780 -14.036  0.00  0.00     0.009 A 
ATOM      7  C   UNL d   1       7.355   4.011 -13.362  0.00  0.00     0.083 A 
ATOM      8 CL   UNL d   1       6.300   4.378 -12.039  0.00  0.00    -0.080 Cl
ATOM      9  C   UNL d   1       8.346   4.930 -13.753  0.00  0.00     0.141 A 
ATOM     10  O   UNL d   1       8.470   6.126 -13.101  0.00  0.00    -0.189 OA
ATOM     11  C   UNL d   1       9.195   4.619 -14.833  0.00  0.00     0.024 A 
ATOM     12  C   UNL d   1       9.063   3.391 -15.528  0.00  0.00    -0.018 A 
ATOM     13  C   UNL d   1       9.969   3.058 -16.718  0.00  0.00     0.075 C 
ATOM     14  C   UNL d   1      10.627   4.295 -17.341  0.00  0.00    -0.019 A 
ATOM     15  C   UNL d   1       9.796   5.255 -17.960  0.00  0.00    -0.004 A 
ATOM     16  C   UNL d   1      10.354   6.396 -18.553  0.00  0.00     0.001 A 
ATOM     17  C   UNL d   1      11.745   6.598 -18.547  0.00  0.00     0.020 A 
ATOM     18  C   UNL d   1      12.593   5.661 -17.919  0.00  0.00     0.089 A 
ATOM     19  C   UNL d   1      12.036   4.494 -17.338  0.00  0.00    -0.007 A 
ATOM     20  C   UNL d   1      12.929   3.409 -16.751  0.00  0.00     0.030 C 
ATOM     21  C   UNL d   1      12.320   2.029 -17.001  0.00  0.00     0.039 C 
ATOM     22  C   UNL d   1      10.948   1.911 -16.328  0.00  0.00     0.228 C 
ENDROOT
BRANCH  18  23
ATOM     23  N   UNL d   1      13.970   5.902 -17.855  0.00  0.00    -0.162 NA
BRANCH  23  24
ATOM     24  S   UNL d   1      14.874   7.277 -18.376  0.00  0.00     0.266 S 
ATOM     25  C   UNL d   1      14.059   8.704 -17.538  0.00  0.00     0.165 C 
ATOM     26  O   UNL d   1      16.219   7.053 -17.833  0.00  0.00    -0.203 OA
ATOM     27  O   UNL d   1      14.665   7.372 -19.828  0.00  0.00    -0.203 OA
ENDBRANCH  23  24
ENDBRANCH  18  23
TORSDOF 2
