REMARK  7 active torsions:
REMARK  status: ('A' for Active; 'I' for Inactive)
REMARK    1  A    between atoms: C_5  and  N_6 
REMARK    2  A    between atoms: N_9  and  C_10 
REMARK    3  A    between atoms: C_10  and  C_11 
REMARK    4  A    between atoms: C_11  and  C_12 
REMARK    5  A    between atoms: C_15  and  N_16 
REMARK       I    between atoms: N_16  and  C_17 
REMARK    6  A    between atoms: C_17  and  C_19 
REMARK    7  A    between atoms: C_19  and  C_20 
ROOT
ATOM      1  C   UNL d   1       9.379   5.155 -11.397  0.00  0.00     0.250 C 
ENDROOT
BRANCH   1   2
ATOM      2  N   UNL d   1       9.231   6.127 -10.316  0.00  0.00     0.141 N 
ATOM      3  C   UNL d   1      10.505   6.785 -10.080  0.00  0.00     0.274 C 
ATOM      4  C   UNL d   1      10.419   7.852  -9.017  0.00  0.00     0.138 C 
ATOM      5  N   UNL d   1       9.914   7.280  -7.784  0.00  0.00    -0.330 N 
ATOM      6  C   UNL d   1       8.695   6.501  -7.914  0.00  0.00     0.138 C 
ATOM      7  C   UNL d   1       8.826   5.476  -9.060  0.00  0.00     0.274 C 
BRANCH   5   8
ATOM      8  C   UNL d   1      10.553   7.456  -6.552  0.00  0.00     0.138 A 
ATOM      9  N   UNL d   1      10.541   6.419  -5.695  0.00  0.00    -0.228 NA
ATOM     10  C   UNL d   1      11.163   6.538  -4.503  0.00  0.00     0.098 A 
ATOM     11  C   UNL d   1      11.850   7.685  -4.067  0.00  0.00     0.019 A 
ATOM     12  C   UNL d   1      12.507   7.759  -2.709  0.00  0.00     0.035 C 
ATOM     13  C   UNL d   1      11.852   8.759  -4.969  0.00  0.00     0.090 A 
ATOM     14  C   UNL d   1      11.213   8.634  -6.183  0.00  0.00     0.036 A 
ATOM     15  O   UNL d   1      12.467   9.954  -4.826  0.00  0.00    -0.331 OA
ATOM     16  C   UNL d   1      11.354   9.886  -6.941  0.00  0.00     0.064 C 
ATOM     17  C   UNL d   1      12.110  10.765  -5.958  0.00  0.00     0.154 C 
ENDBRANCH   5   8
ENDBRANCH   1   2
BRANCH   1  18
ATOM     18  C   UNL d   1       8.016   4.808 -12.003  0.00  0.00     0.035 C 
BRANCH  18  19
ATOM     19  C   UNL d   1       8.090   3.623 -12.976  0.00  0.00     0.002 C 
ATOM     20  C   UNL d   1       8.712   3.952 -14.329  0.00  0.00     0.002 C 
ATOM     21  C   UNL d   1       8.739   2.690 -15.216  0.00  0.00     0.024 C 
ATOM     22  C   UNL d   1       7.342   2.059 -15.394  0.00  0.00     0.106 C 
ATOM     23  C   UNL d   1       6.681   1.748 -14.059  0.00  0.00     0.024 C 
ATOM     24  C   UNL d   1       6.669   3.002 -13.165  0.00  0.00     0.002 C 
BRANCH  22  25
ATOM     25  N   UNL d   1       7.411   0.855 -16.202  0.00  0.00    -0.240 NA
ATOM     26  C   UNL d   1       7.413   0.848 -17.536  0.00  0.00     0.251 C 
ATOM     27  O   UNL d   1       7.471   1.867 -18.220  0.00  0.00    -0.271 OA
BRANCH  26  28
ATOM     28  C   UNL d   1       7.293  -0.527 -18.187  0.00  0.00     0.090 C 
BRANCH  28  29
ATOM     29  C   UNL d   1       6.507  -0.533 -19.524  0.00  0.00     0.014 C 
ATOM     30  C   UNL d   1       6.555  -1.922 -20.187  0.00  0.00     0.033 C 
ATOM     31  C   UNL d   1       5.641  -2.923 -19.453  0.00  0.00     0.142 C 
ATOM     32  O   UNL d   1       4.309  -2.418 -19.416  0.00  0.00    -0.354 OA
ATOM     33  C   UNL d   1       4.189  -1.197 -18.694  0.00  0.00     0.142 C 
ATOM     34  C   UNL d   1       5.026  -0.107 -19.385  0.00  0.00     0.033 C 
ENDBRANCH  28  29
ENDBRANCH  26  28
ENDBRANCH  22  25
ENDBRANCH  18  19
ENDBRANCH   1  18
TORSDOF 7
