REMARK  3 active torsions:
REMARK  status: ('A' for Active; 'I' for Inactive)
REMARK    1  A    between atoms: C_5  and  N_6 
REMARK    2  A    between atoms: N_9  and  C_10 
REMARK    3  A    between atoms: C_10  and  C_11 
ROOT
ATOM      1  N   UNL d   1       9.915   7.863  -7.286  0.00  0.00    -0.345 N 
ATOM      2  C   UNL d   1       8.834   6.903  -7.459  0.00  0.00     0.119 C 
ATOM      3  C   UNL d   1       9.111   5.984  -8.673  0.00  0.00     0.101 C 
ATOM      4  N   UNL d   1       9.441   6.761  -9.878  0.00  0.00    -0.248 NA
ATOM      5  C   UNL d   1      10.605   7.610  -9.624  0.00  0.00     0.101 C 
ATOM      6  C   UNL d   1      10.316   8.597  -8.473  0.00  0.00     0.119 C 
ENDROOT
BRANCH   4   7
ATOM      7  C   UNL d   1       9.623   5.884 -11.023  0.00  0.00     0.050 C 
BRANCH   7   8
ATOM      8  C   UNL d   1       8.469   5.272 -11.759  0.00  0.00     0.050 A 
ATOM      9  C   UNL d   1       8.486   4.311 -12.737  0.00  0.00     0.085 A 
ATOM     10  N   UNL d   1       7.145   4.101 -13.114  0.00  0.00    -0.228 N 
ATOM     11  C   UNL d   1       9.485   3.543 -13.390  0.00  0.00     0.019 A 
ATOM     12  N   UNL d   1       6.294   4.923 -12.437  0.00  0.00    -0.164 NA
ATOM     13  C   UNL d   1       6.771   3.182 -14.042  0.00  0.00     0.101 A 
ATOM     14  C   UNL d   1       7.093   5.597 -11.639  0.00  0.00     0.123 A 
ATOM     15  C   UNL d   1       7.740   2.433 -14.668  0.00  0.00     0.021 A 
ATOM     16  C   UNL d   1       9.108   2.617 -14.342  0.00  0.00     0.003 A 
ENDBRANCH   7   8
ENDBRANCH   4   7
BRANCH   1  17
ATOM     17  C   UNL d   1      10.581   8.009  -6.062  0.00  0.00     0.056 A 
ATOM     18  C   UNL d   1      10.900   9.287  -5.558  0.00  0.00     0.018 A 
ATOM     19  C   UNL d   1      11.530   9.407  -4.303  0.00  0.00     0.013 A 
ATOM     20  C   UNL d   1      11.874   8.256  -3.566  0.00  0.00     0.058 A 
ATOM     21 CL   UNL d   1      12.630   8.398  -2.031  0.00  0.00    -0.082 Cl
ATOM     22  C   UNL d   1      11.572   6.984  -4.072  0.00  0.00     0.013 A 
ATOM     23  C   UNL d   1      10.926   6.868  -5.311  0.00  0.00     0.018 A 
ENDBRANCH   1  17
TORSDOF 3
