REMARK  6 active torsions:
REMARK  status: ('A' for Active; 'I' for Inactive)
REMARK    1  A    between atoms: N_11  and  C_12 
REMARK    2  A    between atoms: C_12  and  C_13 
REMARK    3  A    between atoms: C_13  and  C_14 
REMARK    4  A    between atoms: C_14  and  C_15 
REMARK    5  A    between atoms: C_15  and  N_16 
REMARK    6  A    between atoms: N_19  and  C_20 
ROOT
ATOM      1  N   UNL d   1       7.839   5.421 -12.177  0.00  0.00     0.141 N 
ATOM      2  C   UNL d   1       8.238   4.795 -10.905  0.00  0.00     0.274 C 
ATOM      3  C   UNL d   1       8.471   5.831  -9.805  0.00  0.00     0.137 C 
ATOM      4  N   UNL d   1       9.408   6.858 -10.283  0.00  0.00    -0.344 N 
ATOM      5  C   UNL d   1       9.089   7.471 -11.595  0.00  0.00     0.137 C 
ATOM      6  C   UNL d   1       8.894   6.343 -12.614  0.00  0.00     0.274 C 
ENDROOT
BRANCH   1   7
ATOM      7  C   UNL d   1       7.707   4.388 -13.177  0.00  0.00     0.251 C 
BRANCH   7   8
ATOM      8  C   UNL d   1       6.450   3.535 -12.923  0.00  0.00     0.037 C 
BRANCH   8   9
ATOM      9  C   UNL d   1       6.091   2.682 -14.132  0.00  0.00     0.027 C 
BRANCH   9  10
ATOM     10  C   UNL d   1       7.088   1.553 -14.464  0.00  0.00     0.112 C 
BRANCH  10  11
ATOM     11  N   UNL d   1       6.578   0.676 -15.520  0.00  0.00    -0.271 N 
ATOM     12  C   UNL d   1       5.773  -0.376 -15.293  0.00  0.00     0.240 C 
ATOM     13  O   UNL d   1       5.394  -0.800 -14.201  0.00  0.00    -0.272 OA
ATOM     14  C   UNL d   1       5.312  -0.951 -16.628  0.00  0.00     0.093 C 
ATOM     15  C   UNL d   1       6.373  -0.420 -17.569  0.00  0.00     0.093 C 
ATOM     16  C   UNL d   1       5.119  -2.449 -16.869  0.00  0.00     0.035 C 
ATOM     17  C   UNL d   1       5.810  -0.365 -18.994  0.00  0.00     0.035 C 
ATOM     18  C   UNL d   1       6.849   0.814 -16.829  0.00  0.00     0.240 C 
ATOM     19  C   UNL d   1       5.196  -1.732 -19.314  0.00  0.00    -0.030 C 
ATOM     20  C   UNL d   1       4.906  -2.660 -18.370  0.00  0.00    -0.030 C 
ATOM     21  O   UNL d   1       7.426   1.759 -17.371  0.00  0.00    -0.272 OA
ENDBRANCH  10  11
ENDBRANCH   9  10
ENDBRANCH   8   9
ENDBRANCH   7   8
ENDBRANCH   1   7
BRANCH   4  22
ATOM     22  C   UNL d   1      10.355   7.400  -9.393  0.00  0.00     0.057 C 
ATOM     23  C   UNL d   1      10.318   7.304  -7.957  0.00  0.00     0.022 C 
ATOM     24  C   UNL d   1      11.459   7.788  -7.235  0.00  0.00     0.031 C 
ATOM     25  C   UNL d   1       9.277   6.843  -7.041  0.00  0.00     0.009 C 
ATOM     26  C   UNL d   1      12.562   8.386  -7.892  0.00  0.00     0.007 C 
ATOM     27  S   UNL d   1      11.324   7.503  -5.518  0.00  0.00    -0.086 SA
ATOM     28  C   UNL d   1      12.565   8.403  -9.275  0.00  0.00     0.002 C 
ATOM     29  C   UNL d   1      11.442   8.064  -9.976  0.00  0.00     0.017 C 
ATOM     30  C   UNL d   1       9.778   6.786  -5.762  0.00  0.00     0.035 C 
ENDBRANCH   4  22
TORSDOF 6
