REMARK  7 active torsions:
REMARK  status: ('A' for Active; 'I' for Inactive)
REMARK    1  A    between atoms: N_12  and  C_13 
REMARK    2  A    between atoms: C_13  and  C_14 
REMARK    3  A    between atoms: C_14  and  C_15 
REMARK    4  A    between atoms: C_15  and  C_16 
REMARK    5  A    between atoms: C_16  and  C_17 
REMARK    6  A    between atoms: C_17  and  N_18 
REMARK    7  A    between atoms: N_21  and  C_22 
ROOT
ATOM      1  C   UNL d   1       9.309   6.883 -12.187  0.00  0.00     0.250 C 
ENDROOT
BRANCH   1   2
ATOM      2  C   UNL d   1       9.899   7.094 -10.785  0.00  0.00     0.035 C 
BRANCH   2   3
ATOM      3  C   UNL d   1       9.841   8.573 -10.360  0.00  0.00     0.004 C 
BRANCH   3   4
ATOM      4  C   UNL d   1       9.702   8.731  -8.838  0.00  0.00     0.025 C 
BRANCH   4   5
ATOM      5  C   UNL d   1      11.070   8.954  -8.177  0.00  0.00     0.122 C 
BRANCH   5   6
ATOM      6  N   UNL d   1      11.004   8.713  -6.736  0.00  0.00    -0.221 N 
ATOM      7  C   UNL d   1      11.531   9.596  -5.800  0.00  0.00     0.271 A 
ATOM      8  O   UNL d   1      11.814  10.767  -6.037  0.00  0.00    -0.266 OA
ATOM      9  C   UNL d   1      11.761   8.861  -4.505  0.00  0.00     0.069 A 
ATOM     10  C   UNL d   1      11.459   7.507  -4.553  0.00  0.00     0.108 A 
ATOM     11  C   UNL d   1      12.256   9.384  -3.304  0.00  0.00     0.005 A 
ATOM     12  C   UNL d   1      11.660   6.645  -3.459  0.00  0.00     0.013 A 
ATOM     13  S   UNL d   1      10.861   7.119  -6.150  0.00  0.00     0.270 S 
ATOM     14  C   UNL d   1      12.149   7.182  -2.251  0.00  0.00     0.001 A 
ATOM     15  C   UNL d   1      12.439   8.561  -2.170  0.00  0.00     0.000 A 
ATOM     16  O   UNL d   1      11.842   6.264  -6.841  0.00  0.00    -0.200 OA
ATOM     17  O   UNL d   1       9.433   6.795  -6.096  0.00  0.00    -0.200 OA
ENDBRANCH   5   6
ENDBRANCH   4   5
ENDBRANCH   3   4
ENDBRANCH   2   3
ENDBRANCH   1   2
BRANCH   1  18
ATOM     18  N   UNL d   1       8.977   5.479 -12.397  0.00  0.00     0.141 N 
ATOM     19  C   UNL d   1      10.035   4.786 -13.144  0.00  0.00     0.274 C 
ATOM     20  C   UNL d   1       9.673   3.305 -13.354  0.00  0.00     0.137 C 
ATOM     21  N   UNL d   1       8.391   3.205 -14.028  0.00  0.00    -0.344 N 
ATOM     22  C   UNL d   1       7.314   3.966 -13.411  0.00  0.00     0.137 C 
ATOM     23  C   UNL d   1       7.743   5.416 -13.183  0.00  0.00     0.274 C 
BRANCH  21  24
ATOM     24  C   UNL d   1       8.216   2.395 -15.166  0.00  0.00     0.056 A 
ATOM     25  C   UNL d   1       7.177   1.423 -15.273  0.00  0.00     0.015 A 
ATOM     26  C   UNL d   1       7.066   0.659 -16.472  0.00  0.00     0.001 A 
ATOM     27  C   UNL d   1       6.260   1.161 -14.221  0.00  0.00     0.001 A 
ATOM     28  C   UNL d   1       7.968   0.867 -17.534  0.00  0.00     0.000 A 
ATOM     29  C   UNL d   1       6.058  -0.319 -16.596  0.00  0.00     0.000 A 
ATOM     30  C   UNL d   1       8.988   1.822 -17.424  0.00  0.00     0.002 A 
ATOM     31  C   UNL d   1       9.111   2.580 -16.243  0.00  0.00     0.017 A 
ATOM     32  C   UNL d   1       5.147  -0.554 -15.546  0.00  0.00     0.000 A 
ATOM     33  C   UNL d   1       5.249   0.199 -14.364  0.00  0.00     0.000 A 
ENDBRANCH  21  24
ENDBRANCH   1  18
TORSDOF 7
