REMARK  8 active torsions:
REMARK  status: ('A' for Active; 'I' for Inactive)
REMARK    1  A    between atoms: C_6  and  C_7 
REMARK    2  A    between atoms: C_10  and  S_11 
REMARK    3  A    between atoms: S_11  and  C_12 
REMARK    4  A    between atoms: C_12  and  C_13 
REMARK    5  A    between atoms: C_13  and  C_14 
REMARK    6  A    between atoms: C_14  and  N_15 
REMARK    7  A    between atoms: C_20  and  C_21 
REMARK    8  A    between atoms: C_24  and  C_25 
ROOT
ATOM      1  N   UNL d   1      11.076   2.651 -17.815  0.00  0.00     0.137 N 
ATOM      2  C   UNL d   1      11.581   1.944 -18.977  0.00  0.00     0.250 C 
ATOM      3  C   UNL d   1      12.158   2.873 -20.052  0.00  0.00     0.036 C 
ATOM      4  C   UNL d   1      13.548   3.431 -19.813  0.00  0.00     0.006 A 
ATOM      5  C   UNL d   1      14.566   2.816 -18.884  0.00  0.00     0.004 A 
ATOM      6  C   UNL d   1      13.929   4.152 -18.539  0.00  0.00     0.021 A 
ATOM      7  C   UNL d   1      12.940   4.308 -17.392  0.00  0.00     0.039 C 
ATOM      8  C   UNL d   1      12.196   3.040 -16.931  0.00  0.00     0.251 C 
ENDROOT
BRANCH   1   9
ATOM      9  C   UNL d   1      10.126   1.746 -17.156  0.00  0.00     0.251 C 
BRANCH   9  10
ATOM     10  C   UNL d   1       9.207   2.598 -16.270  0.00  0.00     0.047 C 
BRANCH  10  11
ATOM     11  C   UNL d   1       8.263   1.774 -15.357  0.00  0.00     0.067 C 
BRANCH  11  12
ATOM     12  S   UNL d   1       7.151   2.798 -14.332  0.00  0.00    -0.075 SA
BRANCH  12  13
ATOM     13  C   UNL d   1       8.239   3.917 -13.506  0.00  0.00     0.193 A 
ATOM     14  N   UNL d   1       9.380   4.394 -13.995  0.00  0.00    -0.122 NA
ATOM     15  N   UNL d   1       9.916   5.168 -13.021  0.00  0.00    -0.126 NA
ATOM     16  C   UNL d   1       9.045   5.165 -12.005  0.00  0.00     0.191 A 
ATOM     17  N   UNL d   1       7.949   4.413 -12.281  0.00  0.00    -0.287 N 
ATOM     18  C   UNL d   1       6.747   4.243 -11.465  0.00  0.00     0.134 C 
BRANCH  16  19
ATOM     19  C   UNL d   1       9.300   5.955 -10.827  0.00  0.00     0.151 A 
ATOM     20  C   UNL d   1       9.402   5.643  -9.498  0.00  0.00     0.087 A 
ATOM     21  N   UNL d   1       9.794   6.785  -8.808  0.00  0.00    -0.228 NA
ATOM     22  C   UNL d   1       9.215   4.326  -8.830  0.00  0.00     0.054 C 
ATOM     23  C   UNL d   1       9.892   7.717  -9.755  0.00  0.00     0.159 A 
ATOM     24  C   UNL d   1      10.195   9.148  -9.567  0.00  0.00     0.080 C 
ATOM     25  O   UNL d   1       9.636   7.262 -11.009  0.00  0.00    -0.289 OA
ENDBRANCH  16  19
ENDBRANCH  12  13
ENDBRANCH  11  12
ENDBRANCH  10  11
ENDBRANCH   9  10
ENDBRANCH   1   9
BRANCH   6  26
ATOM     26  C   UNL d   1      14.739   5.410 -18.670  0.00  0.00    -0.023 A 
ATOM     27  C   UNL d   1      14.328   6.436 -19.546  0.00  0.00    -0.004 A 
ATOM     28  C   UNL d   1      15.086   7.616 -19.675  0.00  0.00     0.004 A 
ATOM     29  C   UNL d   1      16.272   7.784 -18.927  0.00  0.00     0.071 A 
ATOM     30  C   UNL d   1      16.680   6.765 -18.042  0.00  0.00     0.004 A 
ATOM     31  C   UNL d   1      15.916   5.588 -17.913  0.00  0.00    -0.004 A 
BRANCH  29  32
ATOM     32  C   UNL d   1      17.086   9.060 -19.060  0.00  0.00     0.419 C 
ATOM     33  F   UNL d   1      18.368   8.850 -18.762  0.00  0.00    -0.166 F 
ATOM     34  F   UNL d   1      17.012   9.549 -20.298  0.00  0.00    -0.166 F 
ATOM     35  F   UNL d   1      16.596   9.963 -18.210  0.00  0.00    -0.166 F 
ENDBRANCH  29  32
ENDBRANCH   6  26
TORSDOF 8
