REMARK  8 active torsions:
REMARK  status: ('A' for Active; 'I' for Inactive)
REMARK       I    between atoms: N_2  and  C_3 
REMARK    1  A    between atoms: C_3  and  C_5 
REMARK    2  A    between atoms: C_9  and  O_10 
REMARK    3  A    between atoms: O_10  and  C_11 
REMARK    4  A    between atoms: C_11  and  C_12 
REMARK    5  A    between atoms: C_12  and  C_13 
REMARK    6  A    between atoms: C_13  and  C_14 
REMARK    7  A    between atoms: C_14  and  N_15 
REMARK    8  A    between atoms: C_18  and  C_19 
ROOT
ATOM      1  N   UNL d   1       9.224   5.446 -12.512  0.00  0.00     0.137 N 
ATOM      2  C   UNL d   1       7.781   5.493 -12.764  0.00  0.00     0.251 C 
ATOM      3  C   UNL d   1       7.456   4.664 -13.999  0.00  0.00     0.041 C 
ATOM      4  C   UNL d   1       7.846   3.201 -13.834  0.00  0.00     0.047 C 
ATOM      5  C   UNL d   1       9.313   3.144 -13.415  0.00  0.00     0.041 C 
ATOM      6  C   UNL d   1       9.592   4.058 -12.210  0.00  0.00     0.251 C 
ENDROOT
BRANCH   1   7
ATOM      7  C   UNL d   1       9.564   6.309 -11.371  0.00  0.00     0.250 C 
BRANCH   7   8
ATOM      8  C   UNL d   1       9.245   7.816 -11.649  0.00  0.00     0.038 C 
BRANCH   8   9
ATOM      9  C   UNL d   1       9.524   8.766 -10.484  0.00  0.00     0.035 C 
BRANCH   9  10
ATOM     10  C   UNL d   1      11.007   8.835 -10.108  0.00  0.00     0.151 C 
BRANCH  10  11
ATOM     11  O   UNL d   1      11.201   9.363  -8.812  0.00  0.00    -0.315 OA
BRANCH  11  12
ATOM     12  C   UNL d   1      10.972   8.562  -7.733  0.00  0.00     0.178 C 
ATOM     13  C   UNL d   1      10.160   7.413  -7.729  0.00  0.00     0.044 C 
ATOM     14  C   UNL d   1       9.911   6.783  -6.519  0.00  0.00     0.005 C 
ATOM     15  C   UNL d   1      10.599   7.191  -5.370  0.00  0.00     0.024 C 
ATOM     16  C   UNL d   1      11.431   8.320  -5.471  0.00  0.00     0.141 C 
ATOM     17  N   UNL d   1      11.569   9.024  -6.617  0.00  0.00    -0.217 NA
BRANCH  16  18
ATOM     18  C   UNL d   1      12.211   8.770  -4.282  0.00  0.00     0.293 C 
ATOM     19  N   UNL d   1      11.866   8.217  -3.113  0.00  0.00    -0.231 NA
ATOM     20  C   UNL d   1      12.390   8.630  -1.836  0.00  0.00     0.155 C 
ATOM     21  O   UNL d   1      13.117   9.571  -4.400  0.00  0.00    -0.264 OA
ENDBRANCH  16  18
ENDBRANCH  11  12
ENDBRANCH  10  11
ENDBRANCH   9  10
ENDBRANCH   8   9
ENDBRANCH   7   8
ENDBRANCH   1   7
BRANCH   4  22
ATOM     22  C   UNL d   1       7.620   2.377 -15.078  0.00  0.00     0.087 A 
ATOM     23  C   UNL d   1       6.724   1.315 -15.335  0.00  0.00     0.041 A 
ATOM     24  C   UNL d   1       6.849   0.930 -16.673  0.00  0.00     0.129 A 
ATOM     25  C   UNL d   1       5.779   0.658 -14.511  0.00  0.00     0.006 A 
ATOM     26  O   UNL d   1       7.824   1.752 -17.205  0.00  0.00    -0.211 OA
ATOM     27  C   UNL d   1       6.096  -0.093 -17.254  0.00  0.00     0.057 A 
ATOM     28  N   UNL d   1       8.345   2.588 -16.182  0.00  0.00    -0.131 NA
ATOM     29  C   UNL d   1       5.171  -0.763 -16.433  0.00  0.00     0.142 A 
ATOM     30  F   UNL d   1       4.429  -1.762 -16.956  0.00  0.00    -0.204 F 
ATOM     31  C   UNL d   1       5.008  -0.391 -15.076  0.00  0.00     0.030 A 
ENDBRANCH   4  22
TORSDOF 8
