REMARK  7 active torsions:
REMARK  status: ('A' for Active; 'I' for Inactive)
REMARK    1  A    between atoms: O_2  and  C_3 
REMARK    2  A    between atoms: C_7  and  C_8 
REMARK    3  A    between atoms: C_8  and  C_10 
REMARK    4  A    between atoms: C_10  and  C_11 
REMARK    5  A    between atoms: C_11  and  C_12 
REMARK    6  A    between atoms: C_12  and  N_13 
REMARK    7  A    between atoms: N_16  and  C_17 
ROOT
ATOM      1  N   UNL d   1       9.489   6.856  -9.763  0.00  0.00     0.141 N 
ATOM      2  C   UNL d   1      10.870   7.267  -9.492  0.00  0.00     0.274 C 
ATOM      3  C   UNL d   1      10.919   8.416  -8.466  0.00  0.00     0.137 C 
ATOM      4  N   UNL d   1      10.217   7.998  -7.273  0.00  0.00    -0.344 N 
ATOM      5  C   UNL d   1       8.870   7.493  -7.462  0.00  0.00     0.137 C 
ATOM      6  C   UNL d   1       8.872   6.379  -8.526  0.00  0.00     0.274 C 
ENDROOT
BRANCH   1   7
ATOM      7  C   UNL d   1       9.477   5.779 -10.738  0.00  0.00     0.251 C 
BRANCH   7   8
ATOM      8  C   UNL d   1       8.175   5.754 -11.562  0.00  0.00     0.043 C 
BRANCH   8   9
ATOM      9  C   UNL d   1       8.082   4.604 -12.585  0.00  0.00     0.071 C 
BRANCH   9  10
ATOM     10  C   UNL d   1       9.304   4.384 -13.502  0.00  0.00     0.173 C 
ATOM     11  O   UNL d   1      10.198   5.224 -13.579  0.00  0.00    -0.291 OA
BRANCH  10  12
ATOM     12  C   UNL d   1       9.352   3.117 -14.287  0.00  0.00     0.037 A 
ATOM     13  C   UNL d   1      10.562   2.768 -14.926  0.00  0.00     0.003 A 
ATOM     14  C   UNL d   1      10.643   1.609 -15.719  0.00  0.00     0.002 A 
ATOM     15  C   UNL d   1       9.507   0.792 -15.871  0.00  0.00     0.024 A 
ATOM     16  C   UNL d   1       8.290   1.111 -15.233  0.00  0.00     0.094 A 
ATOM     17  C   UNL d   1       8.219   2.285 -14.440  0.00  0.00     0.027 A 
BRANCH  16  18
ATOM     18  O   UNL d   1       7.231   0.255 -15.439  0.00  0.00    -0.328 OA
ATOM     19  C   UNL d   1       6.058   0.446 -14.662  0.00  0.00     0.181 C 
ENDBRANCH  16  18
ENDBRANCH  10  12
ENDBRANCH   9  10
ENDBRANCH   8   9
ENDBRANCH   7   8
ENDBRANCH   1   7
BRANCH   4  20
ATOM     20  C   UNL d   1      10.790   8.113  -6.004  0.00  0.00     0.056 A 
ATOM     21  C   UNL d   1      10.949   9.380  -5.413  0.00  0.00     0.018 A 
ATOM     22  C   UNL d   1      11.510   9.479  -4.123  0.00  0.00     0.013 A 
ATOM     23  C   UNL d   1      11.947   8.324  -3.446  0.00  0.00     0.058 A 
ATOM     24  C   UNL d   1      11.803   7.061  -4.047  0.00  0.00     0.013 A 
ATOM     25 CL   UNL d   1      12.644   8.449  -1.879  0.00  0.00    -0.082 Cl
ATOM     26  C   UNL d   1      11.208   6.955  -5.321  0.00  0.00     0.018 A 
ENDBRANCH   4  20
TORSDOF 7
