REMARK  7 active torsions:
REMARK  status: ('A' for Active; 'I' for Inactive)
REMARK       I    between atoms: C_2  and  N_3 
REMARK    1  A    between atoms: C_2  and  C_22 
REMARK    2  A    between atoms: N_3  and  C_4 
REMARK    3  A    between atoms: C_4  and  C_5 
REMARK    4  A    between atoms: C_5  and  C_6 
REMARK    5  A    between atoms: C_6  and  C_7 
REMARK    6  A    between atoms: C_7  and  N_8 
REMARK    7  A    between atoms: N_11  and  C_12 
ROOT
ATOM      1  C   UNL d   1       9.560   6.835 -11.049  0.00  0.00     0.037 C 
ENDROOT
BRANCH   1   2
ATOM      2  C   UNL d   1       9.845   8.341 -11.024  0.00  0.00     0.029 C 
BRANCH   2   3
ATOM      3  C   UNL d   1      11.152   8.649 -10.268  0.00  0.00     0.129 C 
BRANCH   3   4
ATOM      4  N   UNL d   1      11.147   8.278  -8.857  0.00  0.00    -0.234 NA
ATOM      5  C   UNL d   1      10.295   8.762  -7.948  0.00  0.00     0.276 C 
ATOM      6  O   UNL d   1       9.197   9.241  -8.183  0.00  0.00    -0.266 OA
BRANCH   5   7
ATOM      7  C   UNL d   1      10.807   8.779  -6.555  0.00  0.00     0.077 A 
ATOM      8  C   UNL d   1      11.110   7.592  -5.884  0.00  0.00     0.008 A 
ATOM      9  C   UNL d   1      11.532   7.704  -4.548  0.00  0.00     0.018 A 
ATOM     10  C   UNL d   1      11.608   8.987  -3.933  0.00  0.00     0.081 A 
ATOM     11  C   UNL d   1      11.858   6.552  -3.830  0.00  0.00     0.002 A 
ATOM     12  N   UNL d   1      11.256  10.105  -4.578  0.00  0.00    -0.244 NA
ATOM     13  C   UNL d   1      12.058   9.076  -2.605  0.00  0.00     0.019 A 
ATOM     14  C   UNL d   1      10.899   9.999  -5.870  0.00  0.00     0.104 A 
ATOM     15  C   UNL d   1      12.387   7.923  -1.889  0.00  0.00     0.002 A 
ATOM     16  C   UNL d   1      12.278   6.658  -2.494  0.00  0.00     0.000 A 
ENDBRANCH   5   7
ENDBRANCH   3   4
ENDBRANCH   2   3
ENDBRANCH   1   2
BRANCH   1  17
ATOM     17  C   UNL d   1       8.325   6.499 -11.892  0.00  0.00     0.251 C 
BRANCH  17  18
ATOM     18  N   UNL d   1       8.215   5.081 -12.151  0.00  0.00     0.141 N 
ATOM     19  C   UNL d   1       6.856   4.856 -12.664  0.00  0.00     0.274 C 
ATOM     20  C   UNL d   1       6.630   3.379 -12.986  0.00  0.00     0.137 C 
ATOM     21  N   UNL d   1       7.690   2.888 -13.856  0.00  0.00    -0.344 N 
ATOM     22  C   UNL d   1       9.057   3.184 -13.438  0.00  0.00     0.137 C 
ATOM     23  C   UNL d   1       9.202   4.675 -13.156  0.00  0.00     0.274 C 
BRANCH  21  24
ATOM     24  C   UNL d   1       7.446   2.069 -14.991  0.00  0.00     0.068 A 
ATOM     25  C   UNL d   1       6.486   1.030 -15.015  0.00  0.00     0.084 A 
ATOM     26  C   UNL d   1       6.238   0.329 -16.218  0.00  0.00     0.070 A 
ATOM     27 CL   UNL d   1       5.588   0.548 -13.601  0.00  0.00    -0.080 Cl
ATOM     28  C   UNL d   1       6.964   0.639 -17.377  0.00  0.00     0.012 A 
ATOM     29 CL   UNL d   1       5.027  -0.902 -16.295  0.00  0.00    -0.081 Cl
ATOM     30  C   UNL d   1       7.954   1.633 -17.346  0.00  0.00     0.002 A 
ATOM     31  C   UNL d   1       8.204   2.331 -16.155  0.00  0.00     0.018 A 
ENDBRANCH  21  24
ENDBRANCH  17  18
ENDBRANCH   1  17
TORSDOF 7
