REMARK  6 active torsions:
REMARK  status: ('A' for Active; 'I' for Inactive)
REMARK    1  A    between atoms: C_2  and  C_4 
REMARK    2  A    between atoms: C_7  and  C_8 
REMARK       I    between atoms: C_8  and  N_10 
REMARK    3  A    between atoms: N_10  and  C_11 
REMARK    4  A    between atoms: C_14  and  C_15 
REMARK    5  A    between atoms: C_15  and  C_16 
REMARK    6  A    between atoms: C_16  and  N_17 
ROOT
ATOM      1  N   UNL d   1       7.834   2.348 -17.291  0.00  0.00     0.138 N 
ATOM      2  C   UNL d   1       8.785   2.639 -18.379  0.00  0.00     0.253 C 
ATOM      3  C   UNL d   1       8.861   1.329 -19.153  0.00  0.00     0.070 C 
ATOM      4  C   UNL d   1       9.095   1.325 -20.664  0.00  0.00     0.151 C 
ATOM      5  O   UNL d   1       9.134  -0.029 -21.141  0.00  0.00    -0.331 OA
ATOM      6  C   UNL d   1       8.282  -0.962 -20.570  0.00  0.00     0.090 A 
ATOM      7  C   UNL d   1       8.248  -2.256 -21.123  0.00  0.00     0.025 A 
ATOM      8  C   UNL d   1       7.426  -3.251 -20.561  0.00  0.00     0.012 A 
ATOM      9  C   UNL d   1       6.625  -2.964 -19.437  0.00  0.00     0.068 A 
ATOM     10  C   UNL d   1       5.782  -4.001 -18.871  0.00  0.00     0.101 C 
ATOM     11  N   UNL d   1       5.112  -4.832 -18.424  0.00  0.00    -0.191 NA
ATOM     12  C   UNL d   1       6.646  -1.673 -18.872  0.00  0.00     0.008 A 
ATOM     13  C   UNL d   1       7.475  -0.681 -19.434  0.00  0.00     0.003 A 
ATOM     14  C   UNL d   1       7.516   0.719 -18.880  0.00  0.00     0.062 C 
ATOM     15  C   UNL d   1       7.410   0.947 -17.380  0.00  0.00     0.255 C 
ENDROOT
BRANCH   1  16
ATOM     16  C   UNL d   1       8.355   2.715 -15.983  0.00  0.00     0.255 C 
BRANCH  16  17
ATOM     17  C   UNL d   1       7.262   2.756 -14.885  0.00  0.00     0.062 C 
BRANCH  17  18
ATOM     18  C   UNL d   1       7.709   3.593 -13.702  0.00  0.00    -0.020 A 
ATOM     19  C   UNL d   1       9.015   3.448 -13.205  0.00  0.00    -0.003 A 
ATOM     20  C   UNL d   1       9.401   4.175 -12.062  0.00  0.00     0.019 A 
ATOM     21  C   UNL d   1       8.529   5.112 -11.468  0.00  0.00     0.085 A 
ATOM     22  C   UNL d   1       7.240   5.290 -11.992  0.00  0.00     0.019 A 
ATOM     23  C   UNL d   1       6.825   4.518 -13.094  0.00  0.00    -0.003 A 
BRANCH  21  24
ATOM     24  N   UNL d   1       8.937   5.917 -10.374  0.00  0.00    -0.208 NA
ATOM     25  C   UNL d   1       9.472   5.475  -9.233  0.00  0.00     0.279 C 
ATOM     26  O   UNL d   1       9.584   4.272  -8.962  0.00  0.00    -0.265 OA
BRANCH  25  27
ATOM     27  C   UNL d   1       9.985   6.521  -8.278  0.00  0.00     0.058 A 
ATOM     28  C   UNL d   1      10.983   6.242  -7.331  0.00  0.00     0.005 A 
ATOM     29  C   UNL d   1      11.411   7.205  -6.395  0.00  0.00     0.003 A 
ATOM     30  C   UNL d   1      10.898   8.523  -6.447  0.00  0.00     0.035 A 
ATOM     31  C   UNL d   1       9.933   8.817  -7.429  0.00  0.00     0.003 A 
ATOM     32  C   UNL d   1       9.456   7.834  -8.300  0.00  0.00     0.005 A 
BRANCH  30  33
ATOM     33  C   UNL d   1      11.366   9.592  -5.521  0.00  0.00     0.173 C 
ATOM     34  C   UNL d   1      12.273   9.169  -4.372  0.00  0.00     0.077 C 
ATOM     35  O   UNL d   1      11.059  10.773  -5.636  0.00  0.00    -0.291 OA
ENDBRANCH  30  33
ENDBRANCH  25  27
ENDBRANCH  21  24
ENDBRANCH  17  18
ENDBRANCH  16  17
ENDBRANCH   1  16
TORSDOF 6
