REMARK  8 active torsions:
REMARK  status: ('A' for Active; 'I' for Inactive)
REMARK    1  A    between atoms: S_2  and  N_4 
REMARK    2  A    between atoms: S_2  and  C_24 
REMARK    3  A    between atoms: N_4  and  C_5 
REMARK    4  A    between atoms: C_5  and  C_6 
REMARK    5  A    between atoms: C_6  and  C_7 
REMARK    6  A    between atoms: C_7  and  C_8 
REMARK    7  A    between atoms: C_8  and  N_9 
REMARK    8  A    between atoms: N_12  and  C_13 
ROOT
ATOM      1  N   UNL d   1       8.564   3.213 -13.892  0.00  0.00     0.141 N 
ATOM      2  C   UNL d   1       7.140   2.854 -14.012  0.00  0.00     0.274 C 
ATOM      3  C   UNL d   1       6.964   1.494 -14.697  0.00  0.00     0.138 C 
ATOM      4  N   UNL d   1       7.647   1.480 -15.981  0.00  0.00    -0.328 N 
ATOM      5  C   UNL d   1       9.035   1.916 -15.955  0.00  0.00     0.138 C 
ATOM      6  C   UNL d   1       9.159   3.273 -15.233  0.00  0.00     0.274 C 
ENDROOT
BRANCH   1   7
ATOM      7  C   UNL d   1       8.684   4.512 -13.230  0.00  0.00     0.251 C 
BRANCH   7   8
ATOM      8  C   UNL d   1       8.742   4.351 -11.704  0.00  0.00     0.037 C 
BRANCH   8   9
ATOM      9  C   UNL d   1       9.017   5.662 -10.969  0.00  0.00     0.029 C 
BRANCH   9  10
ATOM     10  C   UNL d   1       9.172   5.490  -9.446  0.00  0.00     0.139 C 
BRANCH  10  11
ATOM     11  N   UNL d   1       9.066   6.780  -8.782  0.00  0.00    -0.184 NA
BRANCH  11  12
ATOM     12  S   UNL d   1      10.366   7.900  -8.847  0.00  0.00     0.287 S 
ATOM     13  O   UNL d   1      11.458   7.279  -9.612  0.00  0.00    -0.198 OA
ATOM     14  O   UNL d   1       9.807   9.204  -9.228  0.00  0.00    -0.198 OA
BRANCH  12  15
ATOM     15  C   UNL d   1      10.919   8.044  -7.155  0.00  0.00     0.134 A 
ATOM     16  S   UNL d   1      11.446   9.567  -6.487  0.00  0.00    -0.073 SA
ATOM     17  C   UNL d   1      11.764   8.828  -4.937  0.00  0.00     0.036 A 
ATOM     18  C   UNL d   1      11.453   7.489  -4.952  0.00  0.00     0.008 A 
ATOM     19  C   UNL d   1      10.974   7.043  -6.219  0.00  0.00     0.020 A 
ENDBRANCH  12  15
ENDBRANCH  11  12
ENDBRANCH  10  11
ENDBRANCH   9  10
ENDBRANCH   8   9
ENDBRANCH   7   8
ENDBRANCH   1   7
BRANCH   4  20
ATOM     20  C   UNL d   1       7.013   1.107 -17.180  0.00  0.00     0.169 A 
ATOM     21  C   UNL d   1       5.922   0.211 -17.329  0.00  0.00     0.061 A 
ATOM     22  C   UNL d   1       5.609   0.129 -18.694  0.00  0.00     0.128 A 
ATOM     23  C   UNL d   1       5.191  -0.579 -16.405  0.00  0.00     0.005 A 
ATOM     24  O   UNL d   1       6.518   0.969 -19.329  0.00  0.00    -0.210 OA
ATOM     25  C   UNL d   1       4.589  -0.693 -19.200  0.00  0.00     0.027 A 
ATOM     26  N   UNL d   1       7.386   1.570 -18.374  0.00  0.00    -0.109 NA
ATOM     27  C   UNL d   1       3.852  -1.462 -18.274  0.00  0.00     0.002 A 
ATOM     28  C   UNL d   1       4.146  -1.396 -16.889  0.00  0.00     0.000 A 
ENDBRANCH   4  20
TORSDOF 8
