REMARK  6 active torsions:
REMARK  status: ('A' for Active; 'I' for Inactive)
REMARK    1  A    between atoms: C_2  and  C_3 
REMARK    2  A    between atoms: C_3  and  C_4 
REMARK    3  A    between atoms: C_4  and  C_5 
REMARK    4  A    between atoms: C_4  and  N_17 
REMARK    5  A    between atoms: C_5  and  C_7 
REMARK    6  A    between atoms: C_10  and  C_11 
ROOT
ATOM      1  C   UNL d   1       9.027   5.326 -11.145  0.00  0.00     0.204 C 
ATOM      2  O   UNL d   1       9.841   4.801 -11.910  0.00  0.00    -0.289 OA
ENDROOT
BRANCH   1   3
ATOM      3  C   UNL d   1       7.534   5.333 -11.480  0.00  0.00     0.280 C 
BRANCH   3   4
ATOM      4  C   UNL d   1       7.231   6.590 -12.343  0.00  0.00     0.041 C 
BRANCH   4   5
ATOM      5  C   UNL d   1       5.734   6.949 -12.348  0.00  0.00     0.003 C 
ATOM      6  C   UNL d   1       5.472   8.366 -12.803  0.00  0.00     0.000 C 
ENDBRANCH   4   5
ENDBRANCH   3   4
BRANCH   3   7
ATOM      7  N   UNL d   1       7.036   4.059 -12.097  0.00  0.00     0.142 N 
ATOM      8  C   UNL d   1       5.622   3.784 -11.872  0.00  0.00     0.251 C 
ATOM      9  C   UNL d   1       5.287   2.607 -12.810  0.00  0.00     0.037 C 
ATOM     10  C   UNL d   1       6.354   2.679 -13.899  0.00  0.00     0.037 C 
ATOM     11  C   UNL d   1       7.220   3.895 -13.541  0.00  0.00     0.251 C 
ENDBRANCH   3   7
ENDBRANCH   1   3
BRANCH   1  12
ATOM     12  C   UNL d   1       9.453   6.064  -9.920  0.00  0.00     0.037 A 
ATOM     13  C   UNL d   1      10.318   7.173 -10.051  0.00  0.00     0.003 A 
ATOM     14  C   UNL d   1      10.759   7.889  -8.920  0.00  0.00     0.004 A 
ATOM     15  C   UNL d   1      10.356   7.502  -7.632  0.00  0.00     0.071 A 
ATOM     16  C   UNL d   1       9.490   6.391  -7.492  0.00  0.00     0.004 A 
ATOM     17  C   UNL d   1       9.047   5.670  -8.625  0.00  0.00     0.003 A 
BRANCH  15  18
ATOM     18  C   UNL d   1      10.826   8.270  -6.399  0.00  0.00     0.419 C 
ATOM     19  F   UNL d   1      11.950   8.943  -6.650  0.00  0.00    -0.166 F 
ATOM     20  F   UNL d   1       9.896   9.149  -6.040  0.00  0.00    -0.166 F 
ATOM     21  F   UNL d   1      11.053   7.449  -5.373  0.00  0.00    -0.166 F 
ENDBRANCH  15  18
ENDBRANCH   1  12
TORSDOF 6
