REMARK  5 active torsions:
REMARK  status: ('A' for Active; 'I' for Inactive)
REMARK    1  A    between atoms: C_2  and  C_3 
REMARK       I    between atoms: C_2  and  N_12 
REMARK    2  A    between atoms: N_15  and  C_16 
REMARK    3  A    between atoms: C_16  and  C_17 
REMARK    4  A    between atoms: C_17  and  O_18 
REMARK    5  A    between atoms: O_18  and  C_19 
ROOT
ATOM      1  O   UNL d   1       9.780   9.185  -8.301  0.00  0.00    -0.266 OA
ATOM      2  C   UNL d   1      10.092   8.055  -7.910  0.00  0.00     0.275 C 
ATOM      3  N   UNL d   1      10.185   7.028  -8.759  0.00  0.00    -0.311 N 
ATOM      4  C   UNL d   1       9.785   5.656  -8.444  0.00  0.00     0.140 C 
ATOM      5  C   UNL d   1       8.715   5.162  -9.424  0.00  0.00     0.274 C 
ATOM      6  N   UNL d   1       9.174   5.230 -10.803  0.00  0.00     0.144 N 
ATOM      7  C   UNL d   1       9.494   6.622 -11.121  0.00  0.00     0.274 C 
ATOM      8  C   UNL d   1      10.553   7.211 -10.169  0.00  0.00     0.140 C 
ENDROOT
BRANCH   2   9
ATOM      9  C   UNL d   1      10.639   7.894  -6.526  0.00  0.00     0.137 A 
ATOM     10  N   UNL d   1      10.942   9.035  -5.790  0.00  0.00    -0.239 NA
ATOM     11  C   UNL d   1      11.461   8.700  -4.543  0.00  0.00     0.101 A 
ATOM     12  C   UNL d   1      11.485   7.285  -4.512  0.00  0.00     0.022 A 
ATOM     13  C   UNL d   1      11.862   9.434  -3.411  0.00  0.00     0.118 A 
ATOM     14  C   UNL d   1      11.019   6.811  -5.781  0.00  0.00     0.026 A 
ATOM     15  C   UNL d   1      11.921   6.686  -3.318  0.00  0.00     0.022 A 
ATOM     16  C   UNL d   1      12.285   7.490  -2.228  0.00  0.00     0.099 A 
ATOM     17  N   UNL d   1      12.264   8.833  -2.272  0.00  0.00    -0.241 NA
ENDBRANCH   2   9
BRANCH   6  18
ATOM     18  C   UNL d   1       8.116   4.730 -11.688  0.00  0.00     0.283 C 
BRANCH  18  19
ATOM     19  C   UNL d   1       8.748   4.328 -13.028  0.00  0.00     0.184 C 
BRANCH  19  20
ATOM     20  O   UNL d   1       7.880   3.471 -13.776  0.00  0.00    -0.327 OA
BRANCH  20  21
ATOM     21  C   UNL d   1       8.374   2.380 -14.457  0.00  0.00     0.113 A 
ATOM     22  C   UNL d   1       9.740   2.015 -14.523  0.00  0.00     0.123 A 
ATOM     23  N   UNL d   1      10.192   0.916 -15.151  0.00  0.00    -0.240 NA
ATOM     24  C   UNL d   1       9.309   0.112 -15.785  0.00  0.00     0.099 A 
ATOM     25  C   UNL d   1       7.933   0.393 -15.819  0.00  0.00     0.023 A 
ATOM     26  C   UNL d   1       7.448   1.534 -15.147  0.00  0.00     0.027 A 
ENDBRANCH  20  21
ENDBRANCH  19  20
ENDBRANCH  18  19
ENDBRANCH   6  18
TORSDOF 5
