REMARK  3 active torsions:
REMARK  status: ('A' for Active; 'I' for Inactive)
REMARK    1  A    between atoms: N_12  and  C_13 
REMARK    2  A    between atoms: C_13  and  C_14 
REMARK    3  A    between atoms: C_14  and  C_15 
ROOT
ATOM      1  O   UNL d   1      13.426   9.592  -4.448  0.00  0.00    -0.190 OA
ATOM      2  C   UNL d   1      12.339   8.933  -4.862  0.00  0.00     0.131 A 
ATOM      3  C   UNL d   1      11.956   7.764  -4.190  0.00  0.00     0.027 A 
ATOM      4  C   UNL d   1      11.014   6.917  -4.758  0.00  0.00    -0.002 A 
ATOM      5  C   UNL d   1      10.398   7.293  -5.959  0.00  0.00    -0.024 A 
ATOM      6  C   UNL d   1      10.751   8.493  -6.622  0.00  0.00     0.005 A 
ATOM      7  C   UNL d   1      11.742   9.316  -6.074  0.00  0.00     0.025 A 
ATOM      8  C   UNL d   1      10.087   8.894  -7.928  0.00  0.00     0.169 C 
ATOM      9  O   UNL d   1      10.963   9.582  -8.827  0.00  0.00    -0.348 OA
ATOM     10  C   UNL d   1      11.875   8.730  -9.480  0.00  0.00     0.178 C 
ATOM     11  C   UNL d   1      11.110   7.660 -10.226  0.00  0.00     0.282 C 
ATOM     12  N   UNL d   1      10.233   6.853  -9.411  0.00  0.00     0.141 N 
ATOM     13  C   UNL d   1       9.348   7.741  -8.648  0.00  0.00     0.251 C 
ATOM     14  C   UNL d   1       8.497   7.039  -7.588  0.00  0.00     0.041 C 
ATOM     15  C   UNL d   1       9.357   6.379  -6.531  0.00  0.00     0.028 C 
ENDROOT
BRANCH  12  16
ATOM     16  C   UNL d   1       9.545   5.836 -10.230  0.00  0.00     0.255 C 
BRANCH  16  17
ATOM     17  C   UNL d   1       8.940   6.324 -11.573  0.00  0.00     0.062 C 
BRANCH  17  18
ATOM     18  C   UNL d   1       8.188   5.241 -12.293  0.00  0.00    -0.020 A 
ATOM     19  C   UNL d   1       8.844   4.428 -13.243  0.00  0.00    -0.004 A 
ATOM     20  C   UNL d   1       8.127   3.443 -13.950  0.00  0.00    -0.000 A 
ATOM     21  C   UNL d   1       6.750   3.266 -13.691  0.00  0.00    -0.000 A 
ATOM     22  C   UNL d   1       6.092   4.073 -12.739  0.00  0.00    -0.000 A 
ATOM     23  C   UNL d   1       6.814   5.059 -12.041  0.00  0.00    -0.004 A 
ENDBRANCH  17  18
ENDBRANCH  16  17
ENDBRANCH  12  16
TORSDOF 3
