REMARK  5 active torsions:
REMARK  status: ('A' for Active; 'I' for Inactive)
REMARK    1  A    between atoms: C_2  and  C_4 
REMARK    2  A    between atoms: C_4  and  S_5 
REMARK    3  A    between atoms: S_5  and  N_8 
REMARK    4  A    between atoms: C_12  and  C_13 
REMARK    5  A    between atoms: C_21  and  N_22 
ROOT
ATOM      1  N   UNL d   1      10.098  -0.156 -19.229  0.00  0.00    -0.218 N 
ATOM      2  C   UNL d   1       9.098  -1.079 -19.467  0.00  0.00     0.093 A 
ATOM      3  C   UNL d   1       8.193  -1.051 -18.440  0.00  0.00     0.023 A 
ATOM      4  C   UNL d   1       8.626  -0.019 -17.529  0.00  0.00     0.037 A 
ATOM      5  C   UNL d   1       8.177   0.564 -16.311  0.00  0.00     0.007 A 
ATOM      6  C   UNL d   1       8.995   1.541 -15.699  0.00  0.00     0.037 A 
ATOM      7  C   UNL d   1      10.209   1.975 -16.291  0.00  0.00     0.142 A 
ATOM      8  N   UNL d   1      10.640   1.453 -17.462  0.00  0.00    -0.211 NA
ATOM      9  C   UNL d   1       9.854   0.501 -18.036  0.00  0.00     0.158 A 
ENDROOT
BRANCH   1  10
ATOM     10  S   UNL d   1      11.414   0.085 -20.281  0.00  0.00     0.252 S 
ATOM     11  O   UNL d   1      11.562   1.540 -20.428  0.00  0.00    -0.204 OA
ATOM     12  O   UNL d   1      11.113  -0.768 -21.440  0.00  0.00    -0.204 OA
BRANCH  10  13
ATOM     13  C   UNL d   1      12.801  -0.625 -19.270  0.00  0.00     0.145 C 
BRANCH  13  14
ATOM     14  C   UNL d   1      14.126  -0.800 -20.046  0.00  0.00     0.018 C 
ATOM     15  C   UNL d   1      14.665   0.546 -20.555  0.00  0.00     0.001 C 
ATOM     16  C   UNL d   1      14.038  -1.833 -21.183  0.00  0.00     0.001 C 
ENDBRANCH  13  14
ENDBRANCH  10  13
ENDBRANCH   1  10
BRANCH   5  17
ATOM     17  C   UNL d   1       6.892   0.188 -15.657  0.00  0.00     0.020 A 
ATOM     18  C   UNL d   1       5.902  -0.459 -16.306  0.00  0.00     0.102 A 
ATOM     19  N   UNL d   1       4.702  -0.811 -15.687  0.00  0.00    -0.206 NA
ATOM     20  C   UNL d   1       4.382  -0.488 -14.413  0.00  0.00     0.279 A 
ATOM     21  C   UNL d   1       5.422   0.226 -13.679  0.00  0.00     0.063 A 
ATOM     22  O   UNL d   1       3.308  -0.807 -13.917  0.00  0.00    -0.265 OA
ATOM     23  C   UNL d   1       6.599   0.529 -14.262  0.00  0.00     0.006 A 
ENDBRANCH   5  17
BRANCH   7  24
ATOM     24  N   UNL d   1      11.002   2.957 -15.704  0.00  0.00    -0.330 N 
ATOM     25  C   UNL d   1      10.524   3.869 -14.660  0.00  0.00     0.138 C 
ATOM     26  C   UNL d   1      10.811   5.317 -15.059  0.00  0.00     0.274 C 
ATOM     27  N   UNL d   1      12.240   5.513 -15.310  0.00  0.00     0.143 N 
ATOM     28  C   UNL d   1      12.640   4.665 -16.436  0.00  0.00     0.274 C 
ATOM     29  C   UNL d   1      12.472   6.911 -15.656  0.00  0.00     0.286 C 
ATOM     30  C   UNL d   1      12.405   3.189 -16.089  0.00  0.00     0.138 C 
ENDBRANCH   7  24
TORSDOF 5
