REMARK  7 active torsions:
REMARK  status: ('A' for Active; 'I' for Inactive)
REMARK    1  A    between atoms: C_8  and  O_9 
REMARK    2  A    between atoms: O_9  and  C_10 
REMARK    3  A    between atoms: C_10  and  C_11 
REMARK    4  A    between atoms: C_11  and  C_12 
REMARK    5  A    between atoms: C_12  and  C_13 
REMARK    6  A    between atoms: C_13  and  N_14 
REMARK    7  A    between atoms: N_17  and  C_18 
ROOT
ATOM      1  N   UNL d   1       8.053   5.609 -11.996  0.00  0.00     0.141 N 
ATOM      2  C   UNL d   1       6.724   5.079 -11.653  0.00  0.00     0.274 C 
ATOM      3  C   UNL d   1       6.014   4.526 -12.904  0.00  0.00     0.137 C 
ATOM      4  N   UNL d   1       6.868   3.552 -13.565  0.00  0.00    -0.344 N 
ATOM      5  C   UNL d   1       8.242   3.978 -13.790  0.00  0.00     0.137 C 
ATOM      6  C   UNL d   1       8.872   4.524 -12.525  0.00  0.00     0.274 C 
ENDROOT
BRANCH   1   7
ATOM      7  C   UNL d   1       8.700   6.133 -10.804  0.00  0.00     0.251 C 
BRANCH   7   8
ATOM      8  C   UNL d   1       9.860   7.061 -11.184  0.00  0.00     0.038 C 
BRANCH   8   9
ATOM      9  C   UNL d   1      10.519   7.742  -9.972  0.00  0.00     0.035 C 
BRANCH   9  10
ATOM     10  C   UNL d   1       9.614   8.799  -9.277  0.00  0.00     0.149 C 
BRANCH  10  11
ATOM     11  O   UNL d   1      10.343   9.466  -8.247  0.00  0.00    -0.331 OA
BRANCH  11  12
ATOM     12  C   UNL d   1      10.587   8.764  -7.094  0.00  0.00     0.096 A 
ATOM     13  C   UNL d   1      10.210   7.416  -6.987  0.00  0.00     0.024 A 
ATOM     14  C   UNL d   1      10.627   6.682  -5.897  0.00  0.00    -0.001 A 
ATOM     15  C   UNL d   1      11.317   7.278  -4.847  0.00  0.00    -0.004 A 
ATOM     16  C   UNL d   1      11.693   6.448  -3.655  0.00  0.00     0.038 C 
ATOM     17  C   UNL d   1      11.624   8.644  -4.876  0.00  0.00     0.082 A 
ATOM     18  C   UNL d   1      11.676   7.253  -2.371  0.00  0.00     0.095 C 
ATOM     19  C   UNL d   1      12.340   8.605  -2.549  0.00  0.00     0.256 C 
ATOM     20  O   UNL d   1      12.926   9.064  -1.582  0.00  0.00    -0.270 OA
ATOM     21  N   UNL d   1      12.256   9.227  -3.745  0.00  0.00    -0.212 NA
ATOM     22  C   UNL d   1      11.286   9.401  -6.024  0.00  0.00     0.043 A 
ENDBRANCH  11  12
ENDBRANCH  10  11
ENDBRANCH   9  10
ENDBRANCH   8   9
ENDBRANCH   7   8
ENDBRANCH   1   7
BRANCH   4  23
ATOM     23  C   UNL d   1       6.403   2.258 -13.921  0.00  0.00     0.058 A 
ATOM     24  C   UNL d   1       6.864   1.572 -15.081  0.00  0.00     0.035 A 
ATOM     25  C   UNL d   1       6.392   0.268 -15.366  0.00  0.00     0.111 A 
ATOM     26  C   UNL d   1       7.814   2.121 -16.070  0.00  0.00     0.008 A 
ATOM     27  C   UNL d   1       5.468  -0.356 -14.507  0.00  0.00     0.149 A 
ATOM     28  N   UNL d   1       6.851  -0.407 -16.539  0.00  0.00    -0.206 NA
ATOM     29  C   UNL d   1       5.005   0.332 -13.376  0.00  0.00     0.030 A 
ATOM     30  O   UNL d   1       4.990  -1.614 -14.765  0.00  0.00    -0.189 OA
ATOM     31  C   UNL d   1       5.459   1.619 -13.071  0.00  0.00     0.019 A 
ATOM     32  C   UNL d   1       7.744   0.077 -17.424  0.00  0.00     0.279 A 
ATOM     33  O   UNL d   1       8.114  -0.605 -18.387  0.00  0.00    -0.265 OA
ATOM     34  C   UNL d   1       8.221   1.428 -17.147  0.00  0.00     0.063 A 
ENDBRANCH   4  23
TORSDOF 7
