REMARK  3 active torsions:
REMARK  status: ('A' for Active; 'I' for Inactive)
REMARK    1  A    between atoms: C_2  and  C_3 
REMARK    2  A    between atoms: C_3  and  N_4 
REMARK    3  A    between atoms: C_7  and  C_8 
ROOT
ATOM      1  N   UNL d   1       9.817   7.201  -9.068  0.00  0.00     0.137 N 
ATOM      2  C   UNL d   1       8.826   6.618  -8.164  0.00  0.00     0.251 C 
ATOM      3  C   UNL d   1       8.727   7.627  -7.027  0.00  0.00     0.042 C 
ATOM      4  C   UNL d   1      10.101   8.294  -7.011  0.00  0.00     0.058 C 
ATOM      5  C   UNL d   1      10.873   7.644  -8.175  0.00  0.00     0.255 C 
ENDROOT
BRANCH   4   6
ATOM      6  C   UNL d   1      10.829   8.187  -5.679  0.00  0.00    -0.018 A 
ATOM      7  C   UNL d   1      11.065   9.319  -4.877  0.00  0.00     0.023 A 
ATOM      8  C   UNL d   1      11.709   9.176  -3.638  0.00  0.00     0.131 A 
ATOM      9  C   UNL d   1      12.139   7.919  -3.183  0.00  0.00     0.027 A 
ATOM     10  O   UNL d   1      11.858  10.253  -2.841  0.00  0.00    -0.190 OA
ATOM     11  C   UNL d   1      11.892   6.788  -3.975  0.00  0.00     0.002 A 
ATOM     12  C   UNL d   1      11.237   6.916  -5.213  0.00  0.00    -0.004 A 
ENDBRANCH   4   6
BRANCH   1  13
ATOM     13  C   UNL d   1      10.309   6.214 -10.002  0.00  0.00     0.250 C 
BRANCH  13  14
ATOM     14  C   UNL d   1       9.279   5.874 -11.097  0.00  0.00     0.035 C 
ATOM     15  C   UNL d   1       9.697   4.689 -11.985  0.00  0.00     0.002 C 
ENDBRANCH  13  14
ENDBRANCH   1  13
TORSDOF 3
