REMARK  0 active torsions:
REMARK  status: ('A' for Active; 'I' for Inactive)
ROOT
ATOM      1  C   UNL d   1      12.657   2.042 -18.167  0.00  0.00     0.022 A 
ATOM      2  C   UNL d   1      11.524   1.605 -17.441  0.00  0.00    -0.020 A 
ATOM      3  C   UNL d   1      11.015   0.291 -17.622  0.00  0.00     0.009 A 
ATOM      4  C   UNL d   1      11.643  -0.604 -18.518  0.00  0.00     0.024 A 
ATOM      5  C   UNL d   1      12.767  -0.146 -19.224  0.00  0.00     0.119 A 
ATOM      6  C   UNL d   1      13.256   1.134 -19.056  0.00  0.00     0.119 A 
ATOM      7  O   UNL d   1      14.341   1.315 -19.851  0.00  0.00    -0.300 OA
ATOM      8  C   UNL d   1      14.523   0.100 -20.533  0.00  0.00     0.304 A 
ATOM      9  O   UNL d   1      13.530  -0.808 -20.129  0.00  0.00    -0.300 OA
ATOM     10  C   UNL d   1       9.815  -0.164 -16.812  0.00  0.00     0.277 C 
ATOM     11  N   UNL d   1       9.011   0.940 -16.285  0.00  0.00     0.144 N 
ATOM     12  C   UNL d   1       7.932   0.392 -15.472  0.00  0.00     0.256 C 
ATOM     13  C   UNL d   1       6.969   1.524 -15.102  0.00  0.00     0.061 C 
ATOM     14  C   UNL d   1       7.687   2.682 -14.437  0.00  0.00    -0.020 A 
ATOM     15  C   UNL d   1       6.955   3.590 -13.636  0.00  0.00     0.022 A 
ATOM     16  C   UNL d   1       7.661   4.634 -13.018  0.00  0.00     0.119 A 
ATOM     17  C   UNL d   1       9.021   4.781 -13.181  0.00  0.00     0.119 A 
ATOM     18  C   UNL d   1       9.770   3.900 -13.977  0.00  0.00     0.024 A 
ATOM     19  C   UNL d   1       9.089   2.841 -14.632  0.00  0.00     0.007 A 
ATOM     20  C   UNL d   1       9.867   1.835 -15.491  0.00  0.00     0.246 C 
ATOM     21  C   UNL d   1      10.823   2.551 -16.481  0.00  0.00     0.064 C 
ATOM     22  O   UNL d   1       9.451   5.855 -12.473  0.00  0.00    -0.300 OA
ATOM     23  C   UNL d   1       8.307   6.386 -11.855  0.00  0.00     0.304 A 
ATOM     24  O   UNL d   1       7.190   5.612 -12.207  0.00  0.00    -0.300 OA
ENDROOT
TORSDOF 0
