REMARK  8 active torsions:
REMARK  status: ('A' for Active; 'I' for Inactive)
REMARK    1  A    between atoms: C_2  and  O_3 
REMARK    2  A    between atoms: O_3  and  C_4 
REMARK    3  A    between atoms: C_4  and  C_6 
REMARK    4  A    between atoms: C_12  and  C_13 
REMARK    5  A    between atoms: N_22  and  C_23 
REMARK    6  A    between atoms: C_23  and  C_24 
REMARK    7  A    between atoms: C_24  and  N_25 
REMARK    8  A    between atoms: N_28  and  C_29 
ROOT
ATOM      1  C   UNL d   1      15.461   3.780 -20.360  0.00  0.00     0.062 C 
ATOM      2  C   UNL d   1      14.758   4.943 -20.388  0.00  0.00    -0.005 C 
ATOM      3  C   UNL d   1      13.229   5.023 -20.460  0.00  0.00     0.238 C 
ATOM      4  C   UNL d   1      12.808   5.588 -21.834  0.00  0.00     0.037 C 
ATOM      5  C   UNL d   1      13.561   6.861 -22.288  0.00  0.00     0.003 C 
ATOM      6  C   UNL d   1      15.058   6.912 -21.870  0.00  0.00     0.008 C 
ATOM      7  C   UNL d   1      15.383   6.364 -20.441  0.00  0.00     0.038 C 
ATOM      8  C   UNL d   1      14.663   7.230 -19.348  0.00  0.00     0.043 C 
ATOM      9  C   UNL d   1      13.143   7.097 -19.212  0.00  0.00     0.251 C 
ATOM     10  N   UNL d   1      12.665   5.720 -19.298  0.00  0.00     0.141 N 
ENDROOT
BRANCH  10  11
ATOM     11  C   UNL d   1      12.908   4.975 -18.058  0.00  0.00     0.286 C 
BRANCH  11  12
ATOM     12  C   UNL d   1      12.070   5.434 -16.852  0.00  0.00     0.286 C 
BRANCH  12  13
ATOM     13  N   UNL d   1      11.400   4.351 -16.160  0.00  0.00     0.143 N 
ATOM     14  C   UNL d   1      10.136   4.006 -16.822  0.00  0.00     0.274 C 
ATOM     15  C   UNL d   1       9.404   2.840 -16.153  0.00  0.00     0.137 C 
ATOM     16  N   UNL d   1       9.251   3.105 -14.732  0.00  0.00    -0.344 N 
ATOM     17  C   UNL d   1      10.437   3.520 -14.003  0.00  0.00     0.137 C 
ATOM     18  C   UNL d   1      11.129   4.668 -14.761  0.00  0.00     0.274 C 
BRANCH  16  19
ATOM     19  C   UNL d   1       7.976   2.987 -14.103  0.00  0.00     0.068 A 
ATOM     20  C   UNL d   1       7.175   1.831 -14.273  0.00  0.00     0.084 A 
ATOM     21  C   UNL d   1       5.919   1.757 -13.640  0.00  0.00     0.070 A 
ATOM     22 CL   UNL d   1       7.732   0.441 -15.147  0.00  0.00    -0.080 Cl
ATOM     23  C   UNL d   1       5.456   2.829 -12.853  0.00  0.00     0.012 A 
ATOM     24 CL   UNL d   1       4.946   0.337 -13.779  0.00  0.00    -0.081 Cl
ATOM     25  C   UNL d   1       6.251   3.976 -12.682  0.00  0.00     0.002 A 
ATOM     26  C   UNL d   1       7.516   4.048 -13.299  0.00  0.00     0.018 A 
ENDBRANCH  16  19
ENDBRANCH  12  13
ENDBRANCH  11  12
ENDBRANCH  10  11
BRANCH   1  27
ATOM     27  C   UNL d   1      14.957   2.386 -20.359  0.00  0.00     0.295 C 
ATOM     28  O   UNL d   1      13.784   2.011 -20.403  0.00  0.00    -0.259 OA
BRANCH  27  29
ATOM     29  O   UNL d   1      16.006   1.551 -20.299  0.00  0.00    -0.298 OA
BRANCH  29  30
ATOM     30  C   UNL d   1      15.834   0.157 -20.144  0.00  0.00     0.152 C 
ATOM     31  C   UNL d   1      15.735  -0.523 -21.512  0.00  0.00     0.035 C 
ENDBRANCH  29  30
ENDBRANCH  27  29
ENDBRANCH   1  27
BRANCH   7  32
ATOM     32  C   UNL d   1      16.934   6.424 -20.214  0.00  0.00    -0.017 C 
ATOM     33  C   UNL d   1      17.517   7.199 -19.168  0.00  0.00     0.023 C 
ATOM     34  C   UNL d   1      18.902   7.186 -18.915  0.00  0.00     0.131 C 
ATOM     35  C   UNL d   1      19.752   6.406 -19.713  0.00  0.00     0.027 C 
ATOM     36  O   UNL d   1      19.410   7.910 -17.878  0.00  0.00    -0.190 OA
ATOM     37  C   UNL d   1      19.211   5.663 -20.778  0.00  0.00     0.002 C 
ATOM     38  C   UNL d   1      17.835   5.736 -21.067  0.00  0.00    -0.004 C 
ENDBRANCH   7  32
TORSDOF 8
