REMARK  7 active torsions:
REMARK  status: ('A' for Active; 'I' for Inactive)
REMARK    1  A    between atoms: C_2  and  C_3 
REMARK       I    between atoms: C_2  and  N_10 
REMARK    2  A    between atoms: C_3  and  C_4 
REMARK    3  A    between atoms: N_10  and  C_11 
REMARK    4  A    between atoms: C_14  and  C_15 
REMARK    5  A    between atoms: C_15  and  C_16 
REMARK    6  A    between atoms: C_16  and  N_17 
REMARK    7  A    between atoms: C_20  and  C_21 
ROOT
ATOM      1  C   UNL d   1       9.352   5.304 -11.038  0.00  0.00     0.035 C 
ENDROOT
BRANCH   1   2
ATOM      2  C   UNL d   1       9.452   6.546 -10.111  0.00  0.00     0.002 C 
ATOM      3  C   UNL d   1       9.395   6.121  -8.632  0.00  0.00     0.002 C 
ATOM      4  C   UNL d   1       9.330   7.340  -7.694  0.00  0.00     0.024 C 
ATOM      5  C   UNL d   1      10.512   8.295  -7.951  0.00  0.00     0.106 C 
ATOM      6  C   UNL d   1      10.558   8.745  -9.412  0.00  0.00     0.024 C 
ATOM      7  C   UNL d   1      10.633   7.517 -10.339  0.00  0.00     0.002 C 
BRANCH   5   8
ATOM      8  N   UNL d   1      10.429   9.466  -7.081  0.00  0.00    -0.240 NA
ATOM      9  C   UNL d   1      10.805   9.543  -5.801  0.00  0.00     0.254 C 
ATOM     10  O   UNL d   1      10.702  10.598  -5.181  0.00  0.00    -0.271 OA
BRANCH   9  11
ATOM     11  C   UNL d   1      11.318   8.287  -5.113  0.00  0.00     0.122 C 
BRANCH  11  12
ATOM     12  C   UNL d   1      12.364   8.590  -4.031  0.00  0.00     0.154 C 
ATOM     13  O   UNL d   1      13.062   7.405  -3.778  0.00  0.00    -0.351 OA
ATOM     14  C   UNL d   1      12.339   6.316  -3.256  0.00  0.00     0.174 C 
ATOM     15  C   UNL d   1      11.847   6.787  -1.917  0.00  0.00     0.174 C 
ATOM     16  O   UNL d   1      11.123   7.956  -2.116  0.00  0.00    -0.349 OA
ATOM     17  C   UNL d   1      11.853   9.052  -2.668  0.00  0.00     0.172 C 
ENDBRANCH  11  12
ENDBRANCH   9  11
ENDBRANCH   5   8
ENDBRANCH   1   2
BRANCH   1  18
ATOM     18  C   UNL d   1       9.174   5.695 -12.528  0.00  0.00     0.250 C 
BRANCH  18  19
ATOM     19  N   UNL d   1       9.514   4.576 -13.395  0.00  0.00     0.137 N 
ATOM     20  C   UNL d   1       8.403   3.623 -13.447  0.00  0.00     0.251 C 
ATOM     21  C   UNL d   1       8.754   2.389 -14.291  0.00  0.00     0.040 C 
ATOM     22  C   UNL d   1       9.158   2.783 -15.717  0.00  0.00     0.026 C 
ATOM     23  C   UNL d   1      10.214   3.908 -15.649  0.00  0.00     0.040 C 
ATOM     24  C   UNL d   1       9.788   5.060 -14.747  0.00  0.00     0.251 C 
BRANCH  22  25
ATOM     25  C   UNL d   1       9.622   1.582 -16.524  0.00  0.00    -0.024 A 
ATOM     26  C   UNL d   1       8.712   0.739 -17.204  0.00  0.00    -0.001 A 
ATOM     27  C   UNL d   1       9.124  -0.363 -17.931  0.00  0.00     0.090 A 
ATOM     28  C   UNL d   1       7.220   0.843 -17.289  0.00  0.00     0.061 A 
ATOM     29  C   UNL d   1      10.497  -0.691 -18.031  0.00  0.00     0.024 A 
ATOM     30  O   UNL d   1       8.099  -1.049 -18.509  0.00  0.00    -0.331 OA
ATOM     31  C   UNL d   1      11.421   0.139 -17.378  0.00  0.00     0.002 A 
ATOM     32  C   UNL d   1      10.999   1.244 -16.611  0.00  0.00    -0.004 A 
ATOM     33  C   UNL d   1       6.870  -0.401 -18.140  0.00  0.00     0.154 A 
ENDBRANCH  22  25
ENDBRANCH  18  19
ENDBRANCH   1  18
TORSDOF 7
