REMARK  5 active torsions:
REMARK  status: ('A' for Active; 'I' for Inactive)
REMARK       I    between atoms: C_2  and  N_3 
REMARK    1  A    between atoms: C_2  and  C_19 
REMARK    2  A    between atoms: N_3  and  C_4 
REMARK    3  A    between atoms: C_4  and  C_5 
REMARK    4  A    between atoms: C_5  and  N_6 
REMARK    5  A    between atoms: N_9  and  C_10 
ROOT
ATOM      1  C   UNL d   1       7.774   5.783 -12.165  0.00  0.00     0.164 C 
ENDROOT
BRANCH   1   2
ATOM      2  N   UNL d   1       8.649   6.382 -11.175  0.00  0.00    -0.236 NA
ATOM      3  C   UNL d   1       8.789   5.976  -9.904  0.00  0.00     0.251 C 
ATOM      4  O   UNL d   1       8.349   4.907  -9.485  0.00  0.00    -0.271 OA
BRANCH   3   5
ATOM      5  C   UNL d   1       9.548   6.935  -8.957  0.00  0.00     0.073 C 
ATOM      6  C   UNL d   1       8.760   7.207  -7.635  0.00  0.00     0.009 C 
ATOM      7  C   UNL d   1       9.621   8.072  -6.698  0.00  0.00     0.001 C 
ATOM      8  C   UNL d   1      10.901   7.339  -6.300  0.00  0.00     0.000 C 
ATOM      9  C   UNL d   1       9.978   9.399  -7.397  0.00  0.00     0.000 C 
ATOM     10  C   UNL d   1      11.701   7.081  -7.572  0.00  0.00     0.001 C 
ATOM     11  C   UNL d   1      12.084   8.393  -8.287  0.00  0.00     0.000 C 
ATOM     12  C   UNL d   1      10.848   6.240  -8.563  0.00  0.00     0.009 C 
ATOM     13  C   UNL d   1      10.795   9.127  -8.671  0.00  0.00     0.001 C 
ATOM     14  C   UNL d   1       9.955   8.279  -9.636  0.00  0.00     0.009 C 
ENDBRANCH   3   5
ENDBRANCH   1   2
BRANCH   1  15
ATOM     15  C   UNL d   1       8.333   4.426 -12.612  0.00  0.00     0.277 C 
BRANCH  15  16
ATOM     16  N   UNL d   1       9.454   4.610 -13.531  0.00  0.00     0.143 N 
ATOM     17  C   UNL d   1      10.227   3.368 -13.556  0.00  0.00     0.274 C 
ATOM     18  C   UNL d   1      11.430   3.494 -14.513  0.00  0.00     0.137 C 
ATOM     19  N   UNL d   1      10.955   3.881 -15.830  0.00  0.00    -0.344 N 
ATOM     20  C   UNL d   1      10.085   5.039 -15.877  0.00  0.00     0.137 C 
ATOM     21  C   UNL d   1       8.934   4.855 -14.873  0.00  0.00     0.274 C 
BRANCH  19  22
ATOM     22  C   UNL d   1      11.311   3.179 -16.991  0.00  0.00     0.056 A 
ATOM     23  C   UNL d   1      10.320   2.760 -17.904  0.00  0.00     0.018 A 
ATOM     24  C   UNL d   1      10.682   2.053 -19.068  0.00  0.00     0.013 A 
ATOM     25  C   UNL d   1      12.037   1.778 -19.336  0.00  0.00     0.058 A 
ATOM     26  C   UNL d   1      13.028   2.212 -18.433  0.00  0.00     0.013 A 
ATOM     27 CL   UNL d   1      12.486   0.911 -20.754  0.00  0.00    -0.082 Cl
ATOM     28  C   UNL d   1      12.660   2.901 -17.261  0.00  0.00     0.018 A 
ENDBRANCH  19  22
ENDBRANCH  15  16
ENDBRANCH   1  15
TORSDOF 5
