REMARK  16 active torsions:
REMARK  status: ('A' for Active; 'I' for Inactive)
REMARK    1  A    between atoms: C_2  and  C_3 
REMARK    2  A    between atoms: C_5  and  C_6 
REMARK    3  A    between atoms: C_6  and  C_8 
REMARK    4  A    between atoms: C_8  and  N_9 
REMARK    5  A    between atoms: N_9  and  C_10 
REMARK    6  A    between atoms: C_10  and  C_11 
REMARK    7  A    between atoms: C_11  and  C_12 
REMARK    8  A    between atoms: C_12  and  C_13 
REMARK    9  A    between atoms: C_13  and  C_14 
REMARK   10  A    between atoms: C_14  and  C_15 
REMARK   11  A    between atoms: C_15  and  O_16 
REMARK   12  A    between atoms: O_16  and  C_17 
REMARK   13  A    between atoms: C_17  and  C_18 
REMARK   14  A    between atoms: C_18  and  C_19 
REMARK   15  A    between atoms: C_19  and  C_20 
REMARK   16  A    between atoms: C_20  and  C_21 
ROOT
ATOM      1  C   UNL d   1       5.766   1.890 -13.466  0.00  0.00     0.026 C 
ENDROOT
BRANCH   1   2
ATOM      2  C   UNL d   1       6.031   0.720 -14.430  0.00  0.00     0.120 C 
BRANCH   2   3
ATOM      3  N   UNL d   1       7.460   0.454 -14.505  0.00  0.00    -0.292 NA
BRANCH   3   4
ATOM      4  C   UNL d   1       7.961   0.103 -15.828  0.00  0.00     0.157 C 
BRANCH   4   5
ATOM      5  C   UNL d   1       9.502  -0.051 -15.854  0.00  0.00     0.198 C 
ATOM      6  O   UNL d   1       9.824  -0.632 -17.102  0.00  0.00    -0.216 OA
BRANCH   5   7
ATOM      7  C   UNL d   1      10.259   1.268 -15.600  0.00  0.00     0.010 A 
ATOM      8  C   UNL d   1      11.201   1.769 -16.531  0.00  0.00    -0.002 A 
ATOM      9  C   UNL d   1      11.867   2.994 -16.303  0.00  0.00     0.036 A 
ATOM     10  C   UNL d   1      11.588   3.746 -15.138  0.00  0.00     0.129 A 
ATOM     11  C   UNL d   1      10.668   3.249 -14.202  0.00  0.00     0.027 A 
ATOM     12  O   UNL d   1      12.210   4.937 -14.896  0.00  0.00    -0.190 OA
ATOM     13  C   UNL d   1      10.036   2.015 -14.417  0.00  0.00     0.000 A 
BRANCH   9  14
ATOM     14  C   UNL d   1      12.883   3.477 -17.317  0.00  0.00     0.211 C 
ATOM     15  O   UNL d   1      12.370   4.518 -18.122  0.00  0.00    -0.215 OA
ENDBRANCH   9  14
ENDBRANCH   5   7
ENDBRANCH   4   5
ENDBRANCH   3   4
ENDBRANCH   2   3
ENDBRANCH   1   2
BRANCH   1  16
ATOM     16  C   UNL d   1       6.279   3.249 -13.996  0.00  0.00     0.002 C 
BRANCH  16  17
ATOM     17  C   UNL d   1       6.304   4.355 -12.922  0.00  0.00     0.003 C 
BRANCH  17  18
ATOM     18  C   UNL d   1       7.733   4.688 -12.463  0.00  0.00     0.032 C 
BRANCH  18  19
ATOM     19  C   UNL d   1       7.785   5.795 -11.404  0.00  0.00     0.142 C 
BRANCH  19  20
ATOM     20  O   UNL d   1       8.886   5.539 -10.548  0.00  0.00    -0.354 OA
BRANCH  20  21
ATOM     21  C   UNL d   1       8.875   6.367  -9.398  0.00  0.00     0.142 C 
BRANCH  21  22
ATOM     22  C   UNL d   1       9.960   5.892  -8.431  0.00  0.00     0.033 C 
BRANCH  22  23
ATOM     23  C   UNL d   1       9.965   6.701  -7.123  0.00  0.00     0.007 C 
BRANCH  23  24
ATOM     24  C   UNL d   1      11.320   6.641  -6.385  0.00  0.00     0.026 C 
BRANCH  24  25
ATOM     25  C   UNL d   1      11.447   7.664  -5.272  0.00  0.00    -0.022 A 
ATOM     26  C   UNL d   1      11.178   9.027  -5.537  0.00  0.00    -0.004 A 
ATOM     27  C   UNL d   1      11.289   9.978  -4.512  0.00  0.00    -0.000 A 
ATOM     28  C   UNL d   1      11.710   9.587  -3.228  0.00  0.00    -0.000 A 
ATOM     29  C   UNL d   1      11.990   8.233  -2.960  0.00  0.00    -0.000 A 
ATOM     30  C   UNL d   1      11.858   7.271  -3.982  0.00  0.00    -0.004 A 
ENDBRANCH  24  25
ENDBRANCH  23  24
ENDBRANCH  22  23
ENDBRANCH  21  22
ENDBRANCH  20  21
ENDBRANCH  19  20
ENDBRANCH  18  19
ENDBRANCH  17  18
ENDBRANCH  16  17
ENDBRANCH   1  16
TORSDOF 16
