REMARK  8 active torsions:
REMARK  status: ('A' for Active; 'I' for Inactive)
REMARK    1  A    between atoms: O_2  and  C_3 
REMARK    2  A    between atoms: C_8  and  N_9 
REMARK    3  A    between atoms: N_13  and  C_14 
REMARK    4  A    between atoms: C_14  and  C_15 
REMARK    5  A    between atoms: C_15  and  C_16 
REMARK    6  A    between atoms: C_16  and  C_17 
REMARK    7  A    between atoms: C_17  and  O_18 
REMARK    8  A    between atoms: O_18  and  C_19 
ROOT
ATOM      1  C   UNL d   1       9.944   6.599 -11.187  0.00  0.00     0.250 C 
ENDROOT
BRANCH   1   2
ATOM      2  N   UNL d   1       9.496   5.984 -12.439  0.00  0.00     0.139 N 
ATOM      3  C   UNL d   1      10.368   4.879 -12.852  0.00  0.00     0.252 C 
ATOM      4  C   UNL d   1      10.229   4.499 -14.320  0.00  0.00     0.059 C 
ATOM      5  C   UNL d   1       9.143   3.469 -14.593  0.00  0.00     0.104 C 
ATOM      6  N   UNL d   1       7.858   3.808 -14.022  0.00  0.00    -0.345 N 
ATOM      7  C   UNL d   1       7.521   5.160 -13.642  0.00  0.00     0.137 C 
ATOM      8  C   UNL d   1       8.102   5.566 -12.282  0.00  0.00     0.274 C 
BRANCH   6   9
ATOM      9  C   UNL d   1       6.876   2.790 -13.822  0.00  0.00     0.079 A 
ATOM     10  C   UNL d   1       6.863   1.608 -14.572  0.00  0.00     0.110 A 
ATOM     11  C   UNL d   1       5.945   0.573 -14.216  0.00  0.00     0.026 A 
ATOM     12  C   UNL d   1       5.068   0.773 -13.146  0.00  0.00     0.002 A 
ATOM     13  C   UNL d   1       5.128   1.972 -12.415  0.00  0.00     0.002 A 
ATOM     14  C   UNL d   1       5.978   3.003 -12.779  0.00  0.00     0.019 A 
BRANCH  10  15
ATOM     15  O   UNL d   1       7.698   1.479 -15.655  0.00  0.00    -0.327 OA
ATOM     16  C   UNL d   1       8.050   0.182 -16.087  0.00  0.00     0.181 C 
ENDBRANCH  10  15
ENDBRANCH   6   9
ENDBRANCH   1   2
BRANCH   1  17
ATOM     17  C   UNL d   1       9.471   8.076 -11.106  0.00  0.00     0.038 C 
BRANCH  17  18
ATOM     18  C   UNL d   1       9.694   8.665  -9.689  0.00  0.00     0.035 C 
BRANCH  18  19
ATOM     19  C   UNL d   1      11.197   8.954  -9.421  0.00  0.00     0.149 C 
BRANCH  19  20
ATOM     20  O   UNL d   1      11.447   9.582  -8.165  0.00  0.00    -0.331 OA
BRANCH  20  21
ATOM     21  C   UNL d   1      11.462   8.803  -7.037  0.00  0.00     0.096 A 
ATOM     22  C   UNL d   1      11.963   9.356  -5.845  0.00  0.00     0.043 A 
ATOM     23  C   UNL d   1      12.000   8.599  -4.662  0.00  0.00     0.082 A 
ATOM     24  C   UNL d   1      11.529   7.278  -4.704  0.00  0.00    -0.004 A 
ATOM     25  N   UNL d   1      12.614   9.077  -3.455  0.00  0.00    -0.212 NA
ATOM     26  C   UNL d   1      10.992   6.734  -5.868  0.00  0.00    -0.001 A 
ATOM     27  C   UNL d   1      11.697   6.398  -3.498  0.00  0.00     0.038 C 
ATOM     28  C   UNL d   1      10.956   7.460  -7.079  0.00  0.00     0.024 A 
ATOM     29  C   UNL d   1      11.668   7.182  -2.199  0.00  0.00     0.095 C 
ATOM     30  C   UNL d   1      12.542   8.421  -2.277  0.00  0.00     0.256 C 
ATOM     31  O   UNL d   1      13.127   8.788  -1.259  0.00  0.00    -0.270 OA
ENDBRANCH  20  21
ENDBRANCH  19  20
ENDBRANCH  18  19
ENDBRANCH  17  18
ENDBRANCH   1  17
TORSDOF 8
