REMARK  5 active torsions:
REMARK  status: ('A' for Active; 'I' for Inactive)
REMARK    1  A    between atoms: C_8  and  C_9 
REMARK    2  A    between atoms: C_9  and  C_11 
REMARK    3  A    between atoms: C_11  and  C_12 
REMARK    4  A    between atoms: C_12  and  C_13 
REMARK    5  A    between atoms: C_13  and  N_14 
ROOT
ATOM      1  N   UNL d   1       9.047   5.158 -12.659  0.00  0.00     0.137 N 
ATOM      2  C   UNL d   1       7.712   4.562 -12.750  0.00  0.00     0.252 C 
ATOM      3  C   UNL d   1       7.591   3.796 -14.040  0.00  0.00     0.058 C 
ATOM      4  C   UNL d   1       8.612   2.638 -14.186  0.00  0.00     0.089 C 
ATOM      5  C   UNL d   1      10.007   3.130 -13.784  0.00  0.00     0.077 C 
ATOM      6  C   UNL d   1      10.027   4.091 -12.586  0.00  0.00     0.256 C 
ATOM      7  C   UNL d   1      10.566   3.650 -15.087  0.00  0.00    -0.004 A 
ATOM      8  C   UNL d   1      11.649   4.482 -15.431  0.00  0.00    -0.003 A 
ATOM      9  C   UNL d   1      11.896   4.731 -16.805  0.00  0.00    -0.001 A 
ATOM     10  C   UNL d   1      11.086   4.151 -17.819  0.00  0.00    -0.003 A 
ATOM     11  C   UNL d   1      10.004   3.305 -17.489  0.00  0.00    -0.007 A 
ATOM     12  C   UNL d   1       9.799   3.098 -16.114  0.00  0.00     0.048 A 
ATOM     13  N   UNL d   1       8.768   2.288 -15.582  0.00  0.00    -0.350 N 
ATOM     14  C   UNL d   1       7.666   1.925 -16.454  0.00  0.00     0.102 C 
ATOM     15  C   UNL d   1       8.202   1.491 -17.811  0.00  0.00     0.029 C 
ATOM     16  C   UNL d   1       9.015   2.632 -18.437  0.00  0.00     0.030 C 
ENDROOT
BRANCH   1  17
ATOM     17  C   UNL d   1       9.165   6.067 -11.511  0.00  0.00     0.251 C 
BRANCH  17  18
ATOM     18  C   UNL d   1       8.543   5.510 -10.195  0.00  0.00     0.043 C 
BRANCH  18  19
ATOM     19  C   UNL d   1       8.697   6.440  -9.020  0.00  0.00     0.071 C 
BRANCH  19  20
ATOM     20  C   UNL d   1       9.958   6.275  -8.204  0.00  0.00     0.174 C 
ATOM     21  O   UNL d   1      10.578   5.241  -8.316  0.00  0.00    -0.291 OA
BRANCH  20  22
ATOM     22  C   UNL d   1      10.337   7.317  -7.225  0.00  0.00     0.048 C 
ATOM     23  C   UNL d   1      10.364   8.695  -7.527  0.00  0.00     0.075 C 
ATOM     24  N   UNL d   1      10.089   9.191  -8.798  0.00  0.00    -0.100 NA
ATOM     25  C   UNL d   1      10.727   9.607  -6.513  0.00  0.00     0.044 C 
ATOM     26  C   UNL d   1      11.111   9.167  -5.241  0.00  0.00     0.141 C 
ATOM     27  F   UNL d   1      11.403  10.048  -4.257  0.00  0.00    -0.204 F 
ATOM     28  C   UNL d   1      11.202   7.793  -4.975  0.00  0.00     0.030 C 
ATOM     29  C   UNL d   1      10.831   6.876  -5.971  0.00  0.00     0.006 C 
ENDBRANCH  20  22
ENDBRANCH  19  20
ENDBRANCH  18  19
ENDBRANCH  17  18
ENDBRANCH   1  17
TORSDOF 5
