REMARK  9 active torsions:
REMARK  status: ('A' for Active; 'I' for Inactive)
REMARK    1  A    between atoms: C_2  and  C_3 
REMARK    2  A    between atoms: C_3  and  N_4 
REMARK    3  A    between atoms: N_4  and  C_5 
REMARK    4  A    between atoms: N_4  and  C_8 
REMARK    5  A    between atoms: C_5  and  C_6 
REMARK    6  A    between atoms: C_13  and  C_14 
REMARK    7  A    between atoms: C_14  and  N_15 
REMARK       I    between atoms: N_15  and  C_16 
REMARK    8  A    between atoms: N_15  and  C_19 
REMARK    9  A    between atoms: C_22  and  O_23 
ROOT
ATOM      1  C   UNL d   1      10.744   8.120  -9.763  0.00  0.00     0.224 C 
ATOM      2  C   UNL d   1       9.468   8.926 -10.051  0.00  0.00     0.038 C 
ATOM      3  C   UNL d   1       8.918   8.551 -11.465  0.00  0.00     0.028 C 
ATOM      4  C   UNL d   1       8.827   7.073 -11.643  0.00  0.00    -0.026 A 
ATOM      5  C   UNL d   1       7.933   6.540 -12.603  0.00  0.00    -0.007 A 
ATOM      6  C   UNL d   1       7.816   5.153 -12.748  0.00  0.00     0.000 A 
ATOM      7  C   UNL d   1       8.582   4.288 -11.963  0.00  0.00    -0.003 A 
ATOM      8  C   UNL d   1       9.450   4.798 -10.994  0.00  0.00    -0.005 A 
ATOM      9  C   UNL d   1       9.560   6.172 -10.818  0.00  0.00    -0.024 A 
ATOM     10  C   UNL d   1      10.434   6.628  -9.681  0.00  0.00     0.059 C 
ENDROOT
BRANCH   6  11
ATOM     11  C   UNL d   1       6.964   4.543 -13.836  0.00  0.00     0.136 C 
BRANCH  11  12
ATOM     12  N   UNL d   1       6.826   3.075 -13.911  0.00  0.00    -0.295 N 
ATOM     13  C   UNL d   1       5.774   2.479 -13.274  0.00  0.00     0.238 C 
ATOM     14  C   UNL d   1       5.368   1.028 -13.573  0.00  0.00     0.098 C 
ATOM     15  O   UNL d   1       5.080   3.087 -12.461  0.00  0.00    -0.272 OA
BRANCH  12  16
ATOM     16  C   UNL d   1       7.758   2.373 -14.748  0.00  0.00     0.063 A 
ATOM     17  C   UNL d   1       9.165   2.502 -14.556  0.00  0.00     0.019 A 
ATOM     18  C   UNL d   1      10.068   1.753 -15.340  0.00  0.00     0.026 A 
ATOM     19  C   UNL d   1       9.591   0.884 -16.354  0.00  0.00     0.094 A 
ATOM     20  C   UNL d   1       8.187   0.810 -16.574  0.00  0.00     0.026 A 
ATOM     21  C   UNL d   1       7.293   1.573 -15.815  0.00  0.00     0.019 A 
BRANCH  19  22
ATOM     22  O   UNL d   1      10.500   0.171 -17.111  0.00  0.00    -0.328 OA
ATOM     23  C   UNL d   1       9.948  -0.679 -18.112  0.00  0.00     0.181 C 
ENDBRANCH  19  22
ENDBRANCH  12  16
ENDBRANCH  11  12
ENDBRANCH   6  11
BRANCH   1  24
ATOM     24  N   UNL d   1      11.499   8.580  -8.582  0.00  0.00     0.135 N 
BRANCH  24  25
ATOM     25  C   UNL d   1      10.922   8.106  -7.314  0.00  0.00     0.250 C 
BRANCH  25  26
ATOM     26  C   UNL d   1      11.591   8.686  -6.058  0.00  0.00     0.035 C 
ATOM     27  C   UNL d   1      10.936   9.988  -5.607  0.00  0.00     0.002 C 
ENDBRANCH  25  26
ENDBRANCH  24  25
BRANCH  24  28
ATOM     28  C   UNL d   1      12.939   8.259  -8.634  0.00  0.00     0.250 C 
BRANCH  28  29
ATOM     29  C   UNL d   1      13.506   8.069 -10.057  0.00  0.00     0.035 C 
ATOM     30  C   UNL d   1      15.024   8.058 -10.187  0.00  0.00     0.002 C 
ENDBRANCH  28  29
ENDBRANCH  24  28
ENDBRANCH   1  24
TORSDOF 9
