REMARK  4 active torsions:
REMARK  status: ('A' for Active; 'I' for Inactive)
REMARK    1  A    between atoms: C_4  and  N_5 
REMARK    2  A    between atoms: C_13  and  N_14 
REMARK    3  A    between atoms: N_14  and  S_15 
REMARK    4  A    between atoms: S_15  and  C_18 
ROOT
ATOM      1  C   UNL d   1       6.117  -0.577 -16.142  0.00  0.00     0.052 C 
ATOM      2  C   UNL d   1       6.671   0.626 -15.415  0.00  0.00     0.061 A 
ATOM      3  C   UNL d   1       7.932   1.158 -15.746  0.00  0.00     0.032 A 
ATOM      4  C   UNL d   1       8.398   2.288 -15.053  0.00  0.00     0.059 A 
ATOM      5  C   UNL d   1       7.523   2.844 -14.067  0.00  0.00     0.035 A 
ATOM      6  C   UNL d   1       7.918   3.973 -13.350  0.00  0.00     0.023 A 
ATOM      7  C   UNL d   1       7.110   4.547 -12.341  0.00  0.00     0.094 A 
ATOM      8  C   UNL d   1       5.865   3.954 -12.072  0.00  0.00     0.021 A 
ATOM      9  C   UNL d   1       5.452   2.822 -12.805  0.00  0.00     0.021 A 
ATOM     10  C   UNL d   1       6.271   2.244 -13.805  0.00  0.00     0.082 A 
ATOM     11  N   UNL d   1       5.867   1.137 -14.455  0.00  0.00    -0.250 NA
ENDROOT
BRANCH   7  12
ATOM     12  N   UNL d   1       7.509   5.663 -11.590  0.00  0.00    -0.158 NA
BRANCH  12  13
ATOM     13  S   UNL d   1       8.785   6.813 -11.848  0.00  0.00     0.291 S 
ATOM     14  O   UNL d   1       9.848   6.112 -12.556  0.00  0.00    -0.198 OA
ATOM     15  O   UNL d   1       8.166   8.013 -12.424  0.00  0.00    -0.198 OA
BRANCH  13  16
ATOM     16  C   UNL d   1       9.496   7.205 -10.266  0.00  0.00     0.131 A 
ATOM     17  C   UNL d   1       9.639   6.349  -9.191  0.00  0.00    -0.003 A 
ATOM     18  C   UNL d   1      10.239   7.048  -8.067  0.00  0.00     0.004 A 
ATOM     19  C   UNL d   1       9.201   4.914  -9.166  0.00  0.00     0.032 C 
ATOM     20  C   UNL d   1      10.598   8.394  -8.374  0.00  0.00     0.030 A 
ATOM     21  C   UNL d   1      10.530   6.621  -6.756  0.00  0.00     0.012 A 
ATOM     22  S   UNL d   1      10.191   8.781 -10.024  0.00  0.00    -0.074 SA
ATOM     23  C   UNL d   1      11.194   9.236  -7.420  0.00  0.00     0.007 A 
ATOM     24  C   UNL d   1      11.454   8.774  -6.125  0.00  0.00     0.012 A 
ATOM     25  C   UNL d   1      11.126   7.455  -5.793  0.00  0.00     0.058 A 
ATOM     26 CL   UNL d   1      11.524   6.838  -4.234  0.00  0.00    -0.082 Cl
ENDBRANCH  13  16
ENDBRANCH  12  13
ENDBRANCH   7  12
BRANCH   4  27
ATOM     27  N   UNL d   1       9.682   2.797 -15.349  0.00  0.00    -0.344 N 
ATOM     28  C   UNL d   1       9.889   3.776 -16.409  0.00  0.00     0.140 C 
ATOM     29  C   UNL d   1      10.650   5.009 -15.862  0.00  0.00     0.314 C 
ATOM     30  N   UNL d   1      11.900   4.596 -15.221  0.00  0.00     0.343 N 
ATOM     31  C   UNL d   1      11.602   3.719 -14.090  0.00  0.00     0.314 C 
ATOM     32  C   UNL d   1      10.851   2.447 -14.548  0.00  0.00     0.140 C 
ENDBRANCH   4  27
TORSDOF 4
