REMARK  7 active torsions:
REMARK  status: ('A' for Active; 'I' for Inactive)
REMARK    1  A    between atoms: C_8  and  O_9 
REMARK    2  A    between atoms: O_9  and  C_10 
REMARK    3  A    between atoms: C_10  and  C_11 
REMARK    4  A    between atoms: C_11  and  C_12 
REMARK    5  A    between atoms: C_12  and  C_13 
REMARK    6  A    between atoms: C_13  and  N_14 
REMARK    7  A    between atoms: N_17  and  C_18 
ROOT
ATOM      1  N   UNL d   1       9.862   6.065  -9.469  0.00  0.00     0.141 N 
ATOM      2  C   UNL d   1       9.437   5.761  -8.106  0.00  0.00     0.274 C 
ATOM      3  C   UNL d   1      10.569   6.039  -7.112  0.00  0.00     0.137 C 
ATOM      4  N   UNL d   1      11.056   7.394  -7.240  0.00  0.00    -0.344 N 
ATOM      5  C   UNL d   1      11.380   7.816  -8.594  0.00  0.00     0.137 C 
ATOM      6  C   UNL d   1      10.210   7.493  -9.544  0.00  0.00     0.274 C 
ENDROOT
BRANCH   1   7
ATOM      7  C   UNL d   1       8.747   5.740 -10.359  0.00  0.00     0.251 C 
BRANCH   7   8
ATOM      8  C   UNL d   1       9.138   5.862 -11.845  0.00  0.00     0.038 C 
BRANCH   8   9
ATOM      9  C   UNL d   1       7.954   5.659 -12.779  0.00  0.00     0.035 C 
BRANCH   9  10
ATOM     10  C   UNL d   1       7.471   4.211 -12.870  0.00  0.00     0.149 C 
BRANCH  10  11
ATOM     11  O   UNL d   1       8.282   3.547 -13.828  0.00  0.00    -0.331 OA
BRANCH  11  12
ATOM     12  C   UNL d   1       7.734   2.484 -14.510  0.00  0.00     0.094 A 
ATOM     13  C   UNL d   1       8.339   2.147 -15.745  0.00  0.00     0.024 A 
ATOM     14  C   UNL d   1       7.834   1.103 -16.555  0.00  0.00    -0.000 A 
ATOM     15  C   UNL d   1       6.718   0.396 -16.077  0.00  0.00     0.007 A 
ATOM     16  C   UNL d   1       5.963  -0.749 -16.706  0.00  0.00     0.155 A 
ATOM     17  C   UNL d   1       6.133   0.698 -14.865  0.00  0.00     0.057 A 
ATOM     18  N   UNL d   1       4.923  -1.023 -15.702  0.00  0.00    -0.229 NA
ATOM     19  C   UNL d   1       4.986  -0.213 -14.630  0.00  0.00     0.275 A 
ATOM     20  O   UNL d   1       4.247  -0.211 -13.651  0.00  0.00    -0.266 OA
ATOM     21  C   UNL d   1       6.610   1.742 -14.048  0.00  0.00     0.029 A 
ENDBRANCH  11  12
ENDBRANCH  10  11
ENDBRANCH   9  10
ENDBRANCH   8   9
ENDBRANCH   7   8
ENDBRANCH   1   7
BRANCH   4  22
ATOM     22  C   UNL d   1      11.171   8.230  -6.125  0.00  0.00     0.052 A 
ATOM     23  C   UNL d   1      11.490   7.752  -4.832  0.00  0.00    -0.011 A 
ATOM     24  C   UNL d   1      11.606   8.598  -3.735  0.00  0.00    -0.025 A 
ATOM     25  C   UNL d   1      11.788   6.345  -4.423  0.00  0.00     0.028 C 
ATOM     26  C   UNL d   1      11.400   9.967  -3.860  0.00  0.00    -0.004 A 
ATOM     27  C   UNL d   1      11.957   7.858  -2.470  0.00  0.00     0.026 C 
ATOM     28  C   UNL d   1      11.081  10.466  -5.131  0.00  0.00     0.001 A 
ATOM     29  C   UNL d   1      10.975   9.617  -6.259  0.00  0.00     0.017 A 
ATOM     30  C   UNL d   1      12.293   6.441  -2.955  0.00  0.00     0.009 C 
ENDBRANCH   4  22
TORSDOF 7
