REMARK  12 active torsions:
REMARK  status: ('A' for Active; 'I' for Inactive)
REMARK    1  A    between atoms: O_2  and  C_3 
REMARK    2  A    between atoms: C_7  and  C_8 
REMARK    3  A    between atoms: C_8  and  C_9 
REMARK    4  A    between atoms: C_9  and  C_10 
REMARK    5  A    between atoms: C_15  and  O_16 
REMARK    6  A    between atoms: O_16  and  C_17 
REMARK    7  A    between atoms: C_17  and  C_18 
REMARK    8  A    between atoms: C_18  and  C_19 
REMARK    9  A    between atoms: C_19  and  C_20 
REMARK   10  A    between atoms: C_20  and  N_21 
REMARK   11  A    between atoms: N_24  and  C_25 
REMARK   12  A    between atoms: C_30  and  O_31 
ROOT
ATOM      1  C   UNL d   1       6.638   2.795 -13.783  0.00  0.00     0.149 C 
ENDROOT
BRANCH   1   2
ATOM      2  O   UNL d   1       7.765   2.388 -14.557  0.00  0.00    -0.331 OA
BRANCH   2   3
ATOM      3  C   UNL d   1       7.613   1.451 -15.558  0.00  0.00     0.090 A 
ATOM      4  C   UNL d   1       8.713   1.226 -16.420  0.00  0.00     0.001 A 
ATOM      5  C   UNL d   1       8.605   0.306 -17.489  0.00  0.00    -0.002 A 
ATOM      6  C   UNL d   1       7.406  -0.396 -17.704  0.00  0.00    -0.000 A 
ATOM      7  C   UNL d   1       6.314  -0.189 -16.841  0.00  0.00     0.002 A 
ATOM      8  C   UNL d   1       6.419   0.711 -15.770  0.00  0.00     0.024 A 
BRANCH   4   9
ATOM      9  C   UNL d   1      10.026   1.973 -16.236  0.00  0.00     0.033 C 
BRANCH   9  10
ATOM     10  C   UNL d   1      10.087   3.243 -17.097  0.00  0.00     0.031 C 
BRANCH  10  11
ATOM     11  C   UNL d   1      11.493   3.774 -17.231  0.00  0.00    -0.020 A 
ATOM     12  C   UNL d   1      12.447   3.087 -18.024  0.00  0.00    -0.004 A 
ATOM     13  C   UNL d   1      13.751   3.590 -18.134  0.00  0.00     0.002 A 
ATOM     14  C   UNL d   1      14.121   4.776 -17.476  0.00  0.00     0.024 A 
ATOM     15  C   UNL d   1      13.158   5.490 -16.706  0.00  0.00     0.094 A 
ATOM     16  C   UNL d   1      11.866   4.959 -16.576  0.00  0.00     0.020 A 
BRANCH  15  17
ATOM     17  O   UNL d   1      13.556   6.667 -16.110  0.00  0.00    -0.328 OA
ATOM     18  C   UNL d   1      12.561   7.686 -16.019  0.00  0.00     0.181 C 
ENDBRANCH  15  17
ENDBRANCH  10  11
ENDBRANCH   9  10
ENDBRANCH   4   9
ENDBRANCH   2   3
ENDBRANCH   1   2
BRANCH   1  19
ATOM     19  C   UNL d   1       6.779   4.272 -13.471  0.00  0.00     0.035 C 
BRANCH  19  20
ATOM     20  C   UNL d   1       8.045   4.639 -12.717  0.00  0.00     0.038 C 
BRANCH  20  21
ATOM     21  C   UNL d   1       8.195   6.163 -12.481  0.00  0.00     0.251 C 
BRANCH  21  22
ATOM     22  N   UNL d   1       9.393   6.481 -11.696  0.00  0.00     0.141 N 
ATOM     23  C   UNL d   1       9.497   7.950 -11.517  0.00  0.00     0.274 C 
ATOM     24  C   UNL d   1      10.646   8.426 -10.609  0.00  0.00     0.137 C 
ATOM     25  N   UNL d   1      10.600   7.654  -9.388  0.00  0.00    -0.343 N 
ATOM     26  C   UNL d   1      10.561   6.215  -9.557  0.00  0.00     0.137 C 
ATOM     27  C   UNL d   1       9.315   5.840 -10.377  0.00  0.00     0.274 C 
BRANCH  25  28
ATOM     28  C   UNL d   1      10.794   8.188  -8.115  0.00  0.00     0.079 A 
ATOM     29  C   UNL d   1      10.030   7.709  -7.077  0.00  0.00     0.110 A 
ATOM     30  C   UNL d   1      10.197   8.253  -5.798  0.00  0.00     0.026 A 
ATOM     31  C   UNL d   1      11.077   9.337  -5.560  0.00  0.00     0.002 A 
ATOM     32  C   UNL d   1      11.863   9.799  -6.620  0.00  0.00     0.002 A 
ATOM     33  C   UNL d   1      11.744   9.199  -7.892  0.00  0.00     0.019 A 
BRANCH  29  34
ATOM     34  O   UNL d   1       9.111   6.729  -7.415  0.00  0.00    -0.327 OA
ATOM     35  C   UNL d   1       8.150   6.373  -6.474  0.00  0.00     0.181 C 
ENDBRANCH  29  34
ENDBRANCH  25  28
ENDBRANCH  21  22
ENDBRANCH  20  21
ENDBRANCH  19  20
ENDBRANCH   1  19
TORSDOF 12
