REMARK  5 active torsions:
REMARK  status: ('A' for Active; 'I' for Inactive)
REMARK    1  A    between atoms: C_3  and  C_4 
REMARK       I    between atoms: C_4  and  N_6 
REMARK    2  A    between atoms: N_9  and  C_10 
REMARK    3  A    between atoms: C_10  and  C_11 
REMARK    4  A    between atoms: C_11  and  O_12 
REMARK    5  A    between atoms: O_12  and  C_13 
ROOT
ATOM      1  C   UNL d   1       5.771   1.393 -13.249  0.00  0.00     0.273 C 
ATOM      2  O   UNL d   1       5.458   0.771 -12.227  0.00  0.00    -0.266 OA
ATOM      3  N   UNL d   1       5.899   2.744 -13.273  0.00  0.00    -0.311 N 
ATOM      4  C   UNL d   1       6.472   3.555 -14.373  0.00  0.00     0.140 C 
ATOM      5  C   UNL d   1       7.677   4.371 -13.811  0.00  0.00     0.274 C 
ATOM      6  N   UNL d   1       7.236   5.254 -12.746  0.00  0.00     0.144 N 
ATOM      7  C   UNL d   1       6.623   4.477 -11.673  0.00  0.00     0.274 C 
ATOM      8  C   UNL d   1       5.446   3.626 -12.177  0.00  0.00     0.140 C 
ENDROOT
BRANCH   1   9
ATOM      9  C   UNL d   1       5.890   0.636 -14.521  0.00  0.00     0.117 A 
ATOM     10  N   UNL d   1       4.845  -0.208 -14.969  0.00  0.00    -0.322 N 
ATOM     11  C   UNL d   1       3.566  -0.477 -14.298  0.00  0.00     0.131 C 
ATOM     12  C   UNL d   1       5.190  -0.735 -16.205  0.00  0.00     0.060 A 
ATOM     13  C   UNL d   1       6.474  -0.226 -16.522  0.00  0.00     0.017 A 
ATOM     14  C   UNL d   1       4.511  -1.617 -17.091  0.00  0.00     0.017 A 
ATOM     15  C   UNL d   1       6.928   0.568 -15.425  0.00  0.00     0.024 A 
ATOM     16  C   UNL d   1       7.053  -0.596 -17.758  0.00  0.00     0.002 A 
ATOM     17  C   UNL d   1       6.382  -1.459 -18.639  0.00  0.00     0.000 A 
ATOM     18  C   UNL d   1       5.118  -1.977 -18.311  0.00  0.00     0.002 A 
ENDBRANCH   1   9
BRANCH   6  19
ATOM     19  C   UNL d   1       8.320   6.122 -12.261  0.00  0.00     0.283 C 
BRANCH  19  20
ATOM     20  C   UNL d   1       9.342   5.379 -11.335  0.00  0.00     0.184 C 
BRANCH  20  21
ATOM     21  O   UNL d   1      10.216   6.370 -10.802  0.00  0.00    -0.327 OA
BRANCH  21  22
ATOM     22  C   UNL d   1      10.041   6.833  -9.511  0.00  0.00     0.113 A 
ATOM     23  C   UNL d   1      10.866   7.916  -9.123  0.00  0.00     0.123 A 
ATOM     24  N   UNL d   1      10.826   8.502  -7.904  0.00  0.00    -0.240 NA
ATOM     25  C   UNL d   1       9.942   8.017  -7.009  0.00  0.00     0.099 A 
ATOM     26  C   UNL d   1       9.078   6.932  -7.283  0.00  0.00     0.023 A 
ATOM     27  C   UNL d   1       9.121   6.326  -8.560  0.00  0.00     0.027 A 
ENDBRANCH  21  22
ENDBRANCH  20  21
ENDBRANCH  19  20
ENDBRANCH   6  19
TORSDOF 5
