REMARK  8 active torsions:
REMARK  status: ('A' for Active; 'I' for Inactive)
REMARK    1  A    between atoms: S_2  and  N_4 
REMARK    2  A    between atoms: S_2  and  C_24 
REMARK    3  A    between atoms: N_4  and  C_5 
REMARK    4  A    between atoms: C_5  and  C_6 
REMARK    5  A    between atoms: C_6  and  C_7 
REMARK    6  A    between atoms: C_7  and  C_8 
REMARK    7  A    between atoms: C_8  and  N_9 
REMARK    8  A    between atoms: N_12  and  C_13 
ROOT
ATOM      1  C   UNL d   1       9.088   4.455 -11.720  0.00  0.00     0.037 C 
ENDROOT
BRANCH   1   2
ATOM      2  C   UNL d   1       8.650   4.190 -13.172  0.00  0.00     0.029 C 
BRANCH   2   3
ATOM      3  C   UNL d   1       9.828   3.998 -14.139  0.00  0.00     0.139 C 
BRANCH   3   4
ATOM      4  N   UNL d   1      10.309   2.618 -14.089  0.00  0.00    -0.183 NA
BRANCH   4   5
ATOM      5  S   UNL d   1      10.533   1.755 -15.562  0.00  0.00     0.298 S 
ATOM      6  O   UNL d   1      11.276   2.622 -16.492  0.00  0.00    -0.197 OA
ATOM      7  O   UNL d   1      10.993   0.399 -15.238  0.00  0.00    -0.197 OA
BRANCH   5   8
ATOM      8  C   UNL d   1       8.902   1.560 -16.217  0.00  0.00     0.191 A 
ATOM      9  N   UNL d   1       7.886   0.907 -15.537  0.00  0.00    -0.279 N 
ATOM     10  C   UNL d   1       6.762   0.947 -16.399  0.00  0.00     0.148 A 
ATOM     11  C   UNL d   1       7.838   0.320 -14.306  0.00  0.00     0.082 A 
ATOM     12  N   UNL d   1       7.060   1.589 -17.533  0.00  0.00    -0.224 NA
ATOM     13  C   UNL d   1       5.565   0.344 -15.931  0.00  0.00     0.037 A 
ATOM     14  C   UNL d   1       8.395   1.957 -17.420  0.00  0.00     0.131 A 
ATOM     15  C   UNL d   1       5.518  -0.237 -14.685  0.00  0.00     0.005 A 
ATOM     16  C   UNL d   1       6.668  -0.254 -13.865  0.00  0.00     0.019 A 
ENDBRANCH   5   8
ENDBRANCH   4   5
ENDBRANCH   3   4
ENDBRANCH   2   3
ENDBRANCH   1   2
BRANCH   1  17
ATOM     17  C   UNL d   1       9.582   5.896 -11.522  0.00  0.00     0.251 C 
BRANCH  17  18
ATOM     18  N   UNL d   1       9.354   6.359 -10.160  0.00  0.00     0.141 N 
ATOM     19  C   UNL d   1       9.484   7.817 -10.132  0.00  0.00     0.274 C 
ATOM     20  C   UNL d   1       9.249   8.334  -8.700  0.00  0.00     0.138 C 
ATOM     21  N   UNL d   1      10.167   7.695  -7.777  0.00  0.00    -0.329 N 
ATOM     22  C   UNL d   1      10.152   6.249  -7.823  0.00  0.00     0.138 C 
ATOM     23  C   UNL d   1      10.359   5.806  -9.267  0.00  0.00     0.274 C 
BRANCH  21  24
ATOM     24  C   UNL d   1      10.899   8.427  -6.865  0.00  0.00     0.148 A 
ATOM     25  C   UNL d   1      11.279   8.013  -5.527  0.00  0.00     0.042 A 
ATOM     26  C   UNL d   1      12.041   9.053  -4.910  0.00  0.00     0.050 A 
ATOM     27  C   UNL d   1      11.066   6.844  -4.764  0.00  0.00     0.004 A 
ATOM     28  S   UNL d   1      12.083  10.388  -6.026  0.00  0.00     0.015 SA
ATOM     29  C   UNL d   1      12.617   8.911  -3.636  0.00  0.00     0.008 A 
ATOM     30  N   UNL d   1      11.259   9.630  -7.245  0.00  0.00    -0.192 NA
ATOM     31  C   UNL d   1      12.407   7.721  -2.916  0.00  0.00     0.001 A 
ATOM     32  C   UNL d   1      11.621   6.707  -3.484  0.00  0.00     0.000 A 
ENDBRANCH  21  24
ENDBRANCH  17  18
ENDBRANCH   1  17
TORSDOF 8
