REMARK  4 active torsions:
REMARK  status: ('A' for Active; 'I' for Inactive)
REMARK    1  A    between atoms: C_4  and  C_5 
REMARK    2  A    between atoms: C_9  and  C_10 
REMARK    3  A    between atoms: C_10  and  N_11 
REMARK    4  A    between atoms: N_14  and  C_15 
ROOT
ATOM      1  C   UNL d   1       8.554   5.866  -9.340  0.00  0.00     0.275 C 
ENDROOT
BRANCH   1   2
ATOM      2  C   UNL d   1       9.138   5.338 -10.664  0.00  0.00     0.140 C 
ATOM      3  C   UNL d   1       9.574   6.437 -11.620  0.00  0.00     0.053 C 
ATOM      4  C   UNL d   1      10.042   5.736 -12.926  0.00  0.00     0.129 C 
ATOM      5  N   UNL d   1       9.061   4.886 -13.542  0.00  0.00    -0.253 NA
ATOM      6  C   UNL d   1       8.199   4.299 -12.766  0.00  0.00     0.153 C 
ATOM      7  N   UNL d   1       8.150   4.545 -11.383  0.00  0.00    -0.253 NA
BRANCH   6   8
ATOM      8  C   UNL d   1       7.303   3.312 -13.398  0.00  0.00     0.035 A 
ATOM      9  C   UNL d   1       7.767   2.378 -14.364  0.00  0.00     0.003 A 
ATOM     10  C   UNL d   1       6.942   1.313 -14.776  0.00  0.00     0.000 A 
ATOM     11  C   UNL d   1       5.686   1.159 -14.184  0.00  0.00     0.000 A 
ATOM     12  C   UNL d   1       5.243   2.071 -13.213  0.00  0.00     0.000 A 
ATOM     13  C   UNL d   1       6.019   3.167 -12.834  0.00  0.00     0.003 A 
ENDBRANCH   6   8
ENDBRANCH   1   2
BRANCH   1  14
ATOM     14  N   UNL d   1       9.446   6.790  -8.639  0.00  0.00     0.143 N 
ATOM     15  C   UNL d   1      10.582   6.075  -8.095  0.00  0.00     0.274 C 
ATOM     16  C   UNL d   1      11.577   7.048  -7.461  0.00  0.00     0.137 C 
ATOM     17  N   UNL d   1      10.921   7.860  -6.457  0.00  0.00    -0.344 N 
ATOM     18  C   UNL d   1       9.691   8.499  -6.869  0.00  0.00     0.137 C 
ATOM     19  C   UNL d   1       8.768   7.453  -7.527  0.00  0.00     0.274 C 
BRANCH  17  20
ATOM     20  C   UNL d   1      11.379   7.960  -5.131  0.00  0.00     0.056 A 
ATOM     21  C   UNL d   1      11.438   9.216  -4.503  0.00  0.00     0.017 A 
ATOM     22  C   UNL d   1      11.905   9.326  -3.177  0.00  0.00     0.002 A 
ATOM     23  C   UNL d   1      12.307   8.171  -2.474  0.00  0.00     0.000 A 
ATOM     24  C   UNL d   1      12.243   6.911  -3.097  0.00  0.00     0.002 A 
ATOM     25  C   UNL d   1      11.780   6.810  -4.427  0.00  0.00     0.017 A 
ENDBRANCH  17  20
ENDBRANCH   1  14
TORSDOF 4
