REMARK  4 active torsions:
REMARK  status: ('A' for Active; 'I' for Inactive)
REMARK    1  A    between atoms: N_5  and  C_6 
REMARK    2  A    between atoms: C_11  and  C_12 
REMARK    3  A    between atoms: C_12  and  S_13 
REMARK    4  A    between atoms: S_13  and  C_14 
ROOT
ATOM      1  C   UNL d   1      10.556   7.860  -7.617  0.00  0.00     0.744 A 
ATOM      2  N   UNL d   1      11.365   8.655  -8.333  0.00  0.00     0.134 NA
ATOM      3  C   UNL d   1      11.159   8.468  -9.629  0.00  0.00     0.785 A 
ATOM      4  N   UNL d   1      11.930   9.182 -10.455  0.00  0.00     0.063 N 
ATOM      5  N   UNL d   1      10.314   7.694 -10.240  0.00  0.00    -0.041 NA
ATOM      6  C   UNL d   1       9.585   6.975  -9.411  0.00  0.00     0.187 A 
ATOM      7  N   UNL d   1       9.679   6.971  -8.073  0.00  0.00    -0.044 NA
ENDROOT
BRANCH   6   8
ATOM      8  C   UNL d   1       8.558   6.093 -10.088  0.00  0.00     0.129 C 
BRANCH   8   9
ATOM      9  S   UNL d   1       9.377   4.868 -11.100  0.00  0.00    -0.105 SA
BRANCH   9  10
ATOM     10  C   UNL d   1       8.303   4.316 -12.326  0.00  0.00     0.026 A 
ATOM     11  C   UNL d   1       8.827   3.638 -13.445  0.00  0.00     0.006 A 
ATOM     12  C   UNL d   1       7.950   3.071 -14.392  0.00  0.00     0.001 A 
ATOM     13  C   UNL d   1       6.551   3.161 -14.172  0.00  0.00     0.000 A 
ATOM     14  C   UNL d   1       6.027   3.817 -13.044  0.00  0.00     0.001 A 
ATOM     15  C   UNL d   1       6.910   4.391 -12.119  0.00  0.00     0.006 A 
ENDBRANCH   9  10
ENDBRANCH   8   9
ENDBRANCH   6   8
BRANCH   1  16
ATOM     16  N   UNL d   1      10.642   8.016  -6.247  0.00  0.00    -0.178 N 
ATOM     17  C   UNL d   1      10.943   9.286  -5.585  0.00  0.00     0.155 C 
ATOM     18  C   UNL d   1      12.089   9.094  -4.574  0.00  0.00     0.275 C 
ATOM     19  N   UNL d   1      11.769   8.007  -3.648  0.00  0.00     0.143 N 
ATOM     20  C   UNL d   1      12.828   7.824  -2.699  0.00  0.00     0.286 C 
ATOM     21  C   UNL d   1      11.576   6.757  -4.388  0.00  0.00     0.275 C 
ATOM     22  C   UNL d   1      10.412   6.885  -5.378  0.00  0.00     0.155 C 
ENDBRANCH   1  16
TORSDOF 4
