REMARK  6 active torsions:
REMARK  status: ('A' for Active; 'I' for Inactive)
REMARK    1  A    between atoms: C_6  and  C_7 
REMARK    2  A    between atoms: C_10  and  S_11 
REMARK    3  A    between atoms: S_11  and  C_12 
REMARK    4  A    between atoms: C_12  and  C_13 
REMARK    5  A    between atoms: C_13  and  C_14 
REMARK    6  A    between atoms: C_14  and  N_15 
ROOT
ATOM      1  S   UNL d   1       5.946  -2.400 -22.557  0.00  0.00    -0.075 SA
ENDROOT
BRANCH   1   2
ATOM      2  C   UNL d   1       6.327  -2.085 -20.872  0.00  0.00     0.193 A 
ATOM      3  N   UNL d   1       6.433  -3.047 -19.960  0.00  0.00    -0.122 NA
ATOM      4  N   UNL d   1       6.923  -2.427 -18.831  0.00  0.00    -0.128 NA
ATOM      5  C   UNL d   1       6.963  -1.123 -19.118  0.00  0.00     0.167 A 
ATOM      6  N   UNL d   1       6.584  -0.854 -20.384  0.00  0.00    -0.289 N 
ATOM      7  C   UNL d   1       6.557   0.423 -21.065  0.00  0.00     0.134 C 
BRANCH   5   8
ATOM      8  C   UNL d   1       7.394  -0.118 -18.147  0.00  0.00     0.037 A 
ATOM      9  C   UNL d   1       6.767   0.020 -16.877  0.00  0.00     0.021 A 
ATOM     10  C   UNL d   1       5.693  -0.804 -16.477  0.00  0.00     0.003 A 
ATOM     11  C   UNL d   1       7.223   1.024 -15.968  0.00  0.00     0.081 A 
ATOM     12  C   UNL d   1       5.128  -0.631 -15.205  0.00  0.00     0.015 A 
ATOM     13  C   UNL d   1       5.656   0.377 -14.378  0.00  0.00     0.059 A 
ATOM     14  C   UNL d   1       5.086   0.603 -13.002  0.00  0.00     0.052 C 
ATOM     15  N   UNL d   1       6.666   1.185 -14.746  0.00  0.00    -0.250 NA
ATOM     16  C   UNL d   1       8.274   1.873 -16.360  0.00  0.00     0.019 A 
ATOM     17  C   UNL d   1       8.885   1.744 -17.621  0.00  0.00     0.002 A 
ATOM     18  C   UNL d   1       8.448   0.742 -18.503  0.00  0.00     0.003 A 
ENDBRANCH   5   8
ENDBRANCH   1   2
BRANCH   1  19
ATOM     19  C   UNL d   1       7.638  -2.493 -23.238  0.00  0.00     0.067 C 
BRANCH  19  20
ATOM     20  C   UNL d   1       8.716  -1.894 -22.317  0.00  0.00     0.047 C 
BRANCH  20  21
ATOM     21  C   UNL d   1      10.113  -1.769 -22.936  0.00  0.00     0.251 C 
BRANCH  21  22
ATOM     22  N   UNL d   1      11.033  -1.169 -21.965  0.00  0.00     0.138 N 
ATOM     23  C   UNL d   1      10.827   0.282 -21.812  0.00  0.00     0.255 C 
ATOM     24  C   UNL d   1      11.560   0.910 -20.611  0.00  0.00     0.061 C 
ATOM     25  C   UNL d   1      13.010   1.234 -20.906  0.00  0.00    -0.024 A 
ATOM     26  C   UNL d   1      13.922   0.200 -21.247  0.00  0.00    -0.022 A 
ATOM     27  C   UNL d   1      13.436   2.584 -20.859  0.00  0.00    -0.001 A 
ATOM     28  C   UNL d   1      13.467  -1.247 -21.314  0.00  0.00     0.061 C 
ATOM     29  C   UNL d   1      15.268   0.513 -21.543  0.00  0.00     0.022 A 
ATOM     30  C   UNL d   1      12.390  -1.503 -22.383  0.00  0.00     0.255 C 
ATOM     31  C   UNL d   1      15.657   1.857 -21.489  0.00  0.00     0.126 A 
ATOM     32  C   UNL d   1      14.778   2.889 -21.160  0.00  0.00     0.040 A 
ATOM     33  O   UNL d   1      16.872   2.478 -21.722  0.00  0.00    -0.211 OA
ATOM     34  C   UNL d   1      15.469   4.117 -21.206  0.00  0.00     0.088 A 
ATOM     35  N   UNL d   1      16.734   3.884 -21.546  0.00  0.00    -0.131 NA
ATOM     36  C   UNL d   1      15.003   5.519 -20.940  0.00  0.00     0.055 C 
ENDBRANCH  21  22
ENDBRANCH  20  21
ENDBRANCH  19  20
ENDBRANCH   1  19
TORSDOF 6
