REMARK  7 active torsions:
REMARK  status: ('A' for Active; 'I' for Inactive)
REMARK    1  A    between atoms: C_2  and  C_3 
REMARK       I    between atoms: C_2  and  N_6 
REMARK    2  A    between atoms: C_3  and  C_4 
REMARK    3  A    between atoms: N_6  and  C_7 
REMARK    4  A    between atoms: C_10  and  C_11 
REMARK    5  A    between atoms: C_11  and  C_12 
REMARK    6  A    between atoms: C_12  and  N_13 
REMARK    7  A    between atoms: C_16  and  C_17 
ROOT
ATOM      1  N   UNL d   1       9.579   7.164 -10.005  0.00  0.00     0.137 N 
ATOM      2  C   UNL d   1      11.012   7.458  -9.962  0.00  0.00     0.251 C 
ATOM      3  C   UNL d   1      11.341   8.258  -8.697  0.00  0.00     0.040 C 
ATOM      4  C   UNL d   1      10.891   7.523  -7.423  0.00  0.00     0.028 C 
ATOM      5  C   UNL d   1       9.433   7.091  -7.551  0.00  0.00     0.040 C 
ATOM      6  C   UNL d   1       9.215   6.321  -8.853  0.00  0.00     0.251 C 
ENDROOT
BRANCH   1   7
ATOM      7  C   UNL d   1       9.320   6.481 -11.265  0.00  0.00     0.250 C 
BRANCH   7   8
ATOM      8  C   UNL d   1       7.825   6.240 -11.556  0.00  0.00     0.035 C 
BRANCH   8   9
ATOM      9  C   UNL d   1       7.524   5.292 -12.721  0.00  0.00     0.002 C 
ATOM     10  C   UNL d   1       8.387   4.024 -12.657  0.00  0.00     0.002 C 
ATOM     11  C   UNL d   1       8.017   3.029 -13.752  0.00  0.00     0.024 C 
ATOM     12  C   UNL d   1       6.528   2.659 -13.698  0.00  0.00     0.106 C 
ATOM     13  C   UNL d   1       5.642   3.905 -13.768  0.00  0.00     0.024 C 
ATOM     14  C   UNL d   1       6.024   4.922 -12.684  0.00  0.00     0.002 C 
BRANCH  12  15
ATOM     15  N   UNL d   1       6.261   1.734 -14.787  0.00  0.00    -0.240 NA
ATOM     16  C   UNL d   1       5.844   0.471 -14.640  0.00  0.00     0.254 C 
ATOM     17  O   UNL d   1       5.613  -0.033 -13.542  0.00  0.00    -0.270 OA
BRANCH  16  18
ATOM     18  C   UNL d   1       5.661  -0.318 -15.941  0.00  0.00     0.125 C 
BRANCH  18  19
ATOM     19  C   UNL d   1       5.062  -1.719 -15.746  0.00  0.00     0.192 C 
ATOM     20  O   UNL d   1       3.655  -1.649 -15.591  0.00  0.00    -0.220 OA
ENDBRANCH  18  19
ENDBRANCH  16  18
ENDBRANCH  12  15
ENDBRANCH   8   9
ENDBRANCH   7   8
ENDBRANCH   1   7
BRANCH   4  21
ATOM     21  C   UNL d   1      11.059   8.400  -6.192  0.00  0.00     0.004 A 
ATOM     22  C   UNL d   1      11.467   7.989  -4.885  0.00  0.00     0.021 A 
ATOM     23  C   UNL d   1      11.481   9.172  -4.103  0.00  0.00     0.100 A 
ATOM     24  C   UNL d   1      11.849   6.794  -4.247  0.00  0.00     0.002 A 
ATOM     25  O   UNL d   1      11.056  10.236  -4.856  0.00  0.00    -0.305 OA
ATOM     26  C   UNL d   1      11.876   9.194  -2.763  0.00  0.00     0.025 A 
ATOM     27  C   UNL d   1      10.837   9.740  -6.108  0.00  0.00     0.118 A 
ATOM     28  C   UNL d   1      12.266   7.991  -2.152  0.00  0.00     0.002 A 
ATOM     29  C   UNL d   1      12.242   6.781  -2.896  0.00  0.00     0.000 A 
ENDBRANCH   4  21
TORSDOF 7
