REMARK  3 active torsions:
REMARK  status: ('A' for Active; 'I' for Inactive)
REMARK    1  A    between atoms: C_7  and  N_8 
REMARK    2  A    between atoms: N_11  and  C_12 
REMARK    3  A    between atoms: C_12  and  C_13 
ROOT
ATOM      1  N   UNL d   1      11.433   7.439  -6.964  0.00  0.00    -0.343 N 
ATOM      2  C   UNL d   1      12.229   8.025  -8.030  0.00  0.00     0.137 C 
ATOM      3  C   UNL d   1      11.327   8.425  -9.209  0.00  0.00     0.275 C 
ATOM      4  N   UNL d   1      10.534   7.274  -9.649  0.00  0.00     0.146 N 
ATOM      5  C   UNL d   1       9.656   6.864  -8.543  0.00  0.00     0.275 C 
ATOM      6  C   UNL d   1      10.507   6.388  -7.354  0.00  0.00     0.137 C 
ENDROOT
BRANCH   1   7
ATOM      7  C   UNL d   1      11.441   7.926  -5.650  0.00  0.00     0.082 A 
ATOM      8  C   UNL d   1      11.313   9.307  -5.354  0.00  0.00     0.146 A 
ATOM      9  O   UNL d   1      11.091  10.236  -6.331  0.00  0.00    -0.189 OA
ATOM     10  C   UNL d   1      11.439   9.737  -4.018  0.00  0.00     0.029 A 
ATOM     11  C   UNL d   1      11.751   8.835  -2.989  0.00  0.00     0.002 A 
ATOM     12  C   UNL d   1      11.852   7.461  -3.271  0.00  0.00     0.002 A 
ATOM     13  C   UNL d   1      11.671   7.013  -4.592  0.00  0.00     0.019 A 
ENDBRANCH   1   7
BRANCH   4  14
ATOM     14  C   UNL d   1       9.738   7.678 -10.812  0.00  0.00     0.283 C 
BRANCH  14  15
ATOM     15  C   UNL d   1       9.032   6.524 -11.490  0.00  0.00     0.041 A 
ATOM     16  S   UNL d   1       7.588   6.768 -12.442  0.00  0.00    -0.089 SA
ATOM     17  C   UNL d   1       7.496   5.085 -12.870  0.00  0.00     0.035 A 
ATOM     18  C   UNL d   1       8.536   4.386 -12.322  0.00  0.00     0.007 A 
ATOM     19  C   UNL d   1       9.376   5.202 -11.504  0.00  0.00     0.005 A 
ENDBRANCH  14  15
ENDBRANCH   4  14
TORSDOF 3
