REMARK  4 active torsions:
REMARK  status: ('A' for Active; 'I' for Inactive)
REMARK    1  A    between atoms: C_2  and  C_4 
REMARK    2  A    between atoms: C_4  and  C_5 
REMARK    3  A    between atoms: C_5  and  N_6 
REMARK       I    between atoms: N_6  and  C_7 
REMARK    4  A    between atoms: C_7  and  C_9 
ROOT
ATOM      1  N   UNL d   1       9.920   8.241  -6.550  0.00  0.00    -0.234 NA
ATOM      2  C   UNL d   1      10.895   8.999  -6.031  0.00  0.00     0.275 C 
ATOM      3  O   UNL d   1      11.290  10.048  -6.532  0.00  0.00    -0.266 OA
ENDROOT
BRANCH   2   4
ATOM      4  C   UNL d   1      11.437   8.545  -4.713  0.00  0.00     0.058 A 
ATOM      5  C   UNL d   1      11.683   7.179  -4.452  0.00  0.00     0.005 A 
ATOM      6  C   UNL d   1      12.180   6.785  -3.194  0.00  0.00     0.000 A 
ATOM      7  C   UNL d   1      12.414   7.747  -2.196  0.00  0.00     0.000 A 
ATOM      8  C   UNL d   1      12.167   9.102  -2.450  0.00  0.00     0.000 A 
ATOM      9  C   UNL d   1      11.685   9.504  -3.708  0.00  0.00     0.005 A 
ENDBRANCH   2   4
BRANCH   1  10
ATOM     10  C   UNL d   1       9.185   8.562  -7.769  0.00  0.00     0.140 C 
BRANCH  10  11
ATOM     11  C   UNL d   1       9.739   7.819  -8.993  0.00  0.00     0.124 C 
BRANCH  11  12
ATOM     12  C   UNL d   1       9.462   6.321  -8.928  0.00  0.00     0.187 C 
ATOM     13  O   UNL d   1      10.253   5.522  -8.438  0.00  0.00    -0.647 OA
ATOM     14  O   UNL d   1       8.260   5.985  -9.467  0.00  0.00    -0.647 OA
ENDBRANCH  11  12
ENDBRANCH  10  11
ENDBRANCH   1  10
TORSDOF 4
