REMARK  3 active torsions:
REMARK  status: ('A' for Active; 'I' for Inactive)
REMARK    1  A    between atoms: C_6  and  C_7 
REMARK    2  A    between atoms: C_7  and  N_8 
REMARK    3  A    between atoms: N_11  and  C_12 
ROOT
ATOM      1  C   UNL d   1       7.723   2.548 -14.293  0.00  0.00     0.081 C 
ATOM      2  C   UNL d   1       7.934   3.519 -13.584  0.00  0.00    -0.125 C 
ATOM      3  C   UNL d   1       8.178   4.652 -12.710  0.00  0.00     0.050 A 
ATOM      4  C   UNL d   1       7.208   5.421 -12.132  0.00  0.00     0.106 A 
ATOM      5  N   UNL d   1       7.896   6.383 -11.426  0.00  0.00    -0.246 NA
ATOM      6  C   UNL d   1       9.261   6.207 -11.510  0.00  0.00     0.093 A 
ATOM      7  C   UNL d   1       9.461   5.118 -12.322  0.00  0.00     0.025 A 
ENDROOT
BRANCH   6   8
ATOM      8  C   UNL d   1      10.190   7.152 -10.820  0.00  0.00     0.296 C 
BRANCH   8   9
ATOM      9  N   UNL d   1       9.807   7.510  -9.463  0.00  0.00     0.147 N 
ATOM     10  C   UNL d   1       9.989   6.365  -8.562  0.00  0.00     0.275 C 
ATOM     11  C   UNL d   1       9.520   6.758  -7.151  0.00  0.00     0.137 C 
ATOM     12  N   UNL d   1      10.249   7.936  -6.688  0.00  0.00    -0.344 N 
ATOM     13  C   UNL d   1      10.175   9.062  -7.609  0.00  0.00     0.137 C 
ATOM     14  C   UNL d   1      10.637   8.628  -9.005  0.00  0.00     0.275 C 
BRANCH  12  15
ATOM     15  C   UNL d   1      10.955   8.002  -5.469  0.00  0.00     0.056 A 
ATOM     16  C   UNL d   1      11.142   9.244  -4.818  0.00  0.00     0.017 A 
ATOM     17  C   UNL d   1      11.841   9.322  -3.598  0.00  0.00     0.002 A 
ATOM     18  C   UNL d   1      12.345   8.162  -2.991  0.00  0.00     0.000 A 
ATOM     19  C   UNL d   1      12.150   6.918  -3.614  0.00  0.00     0.002 A 
ATOM     20  C   UNL d   1      11.464   6.838  -4.845  0.00  0.00     0.017 A 
ENDBRANCH  12  15
ENDBRANCH   8   9
ENDBRANCH   6   8
TORSDOF 3
