REMARK  4 active torsions:
REMARK  status: ('A' for Active; 'I' for Inactive)
REMARK    1  A    between atoms: O_2  and  C_3 
REMARK    2  A    between atoms: C_8  and  O_9 
REMARK    3  A    between atoms: C_16  and  O_17 
REMARK    4  A    between atoms: C_21  and  O_22 
ROOT
ATOM      1  C   UNL d   1       7.134   1.686 -14.993  0.00  0.00     0.116 A 
ATOM      2  C   UNL d   1       8.271   2.495 -15.249  0.00  0.00     0.022 A 
ATOM      3  C   UNL d   1       8.519   3.642 -14.468  0.00  0.00    -0.020 A 
ATOM      4  C   UNL d   1       7.627   4.004 -13.448  0.00  0.00     0.007 A 
ATOM      5  C   UNL d   1       6.501   3.189 -13.177  0.00  0.00     0.024 A 
ATOM      6  C   UNL d   1       6.271   2.022 -13.927  0.00  0.00     0.116 A 
ATOM      7  C   UNL d   1       7.946   5.209 -12.572  0.00  0.00     0.246 C 
ATOM      8  C   UNL d   1       8.610   4.725 -11.267  0.00  0.00     0.066 C 
ATOM      9  C   UNL d   1       9.199   5.850 -10.395  0.00  0.00     0.003 A 
ATOM     10  C   UNL d   1       9.463   7.111 -10.978  0.00  0.00     0.011 A 
ATOM     11  C   UNL d   1      10.086   8.133 -10.239  0.00  0.00     0.024 A 
ATOM     12  C   UNL d   1      10.489   7.914  -8.900  0.00  0.00     0.121 A 
ATOM     13  C   UNL d   1      10.228   6.663  -8.308  0.00  0.00     0.175 A 
ATOM     14  O   UNL d   1      10.579   6.413  -7.003  0.00  0.00    -0.186 OA
ATOM     15  C   UNL d   1       9.602   5.630  -9.050  0.00  0.00     0.117 A 
ATOM     16  C   UNL d   1       8.995   7.379 -12.405  0.00  0.00     0.277 C 
ATOM     17  N   UNL d   1       8.792   6.189 -13.225  0.00  0.00     0.144 N 
ATOM     18  C   UNL d   1      10.027   5.558 -13.703  0.00  0.00     0.256 C 
ATOM     19  C   UNL d   1       9.681   4.560 -14.820  0.00  0.00     0.061 C 
ENDROOT
BRANCH   1  20
ATOM     20  O   UNL d   1       6.799   0.603 -15.783  0.00  0.00    -0.326 OA
ATOM     21  C   UNL d   1       7.724   0.155 -16.757  0.00  0.00     0.181 C 
ENDBRANCH   1  20
BRANCH   6  22
ATOM     22  O   UNL d   1       5.197   1.227 -13.576  0.00  0.00    -0.326 OA
ATOM     23  C   UNL d   1       5.457  -0.154 -13.351  0.00  0.00     0.181 C 
ENDBRANCH   6  22
BRANCH  15  24
ATOM     24  O   UNL d   1       9.422   4.408  -8.456  0.00  0.00    -0.326 OA
ATOM     25  C   UNL d   1       8.053   4.098  -8.175  0.00  0.00     0.181 C 
ENDBRANCH  15  24
BRANCH  12  26
ATOM     26  O   UNL d   1      11.080   8.937  -8.206  0.00  0.00    -0.326 OA
ATOM     27  C   UNL d   1      12.434   8.732  -7.833  0.00  0.00     0.181 C 
ENDBRANCH  12  26
TORSDOF 4
