REMARK  4 active torsions:
REMARK  status: ('A' for Active; 'I' for Inactive)
REMARK    1  A    between atoms: C_2  and  C_3 
REMARK    2  A    between atoms: C_2  and  N_19 
REMARK    3  A    between atoms: C_3  and  N_4 
REMARK    4  A    between atoms: N_7  and  C_8 
ROOT
ATOM      1  N   UNL d   1       9.477   6.700 -10.126  0.00  0.00     0.143 N 
ATOM      2  C   UNL d   1      10.862   7.115  -9.889  0.00  0.00     0.274 C 
ATOM      3  C   UNL d   1      10.958   8.252  -8.868  0.00  0.00     0.137 C 
ATOM      4  N   UNL d   1      10.280   7.847  -7.655  0.00  0.00    -0.342 N 
ATOM      5  C   UNL d   1       8.918   7.372  -7.813  0.00  0.00     0.137 C 
ATOM      6  C   UNL d   1       8.865   6.254  -8.874  0.00  0.00     0.274 C 
ENDROOT
BRANCH   1   7
ATOM      7  C   UNL d   1       9.440   5.622 -11.108  0.00  0.00     0.273 C 
BRANCH   7   8
ATOM      8  C   UNL d   1       8.163   5.689 -11.984  0.00  0.00     0.124 C 
ATOM      9  C   UNL d   1       7.821   7.080 -12.539  0.00  0.00     0.027 C 
BRANCH   8  10
ATOM     10  N   UNL d   1       8.185   4.716 -13.112  0.00  0.00    -0.270 N 
ATOM     11  C   UNL d   1       9.193   4.735 -14.034  0.00  0.00     0.239 C 
ATOM     12  C   UNL d   1       9.216   3.775 -15.229  0.00  0.00     0.089 C 
ATOM     13  O   UNL d   1      10.173   5.491 -13.969  0.00  0.00    -0.272 OA
ATOM     14  C   UNL d   1       8.449   2.483 -14.926  0.00  0.00     0.018 C 
ATOM     15  C   UNL d   1       7.071   2.828 -14.330  0.00  0.00     0.089 C 
ATOM     16  C   UNL d   1       9.305   1.587 -14.027  0.00  0.00     0.001 C 
ATOM     17  C   UNL d   1       8.266   1.609 -16.167  0.00  0.00     0.001 C 
ATOM     18  C   UNL d   1       7.128   3.865 -13.207  0.00  0.00     0.239 C 
ATOM     19  O   UNL d   1       6.178   3.873 -12.419  0.00  0.00    -0.272 OA
ATOM     20  C   UNL d   1      10.217   0.758 -14.901  0.00  0.00     0.000 C 
ATOM     21  C   UNL d   1       9.453   0.633 -16.229  0.00  0.00     0.000 C 
ENDBRANCH   8  10
ENDBRANCH   7   8
ENDBRANCH   1   7
BRANCH   4  22
ATOM     22  C   UNL d   1      10.899   7.960  -6.399  0.00  0.00     0.086 A 
ATOM     23  C   UNL d   1      11.632   9.115  -6.044  0.00  0.00     0.158 A 
ATOM     24  C   UNL d   1      12.277   9.176  -4.800  0.00  0.00     0.063 A 
ATOM     25  F   UNL d   1      11.736  10.169  -6.888  0.00  0.00    -0.203 F 
ATOM     26  C   UNL d   1      12.172   8.132  -3.877  0.00  0.00     0.170 A 
ATOM     27  C   UNL d   1      11.460   6.991  -4.229  0.00  0.00     0.169 A 
ATOM     28  F   UNL d   1      12.742   8.247  -2.657  0.00  0.00    -0.202 F 
ATOM     29  C   UNL d   1      10.807   6.896  -5.474  0.00  0.00     0.051 A 
ATOM     30  F   UNL d   1      11.346   5.997  -3.316  0.00  0.00    -0.202 F 
ENDBRANCH   4  22
TORSDOF 4
