REMARK  9 active torsions:
REMARK  status: ('A' for Active; 'I' for Inactive)
REMARK    1  A    between atoms: O_2  and  C_3 
REMARK    2  A    between atoms: C_9  and  C_10 
REMARK       I    between atoms: C_10  and  N_12 
REMARK    3  A    between atoms: N_12  and  C_13 
REMARK    4  A    between atoms: C_13  and  C_14 
REMARK    5  A    between atoms: C_14  and  C_15 
REMARK    6  A    between atoms: C_15  and  C_17 
REMARK    7  A    between atoms: C_17  and  N_18 
REMARK    8  A    between atoms: N_21  and  C_22 
REMARK    9  A    between atoms: C_27  and  O_28 
ROOT
ATOM      1  C   UNL d   1       7.928   5.686 -10.758  0.00  0.00     0.061 C 
ENDROOT
BRANCH   1   2
ATOM      2  C   UNL d   1       8.910   4.850  -9.900  0.00  0.00     0.132 C 
BRANCH   2   3
ATOM      3  N   UNL d   1       9.483   5.640  -8.810  0.00  0.00    -0.234 NA
ATOM      4  C   UNL d   1      10.237   6.730  -9.001  0.00  0.00     0.276 C 
ATOM      5  O   UNL d   1      10.646   7.105 -10.095  0.00  0.00    -0.266 OA
BRANCH   4   6
ATOM      6  C   UNL d   1      10.555   7.536  -7.792  0.00  0.00     0.077 A 
ATOM      7  C   UNL d   1      10.393   8.929  -7.823  0.00  0.00     0.104 A 
ATOM      8  N   UNL d   1      10.659   9.723  -6.769  0.00  0.00    -0.244 NA
ATOM      9  C   UNL d   1      11.116   9.163  -5.631  0.00  0.00     0.082 A 
ATOM     10  C   UNL d   1      11.384   9.951  -4.499  0.00  0.00     0.021 A 
ATOM     11  C   UNL d   1      11.331   7.775  -5.539  0.00  0.00     0.020 A 
ATOM     12  C   UNL d   1      11.898   9.371  -3.317  0.00  0.00     0.026 A 
ATOM     13  C   UNL d   1      12.123   7.985  -3.237  0.00  0.00     0.094 A 
ATOM     14  C   UNL d   1      11.825   7.187  -4.369  0.00  0.00     0.026 A 
ATOM     15  C   UNL d   1      11.053   6.941  -6.626  0.00  0.00     0.008 A 
BRANCH  13  16
ATOM     16  O   UNL d   1      12.611   7.468  -2.054  0.00  0.00    -0.328 OA
ATOM     17  C   UNL d   1      12.665   6.049  -1.987  0.00  0.00     0.181 C 
ENDBRANCH  13  16
ENDBRANCH   4   6
ENDBRANCH   2   3
ENDBRANCH   1   2
BRANCH   1  18
ATOM     18  C   UNL d   1       7.362   4.950 -11.973  0.00  0.00     0.188 C 
ATOM     19  O   UNL d   1       6.228   5.660 -12.416  0.00  0.00    -0.221 OA
BRANCH  18  20
ATOM     20  C   UNL d   1       8.345   4.919 -13.167  0.00  0.00     0.283 C 
BRANCH  20  21
ATOM     21  N   UNL d   1       8.867   3.602 -13.492  0.00  0.00     0.144 N 
ATOM     22  C   UNL d   1       9.933   3.678 -14.494  0.00  0.00     0.274 C 
ATOM     23  C   UNL d   1      10.514   2.297 -14.841  0.00  0.00     0.137 C 
ATOM     24  N   UNL d   1       9.431   1.392 -15.251  0.00  0.00    -0.343 N 
ATOM     25  C   UNL d   1       8.322   1.296 -14.293  0.00  0.00     0.137 C 
ATOM     26  C   UNL d   1       7.810   2.713 -14.002  0.00  0.00     0.274 C 
BRANCH  24  27
ATOM     27  C   UNL d   1       9.488   0.672 -16.441  0.00  0.00     0.079 A 
ATOM     28  C   UNL d   1       8.329   0.375 -17.239  0.00  0.00     0.110 A 
ATOM     29  C   UNL d   1       8.477  -0.379 -18.421  0.00  0.00     0.026 A 
ATOM     30  C   UNL d   1       9.743  -0.815 -18.859  0.00  0.00     0.002 A 
ATOM     31  C   UNL d   1      10.883  -0.512 -18.101  0.00  0.00     0.002 A 
ATOM     32  C   UNL d   1      10.753   0.209 -16.908  0.00  0.00     0.019 A 
BRANCH  28  33
ATOM     33  O   UNL d   1       7.104   0.891 -16.848  0.00  0.00    -0.327 OA
ATOM     34  C   UNL d   1       5.923   0.355 -17.422  0.00  0.00     0.181 C 
ENDBRANCH  28  33
ENDBRANCH  24  27
ENDBRANCH  20  21
ENDBRANCH  18  20
ENDBRANCH   1  18
TORSDOF 9
