REMARK  2 active torsions:
REMARK  status: ('A' for Active; 'I' for Inactive)
REMARK    1  A    between atoms: C_2  and  C_3 
REMARK    2  A    between atoms: C_3  and  N_4 
ROOT
ATOM      1  N   UNL d   1      10.601   6.395  -9.494  0.00  0.00     0.140 N 
ATOM      2  C   UNL d   1      10.457   7.530 -10.412  0.00  0.00     0.251 C 
ATOM      3  C   UNL d   1       9.968   8.747  -9.613  0.00  0.00     0.038 C 
ATOM      4  C   UNL d   1      10.033   8.270  -8.176  0.00  0.00     0.038 C 
ATOM      5  C   UNL d   1      10.619   9.267  -7.170  0.00  0.00     0.030 C 
ATOM      6  C   UNL d   1      11.046   8.611  -5.850  0.00  0.00    -0.001 A 
ATOM      7  C   UNL d   1      11.286   9.431  -4.732  0.00  0.00     0.127 A 
ATOM      8  O   UNL d   1      11.050  10.771  -4.846  0.00  0.00    -0.191 OA
ATOM      9  C   UNL d   1      11.746   8.883  -3.516  0.00  0.00     0.027 A 
ATOM     10  C   UNL d   1      11.940   7.494  -3.420  0.00  0.00     0.002 A 
ATOM     11  C   UNL d   1      11.679   6.667  -4.529  0.00  0.00    -0.004 A 
ATOM     12  C   UNL d   1      11.228   7.219  -5.742  0.00  0.00    -0.022 A 
ATOM     13  C   UNL d   1      10.982   6.314  -6.944  0.00  0.00     0.059 C 
ATOM     14  C   UNL d   1      10.962   7.088  -8.261  0.00  0.00     0.224 C 
ENDROOT
BRANCH   1  15
ATOM     15  C   UNL d   1       9.397   5.556  -9.425  0.00  0.00     0.276 C 
BRANCH  15  16
ATOM     16  C   UNL d   1       9.117   4.858 -10.738  0.00  0.00     0.009 C 
ATOM     17  C   UNL d   1       7.949   4.938 -11.393  0.00  0.00    -0.003 C 
ENDBRANCH  15  16
ENDBRANCH   1  15
TORSDOF 2
