REMARK  7 active torsions:
REMARK  status: ('A' for Active; 'I' for Inactive)
REMARK    1  A    between atoms: C_2  and  C_3 
REMARK    2  A    between atoms: C_3  and  C_4 
REMARK    3  A    between atoms: C_4  and  C_5 
REMARK    4  A    between atoms: N_8  and  C_9 
REMARK    5  A    between atoms: C_9  and  C_10 
REMARK    6  A    between atoms: C_10  and  C_11 
REMARK    7  A    between atoms: C_11  and  N_12 
ROOT
ATOM      1  C   UNL d   1       9.445   6.427 -11.095  0.00  0.00     0.060 C 
ENDROOT
BRANCH   1   2
ATOM      2  C   UNL d   1       9.877   7.819 -10.582  0.00  0.00     0.252 C 
BRANCH   2   3
ATOM      3  N   UNL d   1      10.376   7.753  -9.206  0.00  0.00     0.137 N 
ATOM      4  C   UNL d   1       9.239   7.934  -8.295  0.00  0.00     0.250 C 
ATOM      5  C   UNL d   1       9.692   7.812  -6.844  0.00  0.00     0.035 C 
ATOM      6  C   UNL d   1      10.813   8.818  -6.506  0.00  0.00     0.004 C 
ATOM      7  C   UNL d   1      11.924   8.722  -7.565  0.00  0.00     0.035 C 
ATOM      8  C   UNL d   1      11.363   8.813  -8.990  0.00  0.00     0.250 C 
BRANCH   6   9
ATOM      9  C   UNL d   1      11.366   8.649  -5.073  0.00  0.00     0.000 C 
BRANCH   9  10
ATOM     10  C   UNL d   1      11.624   7.176  -4.684  0.00  0.00     0.000 C 
BRANCH  10  11
ATOM     11  C   UNL d   1      12.491   7.002  -3.441  0.00  0.00     0.000 C 
ATOM     12  C   UNL d   1      11.863   7.585  -2.179  0.00  0.00     0.000 C 
ENDBRANCH  10  11
ENDBRANCH   9  10
ENDBRANCH   6   9
ENDBRANCH   2   3
ENDBRANCH   1   2
BRANCH   1  13
ATOM     13  C   UNL d   1       9.038   6.463 -12.584  0.00  0.00     0.111 C 
BRANCH  13  14
ATOM     14  N   UNL d   1       8.928   5.103 -13.155  0.00  0.00    -0.299 N 
ATOM     15  C   UNL d   1       7.689   4.393 -13.049  0.00  0.00     0.058 A 
ATOM     16  C   UNL d   1       7.466   3.212 -13.818  0.00  0.00    -0.006 A 
ATOM     17  C   UNL d   1       6.659   4.834 -12.186  0.00  0.00     0.017 A 
ATOM     18  C   UNL d   1       8.553   2.716 -14.754  0.00  0.00     0.038 C 
ATOM     19  C   UNL d   1       6.250   2.502 -13.704  0.00  0.00    -0.003 A 
ATOM     20  C   UNL d   1       9.938   3.084 -14.230  0.00  0.00     0.093 C 
ATOM     21  C   UNL d   1      10.014   4.543 -13.767  0.00  0.00     0.238 C 
ATOM     22  O   UNL d   1      11.056   5.156 -13.964  0.00  0.00    -0.272 OA
ATOM     23  C   UNL d   1       5.246   2.958 -12.839  0.00  0.00    -0.000 A 
ATOM     24  C   UNL d   1       5.460   4.128 -12.092  0.00  0.00     0.002 A 
ENDBRANCH  13  14
ENDBRANCH   1  13
TORSDOF 7
