REMARK  8 active torsions:
REMARK  status: ('A' for Active; 'I' for Inactive)
REMARK    1  A    between atoms: C_2  and  C_3 
REMARK       I    between atoms: C_2  and  N_10 
REMARK    2  A    between atoms: C_13  and  N_14 
REMARK    3  A    between atoms: N_14  and  C_15 
REMARK    4  A    between atoms: C_15  and  C_16 
REMARK    5  A    between atoms: C_16  and  S_17 
REMARK    6  A    between atoms: S_17  and  C_18 
REMARK    7  A    between atoms: C_18  and  C_19 
REMARK    8  A    between atoms: C_18  and  C_26 
ROOT
ATOM      1  C   UNL d   1       9.028   4.712 -10.644  0.00  0.00     0.302 C 
ENDROOT
BRANCH   1   2
ATOM      2  N   UNL d   1       9.912   5.843 -10.435  0.00  0.00     0.338 N 
BRANCH   2   3
ATOM      3  C   UNL d   1       9.451   6.596  -9.277  0.00  0.00     0.261 C 
ATOM      4  C   UNL d   1       9.720   8.079  -9.541  0.00  0.00     0.060 C 
ATOM      5  C   UNL d   1       9.402   8.903  -8.280  0.00  0.00     0.106 C 
ATOM      6  N   UNL d   1      10.153   8.392  -7.108  0.00  0.00    -0.317 N 
ATOM      7  C   UNL d   1      10.967   9.226  -6.388  0.00  0.00     0.257 C 
ATOM      8  C   UNL d   1       9.781   6.989  -6.829  0.00  0.00     0.106 C 
ATOM      9  O   UNL d   1      11.278  10.349  -6.722  0.00  0.00    -0.267 OA
ATOM     10  C   UNL d   1      10.226   6.147  -8.024  0.00  0.00     0.060 C 
BRANCH   7  11
ATOM     11  C   UNL d   1      11.436   8.784  -5.012  0.00  0.00     0.056 A 
ATOM     12  C   UNL d   1      11.418   9.699  -3.952  0.00  0.00     0.007 A 
ATOM     13  C   UNL d   1      11.843   9.273  -2.654  0.00  0.00     0.030 A 
ATOM     14  C   UNL d   1      12.270   7.963  -2.459  0.00  0.00     0.140 A 
ATOM     15  C   UNL d   1      12.279   7.049  -3.491  0.00  0.00     0.030 A 
ATOM     16  F   UNL d   1      12.632   7.592  -1.258  0.00  0.00    -0.204 F 
ATOM     17  C   UNL d   1      11.893   7.486  -4.780  0.00  0.00     0.007 A 
ENDBRANCH   7  11
ENDBRANCH   2   3
ENDBRANCH   1   2
BRANCH   1  18
ATOM     18  C   UNL d   1       9.402   4.034 -11.976  0.00  0.00     0.096 C 
BRANCH  18  19
ATOM     19  S   UNL d   1       9.427   5.256 -13.318  0.00  0.00    -0.130 SA
BRANCH  19  20
ATOM     20  C   UNL d   1       8.760   4.384 -14.745  0.00  0.00     0.092 C 
BRANCH  20  21
ATOM     21  C   UNL d   1       7.625   3.414 -14.369  0.00  0.00    -0.008 A 
ATOM     22  C   UNL d   1       6.624   3.826 -13.455  0.00  0.00    -0.001 A 
ATOM     23  C   UNL d   1       5.660   2.905 -13.000  0.00  0.00     0.029 A 
ATOM     24  C   UNL d   1       5.674   1.574 -13.481  0.00  0.00     0.140 A 
ATOM     25  C   UNL d   1       6.633   1.175 -14.421  0.00  0.00     0.029 A 
ATOM     26  F   UNL d   1       4.747   0.668 -13.102  0.00  0.00    -0.204 F 
ATOM     27  C   UNL d   1       7.568   2.098 -14.888  0.00  0.00    -0.001 A 
ENDBRANCH  20  21
BRANCH  20  28
ATOM     28  C   UNL d   1       9.911   3.803 -15.565  0.00  0.00    -0.008 A 
ATOM     29  C   UNL d   1      10.516   2.580 -15.192  0.00  0.00    -0.001 A 
ATOM     30  C   UNL d   1      11.484   1.978 -16.010  0.00  0.00     0.029 A 
ATOM     31  C   UNL d   1      11.924   2.631 -17.175  0.00  0.00     0.140 A 
ATOM     32  C   UNL d   1      11.368   3.881 -17.525  0.00  0.00     0.029 A 
ATOM     33  F   UNL d   1      12.884   2.071 -17.945  0.00  0.00    -0.204 F 
ATOM     34  C   UNL d   1      10.359   4.463 -16.730  0.00  0.00    -0.001 A 
ENDBRANCH  20  28
ENDBRANCH  19  20
ENDBRANCH  18  19
ENDBRANCH   1  18
TORSDOF 8
