REMARK  7 active torsions:
REMARK  status: ('A' for Active; 'I' for Inactive)
REMARK       I    between atoms: N_2  and  C_4 
REMARK       I    between atoms: C_4  and  N_6 
REMARK    1  A    between atoms: N_6  and  C_7 
REMARK    2  A    between atoms: C_10  and  C_11 
REMARK    3  A    between atoms: C_11  and  C_12 
REMARK    4  A    between atoms: C_12  and  N_13 
REMARK    5  A    between atoms: N_13  and  C_14 
REMARK    6  A    between atoms: C_14  and  C_15 
REMARK    7  A    between atoms: C_17  and  C_18 
ROOT
ATOM      1  N   UNL d   1       9.692   5.276 -12.500  0.00  0.00     0.339 N 
ENDROOT
BRANCH   1   2
ATOM      2  C   UNL d   1       9.514   5.303 -11.060  0.00  0.00     0.290 C 
BRANCH   2   3
ATOM      3  C   UNL d   1       9.649   6.748 -10.571  0.00  0.00     0.038 C 
BRANCH   3   4
ATOM      4  C   UNL d   1      10.159   6.859  -9.120  0.00  0.00     0.002 C 
ATOM      5  C   UNL d   1      11.385   7.778  -9.067  0.00  0.00     0.002 C 
ATOM      6  C   UNL d   1      11.895   7.933  -7.632  0.00  0.00     0.025 C 
ATOM      7  C   UNL d   1      10.791   8.422  -6.676  0.00  0.00     0.108 C 
ATOM      8  C   UNL d   1       9.536   7.526  -6.742  0.00  0.00     0.025 C 
ATOM      9  C   UNL d   1       9.055   7.366  -8.182  0.00  0.00     0.002 C 
BRANCH   7  10
ATOM     10  N   UNL d   1      11.286   8.551  -5.308  0.00  0.00    -0.221 NA
ATOM     11  C   UNL d   1      11.672   7.547  -4.500  0.00  0.00     0.342 C 
ATOM     12  N   UNL d   1      11.939   7.928  -3.224  0.00  0.00    -0.297 N 
ATOM     13  O   UNL d   1      11.761   6.390  -4.869  0.00  0.00    -0.245 OA
ATOM     14  C   UNL d   1      12.283   6.910  -2.230  0.00  0.00     0.130 C 
ATOM     15  C   UNL d   1      11.983   9.326  -2.796  0.00  0.00     0.130 C 
ENDBRANCH   7  10
ENDBRANCH   3   4
ENDBRANCH   2   3
ENDBRANCH   1   2
BRANCH   1  16
ATOM     16  C   UNL d   1      10.118   3.975 -12.977  0.00  0.00     0.290 C 
BRANCH  16  17
ATOM     17  C   UNL d   1      10.414   4.050 -14.476  0.00  0.00     0.041 A 
ATOM     18  C   UNL d   1       9.610   3.268 -15.505  0.00  0.00     0.026 A 
ATOM     19  C   UNL d   1      11.019   2.845 -15.160  0.00  0.00     0.007 A 
BRANCH  18  20
ATOM     20  C   UNL d   1       8.436   2.419 -15.093  0.00  0.00     0.002 A 
ATOM     21  C   UNL d   1       7.394   2.970 -14.312  0.00  0.00     0.112 A 
ATOM     22  C   UNL d   1       6.319   2.144 -13.874  0.00  0.00     0.116 A 
ATOM     23  O   UNL d   1       7.468   4.295 -13.953  0.00  0.00    -0.326 OA
ATOM     24  C   UNL d   1       6.298   0.786 -14.226  0.00  0.00     0.026 A 
ATOM     25  O   UNL d   1       5.327   2.637 -13.044  0.00  0.00    -0.326 OA
ATOM     26  C   UNL d   1       7.312   0.244 -15.040  0.00  0.00     0.002 A 
ATOM     27  C   UNL d   1       8.377   1.063 -15.469  0.00  0.00    -0.002 A 
ATOM     28  C   UNL d   1       5.253   4.057 -12.995  0.00  0.00     0.181 C 
ATOM     29  C   UNL d   1       6.665   4.611 -12.823  0.00  0.00     0.181 C 
ENDBRANCH  18  20
ENDBRANCH  16  17
ENDBRANCH   1  16
TORSDOF 7
