REMARK  7 active torsions:
REMARK  status: ('A' for Active; 'I' for Inactive)
REMARK       I    between atoms: C_2  and  N_3 
REMARK    1  A    between atoms: C_2  and  C_22 
REMARK    2  A    between atoms: N_3  and  C_4 
REMARK    3  A    between atoms: C_4  and  C_5 
REMARK    4  A    between atoms: C_6  and  C_7 
REMARK    5  A    between atoms: C_7  and  N_8 
REMARK    6  A    between atoms: N_11  and  C_12 
REMARK    7  A    between atoms: C_25  and  C_26 
ROOT
ATOM      1  C   UNL d   1       8.628   6.169 -11.939  0.00  0.00     0.155 C 
ENDROOT
BRANCH   1   2
ATOM      2  N   UNL d   1       9.279   6.403 -10.664  0.00  0.00    -0.229 NA
ATOM      3  C   UNL d   1       9.844   7.567 -10.316  0.00  0.00     0.275 C 
ATOM      4  O   UNL d   1       9.975   8.513 -11.088  0.00  0.00    -0.266 OA
BRANCH   3   5
ATOM      5  C   UNL d   1      10.283   7.675  -8.892  0.00  0.00     0.058 A 
ATOM      6  C   UNL d   1      11.386   8.488  -8.557  0.00  0.00     0.005 A 
ATOM      7  C   UNL d   1      11.771   8.636  -7.213  0.00  0.00     0.002 A 
ATOM      8  C   UNL d   1      11.052   7.983  -6.184  0.00  0.00     0.018 A 
ATOM      9  C   UNL d   1       9.942   7.186  -6.527  0.00  0.00     0.002 A 
ATOM     10  C   UNL d   1       9.547   7.043  -7.866  0.00  0.00     0.005 A 
BRANCH   8  11
ATOM     11  C   UNL d   1      11.460   8.099  -4.779  0.00  0.00     0.090 A 
ATOM     12  N   UNL d   1      11.452   9.345  -4.186  0.00  0.00    -0.184 N 
ATOM     13  C   UNL d   1      11.862   9.470  -2.886  0.00  0.00     0.108 A 
ATOM     14  O   UNL d   1      11.027  10.389  -4.812  0.00  0.00    -0.080 OA
ATOM     15  C   UNL d   1      12.263   8.363  -2.123  0.00  0.00     0.021 A 
ATOM     16  C   UNL d   1      12.258   7.085  -2.704  0.00  0.00     0.003 A 
ATOM     17  C   UNL d   1      11.857   6.963  -4.039  0.00  0.00     0.020 A 
ENDBRANCH   8  11
ENDBRANCH   3   5
ENDBRANCH   1   2
BRANCH   1  18
ATOM     18  C   UNL d   1       9.405   5.146 -12.738  0.00  0.00    -0.003 C 
ATOM     19  C   UNL d   1       8.843   4.412 -13.704  0.00  0.00     0.006 C 
BRANCH  19  20
ATOM     20  C   UNL d   1       9.565   3.345 -14.508  0.00  0.00     0.276 C 
BRANCH  20  21
ATOM     21  N   UNL d   1       8.868   2.041 -14.604  0.00  0.00     0.145 N 
ATOM     22  C   UNL d   1       9.320   1.372 -15.827  0.00  0.00     0.275 C 
ATOM     23  C   UNL d   1       8.645  -0.011 -15.989  0.00  0.00     0.137 C 
ATOM     24  N   UNL d   1       7.192   0.097 -15.887  0.00  0.00    -0.344 N 
ATOM     25  C   UNL d   1       6.709   0.802 -14.711  0.00  0.00     0.137 C 
ATOM     26  C   UNL d   1       7.405   2.171 -14.610  0.00  0.00     0.275 C 
BRANCH  24  27
ATOM     27  C   UNL d   1       6.321  -0.366 -16.870  0.00  0.00     0.068 A 
ATOM     28  C   UNL d   1       6.345   0.142 -18.190  0.00  0.00     0.084 A 
ATOM     29  C   UNL d   1       5.439  -0.375 -19.164  0.00  0.00     0.070 A 
ATOM     30 CL   UNL d   1       7.440   1.397 -18.671  0.00  0.00    -0.080 Cl
ATOM     31  C   UNL d   1       4.543  -1.394 -18.813  0.00  0.00     0.012 A 
ATOM     32 CL   UNL d   1       5.440   0.249 -20.771  0.00  0.00    -0.081 Cl
ATOM     33  C   UNL d   1       4.515  -1.899 -17.508  0.00  0.00     0.002 A 
ATOM     34  C   UNL d   1       5.399  -1.372 -16.529  0.00  0.00     0.018 A 
ENDBRANCH  24  27
ENDBRANCH  20  21
ENDBRANCH  19  20
ENDBRANCH   1  18
TORSDOF 7
