REMARK  7 active torsions:
REMARK  status: ('A' for Active; 'I' for Inactive)
REMARK    1  A    between atoms: C_2  and  C_3 
REMARK    2  A    between atoms: C_3  and  N_4 
REMARK    3  A    between atoms: N_4  and  C_5 
REMARK    4  A    between atoms: N_4  and  C_8 
REMARK    5  A    between atoms: C_5  and  C_6 
REMARK    6  A    between atoms: C_11  and  C_12 
REMARK    7  A    between atoms: C_13  and  C_14 
ROOT
ATOM      1  C   UNL d   1       8.456   5.765 -11.585  0.00  0.00     0.224 C 
ATOM      2  C   UNL d   1       9.763   6.596 -11.596  0.00  0.00     0.059 C 
ATOM      3  C   UNL d   1      10.224   6.998 -10.206  0.00  0.00    -0.020 C 
ATOM      4  C   UNL d   1       9.728   6.468  -9.074  0.00  0.00     0.015 C 
ATOM      5  C   UNL d   1       8.643   5.412  -9.067  0.00  0.00     0.036 C 
ATOM      6  C   UNL d   1       8.466   4.742 -10.411  0.00  0.00     0.039 C 
ENDROOT
BRANCH   4   7
ATOM      7  C   UNL d   1      10.220   6.875  -7.813  0.00  0.00    -0.064 C 
ATOM      8  C   UNL d   1      10.586   7.253  -6.715  0.00  0.00    -0.060 C 
BRANCH   8   9
ATOM      9  C   UNL d   1      11.052   7.741  -5.445  0.00  0.00     0.042 A 
ATOM     10  C   UNL d   1      11.047   9.127  -5.191  0.00  0.00     0.008 A 
ATOM     11  C   UNL d   1      11.480   9.593  -3.940  0.00  0.00     0.001 A 
ATOM     12  C   UNL d   1      11.932   8.685  -2.963  0.00  0.00     0.000 A 
ATOM     13  C   UNL d   1      11.937   7.298  -3.228  0.00  0.00     0.001 A 
ATOM     14  C   UNL d   1      11.490   6.828  -4.471  0.00  0.00     0.008 A 
ENDBRANCH   8   9
ENDBRANCH   4   7
BRANCH   1  15
ATOM     15  N   UNL d   1       8.229   5.141 -12.907  0.00  0.00     0.135 N 
BRANCH  15  16
ATOM     16  C   UNL d   1       6.797   4.923 -13.202  0.00  0.00     0.250 C 
BRANCH  16  17
ATOM     17  C   UNL d   1       6.141   3.948 -12.214  0.00  0.00     0.035 C 
ATOM     18  C   UNL d   1       5.009   3.100 -12.762  0.00  0.00     0.002 C 
ENDBRANCH  16  17
ENDBRANCH  15  16
BRANCH  15  19
ATOM     19  C   UNL d   1       9.104   3.978 -13.170  0.00  0.00     0.250 C 
BRANCH  19  20
ATOM     20  C   UNL d   1       8.994   3.391 -14.588  0.00  0.00     0.035 C 
ATOM     21  C   UNL d   1       9.584   4.359 -15.617  0.00  0.00     0.002 C 
ENDBRANCH  19  20
ENDBRANCH  15  19
ENDBRANCH   1  15
TORSDOF 7
