REMARK  1 active torsions:
REMARK  status: ('A' for Active; 'I' for Inactive)
REMARK    1  A    between atoms: N_5  and  C_6 
ROOT
ATOM      1  C   UNL d   1       9.186   3.379 -14.303  0.00  0.00     0.056 C 
ATOM      2  C   UNL d   1       8.484   2.394 -14.887  0.00  0.00     0.017 C 
ATOM      3  C   UNL d   1       7.272   1.766 -14.370  0.00  0.00    -0.001 A 
ATOM      4  C   UNL d   1       7.088   0.393 -14.595  0.00  0.00     0.011 A 
ATOM      5  C   UNL d   1       5.896  -0.218 -14.151  0.00  0.00     0.058 A 
ATOM      6 CL   UNL d   1       5.411  -1.784 -14.614  0.00  0.00    -0.082 Cl
ATOM      7  C   UNL d   1       4.937   0.496 -13.452  0.00  0.00     0.011 A 
ATOM      8  C   UNL d   1       5.110   1.852 -13.197  0.00  0.00    -0.003 A 
ATOM      9  C   UNL d   1       6.265   2.494 -13.668  0.00  0.00    -0.018 A 
ATOM     10  C   UNL d   1       6.340   3.979 -13.494  0.00  0.00     0.053 C 
ATOM     11  C   UNL d   1       7.460   4.329 -12.627  0.00  0.00    -0.016 A 
ATOM     12  C   UNL d   1       7.145   4.986 -11.435  0.00  0.00    -0.004 A 
ATOM     13  C   UNL d   1       8.135   5.226 -10.477  0.00  0.00    -0.000 A 
ATOM     14  C   UNL d   1       9.456   4.846 -10.787  0.00  0.00     0.000 A 
ATOM     15  C   UNL d   1       9.759   4.267 -12.042  0.00  0.00     0.001 A 
ATOM     16  C   UNL d   1       8.781   4.003 -13.002  0.00  0.00     0.012 A 
ENDROOT
BRANCH   1  17
ATOM     17  N   UNL d   1      10.353   3.892 -14.892  0.00  0.00    -0.344 N 
ATOM     18  C   UNL d   1      10.775   5.279 -14.786  0.00  0.00     0.137 C 
ATOM     19  C   UNL d   1      10.895   5.932 -16.179  0.00  0.00     0.274 C 
ATOM     20  N   UNL d   1      11.867   5.199 -16.975  0.00  0.00     0.143 N 
ATOM     21  C   UNL d   1      12.001   5.837 -18.275  0.00  0.00     0.286 C 
ATOM     22  C   UNL d   1      11.363   3.839 -17.135  0.00  0.00     0.274 C 
ATOM     23  C   UNL d   1      11.278   3.163 -15.753  0.00  0.00     0.137 C 
ENDBRANCH   1  17
TORSDOF 1
