REMARK  5 active torsions:
REMARK  status: ('A' for Active; 'I' for Inactive)
REMARK    1  A    between atoms: C_6  and  N_7 
REMARK    2  A    between atoms: N_7  and  C_8 
REMARK    3  A    between atoms: C_13  and  S_14 
REMARK    4  A    between atoms: S_14  and  N_17 
REMARK       I    between atoms: N_17  and  C_18 
REMARK       I    between atoms: C_18  and  N_20 
REMARK    5  A    between atoms: N_20  and  C_21 
ROOT
ATOM      1  C   UNL d   1       8.017   3.930 -13.938  0.00  0.00     0.097 A 
ATOM      2  C   UNL d   1       6.783   3.252 -13.824  0.00  0.00     0.041 A 
ATOM      3  C   UNL d   1       6.665   1.956 -14.371  0.00  0.00     0.101 A 
ATOM      4  N   UNL d   1       7.675   1.317 -14.994  0.00  0.00    -0.242 NA
ATOM      5  C   UNL d   1       8.856   1.960 -15.094  0.00  0.00     0.113 A 
ATOM      6  C   UNL d   1       9.079   3.265 -14.603  0.00  0.00     0.142 A 
ENDROOT
BRANCH   6   7
ATOM      7  S   UNL d   1      10.696   3.997 -14.914  0.00  0.00     0.292 S 
ATOM      8  O   UNL d   1      11.125   4.777 -13.740  0.00  0.00    -0.198 OA
ATOM      9  O   UNL d   1      11.589   2.965 -15.458  0.00  0.00    -0.198 OA
BRANCH   7  10
ATOM     10  N   UNL d   1      10.398   5.133 -16.181  0.00  0.00    -0.101 NA
ATOM     11  C   UNL d   1       9.889   4.821 -17.442  0.00  0.00     0.374 C 
ATOM     12  O   UNL d   1       9.443   3.704 -17.699  0.00  0.00    -0.242 OA
ATOM     13  N   UNL d   1       9.932   5.828 -18.330  0.00  0.00    -0.219 NA
BRANCH  13  14
ATOM     14  C   UNL d   1       9.497   5.754 -19.726  0.00  0.00     0.108 C 
ATOM     15  C   UNL d   1      10.662   6.125 -20.651  0.00  0.00     0.026 C 
ATOM     16  C   UNL d   1       8.290   6.676 -19.937  0.00  0.00     0.026 C 
ENDBRANCH  13  14
ENDBRANCH   7  10
ENDBRANCH   6   7
BRANCH   1  17
ATOM     17  N   UNL d   1       8.110   5.245 -13.458  0.00  0.00    -0.245 NA
BRANCH  17  18
ATOM     18  C   UNL d   1       8.595   5.651 -12.208  0.00  0.00     0.081 A 
ATOM     19  C   UNL d   1       9.282   6.877 -12.075  0.00  0.00     0.019 A 
ATOM     20  C   UNL d   1       9.831   7.263 -10.837  0.00  0.00     0.001 A 
ATOM     21  C   UNL d   1       9.667   6.443  -9.707  0.00  0.00    -0.004 A 
ATOM     22  C   UNL d   1       8.954   5.234  -9.828  0.00  0.00    -0.020 A 
ATOM     23  C   UNL d   1       8.725   4.384  -8.611  0.00  0.00     0.031 C 
ATOM     24  C   UNL d   1       8.422   4.842 -11.074  0.00  0.00     0.015 A 
ENDBRANCH  17  18
ENDBRANCH   1  17
TORSDOF 5
