REMARK  7 active torsions:
REMARK  status: ('A' for Active; 'I' for Inactive)
REMARK       I    between atoms: C_2  and  N_3 
REMARK    1  A    between atoms: C_2  and  C_22 
REMARK    2  A    between atoms: N_3  and  C_4 
REMARK    3  A    between atoms: C_4  and  C_5 
REMARK    4  A    between atoms: C_5  and  C_6 
REMARK    5  A    between atoms: C_6  and  C_7 
REMARK    6  A    between atoms: C_7  and  N_8 
REMARK    7  A    between atoms: N_11  and  C_12 
ROOT
ATOM      1  C   UNL d   1       8.185   4.947 -11.902  0.00  0.00     0.037 C 
ENDROOT
BRANCH   1   2
ATOM      2  C   UNL d   1       8.472   6.444 -11.877  0.00  0.00     0.029 C 
BRANCH   2   3
ATOM      3  C   UNL d   1       9.846   6.798 -11.319  0.00  0.00     0.129 C 
BRANCH   3   4
ATOM      4  N   UNL d   1       9.862   6.925  -9.863  0.00  0.00    -0.233 NA
ATOM      5  C   UNL d   1      10.051   8.080  -9.213  0.00  0.00     0.293 C 
ATOM      6  O   UNL d   1       9.979   9.183  -9.744  0.00  0.00    -0.264 OA
BRANCH   5   7
ATOM      7  C   UNL d   1      10.446   7.960  -7.799  0.00  0.00     0.139 A 
ATOM      8  N   UNL d   1      10.697   9.110  -7.068  0.00  0.00    -0.241 NA
ATOM      9  C   UNL d   1      11.107   8.804  -5.785  0.00  0.00     0.082 A 
ATOM     10  C   UNL d   1      11.108   7.381  -5.720  0.00  0.00     0.019 A 
ATOM     11  C   UNL d   1      11.472   9.596  -4.681  0.00  0.00     0.019 A 
ATOM     12  C   UNL d   1      10.704   6.873  -7.000  0.00  0.00     0.025 A 
ATOM     13  C   UNL d   1      11.497   6.793  -4.498  0.00  0.00     0.002 A 
ATOM     14  C   UNL d   1      11.865   7.572  -3.386  0.00  0.00     0.000 A 
ATOM     15  C   UNL d   1      11.858   8.979  -3.475  0.00  0.00     0.002 A 
ENDBRANCH   5   7
ENDBRANCH   3   4
ENDBRANCH   2   3
ENDBRANCH   1   2
BRANCH   1  16
ATOM     16  C   UNL d   1       6.820   4.662 -12.556  0.00  0.00     0.251 C 
BRANCH  16  17
ATOM     17  N   UNL d   1       6.662   3.245 -12.848  0.00  0.00     0.141 N 
ATOM     18  C   UNL d   1       7.501   2.818 -13.984  0.00  0.00     0.274 C 
ATOM     19  C   UNL d   1       7.356   1.310 -14.282  0.00  0.00     0.137 C 
ATOM     20  N   UNL d   1       5.955   0.942 -14.437  0.00  0.00    -0.344 N 
ATOM     21  C   UNL d   1       5.093   1.416 -13.363  0.00  0.00     0.137 C 
ATOM     22  C   UNL d   1       5.268   2.943 -13.138  0.00  0.00     0.274 C 
BRANCH  20  23
ATOM     23  C   UNL d   1       5.493   0.210 -15.563  0.00  0.00     0.067 A 
ATOM     24  C   UNL d   1       4.397  -0.702 -15.510  0.00  0.00     0.074 A 
ATOM     25  C   UNL d   1       3.986  -1.370 -16.677  0.00  0.00     0.024 A 
ATOM     26 CL   UNL d   1       3.464  -1.046 -14.089  0.00  0.00    -0.081 Cl
ATOM     27  C   UNL d   1       4.629  -1.170 -17.905  0.00  0.00     0.059 A 
ATOM     28  C   UNL d   1       5.704  -0.273 -17.980  0.00  0.00     0.013 A 
ATOM     29 CL   UNL d   1       4.095  -2.024 -19.303  0.00  0.00    -0.082 Cl
ATOM     30  C   UNL d   1       6.126   0.411 -16.821  0.00  0.00     0.019 A 
ENDBRANCH  20  23
ENDBRANCH  16  17
ENDBRANCH   1  16
TORSDOF 7
