REMARK  6 active torsions:
REMARK  status: ('A' for Active; 'I' for Inactive)
REMARK    1  A    between atoms: N_9  and  C_10 
REMARK    2  A    between atoms: C_10  and  C_11 
REMARK    3  A    between atoms: C_11  and  C_12 
REMARK    4  A    between atoms: C_12  and  C_13 
REMARK    5  A    between atoms: C_13  and  N_14 
REMARK    6  A    between atoms: N_17  and  C_18 
ROOT
ATOM      1  N   UNL d   1      20.979  10.464 -18.315  0.00  0.00    -0.190 NA
ATOM      2  C   UNL d   1      20.685   9.484 -18.858  0.00  0.00     0.119 C 
ATOM      3  C   UNL d   1      20.369   8.275 -19.549  0.00  0.00     0.138 A 
ATOM      4  C   UNL d   1      21.303   7.679 -20.322  0.00  0.00     0.028 A 
ATOM      5  C   UNL d   1      20.978   6.453 -21.034  0.00  0.00     0.005 A 
ATOM      6  C   UNL d   1      19.756   5.887 -20.943  0.00  0.00     0.039 A 
ATOM      7  C   UNL d   1      18.736   6.510 -20.124  0.00  0.00     0.171 A 
ATOM      8  N   UNL d   1      17.515   6.184 -19.874  0.00  0.00    -0.147 NA
ATOM      9  N   UNL d   1      17.098   7.167 -19.030  0.00  0.00    -0.201 N 
ATOM     10  C   UNL d   1      18.039   8.086 -18.765  0.00  0.00     0.353 A 
ATOM     11  O   UNL d   1      17.938   9.080 -18.051  0.00  0.00    -0.244 OA
ATOM     12  N   UNL d   1      19.100   7.672 -19.459  0.00  0.00    -0.233 N 
ENDROOT
BRANCH   9  13
ATOM     13  C   UNL d   1      15.721   7.163 -18.532  0.00  0.00     0.133 C 
BRANCH  13  14
ATOM     14  C   UNL d   1      15.203   5.742 -18.238  0.00  0.00     0.029 C 
BRANCH  14  15
ATOM     15  C   UNL d   1      13.877   5.714 -17.472  0.00  0.00     0.037 C 
BRANCH  15  16
ATOM     16  C   UNL d   1      13.264   4.301 -17.438  0.00  0.00     0.251 C 
BRANCH  16  17
ATOM     17  N   UNL d   1      12.433   4.092 -16.256  0.00  0.00     0.141 N 
ATOM     18  C   UNL d   1      12.126   2.663 -16.126  0.00  0.00     0.274 C 
ATOM     19  C   UNL d   1      11.297   2.401 -14.860  0.00  0.00     0.137 C 
ATOM     20  N   UNL d   1      10.091   3.215 -14.888  0.00  0.00    -0.344 N 
ATOM     21  C   UNL d   1      10.313   4.631 -15.135  0.00  0.00     0.137 C 
ATOM     22  C   UNL d   1      11.176   4.836 -16.386  0.00  0.00     0.274 C 
BRANCH  20  23
ATOM     23  C   UNL d   1       8.807   2.675 -14.693  0.00  0.00     0.057 A 
ATOM     24  C   UNL d   1       7.821   3.371 -13.928  0.00  0.00     0.022 A 
ATOM     25  C   UNL d   1       6.537   2.745 -13.802  0.00  0.00     0.031 A 
ATOM     26  C   UNL d   1       7.871   4.629 -13.191  0.00  0.00     0.009 A 
ATOM     27  C   UNL d   1       6.258   1.494 -14.376  0.00  0.00     0.007 A 
ATOM     28  S   UNL d   1       5.452   3.725 -12.835  0.00  0.00    -0.086 SA
ATOM     29  C   UNL d   1       7.246   0.824 -15.107  0.00  0.00     0.002 A 
ATOM     30  C   UNL d   1       8.510   1.414 -15.265  0.00  0.00     0.017 A 
ATOM     31  C   UNL d   1       6.676   4.927 -12.591  0.00  0.00     0.035 A 
ENDBRANCH  20  23
ENDBRANCH  16  17
ENDBRANCH  15  16
ENDBRANCH  14  15
ENDBRANCH  13  14
ENDBRANCH   9  13
TORSDOF 6
