REMARK  11 active torsions:
REMARK  status: ('A' for Active; 'I' for Inactive)
REMARK    1  A    between atoms: C_2  and  C_5 
REMARK    2  A    between atoms: C_7  and  N_8 
REMARK    3  A    between atoms: N_11  and  C_12 
REMARK    4  A    between atoms: C_12  and  C_13 
REMARK    5  A    between atoms: C_13  and  C_14 
REMARK    6  A    between atoms: C_14  and  C_15 
REMARK    7  A    between atoms: C_15  and  N_16 
REMARK       I    between atoms: N_16  and  C_17 
REMARK       I    between atoms: C_17  and  N_19 
REMARK    8  A    between atoms: N_19  and  C_20 
REMARK    9  A    between atoms: C_20  and  C_21 
REMARK   10  A    between atoms: C_21  and  C_22 
REMARK   11  A    between atoms: C_31  and  C_32 
ROOT
ATOM      1  N   UNL d   1       9.933   0.519 -16.515  0.00  0.00    -0.330 N 
ATOM      2  C   UNL d   1      11.256   0.852 -15.999  0.00  0.00     0.138 C 
ATOM      3  C   UNL d   1      11.318   2.329 -15.534  0.00  0.00     0.274 C 
ATOM      4  N   UNL d   1      10.239   2.604 -14.580  0.00  0.00     0.141 N 
ATOM      5  C   UNL d   1       8.953   2.360 -15.229  0.00  0.00     0.274 C 
ATOM      6  C   UNL d   1       8.832   0.905 -15.649  0.00  0.00     0.138 C 
ENDROOT
BRANCH   4   7
ATOM      7  C   UNL d   1      10.312   3.995 -14.133  0.00  0.00     0.251 C 
BRANCH   7   8
ATOM      8  C   UNL d   1       9.556   4.207 -12.809  0.00  0.00     0.037 C 
BRANCH   8   9
ATOM      9  C   UNL d   1       8.024   4.410 -12.948  0.00  0.00     0.029 C 
BRANCH   9  10
ATOM     10  C   UNL d   1       7.284   4.560 -11.622  0.00  0.00     0.131 C 
BRANCH  10  11
ATOM     11  N   UNL d   1       7.835   5.619 -10.803  0.00  0.00    -0.217 NA
ATOM     12  C   UNL d   1       8.817   5.476  -9.904  0.00  0.00     0.360 C 
ATOM     13  O   UNL d   1       9.438   4.433  -9.685  0.00  0.00    -0.243 OA
ATOM     14  N   UNL d   1       9.076   6.628  -9.284  0.00  0.00    -0.217 NA
BRANCH  14  15
ATOM     15  C   UNL d   1      10.101   6.819  -8.288  0.00  0.00     0.135 C 
BRANCH  15  16
ATOM     16  C   UNL d   1       9.473   7.071  -6.918  0.00  0.00     0.053 C 
BRANCH  16  17
ATOM     17  C   UNL d   1      10.451   7.739  -5.977  0.00  0.00    -0.020 A 
ATOM     18  C   UNL d   1      10.738   9.108  -6.135  0.00  0.00    -0.004 A 
ATOM     19  C   UNL d   1      11.631   9.743  -5.256  0.00  0.00    -0.000 A 
ATOM     20  C   UNL d   1      12.242   9.026  -4.208  0.00  0.00    -0.000 A 
ATOM     21  C   UNL d   1      11.954   7.659  -4.043  0.00  0.00    -0.000 A 
ATOM     22  C   UNL d   1      11.065   7.019  -4.931  0.00  0.00    -0.004 A 
ENDBRANCH  16  17
ENDBRANCH  15  16
ENDBRANCH  14  15
ENDBRANCH  10  11
ENDBRANCH   9  10
ENDBRANCH   8   9
ENDBRANCH   7   8
ENDBRANCH   4   7
BRANCH   1  23
ATOM     23  C   UNL d   1       9.718  -0.002 -17.798  0.00  0.00     0.143 A 
ATOM     24  N   UNL d   1      10.703   0.126 -18.713  0.00  0.00    -0.214 NA
ATOM     25  C   UNL d   1      10.510  -0.394 -19.924  0.00  0.00     0.140 A 
ATOM     26  N   UNL d   1       9.395  -1.016 -20.326  0.00  0.00    -0.227 NA
ATOM     27  C   UNL d   1       8.393  -1.160 -19.430  0.00  0.00     0.157 A 
ATOM     28  C   UNL d   1       8.505  -0.649 -18.129  0.00  0.00     0.060 A 
BRANCH  25  29
ATOM     29  C   UNL d   1      11.599  -0.115 -20.969  0.00  0.00     0.052 C 
ATOM     30  C   UNL d   1      11.367  -0.939 -22.253  0.00  0.00     0.008 C 
ATOM     31  C   UNL d   1      12.988  -0.490 -20.401  0.00  0.00     0.008 C 
ATOM     32  C   UNL d   1      11.580   1.372 -21.372  0.00  0.00     0.008 C 
ENDBRANCH  25  29
BRANCH  27  33
ATOM     33  C   UNL d   1       7.145  -1.893 -19.905  0.00  0.00     0.435 C 
ATOM     34  F   UNL d   1       6.208  -1.933 -18.954  0.00  0.00    -0.165 F 
ATOM     35  F   UNL d   1       6.646  -1.260 -20.964  0.00  0.00    -0.165 F 
ATOM     36  F   UNL d   1       7.455  -3.144 -20.246  0.00  0.00    -0.165 F 
ENDBRANCH  27  33
ENDBRANCH   1  23
TORSDOF 11
