REMARK  6 active torsions:
REMARK  status: ('A' for Active; 'I' for Inactive)
REMARK       I    between atoms: C_2  and  N_3 
REMARK    1  A    between atoms: C_2  and  C_25 
REMARK    2  A    between atoms: N_3  and  C_4 
REMARK    3  A    between atoms: C_7  and  C_8 
REMARK    4  A    between atoms: C_8  and  C_9 
REMARK    5  A    between atoms: C_9  and  N_10 
REMARK    6  A    between atoms: N_13  and  C_14 
ROOT
ATOM      1  C   UNL d   1       9.198   6.081 -11.918  0.00  0.00     0.035 C 
ENDROOT
BRANCH   1   2
ATOM      2  C   UNL d   1       9.694   6.434 -10.512  0.00  0.00     0.002 C 
ATOM      3  C   UNL d   1       9.955   7.941 -10.391  0.00  0.00     0.002 C 
ATOM      4  C   UNL d   1      10.443   8.317  -8.995  0.00  0.00     0.024 C 
ATOM      5  C   UNL d   1       9.476   7.820  -7.901  0.00  0.00     0.107 C 
ATOM      6  C   UNL d   1       9.161   6.306  -8.031  0.00  0.00     0.024 C 
ATOM      7  C   UNL d   1       8.708   5.936  -9.437  0.00  0.00     0.002 C 
BRANCH   5   8
ATOM      8  N   UNL d   1       9.980   8.182  -6.579  0.00  0.00    -0.236 NA
ATOM      9  C   UNL d   1      11.058   7.651  -5.982  0.00  0.00     0.281 C 
ATOM     10  O   UNL d   1      11.697   6.712  -6.449  0.00  0.00    -0.265 OA
BRANCH   9  11
ATOM     11  C   UNL d   1      11.444   8.254  -4.703  0.00  0.00     0.087 A 
ATOM     12  S   UNL d   1      12.191   7.206  -3.523  0.00  0.00    -0.082 SA
ATOM     13  C   UNL d   1      12.344   8.523  -2.402  0.00  0.00     0.036 A 
ATOM     14  C   UNL d   1      11.863   9.688  -2.932  0.00  0.00     0.008 A 
ATOM     15  C   UNL d   1      11.351   9.544  -4.251  0.00  0.00     0.012 A 
ENDBRANCH   9  11
ENDBRANCH   5   8
ENDBRANCH   1   2
BRANCH   1  16
ATOM     16  C   UNL d   1       9.433   4.608 -12.287  0.00  0.00     0.250 C 
BRANCH  16  17
ATOM     17  N   UNL d   1       8.546   4.179 -13.359  0.00  0.00     0.141 N 
ATOM     18  C   UNL d   1       9.080   2.924 -13.905  0.00  0.00     0.274 C 
ATOM     19  C   UNL d   1       8.218   2.438 -15.072  0.00  0.00     0.137 C 
ATOM     20  N   UNL d   1       6.833   2.300 -14.642  0.00  0.00    -0.344 N 
ATOM     21  C   UNL d   1       6.252   3.471 -13.980  0.00  0.00     0.137 C 
ATOM     22  C   UNL d   1       7.171   3.966 -12.858  0.00  0.00     0.274 C 
BRANCH  20  23
ATOM     23  C   UNL d   1       6.105   1.115 -14.857  0.00  0.00     0.067 A 
ATOM     24  C   UNL d   1       6.127   0.395 -16.094  0.00  0.00     0.073 A 
ATOM     25  C   UNL d   1       5.325  -0.746 -16.267  0.00  0.00     0.013 A 
ATOM     26 CL   UNL d   1       7.006   0.934 -17.488  0.00  0.00    -0.081 Cl
ATOM     27  C   UNL d   1       4.457  -1.169 -15.251  0.00  0.00     0.001 A 
ATOM     28  C   UNL d   1       4.387  -0.444 -14.051  0.00  0.00     0.002 A 
ATOM     29  C   UNL d   1       5.226   0.661 -13.843  0.00  0.00     0.018 A 
ENDBRANCH  20  23
ENDBRANCH  16  17
ENDBRANCH   1  16
TORSDOF 6
