REMARK  8 active torsions:
REMARK  status: ('A' for Active; 'I' for Inactive)
REMARK    1  A    between atoms: S_2  and  C_4 
REMARK    2  A    between atoms: S_2  and  N_11 
REMARK    3  A    between atoms: N_11  and  C_12 
REMARK    4  A    between atoms: N_11  and  C_31 
REMARK    5  A    between atoms: C_12  and  C_13 
REMARK    6  A    between atoms: C_13  and  C_14 
REMARK    7  A    between atoms: C_14  and  N_15 
REMARK    8  A    between atoms: C_18  and  C_19 
ROOT
ATOM      1  C   UNL d   1       9.833   4.394 -12.939  0.00  0.00     0.060 C 
ENDROOT
BRANCH   1   2
ATOM      2  C   UNL d   1       9.337   3.328 -13.937  0.00  0.00     0.115 C 
BRANCH   2   3
ATOM      3  N   UNL d   1      10.349   2.931 -14.956  0.00  0.00    -0.271 N 
BRANCH   3   4
ATOM      4  S   UNL d   1      10.268   1.287 -15.576  0.00  0.00     0.264 S 
ATOM      5  O   UNL d   1      10.000   0.387 -14.449  0.00  0.00    -0.200 OA
ATOM      6  O   UNL d   1      11.438   1.045 -16.439  0.00  0.00    -0.200 OA
BRANCH   4   7
ATOM      7  C   UNL d   1       8.822   1.282 -16.631  0.00  0.00     0.103 A 
ATOM      8  C   UNL d   1       7.584   0.843 -16.120  0.00  0.00     0.015 A 
ATOM      9  C   UNL d   1       6.460   0.788 -16.970  0.00  0.00     0.030 A 
ATOM     10  C   UNL d   1       6.578   1.164 -18.321  0.00  0.00     0.140 A 
ATOM     11  C   UNL d   1       7.824   1.582 -18.833  0.00  0.00     0.030 A 
ATOM     12  F   UNL d   1       5.495   1.142 -19.132  0.00  0.00    -0.204 F 
ATOM     13  C   UNL d   1       8.949   1.640 -17.989  0.00  0.00     0.015 A 
ENDBRANCH   4   7
ENDBRANCH   3   4
BRANCH   3  14
ATOM     14  C   UNL d   1      10.966   4.021 -15.754  0.00  0.00     0.151 C 
ATOM     15  C   UNL d   1      11.750   5.206 -15.174  0.00  0.00     0.168 C 
ATOM     16  O   UNL d   1      12.713   5.153 -16.218  0.00  0.00    -0.350 OA
ATOM     17  C   UNL d   1      12.306   3.794 -16.471  0.00  0.00     0.168 C 
ENDBRANCH   3  14
ENDBRANCH   2   3
ENDBRANCH   1   2
BRANCH   1  18
ATOM     18  C   UNL d   1       8.866   4.742 -11.818  0.00  0.00     0.252 C 
BRANCH  18  19
ATOM     19  N   UNL d   1       9.560   5.584 -10.856  0.00  0.00     0.137 N 
ATOM     20  C   UNL d   1       9.489   7.009 -11.192  0.00  0.00     0.251 C 
ATOM     21  C   UNL d   1      10.257   7.865 -10.156  0.00  0.00     0.041 C 
ATOM     22  C   UNL d   1       9.724   7.657  -8.721  0.00  0.00     0.047 C 
ATOM     23  C   UNL d   1       9.637   6.140  -8.456  0.00  0.00     0.041 C 
ATOM     24  C   UNL d   1       8.939   5.362  -9.567  0.00  0.00     0.251 C 
BRANCH  22  25
ATOM     25  C   UNL d   1      10.566   8.358  -7.673  0.00  0.00     0.087 A 
ATOM     26  C   UNL d   1      10.960   8.013  -6.351  0.00  0.00     0.041 A 
ATOM     27  C   UNL d   1      11.715   9.049  -5.805  0.00  0.00     0.129 A 
ATOM     28  C   UNL d   1      10.716   6.848  -5.566  0.00  0.00     0.006 A 
ATOM     29  O   UNL d   1      11.778  10.010  -6.788  0.00  0.00    -0.211 OA
ATOM     30  C   UNL d   1      12.277   9.024  -4.507  0.00  0.00     0.057 A 
ATOM     31  N   UNL d   1      11.049   9.569  -7.924  0.00  0.00    -0.131 NA
ATOM     32  C   UNL d   1      12.049   7.857  -3.740  0.00  0.00     0.142 A 
ATOM     33  F   UNL d   1      12.548   7.769  -2.478  0.00  0.00    -0.204 F 
ATOM     34  C   UNL d   1      11.287   6.792  -4.275  0.00  0.00     0.030 A 
ENDBRANCH  22  25
ENDBRANCH  18  19
ENDBRANCH   1  18
TORSDOF 8
