REMARK  10 active torsions:
REMARK  status: ('A' for Active; 'I' for Inactive)
REMARK    1  A    between atoms: O_2  and  C_3 
REMARK    2  A    between atoms: C_6  and  S_7 
REMARK    3  A    between atoms: S_7  and  N_10 
REMARK    4  A    between atoms: N_10  and  C_11 
REMARK    5  A    between atoms: C_14  and  N_15 
REMARK    6  A    between atoms: C_18  and  C_19 
REMARK    7  A    between atoms: C_24  and  O_25 
REMARK    8  A    between atoms: O_25  and  C_26 
REMARK    9  A    between atoms: C_26  and  C_27 
REMARK   10  A    between atoms: C_36  and  O_37 
ROOT
ATOM      1  C   UNL d   1       9.169   4.794 -11.530  0.00  0.00     0.116 C 
ATOM      2  C   UNL d   1       7.846   4.287 -12.025  0.00  0.00     0.027 C 
ATOM      3  C   UNL d   1       8.062   3.468 -13.302  0.00  0.00     0.035 C 
ATOM      4  C   UNL d   1       8.826   4.219 -14.412  0.00  0.00     0.219 C 
ATOM      5  C   UNL d   1      10.161   4.740 -13.864  0.00  0.00     0.035 C 
ATOM      6  C   UNL d   1       9.864   5.555 -12.619  0.00  0.00     0.027 C 
ENDROOT
BRANCH   4   7
ATOM      7  N   UNL d   1       8.981   3.387 -15.614  0.00  0.00     0.135 N 
ATOM      8  C   UNL d   1       9.483   4.206 -16.721  0.00  0.00     0.251 C 
ATOM      9  C   UNL d   1       9.473   3.412 -18.026  0.00  0.00     0.040 C 
ATOM     10  C   UNL d   1      10.267   2.110 -17.875  0.00  0.00     0.028 C 
ATOM     11  C   UNL d   1       9.762   1.315 -16.666  0.00  0.00     0.040 C 
ATOM     12  C   UNL d   1       9.784   2.172 -15.406  0.00  0.00     0.251 C 
BRANCH  10  13
ATOM     13  C   UNL d   1      10.186   1.289 -19.159  0.00  0.00    -0.000 A 
ATOM     14  C   UNL d   1      11.303   1.156 -20.018  0.00  0.00     0.090 A 
ATOM     15  C   UNL d   1      11.170   0.375 -21.194  0.00  0.00     0.024 A 
ATOM     16  C   UNL d   1       9.963  -0.258 -21.500  0.00  0.00     0.002 A 
ATOM     17  C   UNL d   1       8.846  -0.131 -20.645  0.00  0.00    -0.000 A 
ATOM     18  C   UNL d   1       8.960   0.650 -19.488  0.00  0.00    -0.002 A 
BRANCH  14  19
ATOM     19  O   UNL d   1      12.479   1.770 -19.650  0.00  0.00    -0.322 OA
BRANCH  19  20
ATOM     20  C   UNL d   1      13.615   1.616 -20.486  0.00  0.00     0.252 C 
BRANCH  20  21
ATOM     21  C   UNL d   1      14.285   0.213 -20.382  0.00  0.00     0.425 C 
ATOM     22  F   UNL d   1      13.402  -0.802 -20.337  0.00  0.00    -0.168 F 
ATOM     23  F   UNL d   1      15.058   0.055 -21.459  0.00  0.00    -0.168 F 
ATOM     24  F   UNL d   1      15.085   0.209 -19.304  0.00  0.00    -0.168 F 
ENDBRANCH  20  21
ENDBRANCH  19  20
ENDBRANCH  14  19
ENDBRANCH  10  13
ENDBRANCH   4   7
BRANCH   1  25
ATOM     25  N   UNL d   1       8.989   5.708 -10.407  0.00  0.00    -0.187 NA
BRANCH  25  26
ATOM     26  S   UNL d   1       9.191   5.090  -8.799  0.00  0.00     0.281 S 
ATOM     27  O   UNL d   1      10.231   4.083  -8.878  0.00  0.00    -0.199 OA
ATOM     28  O   UNL d   1       7.854   4.716  -8.311  0.00  0.00    -0.199 OA
BRANCH  26  29
ATOM     29  C   UNL d   1       9.729   6.577  -7.886  0.00  0.00     0.107 A 
ATOM     30  C   UNL d   1       9.278   7.838  -8.294  0.00  0.00     0.015 A 
ATOM     31  C   UNL d   1       9.605   8.958  -7.519  0.00  0.00     0.027 A 
ATOM     32  C   UNL d   1      10.354   8.833  -6.322  0.00  0.00     0.116 A 
ATOM     33  C   UNL d   1      10.839   7.593  -5.926  0.00  0.00     0.117 A 
ATOM     34  C   UNL d   1      10.549   6.491  -6.746  0.00  0.00     0.039 A 
BRANCH  32  35
ATOM     35  O   UNL d   1      10.647   9.858  -5.489  0.00  0.00    -0.326 OA
ATOM     36  C   UNL d   1      11.490  10.829  -6.053  0.00  0.00     0.181 C 
ENDBRANCH  32  35
BRANCH  33  37
ATOM     37  O   UNL d   1      11.568   7.535  -4.757  0.00  0.00    -0.326 OA
ATOM     38  C   UNL d   1      11.939   6.260  -4.268  0.00  0.00     0.181 C 
ENDBRANCH  33  37
ENDBRANCH  26  29
ENDBRANCH  25  26
ENDBRANCH   1  25
TORSDOF 10
