REMARK  2 active torsions:
REMARK  status: ('A' for Active; 'I' for Inactive)
REMARK    1  A    between atoms: C_5  and  C_6 
REMARK    2  A    between atoms: C_6  and  N_7 
ROOT
ATOM      1  C   UNL d   1       9.462   7.470  -8.453  0.00  0.00     0.020 A 
ATOM      2  C   UNL d   1      10.031   8.691  -8.837  0.00  0.00     0.099 A 
ATOM      3  N   UNL d   1      11.101   9.217  -8.186  0.00  0.00    -0.243 NA
ATOM      4  C   UNL d   1      11.567   8.581  -7.104  0.00  0.00     0.097 A 
ATOM      5  C   UNL d   1      10.988   7.401  -6.570  0.00  0.00     0.030 A 
ATOM      6  C   UNL d   1       9.924   6.819  -7.307  0.00  0.00     0.001 A 
ENDROOT
BRANCH   5   7
ATOM      7  C   UNL d   1      11.499   6.721  -5.312  0.00  0.00     0.278 C 
BRANCH   7   8
ATOM      8  N   UNL d   1      11.466   7.517  -4.097  0.00  0.00     0.141 N 
ATOM      9  C   UNL d   1      12.286   8.722  -4.100  0.00  0.00     0.251 C 
ATOM     10  C   UNL d   1      12.376   9.134  -2.663  0.00  0.00     0.037 C 
ATOM     11  C   UNL d   1      12.197   7.848  -1.891  0.00  0.00     0.037 C 
ATOM     12  C   UNL d   1      11.963   6.770  -2.943  0.00  0.00     0.251 C 
ENDBRANCH   7   8
ENDBRANCH   5   7
TORSDOF 2
