REMARK  7 active torsions:
REMARK  status: ('A' for Active; 'I' for Inactive)
REMARK    1  A    between atoms: O_2  and  C_3 
REMARK    2  A    between atoms: C_6  and  O_7 
REMARK    3  A    between atoms: O_7  and  C_8 
REMARK    4  A    between atoms: C_8  and  C_9 
REMARK    5  A    between atoms: C_9  and  N_10 
REMARK       I    between atoms: N_13  and  C_14 
REMARK    6  A    between atoms: C_14  and  C_16 
REMARK    7  A    between atoms: C_19  and  O_20 
ROOT
ATOM      1  N   UNL d   1       8.408   5.107 -11.669  0.00  0.00     0.144 N 
ATOM      2  C   UNL d   1       7.080   4.491 -11.668  0.00  0.00     0.274 C 
ATOM      3  C   UNL d   1       6.587   4.183 -13.092  0.00  0.00     0.140 C 
ATOM      4  N   UNL d   1       7.582   3.357 -13.845  0.00  0.00    -0.314 N 
ATOM      5  C   UNL d   1       7.213   2.193 -14.414  0.00  0.00     0.257 C 
ATOM      6  O   UNL d   1       6.167   1.590 -14.125  0.00  0.00    -0.267 OA
ATOM      7  C   UNL d   1       8.948   3.955 -13.790  0.00  0.00     0.117 C 
ATOM      8  C   UNL d   1       9.035   5.199 -14.666  0.00  0.00     0.026 C 
ATOM      9  C   UNL d   1       9.353   4.197 -12.330  0.00  0.00     0.272 C 
ENDROOT
BRANCH   1  10
ATOM     10  C   UNL d   1       8.845   5.412 -10.306  0.00  0.00     0.283 C 
BRANCH  10  11
ATOM     11  C   UNL d   1       9.916   6.525 -10.312  0.00  0.00     0.184 C 
BRANCH  11  12
ATOM     12  O   UNL d   1       9.540   7.553  -9.419  0.00  0.00    -0.329 OA
BRANCH  12  13
ATOM     13  C   UNL d   1      10.066   7.594  -8.153  0.00  0.00     0.094 A 
ATOM     14  C   UNL d   1       9.837   8.781  -7.439  0.00  0.00     0.026 A 
ATOM     15  C   UNL d   1      10.384   8.962  -6.165  0.00  0.00     0.026 A 
ATOM     16  C   UNL d   1      11.159   7.970  -5.541  0.00  0.00     0.094 A 
ATOM     17  C   UNL d   1      11.375   6.757  -6.252  0.00  0.00     0.026 A 
ATOM     18  C   UNL d   1      10.823   6.575  -7.533  0.00  0.00     0.026 A 
BRANCH  16  19
ATOM     19  O   UNL d   1      11.708   8.120  -4.285  0.00  0.00    -0.328 OA
ATOM     20  C   UNL d   1      11.497   9.377  -3.646  0.00  0.00     0.181 C 
ENDBRANCH  16  19
ENDBRANCH  12  13
ENDBRANCH  11  12
ENDBRANCH  10  11
ENDBRANCH   1  10
BRANCH   5  21
ATOM     21  C   UNL d   1       8.050   1.595 -15.533  0.00  0.00     0.056 C 
ATOM     22  C   UNL d   1       7.413   1.205 -16.751  0.00  0.00     0.007 C 
ATOM     23  C   UNL d   1       8.172   0.667 -17.816  0.00  0.00     0.024 C 
ATOM     24  C   UNL d   1       9.588   0.553 -17.711  0.00  0.00     0.094 C 
ATOM     25  C   UNL d   1      10.191   0.975 -16.491  0.00  0.00     0.024 C 
ATOM     26  C   UNL d   1       9.434   1.382 -15.414  0.00  0.00     0.007 C 
BRANCH  24  27
ATOM     27  O   UNL d   1      10.323  -0.015 -18.728  0.00  0.00    -0.328 OA
ATOM     28  C   UNL d   1      11.443  -0.798 -18.302  0.00  0.00     0.181 C 
ENDBRANCH  24  27
ENDBRANCH   5  21
TORSDOF 7
