REMARK  4 active torsions:
REMARK  status: ('A' for Active; 'I' for Inactive)
REMARK    1  A    between atoms: N_5  and  C_6 
REMARK    2  A    between atoms: C_6  and  C_7 
REMARK    3  A    between atoms: C_7  and  C_8 
REMARK    4  A    between atoms: C_8  and  N_9 
ROOT
ATOM      1  N   UNL d   1       8.175   1.841 -14.765  0.00  0.00    -0.327 N 
ATOM      2  C   UNL d   1       7.623   2.933 -14.041  0.00  0.00     0.066 A 
ATOM      3  C   UNL d   1       6.258   2.944 -13.638  0.00  0.00     0.018 A 
ATOM      4  C   UNL d   1       5.720   3.998 -12.873  0.00  0.00     0.002 A 
ATOM      5  C   UNL d   1       6.524   5.088 -12.514  0.00  0.00     0.001 A 
ATOM      6  C   UNL d   1       7.866   5.119 -12.927  0.00  0.00     0.008 A 
ATOM      7  C   UNL d   1       8.413   4.056 -13.678  0.00  0.00     0.045 A 
ATOM      8  S   UNL d   1      10.109   4.201 -14.131  0.00  0.00    -0.084 SA
ATOM      9  C   UNL d   1      10.359   2.885 -15.279  0.00  0.00     0.045 A 
ATOM     10  C   UNL d   1      11.583   2.888 -15.987  0.00  0.00     0.009 A 
ATOM     11  C   UNL d   1      11.874   1.878 -16.919  0.00  0.00     0.012 A 
ATOM     12  C   UNL d   1      10.950   0.846 -17.128  0.00  0.00     0.059 A 
ATOM     13 CL   UNL d   1      11.288  -0.406 -18.268  0.00  0.00    -0.082 Cl
ATOM     14  C   UNL d   1       9.743   0.825 -16.405  0.00  0.00     0.029 A 
ATOM     15  C   UNL d   1       9.405   1.849 -15.474  0.00  0.00     0.067 A 
ENDROOT
BRANCH   1  16
ATOM     16  C   UNL d   1       7.413   0.577 -14.746  0.00  0.00     0.108 C 
BRANCH  16  17
ATOM     17  C   UNL d   1       6.544   0.382 -15.998  0.00  0.00     0.060 C 
BRANCH  17  18
ATOM     18  C   UNL d   1       5.216  -0.351 -15.752  0.00  0.00     0.252 C 
BRANCH  18  19
ATOM     19  N   UNL d   1       4.660  -1.029 -16.929  0.00  0.00     0.141 N 
ATOM     20  C   UNL d   1       5.211  -2.373 -17.119  0.00  0.00     0.285 C 
ATOM     21  C   UNL d   1       4.561  -3.086 -18.319  0.00  0.00     0.285 C 
ATOM     22  N   UNL d   1       4.714  -2.313 -19.553  0.00  0.00     0.143 N 
ATOM     23  C   UNL d   1       4.136  -3.001 -20.695  0.00  0.00     0.285 C 
ATOM     24  C   UNL d   1       4.122  -0.989 -19.366  0.00  0.00     0.285 C 
ATOM     25  C   UNL d   1       4.764  -0.257 -18.179  0.00  0.00     0.285 C 
ENDBRANCH  18  19
ENDBRANCH  17  18
ENDBRANCH  16  17
ENDBRANCH   1  16
TORSDOF 4
