REMARK  3 active torsions:
REMARK  status: ('A' for Active; 'I' for Inactive)
REMARK    1  A    between atoms: C_4  and  N_5 
REMARK    2  A    between atoms: N_8  and  C_9 
REMARK    3  A    between atoms: C_9  and  C_10 
ROOT
ATOM      1  N   UNL d   1       8.892   5.535 -11.640  0.00  0.00    -0.179 N 
ATOM      2  C   UNL d   1       9.453   6.831 -11.284  0.00  0.00     0.155 C 
ATOM      3  C   UNL d   1      10.208   6.734  -9.953  0.00  0.00     0.275 C 
ATOM      4  N   UNL d   1       9.303   6.285  -8.892  0.00  0.00     0.145 N 
ATOM      5  C   UNL d   1       8.799   4.953  -9.249  0.00  0.00     0.275 C 
ATOM      6  C   UNL d   1       8.033   5.011 -10.588  0.00  0.00     0.155 C 
ENDROOT
BRANCH   4   7
ATOM      7  C   UNL d   1       9.996   6.241  -7.615  0.00  0.00     0.279 C 
BRANCH   7   8
ATOM      8  C   UNL d   1      10.412   7.512  -6.934  0.00  0.00     0.033 A 
ATOM      9  C   UNL d   1      11.039   7.645  -5.641  0.00  0.00     0.035 A 
ATOM     10  C   UNL d   1      11.252   9.027  -5.390  0.00  0.00     0.162 A 
ATOM     11  C   UNL d   1      11.461   6.785  -4.609  0.00  0.00     0.004 A 
ATOM     12  N   UNL d   1      10.767   9.688  -6.488  0.00  0.00    -0.226 NA
ATOM     13  N   UNL d   1      11.822   9.588  -4.287  0.00  0.00    -0.225 NA
ATOM     14  C   UNL d   1      10.218   8.792  -7.390  0.00  0.00     0.098 A 
ATOM     15  C   UNL d   1      12.220   8.715  -3.343  0.00  0.00     0.101 A 
ATOM     16  C   UNL d   1      12.062   7.317  -3.449  0.00  0.00     0.021 A 
ENDBRANCH   7   8
ENDBRANCH   4   7
BRANCH   1  17
ATOM     17  C   UNL d   1       9.108   4.885 -12.850  0.00  0.00     0.727 A 
ATOM     18  N   UNL d   1      10.231   5.181 -13.518  0.00  0.00    -0.060 NA
ATOM     19  C   UNL d   1      10.445   4.535 -14.684  0.00  0.00     0.120 A 
ATOM     20  C   UNL d   1       9.536   3.585 -15.182  0.00  0.00     0.043 A 
ATOM     21  C   UNL d   1       8.395   3.351 -14.398  0.00  0.00     0.120 A 
ATOM     22  N   UNL d   1       8.183   4.002 -13.241  0.00  0.00    -0.060 NA
ENDBRANCH   1  17
TORSDOF 3
