REMARK  5 active torsions:
REMARK  status: ('A' for Active; 'I' for Inactive)
REMARK       I    between atoms: N_2  and  C_4 
REMARK       I    between atoms: C_4  and  N_6 
REMARK    1  A    between atoms: N_6  and  C_7 
REMARK    2  A    between atoms: C_10  and  C_11 
REMARK    3  A    between atoms: C_11  and  C_12 
REMARK    4  A    between atoms: C_12  and  N_13 
REMARK    5  A    between atoms: N_16  and  C_17 
ROOT
ATOM      1  N   UNL d   1       7.854   4.982 -11.831  0.00  0.00     0.141 N 
ATOM      2  C   UNL d   1       8.931   5.842 -12.309  0.00  0.00     0.274 C 
ATOM      3  C   UNL d   1       9.023   7.046 -11.377  0.00  0.00     0.137 C 
ATOM      4  N   UNL d   1       9.227   6.614  -9.968  0.00  0.00    -0.344 N 
ATOM      5  C   UNL d   1       8.294   5.620  -9.486  0.00  0.00     0.137 C 
ATOM      6  C   UNL d   1       8.207   4.480 -10.496  0.00  0.00     0.274 C 
ENDROOT
BRANCH   1   7
ATOM      7  C   UNL d   1       7.794   3.865 -12.770  0.00  0.00     0.250 C 
BRANCH   7   8
ATOM      8  C   UNL d   1       6.430   3.136 -12.720  0.00  0.00     0.035 C 
BRANCH   8   9
ATOM      9  C   UNL d   1       6.263   1.964 -13.744  0.00  0.00     0.002 C 
ATOM     10  C   UNL d   1       6.959   0.622 -13.447  0.00  0.00     0.002 C 
ATOM     11  C   UNL d   1       6.796  -0.420 -14.531  0.00  0.00     0.025 C 
ATOM     12  C   UNL d   1       7.279   0.096 -15.896  0.00  0.00     0.108 C 
ATOM     13  C   UNL d   1       6.520   1.398 -16.241  0.00  0.00     0.025 C 
ATOM     14  C   UNL d   1       6.692   2.454 -15.122  0.00  0.00     0.002 C 
BRANCH  12  15
ATOM     15  N   UNL d   1       8.726   0.345 -15.867  0.00  0.00    -0.221 NA
ATOM     16  C   UNL d   1       9.548   0.289 -16.926  0.00  0.00     0.342 C 
ATOM     17  N   UNL d   1      10.793   0.790 -16.709  0.00  0.00    -0.297 N 
ATOM     18  O   UNL d   1       9.195  -0.171 -18.010  0.00  0.00    -0.245 OA
ATOM     19  C   UNL d   1      11.780   0.776 -17.789  0.00  0.00     0.130 C 
ATOM     20  C   UNL d   1      11.191   1.498 -15.485  0.00  0.00     0.130 C 
ENDBRANCH  12  15
ENDBRANCH   8   9
ENDBRANCH   7   8
ENDBRANCH   1   7
BRANCH   4  21
ATOM     21  C   UNL d   1      10.191   7.226  -9.114  0.00  0.00     0.068 A 
ATOM     22  C   UNL d   1      10.064   7.438  -7.716  0.00  0.00     0.084 A 
ATOM     23  C   UNL d   1      11.119   8.075  -6.984  0.00  0.00     0.070 A 
ATOM     24 CL   UNL d   1       8.668   6.976  -6.834  0.00  0.00    -0.080 Cl
ATOM     25  C   UNL d   1      12.274   8.489  -7.649  0.00  0.00     0.012 A 
ATOM     26 CL   UNL d   1      11.084   8.299  -5.271  0.00  0.00    -0.081 Cl
ATOM     27  C   UNL d   1      12.434   8.209  -9.011  0.00  0.00     0.002 A 
ATOM     28  C   UNL d   1      11.370   7.623  -9.734  0.00  0.00     0.018 A 
ENDBRANCH   4  21
TORSDOF 5
