REMARK  8 active torsions:
REMARK  status: ('A' for Active; 'I' for Inactive)
REMARK    1  A    between atoms: O_2  and  C_3 
REMARK    2  A    between atoms: C_9  and  C_10 
REMARK       I    between atoms: C_10  and  N_12 
REMARK    3  A    between atoms: N_12  and  C_13 
REMARK    4  A    between atoms: C_13  and  C_14 
REMARK    5  A    between atoms: C_14  and  C_15 
REMARK    6  A    between atoms: C_15  and  C_16 
REMARK    7  A    between atoms: C_16  and  N_17 
REMARK    8  A    between atoms: N_20  and  C_21 
ROOT
ATOM      1  C   UNL d   1       9.396   4.914 -11.953  0.00  0.00     0.029 C 
ENDROOT
BRANCH   1   2
ATOM      2  C   UNL d   1       8.218   5.298 -11.039  0.00  0.00     0.129 C 
BRANCH   2   3
ATOM      3  N   UNL d   1       8.657   6.127  -9.934  0.00  0.00    -0.233 NA
ATOM      4  C   UNL d   1       9.462   5.719  -8.949  0.00  0.00     0.298 C 
ATOM      5  O   UNL d   1       9.846   4.556  -8.834  0.00  0.00    -0.263 OA
BRANCH   4   6
ATOM      6  C   UNL d   1       9.898   6.764  -8.006  0.00  0.00     0.157 A 
ATOM      7  C   UNL d   1       9.835   8.137  -8.084  0.00  0.00     0.032 A 
ATOM      8  C   UNL d   1      10.436   8.632  -6.880  0.00  0.00     0.027 A 
ATOM      9  C   UNL d   1      10.696   9.891  -6.308  0.00  0.00     0.002 A 
ATOM     10  C   UNL d   1      10.847   7.503  -6.136  0.00  0.00     0.122 A 
ATOM     11  C   UNL d   1      11.282  10.001  -5.034  0.00  0.00     0.002 A 
ATOM     12  C   UNL d   1      11.680   8.867  -4.312  0.00  0.00     0.026 A 
ATOM     13  C   UNL d   1      11.461   7.579  -4.864  0.00  0.00     0.117 A 
ATOM     14  O   UNL d   1      10.536   6.374  -6.853  0.00  0.00    -0.300 OA
BRANCH  13  15
ATOM     15  O   UNL d   1      11.818   6.411  -4.229  0.00  0.00    -0.326 OA
ATOM     16  C   UNL d   1      12.371   6.537  -2.928  0.00  0.00     0.181 C 
ENDBRANCH  13  15
ENDBRANCH   4   6
ENDBRANCH   2   3
ENDBRANCH   1   2
BRANCH   1  17
ATOM     17  C   UNL d   1       8.925   4.054 -13.110  0.00  0.00     0.037 C 
BRANCH  17  18
ATOM     18  C   UNL d   1      10.086   3.358 -13.863  0.00  0.00     0.251 C 
BRANCH  18  19
ATOM     19  N   UNL d   1       9.669   2.454 -14.941  0.00  0.00     0.141 N 
ATOM     20  C   UNL d   1       8.485   2.975 -15.634  0.00  0.00     0.274 C 
ATOM     21  C   UNL d   1       8.048   2.089 -16.791  0.00  0.00     0.137 C 
ATOM     22  N   UNL d   1       7.834   0.749 -16.294  0.00  0.00    -0.344 N 
ATOM     23  C   UNL d   1       8.937   0.167 -15.555  0.00  0.00     0.137 C 
ATOM     24  C   UNL d   1       9.382   1.108 -14.425  0.00  0.00     0.274 C 
BRANCH  22  25
ATOM     25  C   UNL d   1       6.623   0.057 -16.529  0.00  0.00     0.068 A 
ATOM     26  C   UNL d   1       6.101  -0.064 -17.839  0.00  0.00     0.084 A 
ATOM     27  C   UNL d   1       4.891  -0.758 -18.044  0.00  0.00     0.070 A 
ATOM     28 CL   UNL d   1       6.926   0.580 -19.224  0.00  0.00    -0.080 Cl
ATOM     29  C   UNL d   1       4.205  -1.327 -16.962  0.00  0.00     0.012 A 
ATOM     30 CL   UNL d   1       4.251  -0.916 -19.631  0.00  0.00    -0.081 Cl
ATOM     31  C   UNL d   1       4.717  -1.213 -15.662  0.00  0.00     0.002 A 
ATOM     32  C   UNL d   1       5.929  -0.522 -15.443  0.00  0.00     0.018 A 
ENDBRANCH  22  25
ENDBRANCH  18  19
ENDBRANCH  17  18
ENDBRANCH   1  17
TORSDOF 8
