REMARK  6 active torsions:
REMARK  status: ('A' for Active; 'I' for Inactive)
REMARK       I    between atoms: C_2  and  N_3 
REMARK    1  A    between atoms: C_2  and  C_22 
REMARK    2  A    between atoms: N_3  and  C_4 
REMARK    3  A    between atoms: C_4  and  C_5 
REMARK    4  A    between atoms: C_6  and  C_7 
REMARK    5  A    between atoms: C_7  and  N_8 
REMARK    6  A    between atoms: N_11  and  C_12 
ROOT
ATOM      1  N   UNL d   1       8.513   5.191 -11.713  0.00  0.00     0.145 N 
ATOM      2  C   UNL d   1       8.748   4.766 -10.322  0.00  0.00     0.275 C 
ATOM      3  C   UNL d   1       8.730   5.953  -9.353  0.00  0.00     0.137 C 
ATOM      4  N   UNL d   1       9.659   6.960  -9.804  0.00  0.00    -0.344 N 
ATOM      5  C   UNL d   1       9.505   7.390 -11.184  0.00  0.00     0.137 C 
ATOM      6  C   UNL d   1       9.532   6.170 -12.103  0.00  0.00     0.275 C 
ENDROOT
BRANCH   1   7
ATOM      7  C   UNL d   1       8.557   4.000 -12.569  0.00  0.00     0.276 C 
BRANCH   7   8
ATOM      8  C   UNL d   1       8.670   4.315 -14.043  0.00  0.00     0.006 C 
ATOM      9  C   UNL d   1       9.670   3.881 -14.826  0.00  0.00    -0.003 C 
BRANCH   9  10
ATOM     10  C   UNL d   1       9.822   4.200 -16.299  0.00  0.00     0.155 C 
BRANCH  10  11
ATOM     11  N   UNL d   1      11.137   4.742 -16.593  0.00  0.00    -0.229 NA
ATOM     12  C   UNL d   1      11.381   5.756 -17.445  0.00  0.00     0.275 C 
ATOM     13  O   UNL d   1      10.505   6.380 -18.037  0.00  0.00    -0.266 OA
BRANCH  12  14
ATOM     14  C   UNL d   1      12.832   6.132 -17.587  0.00  0.00     0.058 A 
ATOM     15  C   UNL d   1      13.183   7.471 -17.896  0.00  0.00     0.011 A 
ATOM     16  C   UNL d   1      14.537   7.834 -18.042  0.00  0.00     0.030 A 
ATOM     17  C   UNL d   1      15.544   6.860 -17.909  0.00  0.00     0.006 A 
ATOM     18  I   UNL d   1      15.051   9.822 -18.444  0.00  0.00    -0.043 I 
ATOM     19  C   UNL d   1      15.204   5.526 -17.621  0.00  0.00     0.001 A 
ATOM     20  C   UNL d   1      13.853   5.161 -17.478  0.00  0.00     0.005 A 
ENDBRANCH  12  14
ENDBRANCH  10  11
ENDBRANCH   9  10
ENDBRANCH   7   8
ENDBRANCH   1   7
BRANCH   4  21
ATOM     21  C   UNL d   1      10.548   7.614  -8.941  0.00  0.00     0.068 A 
ATOM     22  C   UNL d   1      10.230   8.038  -7.620  0.00  0.00     0.084 A 
ATOM     23  C   UNL d   1      11.238   8.654  -6.835  0.00  0.00     0.070 A 
ATOM     24 CL   UNL d   1       8.678   7.870  -6.888  0.00  0.00    -0.080 Cl
ATOM     25  C   UNL d   1      12.511   8.816  -7.356  0.00  0.00     0.012 A 
ATOM     26 CL   UNL d   1      10.950   9.210  -5.235  0.00  0.00    -0.081 Cl
ATOM     27  C   UNL d   1      12.840   8.394  -8.643  0.00  0.00     0.002 A 
ATOM     28  C   UNL d   1      11.841   7.831  -9.446  0.00  0.00     0.018 A 
ENDBRANCH   4  21
TORSDOF 6
