REMARK  3 active torsions:
REMARK  status: ('A' for Active; 'I' for Inactive)
REMARK    1  A    between atoms: C_2  and  S_3 
REMARK    2  A    between atoms: S_3  and  N_6 
REMARK    3  A    between atoms: N_6  and  C_7 
ROOT
ATOM      1  C   UNL d   1       8.593   5.667 -10.346  0.00  0.00     0.093 A 
ATOM      2  C   UNL d   1       9.701   4.925 -10.673  0.00  0.00     0.020 A 
ATOM      3  C   UNL d   1       9.687   4.086 -11.796  0.00  0.00    -0.003 A 
ATOM      4  C   UNL d   1       8.567   3.970 -12.621  0.00  0.00    -0.020 A 
ATOM      5  C   UNL d   1       7.435   4.746 -12.304  0.00  0.00    -0.024 A 
ATOM      6  C   UNL d   1       7.465   5.615 -11.195  0.00  0.00     0.015 A 
ATOM      7  C   UNL d   1       6.142   4.507 -13.024  0.00  0.00     0.028 C 
ATOM      8  C   UNL d   1       6.001   3.046 -13.444  0.00  0.00     0.039 C 
ATOM      9  C   UNL d   1       7.188   2.573 -14.325  0.00  0.00     0.228 C 
ATOM     10  C   UNL d   1       8.592   2.896 -13.722  0.00  0.00     0.075 C 
ATOM     11  C   UNL d   1       9.621   3.200 -14.809  0.00  0.00    -0.018 A 
ATOM     12  C   UNL d   1      10.207   4.484 -14.896  0.00  0.00     0.024 A 
ATOM     13  C   UNL d   1      11.163   4.775 -15.874  0.00  0.00     0.141 A 
ATOM     14  O   UNL d   1      11.700   6.026 -15.929  0.00  0.00    -0.189 OA
ATOM     15  C   UNL d   1      11.543   3.780 -16.791  0.00  0.00     0.083 A 
ATOM     16 CL   UNL d   1      12.717   4.127 -18.006  0.00  0.00    -0.080 Cl
ATOM     17  C   UNL d   1      10.955   2.504 -16.729  0.00  0.00     0.009 A 
ATOM     18  C   UNL d   1       9.989   2.204 -15.746  0.00  0.00    -0.023 A 
ATOM     19  C   UNL d   1       9.334   0.830 -15.743  0.00  0.00     0.061 C 
ATOM     20  C   UNL d   1       7.819   0.884 -16.025  0.00  0.00     0.255 C 
ATOM     21  N   UNL d   1       6.985   1.226 -14.869  0.00  0.00     0.138 N 
ATOM     22  C   UNL d   1       6.916   0.162 -13.882  0.00  0.00     0.285 C 
ENDROOT
BRANCH   1  23
ATOM     23  N   UNL d   1       8.661   6.432  -9.183  0.00  0.00    -0.162 NA
BRANCH  23  24
ATOM     24  S   UNL d   1      10.013   7.103  -8.338  0.00  0.00     0.265 S 
ATOM     25  O   UNL d   1      10.816   7.833  -9.330  0.00  0.00    -0.203 OA
ATOM     26  O   UNL d   1      10.603   6.021  -7.541  0.00  0.00    -0.203 OA
BRANCH  24  27
ATOM     27  C   UNL d   1       9.231   8.342  -7.215  0.00  0.00     0.146 C 
ATOM     28  C   UNL d   1      10.289   8.908  -6.251  0.00  0.00     0.020 C 
ENDBRANCH  24  27
ENDBRANCH  23  24
ENDBRANCH   1  23
TORSDOF 3
