REMARK  8 active torsions:
REMARK  status: ('A' for Active; 'I' for Inactive)
REMARK       I    between atoms: N_2  and  C_3 
REMARK    1  A    between atoms: C_3  and  C_5 
REMARK    2  A    between atoms: C_9  and  O_10 
REMARK    3  A    between atoms: O_10  and  C_11 
REMARK    4  A    between atoms: C_11  and  C_12 
REMARK    5  A    between atoms: C_12  and  C_13 
REMARK    6  A    between atoms: C_13  and  C_14 
REMARK    7  A    between atoms: C_14  and  N_15 
REMARK    8  A    between atoms: C_18  and  C_19 
ROOT
ATOM      1  N   UNL d   1       8.829   6.080  -9.877  0.00  0.00     0.137 N 
ATOM      2  C   UNL d   1      10.269   6.168  -9.931  0.00  0.00     0.251 C 
ATOM      3  C   UNL d   1      10.791   7.199  -8.933  0.00  0.00     0.041 C 
ATOM      4  C   UNL d   1      10.337   6.891  -7.490  0.00  0.00     0.047 C 
ATOM      5  C   UNL d   1       8.825   6.677  -7.476  0.00  0.00     0.041 C 
ATOM      6  C   UNL d   1       8.432   5.646  -8.539  0.00  0.00     0.251 C 
ENDROOT
BRANCH   1   7
ATOM      7  C   UNL d   1       8.277   5.198 -10.889  0.00  0.00     0.250 C 
BRANCH   7   8
ATOM      8  C   UNL d   1       8.487   5.710 -12.332  0.00  0.00     0.038 C 
BRANCH   8   9
ATOM      9  C   UNL d   1       7.585   5.015 -13.367  0.00  0.00     0.035 C 
BRANCH   9  10
ATOM     10  C   UNL d   1       7.614   3.495 -13.224  0.00  0.00     0.149 C 
BRANCH  10  11
ATOM     11  O   UNL d   1       6.901   2.872 -14.276  0.00  0.00    -0.329 OA
BRANCH  11  12
ATOM     12  C   UNL d   1       7.514   1.945 -15.095  0.00  0.00     0.113 A 
ATOM     13  C   UNL d   1       8.908   1.821 -15.286  0.00  0.00     0.123 A 
ATOM     14  N   UNL d   1       9.458   0.903 -16.111  0.00  0.00    -0.240 NA
ATOM     15  C   UNL d   1       8.634   0.087 -16.803  0.00  0.00     0.104 A 
ATOM     16  C   UNL d   1       7.225   0.132 -16.701  0.00  0.00     0.079 A 
ATOM     17  C   UNL d   1       6.669   1.097 -15.834  0.00  0.00     0.032 A 
BRANCH  16  18
ATOM     18  C   UNL d   1       6.366  -0.772 -17.535  0.00  0.00     0.277 C 
ATOM     19  N   UNL d   1       5.148  -1.041 -17.034  0.00  0.00    -0.232 NA
ATOM     20  C   UNL d   1       4.183  -1.929 -17.661  0.00  0.00     0.155 C 
ATOM     21  O   UNL d   1       6.803  -1.275 -18.570  0.00  0.00    -0.266 OA
ENDBRANCH  16  18
ENDBRANCH  11  12
ENDBRANCH  10  11
ENDBRANCH   9  10
ENDBRANCH   8   9
ENDBRANCH   7   8
ENDBRANCH   1   7
BRANCH   4  22
ATOM     22  C   UNL d   1      10.767   7.956  -6.525  0.00  0.00     0.087 A 
ATOM     23  C   UNL d   1      11.270   7.862  -5.208  0.00  0.00     0.041 A 
ATOM     24  C   UNL d   1      11.507   9.141  -4.710  0.00  0.00     0.129 A 
ATOM     25  C   UNL d   1      11.522   6.744  -4.387  0.00  0.00     0.006 A 
ATOM     26  O   UNL d   1      11.123  10.005  -5.723  0.00  0.00    -0.211 OA
ATOM     27  C   UNL d   1      12.005   9.382  -3.427  0.00  0.00     0.057 A 
ATOM     28  N   UNL d   1      10.642   9.253  -6.823  0.00  0.00    -0.131 NA
ATOM     29  C   UNL d   1      12.261   8.266  -2.603  0.00  0.00     0.142 A 
ATOM     30  F   UNL d   1      12.752   8.447  -1.356  0.00  0.00    -0.204 F 
ATOM     31  C   UNL d   1      12.019   6.954  -3.077  0.00  0.00     0.030 A 
ENDBRANCH   4  22
TORSDOF 8
