REMARK  1 active torsions:
REMARK  status: ('A' for Active; 'I' for Inactive)
REMARK    1  A    between atoms: C_11  and  C_12 
ROOT
ATOM      1  O   UNL d   1      11.231  10.774  -5.697  0.00  0.00    -0.190 OA
ATOM      2  C   UNL d   1      11.277   9.457  -5.455  0.00  0.00     0.134 A 
ATOM      3  C   UNL d   1      11.623   8.946  -4.158  0.00  0.00     0.029 A 
ATOM      4  C   UNL d   1      11.882   9.600  -2.945  0.00  0.00     0.002 A 
ATOM      5  C   UNL d   1      12.306   8.807  -1.868  0.00  0.00     0.000 A 
ATOM      6  C   UNL d   1      12.451   7.409  -2.016  0.00  0.00     0.000 A 
ATOM      7  C   UNL d   1      12.122   6.757  -3.215  0.00  0.00     0.003 A 
ATOM      8  C   UNL d   1      11.693   7.557  -4.277  0.00  0.00     0.041 A 
ATOM      9  C   UNL d   1      11.409   7.204  -5.658  0.00  0.00     0.198 A 
ATOM     10  O   UNL d   1      11.505   6.111  -6.200  0.00  0.00    -0.286 OA
ATOM     11  C   UNL d   1      11.177   8.463  -6.336  0.00  0.00     0.064 A 
ENDROOT
BRANCH  11  12
ATOM     12  C   UNL d   1      10.931   8.569  -7.735  0.00  0.00     0.005 C 
ATOM     13  C   UNL d   1      11.937   8.177  -8.627  0.00  0.00     0.000 C 
ATOM     14  C   UNL d   1      11.706   8.321  -9.998  0.00  0.00     0.000 C 
ATOM     15  C   UNL d   1      10.449   8.735 -10.451  0.00  0.00     0.000 C 
ATOM     16  C   UNL d   1       9.466   9.186  -9.548  0.00  0.00     0.000 C 
ATOM     17  C   UNL d   1       9.691   9.067  -8.170  0.00  0.00     0.000 C 
ENDBRANCH  11  12
TORSDOF 1
