REMARK  6 active torsions:
REMARK  status: ('A' for Active; 'I' for Inactive)
REMARK       I    between atoms: C_2  and  N_3 
REMARK    1  A    between atoms: C_2  and  C_27 
REMARK    2  A    between atoms: N_3  and  C_4 
REMARK    3  A    between atoms: C_7  and  C_8 
REMARK    4  A    between atoms: C_8  and  C_9 
REMARK    5  A    between atoms: C_9  and  N_10 
REMARK    6  A    between atoms: C_13  and  C_14 
ROOT
ATOM      1  C   UNL d   1       6.806   2.672 -13.670  0.00  0.00     0.106 C 
ATOM      2  C   UNL d   1       8.322   2.991 -13.535  0.00  0.00     0.024 C 
ATOM      3  C   UNL d   1       8.584   4.012 -12.440  0.00  0.00     0.002 C 
ATOM      4  C   UNL d   1       7.795   5.304 -12.706  0.00  0.00     0.002 C 
ATOM      5  C   UNL d   1       6.280   4.981 -12.779  0.00  0.00     0.002 C 
ATOM      6  C   UNL d   1       5.966   3.937 -13.859  0.00  0.00     0.024 C 
ENDROOT
BRANCH   4   7
ATOM      7  C   UNL d   1       8.043   6.355 -11.616  0.00  0.00     0.035 C 
BRANCH   7   8
ATOM      8  C   UNL d   1       9.536   6.687 -11.364  0.00  0.00     0.250 C 
BRANCH   8   9
ATOM      9  N   UNL d   1       9.795   7.342 -10.085  0.00  0.00     0.137 N 
ATOM     10  C   UNL d   1       9.475   6.445  -8.966  0.00  0.00     0.251 C 
ATOM     11  C   UNL d   1       9.661   7.175  -7.636  0.00  0.00     0.040 C 
ATOM     12  C   UNL d   1      11.093   7.698  -7.483  0.00  0.00     0.028 C 
ATOM     13  C   UNL d   1      11.482   8.506  -8.732  0.00  0.00     0.040 C 
ATOM     14  C   UNL d   1      11.205   7.729 -10.016  0.00  0.00     0.251 C 
BRANCH  12  15
ATOM     15  C   UNL d   1      11.212   8.515  -6.233  0.00  0.00     0.004 A 
ATOM     16  C   UNL d   1      11.549   8.068  -4.910  0.00  0.00     0.021 A 
ATOM     17  C   UNL d   1      11.532   9.216  -4.085  0.00  0.00     0.100 A 
ATOM     18  C   UNL d   1      11.888   6.839  -4.297  0.00  0.00     0.002 A 
ATOM     19  O   UNL d   1      11.137  10.309  -4.826  0.00  0.00    -0.305 OA
ATOM     20  C   UNL d   1      11.878   9.192  -2.732  0.00  0.00     0.025 A 
ATOM     21  C   UNL d   1      10.996   9.873  -6.105  0.00  0.00     0.118 A 
ATOM     22  C   UNL d   1      12.247   7.965  -2.152  0.00  0.00     0.002 A 
ATOM     23  C   UNL d   1      12.245   6.790  -2.930  0.00  0.00     0.000 A 
ENDBRANCH  12  15
ENDBRANCH   8   9
ENDBRANCH   7   8
ENDBRANCH   4   7
BRANCH   1  24
ATOM     24  N   UNL d   1       6.590   1.714 -14.737  0.00  0.00    -0.240 NA
ATOM     25  C   UNL d   1       7.199   1.662 -15.932  0.00  0.00     0.250 C 
ATOM     26  O   UNL d   1       8.141   2.364 -16.278  0.00  0.00    -0.271 OA
BRANCH  25  27
ATOM     27  C   UNL d   1       6.632   0.662 -16.951  0.00  0.00     0.073 C 
ATOM     28  C   UNL d   1       6.234   1.405 -18.251  0.00  0.00     0.009 C 
ATOM     29  C   UNL d   1       5.691   0.415 -19.296  0.00  0.00     0.001 C 
ATOM     30  C   UNL d   1       6.812  -0.595 -19.618  0.00  0.00     0.000 C 
ATOM     31  C   UNL d   1       4.459  -0.313 -18.715  0.00  0.00     0.000 C 
ATOM     32  C   UNL d   1       7.209  -1.358 -18.332  0.00  0.00     0.001 C 
ATOM     33  C   UNL d   1       5.974  -2.091 -17.759  0.00  0.00     0.000 C 
ATOM     34  C   UNL d   1       7.736  -0.341 -17.302  0.00  0.00     0.009 C 
ATOM     35  C   UNL d   1       4.858  -1.079 -17.435  0.00  0.00     0.001 C 
ATOM     36  C   UNL d   1       5.400  -0.098 -16.387  0.00  0.00     0.009 C 
ENDBRANCH  25  27
ENDBRANCH   1  24
TORSDOF 6
