REMARK  8 active torsions:
REMARK  status: ('A' for Active; 'I' for Inactive)
REMARK    1  A    between atoms: O_2  and  C_3 
REMARK    2  A    between atoms: C_8  and  N_9 
REMARK    3  A    between atoms: N_12  and  C_13 
REMARK    4  A    between atoms: C_13  and  C_14 
REMARK    5  A    between atoms: C_14  and  N_15 
REMARK       I    between atoms: N_15  and  C_16 
REMARK    6  A    between atoms: C_16  and  C_18 
REMARK    7  A    between atoms: N_20  and  C_21 
REMARK    8  A    between atoms: C_24  and  N_25 
ROOT
ATOM      1  N   UNL d   1       8.910   5.913 -11.194  0.00  0.00    -0.231 NA
ATOM      2  C   UNL d   1       9.326   7.184 -11.309  0.00  0.00     0.296 C 
ATOM      3  O   UNL d   1       9.241   7.819 -12.361  0.00  0.00    -0.264 OA
ENDROOT
BRANCH   1   4
ATOM      4  C   UNL d   1       8.511   5.068 -12.315  0.00  0.00     0.164 C 
BRANCH   4   5
ATOM      5  C   UNL d   1       9.745   4.669 -13.143  0.00  0.00     0.277 C 
BRANCH   5   6
ATOM      6  N   UNL d   1       9.360   3.908 -14.331  0.00  0.00     0.143 N 
ATOM      7  C   UNL d   1       9.620   2.480 -14.113  0.00  0.00     0.274 C 
ATOM      8  C   UNL d   1       9.202   1.643 -15.338  0.00  0.00     0.137 C 
ATOM      9  N   UNL d   1       9.855   2.150 -16.539  0.00  0.00    -0.343 N 
ATOM     10  C   UNL d   1       9.711   3.584 -16.760  0.00  0.00     0.137 C 
ATOM     11  C   UNL d   1      10.137   4.358 -15.494  0.00  0.00     0.274 C 
BRANCH   9  12
ATOM     12  C   UNL d   1      10.651   1.323 -17.355  0.00  0.00     0.079 A 
ATOM     13  C   UNL d   1      11.925   1.734 -17.831  0.00  0.00     0.110 A 
ATOM     14  C   UNL d   1      12.658   0.867 -18.686  0.00  0.00     0.026 A 
ATOM     15  C   UNL d   1      12.152  -0.399 -19.033  0.00  0.00     0.002 A 
ATOM     16  C   UNL d   1      10.902  -0.809 -18.542  0.00  0.00     0.002 A 
ATOM     17  C   UNL d   1      10.156   0.048 -17.711  0.00  0.00     0.019 A 
BRANCH  13  18
ATOM     18  O   UNL d   1      12.418   2.951 -17.403  0.00  0.00    -0.327 OA
ATOM     19  C   UNL d   1      13.575   3.478 -18.028  0.00  0.00     0.181 C 
ENDBRANCH  13  18
ENDBRANCH   9  12
ENDBRANCH   5   6
ENDBRANCH   4   5
ENDBRANCH   1   4
BRANCH   2  20
ATOM     20  C   UNL d   1       9.964   7.738 -10.082  0.00  0.00     0.181 A 
ATOM     21  N   UNL d   1      10.611   8.970 -10.037  0.00  0.00    -0.124 NA
ATOM     22  N   UNL d   1      11.058   9.182  -8.850  0.00  0.00    -0.059 NA
ATOM     23  N   UNL d   1      10.739   8.104  -8.094  0.00  0.00    -0.209 N 
ATOM     24  C   UNL d   1      10.045   7.166  -8.842  0.00  0.00     0.128 A 
BRANCH  23  25
ATOM     25  C   UNL d   1      11.105   8.050  -6.727  0.00  0.00     0.085 A 
ATOM     26  C   UNL d   1      11.512   9.204  -6.015  0.00  0.00     0.021 A 
ATOM     27  C   UNL d   1      11.881   9.112  -4.657  0.00  0.00     0.025 A 
ATOM     28  C   UNL d   1      11.865   7.870  -3.988  0.00  0.00     0.127 A 
ATOM     29  C   UNL d   1      11.458   6.729  -4.703  0.00  0.00     0.025 A 
ATOM     30  C   UNL d   1      11.075   6.813  -6.054  0.00  0.00     0.021 A 
BRANCH  28  31
ATOM     31  N   UNL d   1      12.253   7.764  -2.568  0.00  0.00    -0.114 N 
ATOM     32  O   UNL d   1      12.550   8.788  -1.968  0.00  0.00    -0.532 OA
ATOM     33  O   UNL d   1      12.262   6.650  -2.056  0.00  0.00    -0.532 OA
ENDBRANCH  28  31
ENDBRANCH  23  25
ENDBRANCH   2  20
TORSDOF 8
