REMARK  6 active torsions:
REMARK  status: ('A' for Active; 'I' for Inactive)
REMARK    1  A    between atoms: O_2  and  C_3 
REMARK    2  A    between atoms: N_7  and  C_8 
REMARK    3  A    between atoms: C_8  and  C_9 
REMARK    4  A    between atoms: C_11  and  C_12 
REMARK    5  A    between atoms: C_16  and  O_17 
REMARK    6  A    between atoms: O_17  and  C_18 
ROOT
ATOM      1  C   UNL d   1       8.921   3.909 -13.469  0.00  0.00     0.113 A 
ATOM      2  N   UNL d   1       8.417   4.152 -12.209  0.00  0.00    -0.223 NA
ATOM      3  C   UNL d   1       9.247   5.034 -11.658  0.00  0.00     0.182 A 
ATOM      4  O   UNL d   1      10.230   5.426 -12.507  0.00  0.00    -0.292 OA
ATOM      5  C   UNL d   1      10.014   4.716 -13.653  0.00  0.00     0.095 A 
ATOM      6  C   UNL d   1      10.950   4.955 -14.789  0.00  0.00     0.060 C 
ENDROOT
BRANCH   3   7
ATOM      7  C   UNL d   1       9.235   5.562 -10.303  0.00  0.00     0.043 A 
ATOM      8  C   UNL d   1      10.136   6.578  -9.893  0.00  0.00     0.028 A 
ATOM      9  C   UNL d   1      10.087   7.091  -8.580  0.00  0.00     0.100 A 
ATOM     10  C   UNL d   1       9.092   6.616  -7.691  0.00  0.00     0.025 A 
ATOM     11  C   UNL d   1       8.255   5.578  -8.083  0.00  0.00     0.002 A 
ATOM     12  C   UNL d   1       8.325   5.041  -9.372  0.00  0.00     0.004 A 
BRANCH   9  13
ATOM     13  O   UNL d   1      11.024   8.036  -8.206  0.00  0.00    -0.307 OA
BRANCH  13  14
ATOM     14  C   UNL d   1      11.244   8.239  -6.865  0.00  0.00     0.100 A 
ATOM     15  C   UNL d   1      11.266   9.556  -6.363  0.00  0.00     0.025 A 
ATOM     16  C   UNL d   1      11.461   9.781  -4.990  0.00  0.00     0.002 A 
ATOM     17  C   UNL d   1      11.678   8.708  -4.107  0.00  0.00     0.000 A 
ATOM     18  C   UNL d   1      11.664   7.388  -4.600  0.00  0.00     0.002 A 
ATOM     19  C   UNL d   1      11.460   7.159  -5.971  0.00  0.00     0.025 A 
ENDBRANCH  13  14
ENDBRANCH   9  13
ENDBRANCH   3   7
BRANCH   1  20
ATOM     20  C   UNL d   1       8.274   2.940 -14.400  0.00  0.00     0.297 C 
BRANCH  20  21
ATOM     21  N   UNL d   1       9.112   2.169 -15.315  0.00  0.00     0.146 N 
ATOM     22  C   UNL d   1       9.918   1.201 -14.573  0.00  0.00     0.251 C 
ATOM     23  C   UNL d   1      10.875   0.432 -15.482  0.00  0.00     0.038 C 
ATOM     24  C   UNL d   1      10.120  -0.272 -16.613  0.00  0.00     0.034 C 
ATOM     25  C   UNL d   1       9.219   0.739 -17.349  0.00  0.00     0.149 C 
ATOM     26  C   UNL d   1       8.321   1.484 -16.345  0.00  0.00     0.280 C 
BRANCH  25  27
ATOM     27  O   UNL d   1       8.390   0.091 -18.304  0.00  0.00    -0.352 OA
ATOM     28  C   UNL d   1       9.070  -0.355 -19.469  0.00  0.00     0.174 C 
ENDBRANCH  25  27
ENDBRANCH  20  21
ENDBRANCH   1  20
TORSDOF 6
