REMARK  3 active torsions:
REMARK  status: ('A' for Active; 'I' for Inactive)
REMARK    1  A    between atoms: C_2  and  C_3 
REMARK    2  A    between atoms: C_2  and  C_6 
REMARK    3  A    between atoms: C_11  and  C_12 
ROOT
ATOM      1  C   UNL d   1       8.874   5.990 -11.063  0.00  0.00    -0.011 A 
ATOM      2  C   UNL d   1       9.385   7.261 -11.442  0.00  0.00    -0.002 A 
ATOM      3  C   UNL d   1      10.011   8.101 -10.496  0.00  0.00     0.026 A 
ATOM      4  C   UNL d   1      10.098   7.651  -9.173  0.00  0.00     0.119 A 
ATOM      5  O   UNL d   1      10.662   8.285  -8.087  0.00  0.00    -0.288 OA
ATOM      6  C   UNL d   1      10.490   7.382  -7.075  0.00  0.00     0.182 A 
ATOM      7  N   UNL d   1       9.855   6.247  -7.406  0.00  0.00    -0.220 NA
ATOM      8  C   UNL d   1       9.594   6.404  -8.754  0.00  0.00     0.106 A 
ATOM      9  C   UNL d   1       8.971   5.576  -9.711  0.00  0.00     0.018 A 
ENDROOT
BRANCH   6  10
ATOM     10  C   UNL d   1      11.016   7.730  -5.762  0.00  0.00     0.041 A 
ATOM     11  C   UNL d   1      11.457   6.707  -4.891  0.00  0.00     0.004 A 
ATOM     12  C   UNL d   1      11.963   7.019  -3.614  0.00  0.00     0.011 A 
ATOM     13  C   UNL d   1      12.034   8.362  -3.205  0.00  0.00     0.058 A 
ATOM     14  C   UNL d   1      11.589   9.385  -4.067  0.00  0.00     0.011 A 
ATOM     15 CL   UNL d   1      12.652   8.747  -1.646  0.00  0.00    -0.082 Cl
ATOM     16  C   UNL d   1      11.092   9.077  -5.349  0.00  0.00     0.004 A 
ENDBRANCH   6  10
BRANCH   1  17
ATOM     17  C   UNL d   1       8.186   5.087 -12.092  0.00  0.00     0.110 C 
ATOM     18  C   UNL d   1       6.912   5.745 -12.655  0.00  0.00     0.016 C 
BRANCH  17  19
ATOM     19  C   UNL d   1       9.145   4.646 -13.218  0.00  0.00     0.189 C 
ATOM     20  O   UNL d   1      10.264   5.127 -13.397  0.00  0.00    -0.647 OA
ATOM     21  O   UNL d   1       8.580   3.684 -14.010  0.00  0.00    -0.647 OA
ENDBRANCH  17  19
ENDBRANCH   1  17
TORSDOF 3
