REMARK  1 active torsions:
REMARK  status: ('A' for Active; 'I' for Inactive)
REMARK    1  A    between atoms: C_17  and  C_18 
ROOT
ATOM      1  C   UNL d   1      11.864   6.405 -15.910  0.00  0.00     0.286 C 
ATOM      2  N   UNL d   1      11.902   4.944 -15.925  0.00  0.00     0.142 N 
ATOM      3  C   UNL d   1      12.237   4.539 -17.281  0.00  0.00     0.255 C 
ATOM      4  C   UNL d   1      12.553   3.046 -17.253  0.00  0.00     0.061 C 
ATOM      5  C   UNL d   1      11.452   2.175 -16.666  0.00  0.00    -0.022 A 
ATOM      6  C   UNL d   1      11.350   0.789 -16.848  0.00  0.00    -0.004 A 
ATOM      7  C   UNL d   1      10.346   0.073 -16.177  0.00  0.00    -0.000 A 
ATOM      8  C   UNL d   1       9.445   0.745 -15.334  0.00  0.00    -0.000 A 
ATOM      9  C   UNL d   1       9.431   2.156 -15.180  0.00  0.00    -0.003 A 
ATOM     10  C   UNL d   1      10.507   2.822 -15.829  0.00  0.00     0.005 A 
ATOM     11  C   UNL d   1      10.601   4.343 -15.586  0.00  0.00     0.246 C 
ATOM     12  C   UNL d   1      10.215   4.661 -14.120  0.00  0.00     0.064 C 
ATOM     13  C   UNL d   1       8.853   4.098 -13.765  0.00  0.00    -0.020 A 
ATOM     14  C   UNL d   1       8.026   4.818 -12.883  0.00  0.00    -0.004 A 
ATOM     15  C   UNL d   1       6.732   4.358 -12.610  0.00  0.00    -0.000 A 
ATOM     16  C   UNL d   1       6.257   3.208 -13.263  0.00  0.00    -0.000 A 
ATOM     17  C   UNL d   1       7.071   2.465 -14.153  0.00  0.00    -0.000 A 
ATOM     18  C   UNL d   1       8.425   2.885 -14.361  0.00  0.00    -0.004 A 
ENDROOT
BRANCH  17  19
ATOM     19  C   UNL d   1       6.447   1.308 -14.838  0.00  0.00    -0.000 A 
ATOM     20  C   UNL d   1       5.657   0.376 -14.125  0.00  0.00    -0.000 A 
ATOM     21  C   UNL d   1       5.040  -0.708 -14.781  0.00  0.00    -0.000 A 
ATOM     22  C   UNL d   1       5.210  -0.884 -16.165  0.00  0.00     0.000 A 
ATOM     23  C   UNL d   1       5.992   0.031 -16.893  0.00  0.00    -0.000 A 
ATOM     24  C   UNL d   1       6.590   1.126 -16.237  0.00  0.00    -0.000 A 
ENDBRANCH  17  19
TORSDOF 1
