REMARK  9 active torsions:
REMARK  status: ('A' for Active; 'I' for Inactive)
REMARK    1  A    between atoms: C_2  and  C_5 
REMARK    2  A    between atoms: C_7  and  N_8 
REMARK    3  A    between atoms: N_11  and  C_12 
REMARK    4  A    between atoms: C_12  and  C_13 
REMARK    5  A    between atoms: C_13  and  C_14 
REMARK    6  A    between atoms: C_14  and  C_15 
REMARK    7  A    between atoms: C_15  and  N_16 
REMARK       I    between atoms: N_16  and  C_17 
REMARK    8  A    between atoms: C_17  and  C_19 
REMARK    9  A    between atoms: C_31  and  C_32 
ROOT
ATOM      1  N   UNL d   1       8.955   3.050 -14.342  0.00  0.00    -0.344 N 
ATOM      2  C   UNL d   1      10.242   3.700 -14.604  0.00  0.00     0.137 C 
ATOM      3  C   UNL d   1      10.020   5.207 -14.415  0.00  0.00     0.274 C 
ATOM      4  N   UNL d   1       9.622   5.499 -13.044  0.00  0.00     0.141 N 
ATOM      5  C   UNL d   1       8.312   4.904 -12.818  0.00  0.00     0.274 C 
ATOM      6  C   UNL d   1       8.406   3.408 -13.046  0.00  0.00     0.137 C 
ENDROOT
BRANCH   4   7
ATOM      7  C   UNL d   1       9.458   6.927 -12.808  0.00  0.00     0.251 C 
BRANCH   7   8
ATOM      8  C   UNL d   1       9.541   7.242 -11.325  0.00  0.00     0.037 C 
BRANCH   8   9
ATOM      9  C   UNL d   1       9.887   8.713 -11.159  0.00  0.00     0.029 C 
BRANCH   9  10
ATOM     10  C   UNL d   1       9.535   9.302  -9.800  0.00  0.00     0.129 C 
BRANCH  10  11
ATOM     11  N   UNL d   1       9.759   8.425  -8.662  0.00  0.00    -0.233 NA
ATOM     12  C   UNL d   1      10.977   8.030  -8.271  0.00  0.00     0.294 C 
ATOM     13  O   UNL d   1      11.929   7.824  -9.020  0.00  0.00    -0.264 OA
BRANCH  12  14
ATOM     14  C   UNL d   1      11.118   8.005  -6.810  0.00  0.00     0.158 A 
ATOM     15  N   UNL d   1      11.333   6.872  -6.044  0.00  0.00    -0.222 NA
ATOM     16  C   UNL d   1      11.550   7.330  -4.811  0.00  0.00     0.148 A 
ATOM     17  N   UNL d   1      11.433   8.740  -4.774  0.00  0.00    -0.288 N 
ATOM     18  C   UNL d   1      11.883   6.677  -3.613  0.00  0.00     0.037 A 
ATOM     19  C   UNL d   1      11.136   9.144  -6.052  0.00  0.00     0.106 A 
ATOM     20  C   UNL d   1      11.605   9.463  -3.630  0.00  0.00     0.082 A 
ATOM     21  C   UNL d   1      11.905   8.806  -2.466  0.00  0.00     0.019 A 
ATOM     22  C   UNL d   1      12.057   7.400  -2.461  0.00  0.00     0.005 A 
ENDBRANCH  12  14
ENDBRANCH  10  11
ENDBRANCH   9  10
ENDBRANCH   8   9
ENDBRANCH   7   8
ENDBRANCH   4   7
BRANCH   1  23
ATOM     23  C   UNL d   1       8.310   2.155 -15.219  0.00  0.00     0.056 A 
ATOM     24  C   UNL d   1       7.343   1.214 -14.771  0.00  0.00     0.013 A 
ATOM     25  C   UNL d   1       6.686   0.334 -15.685  0.00  0.00    -0.022 A 
ATOM     26  C   UNL d   1       7.041   0.407 -17.053  0.00  0.00    -0.009 A 
ATOM     27  C   UNL d   1       7.987   1.346 -17.534  0.00  0.00    -0.022 A 
ATOM     28  C   UNL d   1       8.619   2.215 -16.594  0.00  0.00     0.013 A 
BRANCH  25  29
ATOM     29  C   UNL d   1       5.655  -0.675 -15.157  0.00  0.00     0.019 C 
ATOM     30  C   UNL d   1       4.372   0.030 -14.740  0.00  0.00     0.004 C 
ATOM     31  C   UNL d   1       6.120  -1.367 -13.896  0.00  0.00     0.004 C 
ATOM     32  C   UNL d   1       5.271  -1.738 -16.217  0.00  0.00     0.004 C 
ENDBRANCH  25  29
BRANCH  27  33
ATOM     33  C   UNL d   1       8.338   1.398 -19.041  0.00  0.00     0.019 C 
ATOM     34  C   UNL d   1       8.948   2.749 -19.476  0.00  0.00     0.004 C 
ATOM     35  C   UNL d   1       7.069   1.176 -19.912  0.00  0.00     0.004 C 
ATOM     36  C   UNL d   1       9.353   0.282 -19.345  0.00  0.00     0.004 C 
ENDBRANCH  27  33
ENDBRANCH   1  23
TORSDOF 9
