REMARK  6 active torsions:
REMARK  status: ('A' for Active; 'I' for Inactive)
REMARK       I    between atoms: C_2  and  N_3 
REMARK    1  A    between atoms: C_2  and  C_22 
REMARK    2  A    between atoms: N_3  and  C_4 
REMARK    3  A    between atoms: C_4  and  C_5 
REMARK    4  A    between atoms: C_5  and  C_6 
REMARK    5  A    between atoms: C_6  and  C_7 
REMARK    6  A    between atoms: C_7  and  N_8 
ROOT
ATOM      1  N   UNL d   1       9.336   2.099 -15.660  0.00  0.00     0.143 N 
ATOM      2  C   UNL d   1       9.408   3.116 -16.710  0.00  0.00     0.282 C 
ATOM      3  C   UNL d   1       9.048   2.566 -18.099  0.00  0.00     0.178 C 
ATOM      4  O   UNL d   1       7.776   1.925 -18.040  0.00  0.00    -0.348 OA
ATOM      5  C   UNL d   1       7.745   0.859 -17.091  0.00  0.00     0.173 C 
ATOM      6  C   UNL d   1       6.429   0.103 -17.102  0.00  0.00     0.029 A 
ATOM      7  C   UNL d   1       5.776  -0.151 -18.324  0.00  0.00     0.000 A 
ATOM      8  C   UNL d   1       4.558  -0.859 -18.341  0.00  0.00    -0.000 A 
ATOM      9  C   UNL d   1       3.999  -1.320 -17.136  0.00  0.00     0.002 A 
ATOM     10  C   UNL d   1       4.652  -1.074 -15.913  0.00  0.00     0.024 A 
ATOM     11  C   UNL d   1       5.875  -0.371 -15.884  0.00  0.00     0.092 A 
ATOM     12  O   UNL d   1       6.470  -0.151 -14.661  0.00  0.00    -0.329 OA
ATOM     13  C   UNL d   1       7.823   0.303 -14.663  0.00  0.00     0.185 C 
ATOM     14  C   UNL d   1       8.028   1.433 -15.694  0.00  0.00     0.280 C 
ENDROOT
BRANCH   1  15
ATOM     15  C   UNL d   1       9.706   2.638 -14.348  0.00  0.00     0.251 C 
BRANCH  15  16
ATOM     16  C   UNL d   1       8.661   3.566 -13.693  0.00  0.00     0.037 C 
BRANCH  16  17
ATOM     17  C   UNL d   1       9.205   4.293 -12.464  0.00  0.00     0.029 C 
BRANCH  17  18
ATOM     18  C   UNL d   1       8.099   5.064 -11.720  0.00  0.00     0.129 C 
BRANCH  18  19
ATOM     19  N   UNL d   1       8.656   5.977 -10.737  0.00  0.00    -0.234 NA
ATOM     20  C   UNL d   1       9.156   5.617  -9.547  0.00  0.00     0.275 C 
ATOM     21  O   UNL d   1       9.170   4.459  -9.128  0.00  0.00    -0.266 OA
BRANCH  20  22
ATOM     22  C   UNL d   1       9.705   6.739  -8.724  0.00  0.00     0.058 A 
ATOM     23  C   UNL d   1      10.495   7.757  -9.310  0.00  0.00     0.005 A 
ATOM     24  C   UNL d   1      11.023   8.789  -8.508  0.00  0.00     0.007 A 
ATOM     25  C   UNL d   1      10.767   8.806  -7.123  0.00  0.00     0.035 A 
ATOM     26  C   UNL d   1       9.988   7.791  -6.538  0.00  0.00     0.007 A 
ATOM     27 BR   UNL d   1      11.461  10.203  -6.039  0.00  0.00    -0.049 Br
ATOM     28  C   UNL d   1       9.458   6.764  -7.336  0.00  0.00     0.005 A 
ENDBRANCH  20  22
ENDBRANCH  18  19
ENDBRANCH  17  18
ENDBRANCH  16  17
ENDBRANCH  15  16
ENDBRANCH   1  15
TORSDOF 6
