REMARK  6 active torsions:
REMARK  status: ('A' for Active; 'I' for Inactive)
REMARK       I    between atoms: C_2  and  N_3 
REMARK    1  A    between atoms: C_2  and  C_22 
REMARK    2  A    between atoms: N_3  and  C_4 
REMARK    3  A    between atoms: C_4  and  C_5 
REMARK    4  A    between atoms: C_5  and  C_6 
REMARK    5  A    between atoms: C_6  and  C_7 
REMARK    6  A    between atoms: C_7  and  N_8 
ROOT
ATOM      1  C   UNL d   1       8.236   5.772 -11.183  0.00  0.00     0.037 C 
ENDROOT
BRANCH   1   2
ATOM      2  C   UNL d   1       7.848   4.383 -11.648  0.00  0.00     0.029 C 
BRANCH   2   3
ATOM      3  C   UNL d   1       7.322   4.388 -13.077  0.00  0.00     0.129 C 
BRANCH   3   4
ATOM      4  N   UNL d   1       8.364   4.123 -14.091  0.00  0.00    -0.234 NA
ATOM      5  C   UNL d   1       9.685   4.399 -14.073  0.00  0.00     0.275 C 
ATOM      6  O   UNL d   1      10.255   5.090 -13.182  0.00  0.00    -0.266 OA
BRANCH   5   7
ATOM      7  C   UNL d   1      10.477   3.846 -15.216  0.00  0.00     0.058 A 
ATOM      8  C   UNL d   1      10.385   2.505 -15.667  0.00  0.00     0.005 A 
ATOM      9  C   UNL d   1      11.241   2.094 -16.721  0.00  0.00     0.000 A 
ATOM     10  C   UNL d   1       9.497   1.552 -15.110  0.00  0.00     0.000 A 
ATOM     11  C   UNL d   1      12.182   2.987 -17.281  0.00  0.00     0.000 A 
ATOM     12  C   UNL d   1      11.183   0.771 -17.216  0.00  0.00     0.000 A 
ATOM     13  C   UNL d   1      12.274   4.309 -16.811  0.00  0.00     0.000 A 
ATOM     14  C   UNL d   1      11.425   4.729 -15.782  0.00  0.00     0.005 A 
ATOM     15  C   UNL d   1      10.258  -0.149 -16.681  0.00  0.00     0.000 A 
ATOM     16  C   UNL d   1       9.419   0.240 -15.627  0.00  0.00     0.000 A 
ENDBRANCH   5   7
ENDBRANCH   3   4
ENDBRANCH   2   3
ENDBRANCH   1   2
BRANCH   1  17
ATOM     17  C   UNL d   1       8.962   5.790  -9.822  0.00  0.00     0.251 C 
BRANCH  17  18
ATOM     18  N   UNL d   1       9.623   7.052  -9.451  0.00  0.00     0.143 N 
ATOM     19  C   UNL d   1      10.238   7.043  -8.111  0.00  0.00     0.280 C 
ATOM     20  C   UNL d   1      10.842   8.432  -7.799  0.00  0.00     0.173 C 
ATOM     21  C   UNL d   1       9.319   6.676  -6.935  0.00  0.00     0.185 C 
ATOM     22  O   UNL d   1      11.858   8.728  -8.750  0.00  0.00    -0.348 OA
ATOM     23  C   UNL d   1      11.350   8.523  -6.386  0.00  0.00     0.029 A 
ATOM     24  C   UNL d   1      11.340   8.771 -10.066  0.00  0.00     0.178 C 
ATOM     25  C   UNL d   1      10.665   7.436 -10.404  0.00  0.00     0.282 C 
ATOM     26  C   UNL d   1      10.944   7.581  -5.419  0.00  0.00     0.092 A 
ATOM     27  C   UNL d   1      12.258   9.542  -6.029  0.00  0.00     0.000 A 
ATOM     28  C   UNL d   1      11.463   7.636  -4.111  0.00  0.00     0.024 A 
ATOM     29  O   UNL d   1      10.048   6.574  -5.716  0.00  0.00    -0.329 OA
ATOM     30  C   UNL d   1      12.371   8.651  -3.753  0.00  0.00     0.002 A 
ATOM     31  C   UNL d   1      12.784   9.570  -4.729  0.00  0.00    -0.000 A 
ENDBRANCH  17  18
ENDBRANCH   1  17
TORSDOF 6
