REMARK  13 active torsions:
REMARK  status: ('A' for Active; 'I' for Inactive)
REMARK    1  A    between atoms: C_2  and  C_3 
REMARK    2  A    between atoms: C_3  and  N_4 
REMARK    3  A    between atoms: N_4  and  C_5 
REMARK    4  A    between atoms: N_4  and  C_24 
REMARK    5  A    between atoms: C_5  and  C_6 
REMARK    6  A    between atoms: C_6  and  C_7 
REMARK    7  A    between atoms: C_7  and  C_8 
REMARK    8  A    between atoms: C_8  and  N_9 
REMARK       I    between atoms: N_9  and  C_10 
REMARK    9  A    between atoms: C_10  and  C_12 
REMARK   10  A    between atoms: C_15  and  C_16 
REMARK   11  A    between atoms: C_24  and  C_25 
REMARK   12  A    between atoms: C_27  and  C_28 
REMARK   13  A    between atoms: C_34  and  O_35 
ROOT
ATOM      1  C   UNL d   1       9.964   3.174 -14.563  0.00  0.00     0.250 C 
ENDROOT
BRANCH   1   2
ATOM      2  N   UNL d   1       9.943   3.157 -16.041  0.00  0.00     0.137 N 
BRANCH   2   3
ATOM      3  C   UNL d   1      11.206   2.594 -16.538  0.00  0.00     0.250 C 
BRANCH   3   4
ATOM      4  C   UNL d   1      12.393   3.544 -16.319  0.00  0.00     0.035 C 
ATOM      5  C   UNL d   1      12.216   4.850 -17.104  0.00  0.00     0.002 C 
ENDBRANCH   3   4
ENDBRANCH   2   3
BRANCH   2   6
ATOM      6  C   UNL d   1       8.813   2.316 -16.448  0.00  0.00     0.251 C 
BRANCH   6   7
ATOM      7  C   UNL d   1       8.979   1.580 -17.782  0.00  0.00     0.038 A 
ATOM      8  C   UNL d   1       8.048   0.432 -18.152  0.00  0.00     0.026 A 
ATOM      9  C   UNL d   1       9.492   0.141 -17.824  0.00  0.00     0.007 A 
BRANCH   8  10
ATOM     10  C   UNL d   1       6.946   0.019 -17.220  0.00  0.00     0.001 A 
ATOM     11  C   UNL d   1       5.633  -0.218 -17.686  0.00  0.00     0.090 A 
ATOM     12  C   UNL d   1       4.646  -0.608 -16.738  0.00  0.00     0.025 A 
ATOM     13  C   UNL d   1       4.912  -0.663 -15.355  0.00  0.00     0.013 A 
ATOM     14  C   UNL d   1       6.216  -0.395 -14.915  0.00  0.00     0.058 A 
ATOM     15  C   UNL d   1       7.211  -0.120 -15.835  0.00  0.00     0.009 A 
ATOM     16 CL   UNL d   1       6.580  -0.412 -13.247  0.00  0.00    -0.082 Cl
BRANCH  11  17
ATOM     17  O   UNL d   1       5.380  -0.102 -19.039  0.00  0.00    -0.328 OA
ATOM     18  C   UNL d   1       4.068  -0.388 -19.501  0.00  0.00     0.181 C 
ENDBRANCH  11  17
ENDBRANCH   8  10
ENDBRANCH   6   7
ENDBRANCH   2   6
ENDBRANCH   1   2
BRANCH   1  19
ATOM     19  C   UNL d   1       9.052   4.274 -14.010  0.00  0.00     0.037 C 
BRANCH  19  20
ATOM     20  C   UNL d   1       9.407   4.611 -12.554  0.00  0.00     0.029 C 
BRANCH  20  21
ATOM     21  C   UNL d   1       8.733   5.897 -12.073  0.00  0.00     0.129 C 
BRANCH  21  22
ATOM     22  N   UNL d   1       9.235   6.263 -10.756  0.00  0.00    -0.234 NA
ATOM     23  C   UNL d   1       9.749   7.457 -10.427  0.00  0.00     0.275 C 
ATOM     24  O   UNL d   1       9.860   8.386 -11.227  0.00  0.00    -0.266 OA
BRANCH  23  25
ATOM     25  C   UNL d   1      10.185   7.617  -8.997  0.00  0.00     0.058 A 
ATOM     26  C   UNL d   1       9.569   6.877  -7.958  0.00  0.00     0.005 A 
ATOM     27  C   UNL d   1       9.985   7.045  -6.625  0.00  0.00     0.002 A 
ATOM     28  C   UNL d   1      11.014   7.952  -6.292  0.00  0.00     0.018 A 
ATOM     29  C   UNL d   1      11.613   8.699  -7.332  0.00  0.00     0.002 A 
ATOM     30  C   UNL d   1      11.207   8.531  -8.670  0.00  0.00     0.005 A 
BRANCH  28  31
ATOM     31  C   UNL d   1      11.459   8.110  -4.897  0.00  0.00     0.081 A 
ATOM     32  N   UNL d   1      11.470   9.376  -4.422  0.00  0.00    -0.244 NA
ATOM     33  C   UNL d   1      11.862   9.581  -3.148  0.00  0.00     0.099 A 
ATOM     34  C   UNL d   1      12.268   8.546  -2.288  0.00  0.00     0.021 A 
ATOM     35  C   UNL d   1      12.257   7.228  -2.775  0.00  0.00     0.003 A 
ATOM     36  C   UNL d   1      11.843   7.006  -4.101  0.00  0.00     0.019 A 
ENDBRANCH  28  31
ENDBRANCH  23  25
ENDBRANCH  21  22
ENDBRANCH  20  21
ENDBRANCH  19  20
ENDBRANCH   1  19
TORSDOF 13
