REMARK  6 active torsions:
REMARK  status: ('A' for Active; 'I' for Inactive)
REMARK    1  A    between atoms: C_8  and  O_9 
REMARK    2  A    between atoms: O_9  and  C_10 
REMARK    3  A    between atoms: C_10  and  C_11 
REMARK    4  A    between atoms: C_12  and  C_13 
REMARK    5  A    between atoms: C_13  and  N_14 
REMARK    6  A    between atoms: N_17  and  C_18 
ROOT
ATOM      1  C   UNL d   1       7.002   1.910 -15.149  0.00  0.00    -0.056 C 
ATOM      2  C   UNL d   1       6.888   2.585 -14.140  0.00  0.00    -0.053 C 
ENDROOT
BRANCH   2   3
ATOM      3  C   UNL d   1       6.751   3.401 -12.939  0.00  0.00     0.326 C 
BRANCH   3   4
ATOM      4  N   UNL d   1       6.711   4.825 -13.206  0.00  0.00     0.154 N 
ATOM      5  C   UNL d   1       8.046   5.316 -13.619  0.00  0.00     0.276 C 
ATOM      6  C   UNL d   1       9.080   5.093 -12.484  0.00  0.00     0.137 C 
ATOM      7  N   UNL d   1       8.581   5.696 -11.301  0.00  0.00    -0.344 N 
ATOM      8  C   UNL d   1       7.233   5.412 -10.884  0.00  0.00     0.137 C 
ATOM      9  C   UNL d   1       6.268   5.608 -12.065  0.00  0.00     0.276 C 
BRANCH   7  10
ATOM     10  C   UNL d   1       9.388   6.605 -10.510  0.00  0.00     0.068 A 
ATOM     11  C   UNL d   1       9.652   6.313  -9.164  0.00  0.00     0.084 A 
ATOM     12  C   UNL d   1      10.436   7.208  -8.406  0.00  0.00     0.070 A 
ATOM     13 CL   UNL d   1       9.063   4.856  -8.436  0.00  0.00    -0.080 Cl
ATOM     14  C   UNL d   1      10.928   8.392  -8.991  0.00  0.00     0.012 A 
ATOM     15 CL   UNL d   1      10.816   6.880  -6.753  0.00  0.00    -0.081 Cl
ATOM     16  C   UNL d   1      10.643   8.678 -10.338  0.00  0.00     0.002 A 
ATOM     17  C   UNL d   1       9.839   7.787 -11.097  0.00  0.00     0.018 A 
ENDBRANCH   7  10
ENDBRANCH   3   4
ENDBRANCH   2   3
BRANCH   1  18
ATOM     18  C   UNL d   1       7.108   1.100 -16.365  0.00  0.00     0.224 C 
BRANCH  18  19
ATOM     19  O   UNL d   1       6.231  -0.027 -16.238  0.00  0.00    -0.317 OA
BRANCH  19  20
ATOM     20  C   UNL d   1       6.048  -0.798 -17.371  0.00  0.00     0.097 A 
ATOM     21  C   UNL d   1       6.812  -0.615 -18.540  0.00  0.00     0.024 A 
ATOM     22  C   UNL d   1       6.595  -1.411 -19.657  0.00  0.00    -0.001 A 
ATOM     23  C   UNL d   1       5.607  -2.411 -19.627  0.00  0.00    -0.004 A 
ATOM     24  C   UNL d   1       5.374  -3.315 -20.815  0.00  0.00     0.038 C 
ATOM     25  C   UNL d   1       4.828  -2.610 -18.463  0.00  0.00     0.082 A 
ATOM     26  C   UNL d   1       3.915  -3.798 -20.894  0.00  0.00     0.095 C 
ATOM     27  C   UNL d   1       3.384  -4.248 -19.525  0.00  0.00     0.256 C 
ATOM     28  O   UNL d   1       2.542  -5.153 -19.460  0.00  0.00    -0.270 OA
ATOM     29  N   UNL d   1       3.840  -3.615 -18.439  0.00  0.00    -0.212 NA
ATOM     30  C   UNL d   1       5.052  -1.809 -17.324  0.00  0.00     0.043 A 
ENDBRANCH  19  20
ENDBRANCH  18  19
ENDBRANCH   1  18
TORSDOF 6
