REMARK  8 active torsions:
REMARK  status: ('A' for Active; 'I' for Inactive)
REMARK    1  A    between atoms: C_2  and  C_4 
REMARK    2  A    between atoms: C_9  and  O_10 
REMARK    3  A    between atoms: O_10  and  C_11 
REMARK    4  A    between atoms: C_11  and  C_12 
REMARK    5  A    between atoms: C_12  and  N_13 
REMARK    6  A    between atoms: C_16  and  N_17 
REMARK    7  A    between atoms: N_17  and  S_18 
REMARK    8  A    between atoms: S_18  and  C_21 
ROOT
ATOM      1  N   UNL d   1       9.797   6.961 -11.343  0.00  0.00     0.142 N 
ATOM      2  C   UNL d   1       9.612   8.404 -11.284  0.00  0.00     0.253 C 
ATOM      3  C   UNL d   1      10.693   8.877 -10.310  0.00  0.00     0.063 C 
ATOM      4  C   UNL d   1      10.950   7.647  -9.441  0.00  0.00     0.151 C 
ATOM      5  C   UNL d   1      10.031   6.567  -9.967  0.00  0.00     0.275 C 
ENDROOT
BRANCH   1   6
ATOM      6  C   UNL d   1       8.665   6.290 -11.953  0.00  0.00     0.283 C 
BRANCH   6   7
ATOM      7  C   UNL d   1       9.030   4.815 -12.181  0.00  0.00     0.184 C 
BRANCH   7   8
ATOM      8  O   UNL d   1       7.889   4.191 -12.786  0.00  0.00    -0.329 OA
BRANCH   8   9
ATOM      9  C   UNL d   1       7.993   3.191 -13.741  0.00  0.00     0.090 A 
ATOM     10  C   UNL d   1       6.828   2.437 -14.034  0.00  0.00    -0.000 A 
ATOM     11  C   UNL d   1       6.867   1.388 -14.988  0.00  0.00    -0.002 A 
ATOM     12  C   UNL d   1       8.063   1.102 -15.659  0.00  0.00    -0.000 A 
ATOM     13  C   UNL d   1       9.211   1.853 -15.378  0.00  0.00     0.002 A 
ATOM     14  C   UNL d   1       9.190   2.891 -14.421  0.00  0.00     0.024 A 
BRANCH  10  15
ATOM     15  C   UNL d   1       5.524   2.650 -13.276  0.00  0.00     0.024 C 
ATOM     16  C   UNL d   1       4.965   4.073 -13.417  0.00  0.00     0.005 C 
ATOM     17  C   UNL d   1       5.602   2.263 -11.815  0.00  0.00     0.005 C 
ENDBRANCH  10  15
ENDBRANCH   8   9
ENDBRANCH   7   8
ENDBRANCH   6   7
ENDBRANCH   1   6
BRANCH   4  18
ATOM     18  N   UNL d   1      10.628   7.887  -8.024  0.00  0.00    -0.184 NA
BRANCH  18  19
ATOM     19  S   UNL d   1      11.681   8.917  -7.138  0.00  0.00     0.287 S 
ATOM     20  O   UNL d   1      13.017   8.795  -7.717  0.00  0.00    -0.198 OA
ATOM     21  O   UNL d   1      11.043  10.206  -6.811  0.00  0.00    -0.198 OA
BRANCH  19  22
ATOM     22  C   UNL d   1      11.751   8.220  -5.578  0.00  0.00     0.135 A 
ATOM     23  S   UNL d   1      12.434   9.191  -4.330  0.00  0.00    -0.062 SA
ATOM     24  C   UNL d   1      12.097   7.929  -3.229  0.00  0.00     0.088 A 
ATOM     25  C   UNL d   1      11.485   6.838  -3.782  0.00  0.00     0.019 A 
ATOM     26 CL   UNL d   1      12.544   8.219  -1.642  0.00  0.00    -0.075 Cl
ATOM     27  C   UNL d   1      11.249   7.029  -5.164  0.00  0.00     0.021 A 
ENDBRANCH  19  22
ENDBRANCH  18  19
ENDBRANCH   4  18
TORSDOF 8
