REMARK  3 active torsions:
REMARK  status: ('A' for Active; 'I' for Inactive)
REMARK    1  A    between atoms: C_2  and  C_3 
REMARK    2  A    between atoms: N_14  and  C_15 
REMARK    3  A    between atoms: C_15  and  C_16 
ROOT
ATOM      1  C   UNL d   1       8.941   6.396  -8.810  0.00  0.00     0.008 C 
ATOM      2  C   UNL d   1       9.468   6.525 -10.045  0.00  0.00     0.013 C 
ATOM      3  C   UNL d   1      10.408   7.681 -10.295  0.00  0.00     0.065 C 
ATOM      4  C   UNL d   1      10.392   8.752  -9.176  0.00  0.00     0.256 C 
ATOM      5  N   UNL d   1      10.468   8.079  -7.870  0.00  0.00     0.146 N 
ATOM      6  C   UNL d   1       9.224   7.309  -7.639  0.00  0.00     0.277 C 
ENDROOT
BRANCH   2   7
ATOM      7  C   UNL d   1       9.020   5.656 -11.128  0.00  0.00     0.158 A 
ATOM      8  N   UNL d   1       7.761   5.181 -11.206  0.00  0.00    -0.226 NA
ATOM      9  C   UNL d   1       7.708   4.391 -12.338  0.00  0.00     0.101 A 
ATOM     10  C   UNL d   1       9.039   4.459 -12.858  0.00  0.00     0.101 A 
ATOM     11  C   UNL d   1       6.715   3.632 -12.968  0.00  0.00     0.021 A 
ATOM     12  N   UNL d   1       9.846   5.283 -12.114  0.00  0.00    -0.226 NA
ATOM     13  C   UNL d   1       9.361   3.723 -14.009  0.00  0.00     0.021 A 
ATOM     14  C   UNL d   1       8.375   2.944 -14.633  0.00  0.00     0.002 A 
ATOM     15  C   UNL d   1       7.057   2.899 -14.120  0.00  0.00     0.002 A 
ENDBRANCH   2   7
BRANCH   5  16
ATOM     16  C   UNL d   1      10.715   9.059  -6.804  0.00  0.00     0.277 C 
BRANCH  16  17
ATOM     17  C   UNL d   1      11.283   8.467  -5.506  0.00  0.00     0.011 A 
ATOM     18  C   UNL d   1      11.183   7.090  -5.182  0.00  0.00    -0.002 A 
ATOM     19  C   UNL d   1      11.653   6.667  -3.923  0.00  0.00    -0.000 A 
ATOM     20  C   UNL d   1      12.321   7.519  -3.013  0.00  0.00    -0.000 A 
ATOM     21  C   UNL d   1      12.500   8.865  -3.386  0.00  0.00    -0.000 A 
ATOM     22  C   UNL d   1      11.964   9.337  -4.609  0.00  0.00    -0.002 A 
ENDBRANCH  16  17
ENDBRANCH   5  16
TORSDOF 3
