REMARK  3 active torsions:
REMARK  status: ('A' for Active; 'I' for Inactive)
REMARK    1  A    between atoms: C_4  and  C_5 
REMARK    2  A    between atoms: C_5  and  N_6 
REMARK    3  A    between atoms: N_9  and  C_10 
ROOT
ATOM      1  N   UNL d   1       9.433   6.906 -10.287  0.00  0.00     0.145 N 
ATOM      2  C   UNL d   1      10.300   8.023  -9.906  0.00  0.00     0.275 C 
ATOM      3  C   UNL d   1       9.909   8.515  -8.510  0.00  0.00     0.137 C 
ATOM      4  N   UNL d   1       9.995   7.415  -7.568  0.00  0.00    -0.343 N 
ATOM      5  C   UNL d   1       9.202   6.244  -7.935  0.00  0.00     0.137 C 
ATOM      6  C   UNL d   1       9.569   5.785  -9.354  0.00  0.00     0.275 C 
ENDROOT
BRANCH   4   7
ATOM      7  C   UNL d   1      10.731   7.498  -6.366  0.00  0.00     0.076 C 
ATOM      8  C   UNL d   1      10.852   8.666  -5.597  0.00  0.00     0.116 A 
ATOM      9  C   UNL d   1      11.585   8.688  -4.359  0.00  0.00     0.102 A 
ATOM     10  N   UNL d   1      10.341   9.886  -5.869  0.00  0.00    -0.221 NA
ATOM     11  C   UNL d   1      12.219   7.558  -3.871  0.00  0.00     0.021 C 
ATOM     12  N   UNL d   1      11.461   9.970  -3.896  0.00  0.00    -0.223 NA
ATOM     13  C   UNL d   1      12.054   6.385  -4.630  0.00  0.00     0.003 C 
ATOM     14  C   UNL d   1      11.420   6.390  -5.891  0.00  0.00     0.018 C 
ATOM     15  C   UNL d   1      10.726  10.576  -4.834  0.00  0.00     0.199 A 
ENDBRANCH   4   7
BRANCH   1  16
ATOM     16  C   UNL d   1       9.698   6.499 -11.653  0.00  0.00     0.277 C 
BRANCH  16  17
ATOM     17  C   UNL d   1       8.659   5.596 -12.271  0.00  0.00     0.011 A 
ATOM     18  C   UNL d   1       7.295   5.959 -12.240  0.00  0.00    -0.002 A 
ATOM     19  C   UNL d   1       6.333   5.120 -12.827  0.00  0.00    -0.000 A 
ATOM     20  C   UNL d   1       6.731   3.932 -13.467  0.00  0.00    -0.000 A 
ATOM     21  C   UNL d   1       8.096   3.585 -13.528  0.00  0.00    -0.000 A 
ATOM     22  C   UNL d   1       9.059   4.415 -12.917  0.00  0.00    -0.002 A 
ENDBRANCH  16  17
ENDBRANCH   1  16
TORSDOF 3
