REMARK  7 active torsions:
REMARK  status: ('A' for Active; 'I' for Inactive)
REMARK    1  A    between atoms: O_2  and  C_3 
REMARK    2  A    between atoms: N_13  and  C_14 
REMARK    3  A    between atoms: C_14  and  C_15 
REMARK    4  A    between atoms: C_15  and  C_16 
REMARK    5  A    between atoms: C_16  and  C_17 
REMARK    6  A    between atoms: C_17  and  N_18 
REMARK       I    between atoms: N_18  and  C_19 
REMARK    7  A    between atoms: C_19  and  C_21 
ROOT
ATOM      1  C   UNL d   1       7.682   5.672 -11.383  0.00  0.00     0.251 C 
ENDROOT
BRANCH   1   2
ATOM      2  N   UNL d   1       7.285   4.730 -12.435  0.00  0.00     0.143 N 
ATOM      3  C   UNL d   1       6.232   3.812 -11.990  0.00  0.00     0.282 C 
ATOM      4  C   UNL d   1       5.763   2.855 -13.101  0.00  0.00     0.178 C 
ATOM      5  O   UNL d   1       6.840   2.168 -13.666  0.00  0.00    -0.348 OA
ATOM      6  C   UNL d   1       7.904   3.035 -14.104  0.00  0.00     0.173 C 
ATOM      7  C   UNL d   1       9.037   2.358 -14.825  0.00  0.00     0.031 A 
ATOM      8  C   UNL d   1       8.401   3.981 -13.015  0.00  0.00     0.280 C 
ATOM      9  C   UNL d   1      10.341   2.902 -14.738  0.00  0.00     0.092 A 
ATOM     10  C   UNL d   1       8.790   1.208 -15.595  0.00  0.00     0.024 A 
ATOM     11  C   UNL d   1      11.388   2.251 -15.408  0.00  0.00     0.026 A 
ATOM     12  O   UNL d   1      10.638   4.037 -14.016  0.00  0.00    -0.329 OA
ATOM     13  C   UNL d   1      11.144   1.092 -16.168  0.00  0.00     0.026 A 
ATOM     14  C   UNL d   1       9.835   0.563 -16.277  0.00  0.00     0.094 A 
ATOM     15  C   UNL d   1       9.545   4.845 -13.596  0.00  0.00     0.185 C 
BRANCH  14  16
ATOM     16  O   UNL d   1       9.524  -0.571 -16.989  0.00  0.00    -0.328 OA
ATOM     17  C   UNL d   1      10.416  -0.991 -18.010  0.00  0.00     0.181 C 
ENDBRANCH  14  16
ENDBRANCH   1   2
BRANCH   1  18
ATOM     18  C   UNL d   1       8.489   5.053 -10.227  0.00  0.00     0.037 C 
BRANCH  18  19
ATOM     19  C   UNL d   1       8.902   6.083  -9.193  0.00  0.00     0.029 C 
BRANCH  19  20
ATOM     20  C   UNL d   1       9.753   5.454  -8.102  0.00  0.00     0.129 C 
BRANCH  20  21
ATOM     21  N   UNL d   1      10.060   6.394  -7.044  0.00  0.00    -0.234 NA
ATOM     22  C   UNL d   1      10.999   7.339  -7.110  0.00  0.00     0.275 C 
ATOM     23  O   UNL d   1      11.726   7.572  -8.080  0.00  0.00    -0.266 OA
BRANCH  22  24
ATOM     24  C   UNL d   1      11.040   8.246  -5.940  0.00  0.00     0.058 A 
ATOM     25  C   UNL d   1      11.475   7.849  -4.655  0.00  0.00     0.005 A 
ATOM     26  C   UNL d   1      11.593   8.803  -3.623  0.00  0.00     0.000 A 
ATOM     27  C   UNL d   1      11.857   6.545  -4.358  0.00  0.00     0.000 A 
ATOM     28  C   UNL d   1      11.166  10.082  -3.839  0.00  0.00     0.000 A 
ATOM     29  C   UNL d   1      12.095   8.520  -2.344  0.00  0.00     0.000 A 
ATOM     30  C   UNL d   1      10.680  10.467  -5.090  0.00  0.00     0.000 A 
ATOM     31  C   UNL d   1      10.660   9.575  -6.165  0.00  0.00     0.005 A 
ATOM     32  C   UNL d   1      12.478   7.215  -2.071  0.00  0.00     0.000 A 
ATOM     33  C   UNL d   1      12.359   6.256  -3.079  0.00  0.00     0.000 A 
ENDBRANCH  22  24
ENDBRANCH  20  21
ENDBRANCH  19  20
ENDBRANCH  18  19
ENDBRANCH   1  18
TORSDOF 7
