REMARK  8 active torsions:
REMARK  status: ('A' for Active; 'I' for Inactive)
REMARK    1  A    between atoms: O_2  and  C_3 
REMARK    2  A    between atoms: C_8  and  N_9 
REMARK    3  A    between atoms: N_12  and  C_13 
REMARK    4  A    between atoms: C_13  and  C_14 
REMARK    5  A    between atoms: C_14  and  C_15 
REMARK    6  A    between atoms: C_15  and  C_16 
REMARK    7  A    between atoms: C_16  and  C_17 
REMARK    8  A    between atoms: N_19  and  C_20 
ROOT
ATOM      1  C   UNL d   1       9.015   5.020 -12.787  0.00  0.00     0.250 C 
ENDROOT
BRANCH   1   2
ATOM      2  N   UNL d   1       9.944   4.196 -13.563  0.00  0.00     0.141 N 
ATOM      3  C   UNL d   1       9.491   2.807 -13.508  0.00  0.00     0.274 C 
ATOM      4  C   UNL d   1      10.470   1.872 -14.261  0.00  0.00     0.137 C 
ATOM      5  N   UNL d   1      10.638   2.316 -15.633  0.00  0.00    -0.343 N 
ATOM      6  C   UNL d   1      10.958   3.726 -15.796  0.00  0.00     0.137 C 
ATOM      7  C   UNL d   1       9.975   4.589 -14.975  0.00  0.00     0.274 C 
BRANCH   5   8
ATOM      8  C   UNL d   1      10.372   1.483 -16.730  0.00  0.00     0.079 A 
ATOM      9  C   UNL d   1       9.162   0.742 -16.837  0.00  0.00     0.110 A 
ATOM     10  C   UNL d   1       8.971  -0.102 -17.959  0.00  0.00     0.026 A 
ATOM     11  C   UNL d   1       9.954  -0.203 -18.960  0.00  0.00     0.002 A 
ATOM     12  C   UNL d   1      11.138   0.544 -18.860  0.00  0.00     0.002 A 
ATOM     13  C   UNL d   1      11.341   1.389 -17.752  0.00  0.00     0.019 A 
BRANCH   9  14
ATOM     14  O   UNL d   1       8.219   0.901 -15.840  0.00  0.00    -0.327 OA
ATOM     15  C   UNL d   1       6.949   0.291 -16.000  0.00  0.00     0.181 C 
ENDBRANCH   9  14
ENDBRANCH   5   8
ENDBRANCH   1   2
BRANCH   1  16
ATOM     16  C   UNL d   1       9.716   6.255 -12.213  0.00  0.00     0.036 C 
BRANCH  16  17
ATOM     17  C   UNL d   1       8.845   7.040 -11.238  0.00  0.00     0.009 C 
BRANCH  17  18
ATOM     18  C   UNL d   1       9.468   8.392 -10.807  0.00  0.00     0.049 C 
BRANCH  18  19
ATOM     19  C   UNL d   1      10.320   8.302  -9.569  0.00  0.00     0.101 A 
ATOM     20  N   UNL d   1      11.693   8.049  -9.620  0.00  0.00    -0.133 NA
ATOM     21  N   UNL d   1      12.166   8.001  -8.416  0.00  0.00    -0.060 NA
ATOM     22  N   UNL d   1      11.133   8.220  -7.571  0.00  0.00    -0.207 N 
ATOM     23  C   UNL d   1       9.950   8.410  -8.256  0.00  0.00     0.119 A 
BRANCH  22  24
ATOM     24  C   UNL d   1      11.353   8.207  -6.180  0.00  0.00     0.110 A 
ATOM     25  C   UNL d   1      11.514   9.412  -5.457  0.00  0.00     0.149 A 
ATOM     26  C   UNL d   1      11.753   9.371  -4.069  0.00  0.00     0.029 A 
ATOM     27  O   UNL d   1      11.448  10.617  -6.093  0.00  0.00    -0.189 OA
ATOM     28  C   UNL d   1      11.861   8.133  -3.405  0.00  0.00     0.002 A 
ATOM     29  C   UNL d   1      11.704   6.931  -4.125  0.00  0.00     0.002 A 
ATOM     30  C   UNL d   1      11.453   6.968  -5.510  0.00  0.00     0.021 A 
ENDBRANCH  22  24
ENDBRANCH  18  19
ENDBRANCH  17  18
ENDBRANCH  16  17
ENDBRANCH   1  16
TORSDOF 8
