REMARK  0 active torsions:
REMARK  status: ('A' for Active; 'I' for Inactive)
ROOT
ATOM      1  N   UNL d   1      12.378   9.526  -5.301  0.00  0.00     0.614 N 
ATOM      2  C   UNL d   1      11.541   8.835  -6.270  0.00  0.00     0.270 C 
ATOM      3  C   UNL d   1      10.460   9.818  -6.631  0.00  0.00     0.037 C 
ATOM      4  C   UNL d   1       9.471   9.185  -7.661  0.00  0.00     0.002 C 
ATOM      5  C   UNL d   1      10.184   8.770  -8.964  0.00  0.00     0.000 C 
ATOM      6  C   UNL d   1      11.291   7.797  -8.570  0.00  0.00     0.002 C 
ATOM      7  C   UNL d   1      10.662   6.551  -7.873  0.00  0.00     0.000 C 
ATOM      8  C   UNL d   1       9.907   6.960  -6.600  0.00  0.00     0.002 C 
ATOM      9  C   UNL d   1       8.813   7.951  -7.008  0.00  0.00     0.000 C 
ATOM     10  C   UNL d   1      10.899   7.612  -5.612  0.00  0.00     0.037 C 
ATOM     11  C   UNL d   1      12.252   8.509  -7.609  0.00  0.00     0.037 C 
ENDROOT
TORSDOF 0
