REMARK  9 active torsions:
REMARK  status: ('A' for Active; 'I' for Inactive)
REMARK       I    between atoms: N_2  and  C_3 
REMARK    1  A    between atoms: C_3  and  C_5 
REMARK    2  A    between atoms: C_8  and  O_9 
REMARK    3  A    between atoms: C_11  and  O_12 
REMARK    4  A    between atoms: O_12  and  C_13 
REMARK    5  A    between atoms: C_13  and  C_14 
REMARK    6  A    between atoms: C_14  and  C_15 
REMARK    7  A    between atoms: C_15  and  C_16 
REMARK    8  A    between atoms: C_16  and  N_17 
REMARK    9  A    between atoms: N_20  and  C_21 
ROOT
ATOM      1  C   UNL d   1       9.311   5.689 -12.116  0.00  0.00     0.038 C 
ENDROOT
BRANCH   1   2
ATOM      2  C   UNL d   1       9.345   4.367 -12.887  0.00  0.00     0.035 C 
BRANCH   2   3
ATOM      3  C   UNL d   1       8.588   4.451 -14.226  0.00  0.00     0.149 C 
BRANCH   3   4
ATOM      4  O   UNL d   1       8.650   3.193 -14.893  0.00  0.00    -0.329 OA
BRANCH   4   5
ATOM      5  C   UNL d   1       9.776   2.848 -15.617  0.00  0.00     0.116 A 
ATOM      6  C   UNL d   1       9.847   1.535 -16.147  0.00  0.00     0.116 A 
ATOM      7  C   UNL d   1      10.983   1.118 -16.856  0.00  0.00     0.026 A 
ATOM      8  C   UNL d   1      12.041   2.011 -17.090  0.00  0.00     0.007 A 
ATOM      9  C   UNL d   1      11.985   3.333 -16.602  0.00  0.00     0.060 A 
ATOM     10  C   UNL d   1      10.861   3.738 -15.844  0.00  0.00     0.031 A 
BRANCH   6  11
ATOM     11  O   UNL d   1       8.870   0.592 -15.946  0.00  0.00    -0.326 OA
ATOM     12  C   UNL d   1       7.631   0.872 -16.582  0.00  0.00     0.181 C 
ENDBRANCH   6  11
BRANCH   9  13
ATOM     13  C   UNL d   1      13.107   4.318 -16.805  0.00  0.00     0.275 C 
ATOM     14  N   UNL d   1      13.853   4.116 -17.903  0.00  0.00    -0.232 NA
ATOM     15  C   UNL d   1      14.975   4.961 -18.287  0.00  0.00     0.155 C 
ATOM     16  O   UNL d   1      13.287   5.257 -16.035  0.00  0.00    -0.266 OA
ENDBRANCH   9  13
ENDBRANCH   4   5
ENDBRANCH   3   4
ENDBRANCH   2   3
ENDBRANCH   1   2
BRANCH   1  17
ATOM     17  C   UNL d   1       9.407   5.464 -10.598  0.00  0.00     0.251 C 
BRANCH  17  18
ATOM     18  N   UNL d   1       9.567   6.740  -9.898  0.00  0.00     0.141 N 
ATOM     19  C   UNL d   1      10.960   7.062  -9.590  0.00  0.00     0.274 C 
ATOM     20  C   UNL d   1      11.122   8.420  -8.877  0.00  0.00     0.137 C 
ATOM     21  N   UNL d   1      10.279   8.448  -7.707  0.00  0.00    -0.344 N 
ATOM     22  C   UNL d   1       8.908   8.015  -7.868  0.00  0.00     0.137 C 
ATOM     23  C   UNL d   1       8.870   6.649  -8.622  0.00  0.00     0.274 C 
BRANCH  21  24
ATOM     24  C   UNL d   1      10.782   8.679  -6.430  0.00  0.00     0.068 C 
ATOM     25  C   UNL d   1      11.395   7.703  -5.620  0.00  0.00     0.084 C 
ATOM     26  C   UNL d   1      11.806   8.012  -4.276  0.00  0.00     0.070 C 
ATOM     27 CL   UNL d   1      11.759   6.214  -6.391  0.00  0.00    -0.080 Cl
ATOM     28  C   UNL d   1      11.733   9.336  -3.838  0.00  0.00     0.012 C 
ATOM     29 CL   UNL d   1      12.401   6.846  -3.154  0.00  0.00    -0.081 Cl
ATOM     30  C   UNL d   1      11.113  10.282  -4.662  0.00  0.00     0.002 C 
ATOM     31  C   UNL d   1      10.659   9.968  -5.948  0.00  0.00     0.018 C 
ENDBRANCH  21  24
ENDBRANCH  17  18
ENDBRANCH   1  17
TORSDOF 9
