REMARK  6 active torsions:
REMARK  status: ('A' for Active; 'I' for Inactive)
REMARK    1  A    between atoms: O_2  and  N_3 
REMARK    2  A    between atoms: C_4  and  C_5 
REMARK    3  A    between atoms: C_4  and  C_20 
REMARK    4  A    between atoms: C_5  and  C_6 
REMARK    5  A    between atoms: C_6  and  N_7 
REMARK    6  A    between atoms: N_10  and  C_11 
ROOT
ATOM      1  N   UNL d   1      10.644   1.997 -16.206  0.00  0.00     0.139 N 
ATOM      2  C   UNL d   1       9.258   1.611 -15.919  0.00  0.00     0.274 C 
ATOM      3  C   UNL d   1       8.912   1.828 -14.444  0.00  0.00     0.138 C 
ATOM      4  N   UNL d   1       9.165   3.229 -14.078  0.00  0.00    -0.330 N 
ATOM      5  C   UNL d   1      10.518   3.686 -14.418  0.00  0.00     0.136 C 
ATOM      6  C   UNL d   1      10.840   3.427 -15.903  0.00  0.00     0.241 C 
ATOM      7  C   UNL d   1      12.286   3.904 -16.168  0.00  0.00     0.037 C 
ENDROOT
BRANCH   1   8
ATOM      8  C   UNL d   1      10.875   1.695 -17.617  0.00  0.00     0.257 C 
BRANCH   8   9
ATOM      9  C   UNL d   1      11.352   0.253 -17.816  0.00  0.00     0.083 C 
BRANCH   9  10
ATOM     10  C   UNL d   1      11.635  -0.030 -19.278  0.00  0.00     0.087 C 
ATOM     11  N   UNL d   1      10.698  -0.517 -19.985  0.00  0.00    -0.136 NA
BRANCH  11  12
ATOM     12  O   UNL d   1      11.086  -0.753 -21.311  0.00  0.00    -0.234 OA
ATOM     13  C   UNL d   1       9.952  -1.225 -22.015  0.00  0.00     0.211 C 
ENDBRANCH  11  12
BRANCH  10  14
ATOM     14  C   UNL d   1      13.017   0.259 -19.751  0.00  0.00     0.016 A 
ATOM     15  C   UNL d   1      13.867  -0.786 -20.188  0.00  0.00     0.002 A 
ATOM     16  C   UNL d   1      15.170  -0.501 -20.651  0.00  0.00     0.011 A 
ATOM     17  C   UNL d   1      15.640   0.826 -20.669  0.00  0.00     0.058 A 
ATOM     18  C   UNL d   1      14.807   1.870 -20.235  0.00  0.00     0.011 A 
ATOM     19 CL   UNL d   1      17.225   1.187 -21.239  0.00  0.00    -0.082 Cl
ATOM     20  C   UNL d   1      13.504   1.585 -19.796  0.00  0.00     0.002 A 
ENDBRANCH  10  14
ENDBRANCH   9  10
ENDBRANCH   8   9
ENDBRANCH   1   8
BRANCH   4  21
ATOM     21  C   UNL d   1       8.218   4.025 -13.460  0.00  0.00     0.140 A 
ATOM     22  N   UNL d   1       6.915   3.641 -13.531  0.00  0.00    -0.227 NA
ATOM     23  C   UNL d   1       5.964   4.383 -12.933  0.00  0.00     0.101 A 
ATOM     24  C   UNL d   1       6.245   5.576 -12.242  0.00  0.00     0.021 A 
ATOM     25  C   UNL d   1       7.583   5.995 -12.157  0.00  0.00     0.005 A 
ATOM     26  C   UNL d   1       8.578   5.221 -12.764  0.00  0.00     0.037 A 
ENDBRANCH   4  21
TORSDOF 6
