REMARK  4 active torsions:
REMARK  status: ('A' for Active; 'I' for Inactive)
REMARK    1  A    between atoms: C_10  and  C_11 
REMARK    2  A    between atoms: C_11  and  C_12 
REMARK    3  A    between atoms: C_12  and  N_13 
REMARK    4  A    between atoms: C_16  and  C_17 
ROOT
ATOM      1  N   UNL d   1       9.860   7.515 -10.098  0.00  0.00     0.137 N 
ATOM      2  C   UNL d   1      11.264   7.913 -10.018  0.00  0.00     0.251 C 
ATOM      3  C   UNL d   1      11.529   8.673  -8.723  0.00  0.00     0.041 C 
ATOM      4  C   UNL d   1      11.110   7.842  -7.497  0.00  0.00     0.047 C 
ATOM      5  C   UNL d   1       9.699   7.286  -7.676  0.00  0.00     0.041 C 
ATOM      6  C   UNL d   1       9.562   6.576  -9.014  0.00  0.00     0.251 C 
ENDROOT
BRANCH   1   7
ATOM      7  C   UNL d   1       9.649   6.884 -11.393  0.00  0.00     0.250 C 
BRANCH   7   8
ATOM      8  C   UNL d   1       8.192   6.513 -11.723  0.00  0.00     0.038 C 
BRANCH   8   9
ATOM      9  C   UNL d   1       7.996   5.452 -12.828  0.00  0.00     0.037 C 
ATOM     10  C   UNL d   1       6.999   4.357 -12.412  0.00  0.00     0.174 C 
ATOM     11  C   UNL d   1       6.891   3.196 -13.409  0.00  0.00     0.005 A 
ATOM     12  O   UNL d   1       5.748   4.948 -12.119  0.00  0.00    -0.219 OA
ATOM     13  C   UNL d   1       7.868   2.985 -14.418  0.00  0.00    -0.024 A 
ATOM     14  C   UNL d   1       5.853   2.260 -13.240  0.00  0.00     0.012 A 
ATOM     15  C   UNL d   1       7.753   1.874 -15.277  0.00  0.00    -0.003 A 
ATOM     16  C   UNL d   1       9.032   3.933 -14.607  0.00  0.00     0.026 C 
ATOM     17  C   UNL d   1       6.702   0.955 -15.120  0.00  0.00     0.014 A 
ATOM     18  C   UNL d   1       5.766   1.117 -14.074  0.00  0.00     0.070 A 
ATOM     19  N   UNL d   1       4.745   0.191 -13.874  0.00  0.00    -0.101 NA
ATOM     20  C   UNL d   1       9.286   4.825 -13.398  0.00  0.00     0.008 C 
ENDBRANCH   8   9
ENDBRANCH   7   8
ENDBRANCH   1   7
BRANCH   4  21
ATOM     21  C   UNL d   1      11.201   8.649  -6.230  0.00  0.00     0.087 A 
ATOM     22  C   UNL d   1      11.574   8.256  -4.939  0.00  0.00     0.041 A 
ATOM     23  C   UNL d   1      11.496   9.358  -4.088  0.00  0.00     0.129 A 
ATOM     24  C   UNL d   1      11.999   7.005  -4.433  0.00  0.00     0.006 A 
ATOM     25  O   UNL d   1      11.008  10.391  -4.862  0.00  0.00    -0.211 OA
ATOM     26  C   UNL d   1      11.871   9.305  -2.745  0.00  0.00     0.057 A 
ATOM     27  N   UNL d   1      10.810   9.924  -6.192  0.00  0.00    -0.131 NA
ATOM     28  C   UNL d   1      12.350   8.077  -2.259  0.00  0.00     0.142 A 
ATOM     29  F   UNL d   1      12.833   7.993  -1.004  0.00  0.00    -0.204 F 
ATOM     30  C   UNL d   1      12.390   6.929  -3.079  0.00  0.00     0.030 A 
ENDBRANCH   4  21
TORSDOF 4
