REMARK  3 active torsions:
REMARK  status: ('A' for Active; 'I' for Inactive)
REMARK    1  A    between atoms: N_2  and  N_3 
REMARK       I    between atoms: N_2  and  C_5 
REMARK       I    between atoms: C_5  and  N_7 
REMARK    2  A    between atoms: N_7  and  C_8 
REMARK    3  A    between atoms: C_12  and  C_13 
ROOT
ATOM      1  C   UNL d   1       9.737   6.682  -9.834  0.00  0.00     0.200 C 
ATOM      2  C   UNL d   1      10.405   8.045 -10.125  0.00  0.00     0.295 C 
ATOM      3  O   UNL d   1       9.456   9.078 -10.217  0.00  0.00    -0.188 OA
ATOM      4  O   UNL d   1      11.368   8.280  -9.152  0.00  0.00    -0.325 OA
ATOM      5  C   UNL d   1      10.864   8.440  -7.823  0.00  0.00     0.184 C 
ATOM      6  C   UNL d   1      10.229   7.101  -7.399  0.00  0.00     0.214 C 
ATOM      7  O   UNL d   1       9.642   7.271  -6.122  0.00  0.00    -0.218 OA
ATOM      8  C   UNL d   1       9.144   6.710  -8.406  0.00  0.00     0.212 C 
ATOM      9  O   UNL d   1       8.690   5.408  -8.113  0.00  0.00    -0.218 OA
ENDROOT
BRANCH   1  10
ATOM     10  N   UNL d   1       8.690   6.385 -10.810  0.00  0.00    -0.212 NA
ATOM     11  C   UNL d   1       8.798   5.582 -11.880  0.00  0.00     0.359 C 
ATOM     12  N   UNL d   1       7.633   5.213 -12.451  0.00  0.00    -0.198 N 
ATOM     13  O   UNL d   1       9.886   5.185 -12.289  0.00  0.00    -0.244 OA
ATOM     14  C   UNL d   1       7.617   4.171 -13.496  0.00  0.00     0.154 C 
BRANCH  12  15
ATOM     15  N   UNL d   1       6.443   5.755 -12.050  0.00  0.00     0.064 NA
ATOM     16  O   UNL d   1       5.478   5.271 -12.588  0.00  0.00    -0.076 OA
ENDBRANCH  12  15
ENDBRANCH   1  10
BRANCH   5  17
ATOM     17  C   UNL d   1      12.024   8.875  -6.903  0.00  0.00     0.214 C 
ATOM     18  O   UNL d   1      11.837  10.191  -6.426  0.00  0.00    -0.218 OA
ENDBRANCH   5  17
TORSDOF 3
