REMARK  11 active torsions:
REMARK  status: ('A' for Active; 'I' for Inactive)
REMARK    1  A    between atoms: C_2  and  C_3 
REMARK    2  A    between atoms: C_3  and  N_4 
REMARK    3  A    between atoms: N_4  and  C_5 
REMARK    4  A    between atoms: N_4  and  C_21 
REMARK    5  A    between atoms: C_5  and  C_6 
REMARK    6  A    between atoms: C_6  and  C_7 
REMARK    7  A    between atoms: C_7  and  C_8 
REMARK    8  A    between atoms: C_8  and  N_9 
REMARK       I    between atoms: N_9  and  C_10 
REMARK    9  A    between atoms: C_10  and  C_12 
REMARK   10  A    between atoms: C_21  and  C_22 
REMARK   11  A    between atoms: C_24  and  C_25 
ROOT
ATOM      1  C   UNL d   1       7.952   5.937 -12.681  0.00  0.00     0.250 C 
ENDROOT
BRANCH   1   2
ATOM      2  N   UNL d   1       8.665   4.658 -12.736  0.00  0.00     0.137 N 
BRANCH   2   3
ATOM      3  C   UNL d   1       9.960   4.692 -13.440  0.00  0.00     0.250 C 
BRANCH   3   4
ATOM      4  C   UNL d   1       9.783   4.782 -14.979  0.00  0.00     0.035 C 
ATOM      5  C   UNL d   1      11.076   5.008 -15.749  0.00  0.00     0.002 C 
ENDBRANCH   3   4
ENDBRANCH   2   3
BRANCH   2   6
ATOM      6  C   UNL d   1       7.820   3.677 -13.396  0.00  0.00     0.251 C 
BRANCH   6   7
ATOM      7  C   UNL d   1       6.604   3.226 -12.608  0.00  0.00     0.038 A 
ATOM      8  C   UNL d   1       5.892   1.950 -13.045  0.00  0.00     0.024 A 
ATOM      9  C   UNL d   1       5.232   3.297 -13.242  0.00  0.00     0.007 A 
BRANCH   8  10
ATOM     10  C   UNL d   1       6.376   1.128 -14.220  0.00  0.00    -0.022 C 
ATOM     11  C   UNL d   1       7.753   0.862 -14.411  0.00  0.00     0.007 C 
ATOM     12  C   UNL d   1       8.224   0.290 -15.584  0.00  0.00     0.057 C 
ATOM     13  C   UNL d   1       7.313  -0.168 -16.569  0.00  0.00     0.011 C 
ATOM     14 CL   UNL d   1       9.921   0.098 -15.810  0.00  0.00    -0.082 Cl
ATOM     15  C   UNL d   1       5.930  -0.035 -16.340  0.00  0.00     0.001 C 
ATOM     16  C   UNL d   1       5.465   0.618 -15.179  0.00  0.00    -0.004 C 
ENDBRANCH   8  10
ENDBRANCH   6   7
ENDBRANCH   2   6
ENDBRANCH   1   2
BRANCH   1  17
ATOM     17  C   UNL d   1       8.858   7.135 -12.348  0.00  0.00     0.037 C 
BRANCH  17  18
ATOM     18  C   UNL d   1       9.369   7.019 -10.921  0.00  0.00     0.029 C 
BRANCH  18  19
ATOM     19  C   UNL d   1      10.041   8.295 -10.422  0.00  0.00     0.129 C 
BRANCH  19  20
ATOM     20  N   UNL d   1      10.328   8.270  -8.992  0.00  0.00    -0.233 NA
ATOM     21  C   UNL d   1      10.470   7.206  -8.175  0.00  0.00     0.293 C 
ATOM     22  O   UNL d   1      10.296   6.037  -8.504  0.00  0.00    -0.264 OA
BRANCH  21  23
ATOM     23  C   UNL d   1      10.905   7.492  -6.809  0.00  0.00     0.139 A 
ATOM     24  N   UNL d   1      10.817   8.777  -6.303  0.00  0.00    -0.241 NA
ATOM     25  C   UNL d   1      11.261   8.803  -5.010  0.00  0.00     0.082 A 
ATOM     26  C   UNL d   1      11.649   7.467  -4.689  0.00  0.00     0.019 A 
ATOM     27  C   UNL d   1      11.370   9.845  -4.088  0.00  0.00     0.019 A 
ATOM     28  C   UNL d   1      11.421   6.668  -5.851  0.00  0.00     0.025 A 
ATOM     29  C   UNL d   1      12.149   7.221  -3.397  0.00  0.00     0.002 A 
ATOM     30  C   UNL d   1      12.263   8.269  -2.463  0.00  0.00     0.000 A 
ATOM     31  C   UNL d   1      11.911   9.576  -2.816  0.00  0.00     0.002 A 
ENDBRANCH  21  23
ENDBRANCH  19  20
ENDBRANCH  18  19
ENDBRANCH  17  18
ENDBRANCH   1  17
TORSDOF 11
