REMARK  5 active torsions:
REMARK  status: ('A' for Active; 'I' for Inactive)
REMARK    1  A    between atoms: C_2  and  C_3 
REMARK    2  A    between atoms: C_3  and  C_4 
REMARK    3  A    between atoms: C_3  and  N_15 
REMARK    4  A    between atoms: C_4  and  C_5 
REMARK    5  A    between atoms: C_5  and  C_7 
ROOT
ATOM      1  C   UNL d   1       9.138   5.145 -12.294  0.00  0.00     0.175 C 
ATOM      2  O   UNL d   1      10.264   5.354 -12.708  0.00  0.00    -0.291 OA
ENDROOT
BRANCH   1   3
ATOM      3  C   UNL d   1       8.525   5.998 -11.177  0.00  0.00     0.102 C 
BRANCH   3   4
ATOM      4  C   UNL d   1       9.375   7.204 -10.685  0.00  0.00     0.227 C 
BRANCH   4   5
ATOM      5  C   UNL d   1       9.849   8.084 -11.874  0.00  0.00     0.034 C 
ATOM      6  C   UNL d   1       8.818   9.107 -12.384  0.00  0.00     0.002 C 
ENDBRANCH   4   5
BRANCH   4   7
ATOM      7  N   UNL d   1      10.448   6.857  -9.731  0.00  0.00     0.135 N 
ATOM      8  C   UNL d   1       9.894   6.210  -8.534  0.00  0.00     0.250 C 
ATOM      9  C   UNL d   1      11.006   6.278  -7.491  0.00  0.00     0.037 C 
ATOM     10  C   UNL d   1      11.830   7.495  -7.893  0.00  0.00     0.037 C 
ATOM     11  C   UNL d   1      11.097   8.030  -9.124  0.00  0.00     0.250 C 
ENDBRANCH   4   7
ENDBRANCH   3   4
ENDBRANCH   1   3
BRANCH   1  12
ATOM     12  C   UNL d   1       8.347   4.103 -12.938  0.00  0.00     0.036 A 
ATOM     13  C   UNL d   1       6.963   3.976 -12.673  0.00  0.00     0.015 A 
ATOM     14  C   UNL d   1       6.249   2.981 -13.335  0.00  0.00     0.068 A 
ATOM     15  C   UNL d   1       6.892   2.095 -14.244  0.00  0.00     0.068 A 
ATOM     16 CL   UNL d   1       4.633   2.784 -12.814  0.00  0.00    -0.082 Cl
ATOM     17  C   UNL d   1       8.247   2.259 -14.549  0.00  0.00     0.012 A 
ATOM     18 CL   UNL d   1       6.083   0.725 -14.897  0.00  0.00    -0.082 Cl
ATOM     19  C   UNL d   1       8.971   3.263 -13.899  0.00  0.00     0.004 A 
ENDBRANCH   1  12
TORSDOF 5
