REMARK  5 active torsions:
REMARK  status: ('A' for Active; 'I' for Inactive)
REMARK    1  A    between atoms: C_2  and  C_3 
REMARK       I    between atoms: C_2  and  N_13 
REMARK    2  A    between atoms: N_16  and  C_17 
REMARK    3  A    between atoms: C_17  and  C_18 
REMARK    4  A    between atoms: C_18  and  O_19 
REMARK    5  A    between atoms: O_19  and  C_20 
ROOT
ATOM      1  O   UNL d   1      10.430   5.327 -13.807  0.00  0.00    -0.266 OA
ATOM      2  C   UNL d   1       9.450   5.031 -13.115  0.00  0.00     0.275 C 
ATOM      3  N   UNL d   1       9.100   5.712 -12.017  0.00  0.00    -0.311 N 
ATOM      4  C   UNL d   1       8.511   5.090 -10.827  0.00  0.00     0.140 C 
ATOM      5  C   UNL d   1       9.356   5.419  -9.591  0.00  0.00     0.274 C 
ATOM      6  N   UNL d   1       9.463   6.864  -9.421  0.00  0.00     0.144 N 
ATOM      7  C   UNL d   1      10.134   7.452 -10.573  0.00  0.00     0.274 C 
ATOM      8  C   UNL d   1       9.341   7.153 -11.853  0.00  0.00     0.140 C 
ENDROOT
BRANCH   2   9
ATOM      9  C   UNL d   1       8.592   3.906 -13.547  0.00  0.00     0.137 A 
ATOM     10  N   UNL d   1       9.112   2.986 -14.441  0.00  0.00    -0.240 NA
ATOM     11  C   UNL d   1       8.179   2.018 -14.760  0.00  0.00     0.092 A 
ATOM     12  C   UNL d   1       7.002   2.383 -14.041  0.00  0.00     0.020 A 
ATOM     13  C   UNL d   1       8.219   0.880 -15.579  0.00  0.00     0.075 A 
ATOM     14  C   UNL d   1       7.274   3.594 -13.323  0.00  0.00     0.025 A 
ATOM     15  C   UNL d   1       5.888   1.522 -14.134  0.00  0.00     0.002 A 
ATOM     16  C   UNL d   1       5.912   0.387 -14.967  0.00  0.00     0.001 A 
ATOM     17  C   UNL d   1       7.074   0.069 -15.694  0.00  0.00     0.013 A 
ATOM     18 CL   UNL d   1       9.672   0.458 -16.412  0.00  0.00    -0.081 Cl
ENDBRANCH   2   9
BRANCH   6  19
ATOM     19  C   UNL d   1      10.224   7.145  -8.222  0.00  0.00     0.283 C 
BRANCH  19  20
ATOM     20  C   UNL d   1       9.936   8.546  -7.628  0.00  0.00     0.184 C 
BRANCH  20  21
ATOM     21  O   UNL d   1      11.055   9.097  -6.941  0.00  0.00    -0.327 OA
BRANCH  21  22
ATOM     22  C   UNL d   1      11.424   8.606  -5.706  0.00  0.00     0.113 A 
ATOM     23  C   UNL d   1      12.249   9.415  -4.904  0.00  0.00     0.123 A 
ATOM     24  N   UNL d   1      12.661   9.068  -3.664  0.00  0.00    -0.240 NA
ATOM     25  C   UNL d   1      12.291   7.865  -3.178  0.00  0.00     0.099 A 
ATOM     26  C   UNL d   1      11.508   6.964  -3.912  0.00  0.00     0.023 A 
ATOM     27  C   UNL d   1      11.048   7.337  -5.187  0.00  0.00     0.027 A 
ENDBRANCH  21  22
ENDBRANCH  20  21
ENDBRANCH  19  20
ENDBRANCH   6  19
TORSDOF 5
