REMARK  6 active torsions:
REMARK  status: ('A' for Active; 'I' for Inactive)
REMARK    1  A    between atoms: N_3  and  C_4 
REMARK    2  A    between atoms: C_4  and  C_5 
REMARK    3  A    between atoms: C_5  and  N_6 
REMARK    4  A    between atoms: N_17  and  C_18 
REMARK    5  A    between atoms: C_22  and  O_23 
REMARK    6  A    between atoms: O_23  and  C_24 
ROOT
ATOM      1  O   UNL d   1      10.486   4.330 -12.845  0.00  0.00    -0.247 OA
ATOM      2  C   UNL d   1       9.261   4.347 -12.694  0.00  0.00     0.328 A 
ATOM      3  N   UNL d   1       8.628   4.737 -11.587  0.00  0.00    -0.298 N 
ATOM      4  C   UNL d   1       7.187   4.631 -11.674  0.00  0.00     0.131 A 
ATOM      5  C   UNL d   1       6.991   4.070 -13.076  0.00  0.00     0.135 A 
ATOM      6  N   UNL d   1       8.351   3.952 -13.600  0.00  0.00    -0.280 N 
ENDROOT
BRANCH   3   7
ATOM      7  C   UNL d   1       9.271   5.095 -10.336  0.00  0.00     0.141 C 
BRANCH   7   8
ATOM      8  C   UNL d   1       9.603   6.595 -10.317  0.00  0.00     0.275 C 
BRANCH   8   9
ATOM      9  N   UNL d   1      10.412   6.962  -9.162  0.00  0.00     0.148 N 
ATOM     10  C   UNL d   1      10.474   8.410  -8.926  0.00  0.00     0.277 C 
ATOM     11  C   UNL d   1      10.896   8.479  -7.484  0.00  0.00     0.009 A 
ATOM     12  C   UNL d   1      10.618   7.270  -6.881  0.00  0.00     0.009 A 
ATOM     13  C   UNL d   1      11.449   9.544  -6.757  0.00  0.00    -0.003 A 
ATOM     14  C   UNL d   1       9.983   6.374  -7.891  0.00  0.00     0.277 C 
ATOM     15  C   UNL d   1      10.894   7.027  -5.527  0.00  0.00    -0.003 A 
ATOM     16  C   UNL d   1      11.465   8.076  -4.779  0.00  0.00    -0.000 A 
ATOM     17  C   UNL d   1      11.740   9.324  -5.392  0.00  0.00    -0.000 A 
ENDBRANCH   8   9
ENDBRANCH   7   8
ENDBRANCH   3   7
BRANCH   6  18
ATOM     18  C   UNL d   1       8.658   3.396 -14.872  0.00  0.00     0.066 A 
ATOM     19  C   UNL d   1       9.690   3.964 -15.658  0.00  0.00     0.042 A 
ATOM     20  C   UNL d   1       9.999   3.467 -16.946  0.00  0.00     0.103 A 
ATOM     21  C   UNL d   1       9.242   2.389 -17.448  0.00  0.00     0.025 A 
ATOM     22  C   UNL d   1       8.206   1.816 -16.683  0.00  0.00     0.004 A 
ATOM     23  C   UNL d   1       7.916   2.316 -15.394  0.00  0.00     0.018 A 
BRANCH  20  24
ATOM     24  O   UNL d   1      11.007   3.982 -17.747  0.00  0.00    -0.253 OA
BRANCH  24  25
ATOM     25  C   UNL d   1      11.799   5.013 -17.327  0.00  0.00     0.530 C 
ATOM     26  F   UNL d   1      12.702   5.314 -18.291  0.00  0.00    -0.144 F 
ATOM     27  F   UNL d   1      11.081   6.140 -17.097  0.00  0.00    -0.144 F 
ATOM     28  F   UNL d   1      12.505   4.694 -16.214  0.00  0.00    -0.144 F 
ENDBRANCH  24  25
ENDBRANCH  20  24
ENDBRANCH   6  18
TORSDOF 6
