REMARK  7 active torsions:
REMARK  status: ('A' for Active; 'I' for Inactive)
REMARK    1  A    between atoms: C_2  and  N_3 
REMARK    2  A    between atoms: N_3  and  C_4 
REMARK    3  A    between atoms: N_3  and  C_6 
REMARK    4  A    between atoms: C_7  and  C_8 
REMARK    5  A    between atoms: N_12  and  C_13 
REMARK    6  A    between atoms: C_13  and  C_14 
REMARK    7  A    between atoms: C_20  and  C_21 
ROOT
ATOM      1  C   UNL d   1       8.052   2.955 -14.217  0.00  0.00     0.224 C 
ATOM      2  C   UNL d   1       9.224   1.944 -14.233  0.00  0.00     0.067 C 
ATOM      3  C   UNL d   1      10.075   2.906 -13.439  0.00  0.00     0.042 C 
ATOM      4  C   UNL d   1      11.196   3.755 -14.012  0.00  0.00     0.251 C 
ATOM      5  N   UNL d   1      10.592   5.068 -14.241  0.00  0.00     0.143 N 
ATOM      6  C   UNL d   1       9.335   5.188 -13.499  0.00  0.00     0.244 C 
ATOM      7  C   UNL d   1       8.903   3.749 -13.216  0.00  0.00     0.069 C 
ENDROOT
BRANCH   5   8
ATOM      8  C   UNL d   1      10.392   5.227 -15.679  0.00  0.00     0.277 C 
BRANCH   8   9
ATOM      9  C   UNL d   1      11.654   5.674 -16.396  0.00  0.00     0.011 A 
ATOM     10  C   UNL d   1      12.224   4.849 -17.381  0.00  0.00    -0.002 A 
ATOM     11  C   UNL d   1      13.386   5.268 -18.054  0.00  0.00    -0.000 A 
ATOM     12  C   UNL d   1      13.970   6.515 -17.752  0.00  0.00    -0.000 A 
ATOM     13  C   UNL d   1      13.395   7.347 -16.774  0.00  0.00    -0.000 A 
ATOM     14  C   UNL d   1      12.241   6.922 -16.090  0.00  0.00    -0.002 A 
ENDBRANCH   8   9
ENDBRANCH   5   8
BRANCH   6  15
ATOM     15  C   UNL d   1       9.411   6.024 -12.216  0.00  0.00     0.009 A 
ATOM     16  C   UNL d   1       9.680   5.431 -10.952  0.00  0.00    -0.002 A 
ATOM     17  C   UNL d   1       9.855   6.219  -9.808  0.00  0.00     0.006 A 
ATOM     18  C   UNL d   1       9.758   7.614  -9.888  0.00  0.00     0.035 A 
ATOM     19  C   UNL d   1       9.432   8.207 -11.126  0.00  0.00     0.006 A 
ATOM     20 BR   UNL d   1       9.944   8.675  -8.318  0.00  0.00    -0.049 Br
ATOM     21  C   UNL d   1       9.290   7.421 -12.279  0.00  0.00    -0.002 A 
ENDBRANCH   6  15
BRANCH   2  22
ATOM     22  C   UNL d   1       9.731   1.402 -15.573  0.00  0.00     0.184 C 
ATOM     23  O   UNL d   1      10.685   0.400 -15.312  0.00  0.00    -0.221 OA
ENDBRANCH   2  22
BRANCH   1  24
ATOM     24  N   UNL d   1       6.656   2.578 -13.871  0.00  0.00     0.135 N 
BRANCH  24  25
ATOM     25  C   UNL d   1       6.167   1.565 -14.806  0.00  0.00     0.250 C 
ATOM     26  C   UNL d   1       6.812   0.151 -14.679  0.00  0.00     0.037 C 
ENDBRANCH  24  25
BRANCH  24  27
ATOM     27  C   UNL d   1       5.788   3.765 -13.836  0.00  0.00     0.250 C 
ATOM     28  C   UNL d   1       6.172   4.838 -12.777  0.00  0.00     0.037 C 
ENDBRANCH  24  27
ENDBRANCH   1  24
TORSDOF 7
