REMARK  11 active torsions:
REMARK  status: ('A' for Active; 'I' for Inactive)
REMARK    1  A    between atoms: C_2  and  C_3 
REMARK    2  A    between atoms: C_3  and  N_4 
REMARK    3  A    between atoms: N_4  and  C_5 
REMARK    4  A    between atoms: N_4  and  C_24 
REMARK    5  A    between atoms: C_5  and  C_6 
REMARK    6  A    between atoms: C_6  and  C_7 
REMARK    7  A    between atoms: C_7  and  C_8 
REMARK    8  A    between atoms: C_8  and  N_9 
REMARK       I    between atoms: N_9  and  C_10 
REMARK    9  A    between atoms: C_10  and  C_12 
REMARK   10  A    between atoms: C_15  and  C_16 
REMARK   11  A    between atoms: C_29  and  C_30 
ROOT
ATOM      1  C   UNL d   1       8.254  -0.312 -19.717  0.00  0.00     0.250 C 
ENDROOT
BRANCH   1   2
ATOM      2  N   UNL d   1       9.642   0.232 -19.849  0.00  0.00     0.135 N 
BRANCH   2   3
ATOM      3  C   UNL d   1      10.381  -0.515 -20.877  0.00  0.00     0.250 C 
BRANCH   3   4
ATOM      4  C   UNL d   1      11.914  -0.241 -20.910  0.00  0.00     0.035 C 
ATOM      5  C   UNL d   1      12.604  -0.560 -19.574  0.00  0.00     0.002 C 
ENDBRANCH   3   4
ENDBRANCH   2   3
BRANCH   2   6
ATOM      6  C   UNL d   1       9.740   1.702 -20.036  0.00  0.00     0.224 C 
ATOM      7  C   UNL d   1       8.908   2.208 -21.243  0.00  0.00     0.062 C 
ATOM      8  C   UNL d   1       8.798   3.713 -21.272  0.00  0.00     0.013 A 
ATOM      9  C   UNL d   1       9.137   4.555 -20.151  0.00  0.00     0.058 A 
ATOM     10  C   UNL d   1       8.233   4.338 -22.365  0.00  0.00     0.097 A 
ATOM     11  C   UNL d   1       9.715   3.992 -18.871  0.00  0.00     0.048 C 
ATOM     12  N   UNL d   1       8.917   5.865 -20.194  0.00  0.00    -0.235 NA
ATOM     13  C   UNL d   1       9.454   2.494 -18.740  0.00  0.00     0.040 C 
ATOM     14  C   UNL d   1       8.408   6.375 -21.333  0.00  0.00     0.138 A 
ATOM     15  N   UNL d   1       8.029   5.673 -22.397  0.00  0.00    -0.230 NA
BRANCH  14  16
ATOM     16  C   UNL d   1       8.129   7.883 -21.337  0.00  0.00     0.052 C 
ATOM     17  C   UNL d   1       9.385   8.674 -20.916  0.00  0.00     0.008 C 
ATOM     18  C   UNL d   1       6.978   8.190 -20.367  0.00  0.00     0.008 C 
ATOM     19  C   UNL d   1       7.728   8.348 -22.757  0.00  0.00     0.008 C 
ENDBRANCH  14  16
ENDBRANCH   2   6
ENDBRANCH   1   2
BRANCH   1  20
ATOM     20  C   UNL d   1       7.769  -0.222 -18.227  0.00  0.00     0.037 C 
BRANCH  20  21
ATOM     21  C   UNL d   1       6.221  -0.363 -18.199  0.00  0.00     0.029 C 
BRANCH  21  22
ATOM     22  C   UNL d   1       5.731  -0.417 -16.741  0.00  0.00     0.129 C 
BRANCH  22  23
ATOM     23  N   UNL d   1       6.255   0.683 -15.936  0.00  0.00    -0.234 NA
ATOM     24  C   UNL d   1       5.965   0.896 -14.645  0.00  0.00     0.275 C 
ATOM     25  O   UNL d   1       5.167   0.205 -14.005  0.00  0.00    -0.266 OA
BRANCH  24  26
ATOM     26  C   UNL d   1       6.608   2.117 -14.041  0.00  0.00     0.058 A 
ATOM     27  C   UNL d   1       7.943   2.465 -14.352  0.00  0.00     0.005 A 
ATOM     28  C   UNL d   1       8.557   3.566 -13.716  0.00  0.00     0.000 A 
ATOM     29  C   UNL d   1       7.852   4.339 -12.766  0.00  0.00     0.000 A 
ATOM     30  C   UNL d   1       6.513   3.996 -12.476  0.00  0.00     0.000 A 
ATOM     31  C   UNL d   1       5.893   2.899 -13.105  0.00  0.00     0.005 A 
BRANCH  29  32
ATOM     32  C   UNL d   1       8.504   5.471 -12.085  0.00  0.00     0.000 A 
ATOM     33  C   UNL d   1       9.208   5.305 -10.873  0.00  0.00     0.000 A 
ATOM     34  C   UNL d   1       9.837   6.402 -10.246  0.00  0.00     0.000 A 
ATOM     35  C   UNL d   1       9.770   7.682 -10.831  0.00  0.00     0.000 A 
ATOM     36  C   UNL d   1       9.057   7.860 -12.034  0.00  0.00     0.000 A 
ATOM     37  C   UNL d   1       8.428   6.758 -12.646  0.00  0.00     0.000 A 
ENDBRANCH  29  32
ENDBRANCH  24  26
ENDBRANCH  22  23
ENDBRANCH  21  22
ENDBRANCH  20  21
ENDBRANCH   1  20
TORSDOF 11
