REMARK  5 active torsions:
REMARK  status: ('A' for Active; 'I' for Inactive)
REMARK    1  A    between atoms: O_2  and  C_3 
REMARK    2  A    between atoms: C_10  and  C_11 
REMARK       I    between atoms: C_11  and  N_13 
REMARK    3  A    between atoms: N_13  and  C_14 
REMARK    4  A    between atoms: N_18  and  C_19 
REMARK    5  A    between atoms: C_19  and  C_20 
ROOT
ATOM      1  C   UNL d   1       9.738   6.155 -10.761  0.00  0.00     0.140 C 
ATOM      2  C   UNL d   1       9.402   7.562 -11.260  0.00  0.00     0.029 C 
ATOM      3  C   UNL d   1      10.011   8.559 -10.272  0.00  0.00     0.037 C 
ATOM      4  C   UNL d   1       9.700   8.250  -8.821  0.00  0.00     0.251 C 
ATOM      5  N   UNL d   1      10.097   6.894  -8.432  0.00  0.00     0.143 N 
ATOM      6  C   UNL d   1       9.385   5.915  -9.274  0.00  0.00     0.275 C 
ENDROOT
BRANCH   1   7
ATOM      7  N   UNL d   1       9.120   5.142 -11.599  0.00  0.00    -0.234 NA
ATOM      8  C   UNL d   1       9.538   4.735 -12.802  0.00  0.00     0.277 C 
ATOM      9  O   UNL d   1      10.567   5.144 -13.356  0.00  0.00    -0.266 OA
BRANCH   8  10
ATOM     10  C   UNL d   1       8.709   3.672 -13.441  0.00  0.00     0.081 A 
ATOM     11  C   UNL d   1       7.288   3.679 -13.340  0.00  0.00     0.100 A 
ATOM     12  C   UNL d   1       6.560   2.624 -13.932  0.00  0.00     0.039 A 
ATOM     13  C   UNL d   1       7.216   1.586 -14.622  0.00  0.00     0.083 A 
ATOM     14  N   UNL d   1       6.463   0.561 -15.188  0.00  0.00    -0.100 NA
ATOM     15  C   UNL d   1       8.626   1.597 -14.726  0.00  0.00     0.071 A 
ATOM     16 CL   UNL d   1       9.475   0.340 -15.552  0.00  0.00    -0.081 Cl
ATOM     17  C   UNL d   1       9.358   2.639 -14.140  0.00  0.00     0.019 A 
BRANCH  11  18
ATOM     18  O   UNL d   1       6.680   4.724 -12.681  0.00  0.00    -0.328 OA
ATOM     19  C   UNL d   1       5.429   4.486 -12.066  0.00  0.00     0.181 C 
ENDBRANCH  11  18
ENDBRANCH   8  10
ENDBRANCH   1   7
BRANCH   5  20
ATOM     20  C   UNL d   1       9.748   6.651  -7.029  0.00  0.00     0.277 C 
BRANCH  20  21
ATOM     21  C   UNL d   1      10.469   7.522  -5.993  0.00  0.00     0.011 A 
ATOM     22  C   UNL d   1      11.350   6.935  -5.048  0.00  0.00    -0.002 A 
ATOM     23  C   UNL d   1      12.032   7.733  -4.101  0.00  0.00    -0.000 A 
ATOM     24  C   UNL d   1      11.893   9.140  -4.127  0.00  0.00    -0.000 A 
ATOM     25  C   UNL d   1      11.015   9.726  -5.064  0.00  0.00    -0.000 A 
ATOM     26  C   UNL d   1      10.266   8.919  -5.940  0.00  0.00    -0.002 A 
ENDBRANCH  20  21
ENDBRANCH   5  20
TORSDOF 5
