REMARK  6 active torsions:
REMARK  status: ('A' for Active; 'I' for Inactive)
REMARK    1  A    between atoms: C_2  and  C_3 
REMARK    2  A    between atoms: C_3  and  N_4 
REMARK    3  A    between atoms: N_4  and  C_5 
REMARK    4  A    between atoms: N_4  and  C_11 
REMARK    5  A    between atoms: C_5  and  C_6 
REMARK    6  A    between atoms: C_19  and  O_20 
ROOT
ATOM      1  C   UNL d   1       6.755   4.230 -12.686  0.00  0.00     0.224 C 
ATOM      2  C   UNL d   1       5.861   3.320 -11.881  0.00  0.00     0.038 C 
ATOM      3  C   UNL d   1       5.191   2.261 -12.788  0.00  0.00     0.030 C 
ATOM      4  C   UNL d   1       6.033   1.681 -13.923  0.00  0.00    -0.004 A 
ATOM      5  C   UNL d   1       7.252   2.299 -14.303  0.00  0.00    -0.022 A 
ATOM      6  C   UNL d   1       8.056   1.762 -15.306  0.00  0.00    -0.004 A 
ATOM      7  C   UNL d   1       7.671   0.594 -15.971  0.00  0.00     0.002 A 
ATOM      8  C   UNL d   1       6.463  -0.033 -15.629  0.00  0.00     0.024 A 
ATOM      9  C   UNL d   1       5.628   0.485 -14.609  0.00  0.00     0.090 A 
ATOM     10  C   UNL d   1       7.795   3.485 -13.556  0.00  0.00     0.059 C 
ENDROOT
BRANCH   1  11
ATOM     11  N   UNL d   1       7.330   5.242 -11.791  0.00  0.00     0.142 N 
BRANCH  11  12
ATOM     12  C   UNL d   1       7.138   6.586 -12.328  0.00  0.00     0.251 C 
BRANCH  12  13
ATOM     13  C   UNL d   1       5.656   7.017 -12.234  0.00  0.00     0.035 C 
ATOM     14  C   UNL d   1       5.462   8.398 -12.775  0.00  0.00     0.002 C 
ENDBRANCH  12  13
ENDBRANCH  11  12
BRANCH  11  15
ATOM     15  C   UNL d   1       8.737   5.015 -11.447  0.00  0.00     0.301 C 
BRANCH  15  16
ATOM     16  C   UNL d   1       9.286   5.774 -10.299  0.00  0.00     0.111 A 
ATOM     17  O   UNL d   1      10.026   6.876 -10.608  0.00  0.00    -0.307 OA
ATOM     18  C   UNL d   1      10.512   7.377  -9.436  0.00  0.00     0.122 A 
ATOM     19  C   UNL d   1      10.080   6.613  -8.383  0.00  0.00     0.029 A 
ATOM     20  C   UNL d   1       9.289   5.572  -8.950  0.00  0.00     0.024 A 
ENDBRANCH  15  16
ENDBRANCH  11  15
ENDBRANCH   1  11
BRANCH   9  21
ATOM     21  O   UNL d   1       4.436  -0.112 -14.213  0.00  0.00    -0.328 OA
ATOM     22  C   UNL d   1       3.964  -1.211 -15.000  0.00  0.00     0.181 C 
ENDBRANCH   9  21
TORSDOF 6
