REMARK  3 active torsions:
REMARK  status: ('A' for Active; 'I' for Inactive)
REMARK    1  A    between atoms: C_4  and  C_5 
REMARK    2  A    between atoms: N_8  and  C_9 
REMARK    3  A    between atoms: C_9  and  C_10 
ROOT
ATOM      1  C   UNL d   1      10.885   9.399  -6.582  0.00  0.00     0.046 C 
ATOM      2  C   UNL d   1       9.692   8.507  -6.902  0.00  0.00     0.041 C 
ATOM      3  C   UNL d   1       9.389   8.558  -8.396  0.00  0.00     0.251 C 
ATOM      4  N   UNL d   1      10.555   8.161  -9.192  0.00  0.00     0.141 N 
ATOM      5  C   UNL d   1      11.650   9.098  -8.975  0.00  0.00     0.251 C 
ATOM      6  C   UNL d   1      12.062   9.036  -7.487  0.00  0.00     0.041 C 
ENDROOT
BRANCH   4   7
ATOM      7  C   UNL d   1      10.171   8.098 -10.600  0.00  0.00     0.277 C 
BRANCH   7   8
ATOM      8  C   UNL d   1       9.363   6.874 -11.002  0.00  0.00     0.011 A 
ATOM      9  C   UNL d   1       8.853   6.785 -12.317  0.00  0.00    -0.002 A 
ATOM     10  C   UNL d   1       8.054   5.683 -12.712  0.00  0.00    -0.000 A 
ATOM     11  C   UNL d   1       7.732   4.693 -11.774  0.00  0.00    -0.000 A 
ATOM     12  C   UNL d   1       8.240   4.784 -10.466  0.00  0.00    -0.000 A 
ATOM     13  C   UNL d   1       9.070   5.843 -10.086  0.00  0.00    -0.002 A 
ENDBRANCH   7   8
ENDBRANCH   4   7
BRANCH   1  14
ATOM     14  C   UNL d   1      11.262   9.276  -5.150  0.00  0.00     0.082 A 
ATOM     15  C   UNL d   1      11.890   8.179  -4.492  0.00  0.00     0.033 A 
ATOM     16  C   UNL d   1      12.046   8.608  -3.212  0.00  0.00     0.082 A 
ATOM     17  C   UNL d   1      12.623   7.940  -2.017  0.00  0.00     0.054 C 
ATOM     18  N   UNL d   1      11.505   9.868  -3.166  0.00  0.00    -0.153 NA
ATOM     19  N   UNL d   1      10.998  10.279  -4.338  0.00  0.00    -0.153 NA
ENDBRANCH   1  14
TORSDOF 3
