REMARK  1 active torsions:
REMARK  status: ('A' for Active; 'I' for Inactive)
REMARK    1  A    between atoms: C_2  and  C_4 
ROOT
ATOM      1  C   UNL d   1      11.751   8.204  -3.958  0.00  0.00     0.160 A 
ATOM      2  C   UNL d   1      11.535   9.587  -4.173  0.00  0.00     0.123 A 
ATOM      3  N   UNL d   1      11.059  10.069  -5.343  0.00  0.00    -0.239 NA
ATOM      4  C   UNL d   1      10.795   9.159  -6.308  0.00  0.00     0.120 A 
ATOM      5  C   UNL d   1      10.988   7.776  -6.096  0.00  0.00     0.120 A 
ATOM      6  N   UNL d   1      11.461   7.293  -4.923  0.00  0.00    -0.236 NA
ENDROOT
BRANCH   1   7
ATOM      7  C   UNL d   1      12.260   7.712  -2.631  0.00  0.00     0.316 C 
ATOM      8  N   UNL d   1      12.264   6.392  -2.449  0.00  0.00    -0.101 N 
ATOM      9  O   UNL d   1      12.650   8.477  -1.756  0.00  0.00    -0.262 OA
ENDBRANCH   1   7
TORSDOF 1
