REMARK  5 active torsions:
REMARK  status: ('A' for Active; 'I' for Inactive)
REMARK    1  A    between atoms: C_5  and  N_6 
REMARK    2  A    between atoms: N_9  and  C_10 
REMARK    3  A    between atoms: C_10  and  C_11 
REMARK    4  A    between atoms: C_11  and  C_12 
REMARK    5  A    between atoms: C_12  and  C_13 
ROOT
ATOM      1  N   UNL d   1       9.038   3.775 -14.157  0.00  0.00    -0.343 N 
ATOM      2  C   UNL d   1       8.933   5.197 -14.367  0.00  0.00     0.137 C 
ATOM      3  C   UNL d   1       8.518   5.878 -13.033  0.00  0.00     0.274 C 
ATOM      4  N   UNL d   1       9.472   5.543 -11.962  0.00  0.00     0.141 N 
ATOM      5  C   UNL d   1       9.475   4.090 -11.798  0.00  0.00     0.274 C 
ATOM      6  C   UNL d   1       9.915   3.406 -13.087  0.00  0.00     0.137 C 
ENDROOT
BRANCH   1   7
ATOM      7  C   UNL d   1       8.422   2.807 -14.960  0.00  0.00     0.080 A 
ATOM      8  C   UNL d   1       8.948   2.488 -16.228  0.00  0.00     0.126 A 
ATOM      9  O   UNL d   1      10.077   3.132 -16.672  0.00  0.00    -0.321 OA
ATOM     10  C   UNL d   1       8.294   1.549 -17.064  0.00  0.00     0.086 A 
ATOM     11  C   UNL d   1      10.893   2.425 -17.606  0.00  0.00     0.200 C 
ATOM     12  C   UNL d   1      11.823   1.456 -16.859  0.00  0.00     0.043 C 
ATOM     13  C   UNL d   1      10.068   1.707 -18.688  0.00  0.00     0.265 C 
ATOM     14  N   UNL d   1       8.812   1.310 -18.375  0.00  0.00    -0.293 N 
ATOM     15  O   UNL d   1      10.593   1.489 -19.782  0.00  0.00    -0.269 OA
ATOM     16  C   UNL d   1       8.004   0.564 -19.351  0.00  0.00     0.134 C 
ATOM     17  C   UNL d   1       7.125   0.907 -16.593  0.00  0.00     0.019 A 
ATOM     18  C   UNL d   1       6.627   1.192 -15.310  0.00  0.00     0.003 A 
ATOM     19  C   UNL d   1       7.268   2.152 -14.498  0.00  0.00     0.019 A 
ENDBRANCH   1   7
BRANCH   4  20
ATOM     20  C   UNL d   1       9.064   6.220 -10.733  0.00  0.00     0.251 C 
BRANCH  20  21
ATOM     21  C   UNL d   1       9.848   5.767  -9.481  0.00  0.00     0.040 C 
BRANCH  21  22
ATOM     22  C   UNL d   1       9.317   6.372  -8.179  0.00  0.00     0.030 C 
BRANCH  22  23
ATOM     23  C   UNL d   1      10.082   7.582  -7.777  0.00  0.00    -0.002 A 
ATOM     24  C   UNL d   1      10.775   7.802  -6.535  0.00  0.00     0.015 A 
ATOM     25  C   UNL d   1      11.377   9.089  -6.598  0.00  0.00     0.081 A 
ATOM     26  C   UNL d   1      10.979   7.056  -5.350  0.00  0.00     0.001 A 
ATOM     27  N   UNL d   1      11.065   9.585  -7.841  0.00  0.00    -0.244 NA
ATOM     28  C   UNL d   1      12.120   9.619  -5.535  0.00  0.00     0.019 A 
ATOM     29  C   UNL d   1      10.289   8.690  -8.553  0.00  0.00     0.095 A 
ATOM     30  C   UNL d   1      12.271   8.874  -4.354  0.00  0.00     0.002 A 
ATOM     31  C   UNL d   1      11.713   7.585  -4.268  0.00  0.00     0.000 A 
ENDBRANCH  22  23
ENDBRANCH  21  22
ENDBRANCH  20  21
ENDBRANCH   4  20
TORSDOF 5
