REMARK  5 active torsions:
REMARK  status: ('A' for Active; 'I' for Inactive)
REMARK    1  A    between atoms: O_2  and  C_3 
REMARK    2  A    between atoms: C_6  and  C_7 
REMARK    3  A    between atoms: N_11  and  C_12 
REMARK    4  A    between atoms: N_15  and  C_16 
REMARK    5  A    between atoms: C_16  and  C_17 
ROOT
ATOM      1  C   UNL d   1       9.917   7.191  -9.244  0.00  0.00     0.098 A 
ATOM      2  N   UNL d   1       9.889   7.935 -10.410  0.00  0.00    -0.191 NA
ATOM      3  C   UNL d   1       9.407   7.205 -11.417  0.00  0.00     0.350 A 
ATOM      4  O   UNL d   1       9.294   7.604 -12.575  0.00  0.00    -0.244 OA
ATOM      5  N   UNL d   1       9.117   5.987 -10.927  0.00  0.00    -0.284 N 
ATOM      6  C   UNL d   1       9.414   5.973  -9.565  0.00  0.00     0.059 A 
ATOM      7  C   UNL d   1       9.134   4.716  -8.745  0.00  0.00     0.052 C 
ENDROOT
BRANCH   5   8
ATOM      8  C   UNL d   1       8.678   4.819 -11.718  0.00  0.00     0.094 C 
ATOM      9  C   UNL d   1       7.383   5.079 -12.502  0.00  0.00     0.058 C 
ATOM     10  C   UNL d   1       7.012   3.881 -13.385  0.00  0.00     0.253 C 
ATOM     11  N   UNL d   1       8.122   3.542 -14.284  0.00  0.00     0.141 N 
ATOM     12  C   UNL d   1       9.306   3.146 -13.519  0.00  0.00     0.253 C 
ATOM     13  C   UNL d   1       9.792   4.301 -12.647  0.00  0.00     0.058 C 
BRANCH  11  14
ATOM     14  C   UNL d   1       7.695   2.449 -15.155  0.00  0.00     0.277 C 
BRANCH  14  15
ATOM     15  C   UNL d   1       8.732   2.038 -16.192  0.00  0.00     0.011 A 
ATOM     16  C   UNL d   1       9.110   0.683 -16.303  0.00  0.00    -0.002 A 
ATOM     17  C   UNL d   1      10.087   0.295 -17.240  0.00  0.00    -0.000 A 
ATOM     18  C   UNL d   1      10.689   1.260 -18.071  0.00  0.00    -0.000 A 
ATOM     19  C   UNL d   1      10.316   2.614 -17.965  0.00  0.00    -0.000 A 
ATOM     20  C   UNL d   1       9.338   3.002 -17.028  0.00  0.00    -0.002 A 
ENDBRANCH  14  15
ENDBRANCH  11  14
ENDBRANCH   5   8
BRANCH   1  21
ATOM     21  C   UNL d   1      10.442   7.758  -7.983  0.00  0.00     0.019 A 
ATOM     22  C   UNL d   1      10.945   9.090  -7.960  0.00  0.00     0.004 A 
ATOM     23  C   UNL d   1      11.457   9.638  -6.755  0.00  0.00     0.024 A 
ATOM     24  C   UNL d   1      11.472   8.876  -5.565  0.00  0.00     0.094 A 
ATOM     25  C   UNL d   1      10.974   7.558  -5.606  0.00  0.00     0.024 A 
ATOM     26  C   UNL d   1      10.492   6.992  -6.789  0.00  0.00     0.004 A 
BRANCH  24  27
ATOM     27  O   UNL d   1      12.010   9.430  -4.429  0.00  0.00    -0.328 OA
ATOM     28  C   UNL d   1      12.241   8.551  -3.336  0.00  0.00     0.181 C 
ENDBRANCH  24  27
ENDBRANCH   1  21
TORSDOF 5
