REMARK  4 active torsions:
REMARK  status: ('A' for Active; 'I' for Inactive)
REMARK    1  A    between atoms: C_4  and  C_5 
REMARK    2  A    between atoms: N_15  and  C_16 
REMARK    3  A    between atoms: C_16  and  C_17 
REMARK    4  A    between atoms: C_17  and  C_18 
ROOT
ATOM      1  O   UNL d   1      10.356   0.656 -15.682  0.00  0.00    -0.291 OA
ATOM      2  C   UNL d   1       9.934   1.818 -15.647  0.00  0.00     0.177 C 
ATOM      3  C   UNL d   1      10.658   2.953 -16.230  0.00  0.00     0.062 C 
ATOM      4  C   UNL d   1      10.248   4.223 -16.002  0.00  0.00     0.097 C 
ATOM      5  O   UNL d   1       9.216   4.516 -15.132  0.00  0.00    -0.335 OA
ATOM      6  C   UNL d   1       8.715   3.488 -14.258  0.00  0.00     0.110 C 
ATOM      7  C   UNL d   1       7.315   3.831 -13.683  0.00  0.00     0.064 C 
ATOM      8  C   UNL d   1       7.300   4.995 -12.684  0.00  0.00     0.253 C 
ATOM      9  N   UNL d   1       8.205   4.703 -11.573  0.00  0.00     0.138 N 
ATOM     10  C   UNL d   1       9.559   4.583 -12.103  0.00  0.00     0.253 C 
ATOM     11  C   UNL d   1       9.683   3.404 -13.067  0.00  0.00     0.064 C 
ATOM     12  C   UNL d   1       8.606   2.135 -14.980  0.00  0.00     0.097 C 
ENDROOT
BRANCH   4  13
ATOM     13  C   UNL d   1      10.938   5.327 -16.676  0.00  0.00     0.022 A 
ATOM     14  C   UNL d   1      11.942   6.039 -15.983  0.00  0.00     0.002 A 
ATOM     15  C   UNL d   1      12.660   7.068 -16.623  0.00  0.00     0.000 A 
ATOM     16  C   UNL d   1      12.389   7.388 -17.967  0.00  0.00     0.000 A 
ATOM     17  C   UNL d   1      11.392   6.680 -18.670  0.00  0.00     0.000 A 
ATOM     18  C   UNL d   1      10.673   5.647 -18.030  0.00  0.00     0.002 A 
ENDBRANCH   4  13
BRANCH   9  19
ATOM     19  C   UNL d   1       8.152   5.809 -10.620  0.00  0.00     0.255 C 
BRANCH  19  20
ATOM     20  C   UNL d   1       8.865   5.505  -9.278  0.00  0.00     0.062 C 
BRANCH  20  21
ATOM     21  C   UNL d   1       9.461   6.746  -8.636  0.00  0.00    -0.020 A 
ATOM     22  C   UNL d   1       9.148   7.084  -7.304  0.00  0.00    -0.004 A 
ATOM     23  C   UNL d   1       9.715   8.233  -6.722  0.00  0.00    -0.000 A 
ATOM     24  C   UNL d   1      10.595   9.047  -7.460  0.00  0.00    -0.000 A 
ATOM     25  C   UNL d   1      10.914   8.711  -8.790  0.00  0.00    -0.000 A 
ATOM     26  C   UNL d   1      10.357   7.557  -9.370  0.00  0.00    -0.004 A 
ENDBRANCH  20  21
ENDBRANCH  19  20
ENDBRANCH   9  19
TORSDOF 4
