REMARK  3 active torsions:
REMARK  status: ('A' for Active; 'I' for Inactive)
REMARK    1  A    between atoms: C_2  and  C_3 
REMARK    2  A    between atoms: C_2  and  C_5 
REMARK       I    between atoms: C_5  and  N_7 
REMARK    3  A    between atoms: C_11  and  C_12 
ROOT
ATOM      1  C   UNL d   1      10.442   8.180  -8.080  0.00  0.00     0.234 C 
ATOM      2  O   UNL d   1       9.654   9.136  -8.114  0.00  0.00    -0.272 OA
ATOM      3  N   UNL d   1      10.812   7.606  -6.926  0.00  0.00    -0.312 N 
ATOM      4  C   UNL d   1      11.727   6.477  -6.763  0.00  0.00     0.105 C 
ATOM      5  C   UNL d   1      11.930   6.329  -5.270  0.00  0.00     0.027 C 
ATOM      6  C   UNL d   1      10.644   6.777  -4.702  0.00  0.00     0.035 C 
ATOM      7  C   UNL d   1      10.288   7.989  -5.608  0.00  0.00     0.171 C 
ENDROOT
BRANCH   1   8
ATOM      8  C   UNL d   1      11.072   7.687  -9.390  0.00  0.00     0.091 C 
ATOM      9  C   UNL d   1      12.010   8.764  -9.949  0.00  0.00     0.011 C 
BRANCH   8  10
ATOM     10  C   UNL d   1      10.007   7.246 -10.378  0.00  0.00     0.078 C 
ATOM     11  S   UNL d   1       9.033   5.836  -9.756  0.00  0.00    -0.082 SA
ENDBRANCH   8  10
ENDBRANCH   1   8
BRANCH   7  12
ATOM     12  C   UNL d   1      10.840   9.374  -5.119  0.00  0.00     0.207 C 
ATOM     13  O   UNL d   1      11.226   9.574  -3.970  0.00  0.00    -0.646 OA
ATOM     14  O   UNL d   1      10.810  10.406  -6.011  0.00  0.00    -0.646 OA
ENDBRANCH   7  12
TORSDOF 3
