REMARK  7 active torsions:
REMARK  status: ('A' for Active; 'I' for Inactive)
REMARK    1  A    between atoms: C_2  and  C_3 
REMARK       I    between atoms: C_2  and  N_20 
REMARK    2  A    between atoms: C_3  and  C_4 
REMARK    3  A    between atoms: C_4  and  C_5 
REMARK    4  A    between atoms: C_5  and  N_6 
REMARK    5  A    between atoms: N_9  and  C_10 
REMARK    6  A    between atoms: N_20  and  C_21 
REMARK    7  A    between atoms: C_27  and  C_28 
ROOT
ATOM      1  C   UNL d   1       8.323   4.755 -13.273  0.00  0.00     0.092 C 
ENDROOT
BRANCH   1   2
ATOM      2  C   UNL d   1       7.175   3.817 -13.636  0.00  0.00     0.256 C 
ATOM      3  O   UNL d   1       6.024   4.055 -13.270  0.00  0.00    -0.270 OA
ATOM      4  N   UNL d   1       7.515   2.759 -14.384  0.00  0.00    -0.212 NA
BRANCH   4   5
ATOM      5  C   UNL d   1       6.700   1.668 -14.769  0.00  0.00     0.087 A 
ATOM      6  C   UNL d   1       6.976   1.091 -15.984  0.00  0.00     0.038 A 
ATOM      7  C   UNL d   1       6.233  -0.034 -16.407  0.00  0.00     0.087 A 
ATOM      8  N   UNL d   1       5.214  -0.511 -15.559  0.00  0.00    -0.228 N 
ATOM      9  C   UNL d   1       6.217  -0.838 -17.509  0.00  0.00     0.060 A 
ATOM     10  C   UNL d   1       4.939   0.043 -14.349  0.00  0.00     0.102 A 
ATOM     11  N   UNL d   1       4.540  -1.557 -16.125  0.00  0.00    -0.164 NA
ATOM     12  C   UNL d   1       5.681   1.131 -13.930  0.00  0.00     0.040 A 
ATOM     13  C   UNL d   1       5.152  -1.748 -17.277  0.00  0.00     0.124 A 
BRANCH   9  14
ATOM     14  C   UNL d   1       7.050  -0.765 -18.725  0.00  0.00     0.134 C 
ATOM     15  N   UNL d   1       8.301  -0.560 -18.799  0.00  0.00    -0.095 NA
ATOM     16  O   UNL d   1       8.910  -0.635 -17.497  0.00  0.00    -0.061 OA
ENDBRANCH   9  14
ENDBRANCH   4   5
ENDBRANCH   1   2
BRANCH   1  17
ATOM     17  C   UNL d   1       8.428   4.981 -11.755  0.00  0.00     0.045 C 
BRANCH  17  18
ATOM     18  C   UNL d   1       9.410   6.115 -11.442  0.00  0.00     0.251 C 
BRANCH  18  19
ATOM     19  N   UNL d   1       9.220   6.558 -10.072  0.00  0.00     0.141 N 
ATOM     20  C   UNL d   1      10.086   5.816  -9.176  0.00  0.00     0.274 C 
ATOM     21  C   UNL d   1       9.903   6.280  -7.744  0.00  0.00     0.137 C 
ATOM     22  N   UNL d   1      10.131   7.721  -7.626  0.00  0.00    -0.344 N 
ATOM     23  C   UNL d   1       9.316   8.512  -8.522  0.00  0.00     0.137 C 
ATOM     24  C   UNL d   1       9.547   7.995  -9.960  0.00  0.00     0.274 C 
BRANCH  22  25
ATOM     25  C   UNL d   1      10.915   8.332  -6.628  0.00  0.00     0.068 A 
ATOM     26  C   UNL d   1      11.168   7.821  -5.332  0.00  0.00     0.084 A 
ATOM     27  C   UNL d   1      11.993   8.441  -4.377  0.00  0.00     0.070 A 
ATOM     28 CL   UNL d   1      10.587   6.386  -4.817  0.00  0.00    -0.080 Cl
ATOM     29  C   UNL d   1      12.668   9.588  -4.766  0.00  0.00     0.012 A 
ATOM     30 CL   UNL d   1      12.256   7.828  -2.795  0.00  0.00    -0.081 Cl
ATOM     31  C   UNL d   1      12.385  10.142  -6.034  0.00  0.00     0.002 A 
ATOM     32  C   UNL d   1      11.543   9.531  -6.961  0.00  0.00     0.018 A 
ENDBRANCH  22  25
ENDBRANCH  18  19
ENDBRANCH  17  18
ENDBRANCH   1  17
TORSDOF 7
