REMARK  3 active torsions:
REMARK  status: ('A' for Active; 'I' for Inactive)
REMARK    1  A    between atoms: C_8  and  C_9 
REMARK    2  A    between atoms: C_9  and  N_10 
REMARK    3  A    between atoms: N_13  and  C_14 
ROOT
ATOM      1  N   UNL d   1      11.398   7.371  -4.802  0.00  0.00    -0.191 NA
ATOM      2  C   UNL d   1      11.060   7.422  -5.908  0.00  0.00     0.101 C 
ATOM      3  C   UNL d   1      10.657   7.485  -7.300  0.00  0.00     0.070 A 
ATOM      4  C   UNL d   1      10.793   8.685  -8.026  0.00  0.00     0.010 A 
ATOM      5  C   UNL d   1      10.428   8.734  -9.386  0.00  0.00     0.002 A 
ATOM      6  C   UNL d   1       9.919   7.592 -10.053  0.00  0.00     0.019 A 
ATOM      7  C   UNL d   1       9.459   7.315 -11.386  0.00  0.00     0.018 A 
ATOM      8  C   UNL d   1       9.088   5.994 -11.420  0.00  0.00     0.092 A 
ATOM      9  N   UNL d   1       9.301   5.444 -10.168  0.00  0.00    -0.248 NA
ATOM     10  C   UNL d   1       9.800   6.394  -9.295  0.00  0.00     0.082 A 
ATOM     11  C   UNL d   1      10.161   6.334  -7.941  0.00  0.00     0.029 A 
ENDROOT
BRANCH   8  12
ATOM     12  C   UNL d   1       8.539   5.217 -12.568  0.00  0.00     0.296 C 
BRANCH  12  13
ATOM     13  N   UNL d   1       9.581   4.766 -13.492  0.00  0.00     0.147 N 
ATOM     14  C   UNL d   1      10.002   3.420 -13.099  0.00  0.00     0.275 C 
ATOM     15  C   UNL d   1      11.102   2.876 -14.042  0.00  0.00     0.137 C 
ATOM     16  N   UNL d   1      10.674   2.933 -15.428  0.00  0.00    -0.344 N 
ATOM     17  C   UNL d   1      10.108   4.196 -15.858  0.00  0.00     0.137 C 
ATOM     18  C   UNL d   1       9.039   4.639 -14.840  0.00  0.00     0.275 C 
BRANCH  16  19
ATOM     19  C   UNL d   1      10.667   1.802 -16.258  0.00  0.00     0.067 A 
ATOM     20  C   UNL d   1       9.745   0.736 -16.091  0.00  0.00     0.073 A 
ATOM     21  C   UNL d   1       9.783  -0.362 -16.968  0.00  0.00     0.013 A 
ATOM     22 CL   UNL d   1       8.539   0.756 -14.852  0.00  0.00    -0.081 Cl
ATOM     23  C   UNL d   1      10.722  -0.424 -18.007  0.00  0.00     0.001 A 
ATOM     24  C   UNL d   1      11.636   0.627 -18.179  0.00  0.00     0.002 A 
ATOM     25  C   UNL d   1      11.605   1.739 -17.314  0.00  0.00     0.018 A 
ENDBRANCH  16  19
ENDBRANCH  12  13
ENDBRANCH   8  12
TORSDOF 3
