REMARK  4 active torsions:
REMARK  status: ('A' for Active; 'I' for Inactive)
REMARK    1  A    between atoms: C_5  and  N_6 
REMARK    2  A    between atoms: N_9  and  C_10 
REMARK    3  A    between atoms: C_10  and  C_11 
REMARK    4  A    between atoms: C_11  and  C_12 
ROOT
ATOM      1  N   UNL d   1       8.476   5.173 -12.563  0.00  0.00    -0.344 N 
ATOM      2  C   UNL d   1       8.985   6.529 -12.346  0.00  0.00     0.137 C 
ATOM      3  C   UNL d   1       9.767   6.613 -11.026  0.00  0.00     0.274 C 
ATOM      4  N   UNL d   1       8.957   6.153  -9.902  0.00  0.00     0.141 N 
ATOM      5  C   UNL d   1       8.523   4.776 -10.130  0.00  0.00     0.274 C 
ATOM      6  C   UNL d   1       7.704   4.660 -11.430  0.00  0.00     0.137 C 
ENDROOT
BRANCH   4   7
ATOM      7  C   UNL d   1       9.681   6.242  -8.636  0.00  0.00     0.257 C 
BRANCH   7   8
ATOM      8  C   UNL d   1       9.799   7.706  -8.171  0.00  0.00     0.081 C 
BRANCH   8   9
ATOM      9  C   UNL d   1      10.422   7.868  -6.826  0.00  0.00     0.063 A 
ATOM     10  C   UNL d   1      11.054   6.940  -6.035  0.00  0.00     0.018 A 
ATOM     11  C   UNL d   1      11.460   7.620  -4.840  0.00  0.00     0.037 A 
ATOM     12  C   UNL d   1      12.113   7.277  -3.642  0.00  0.00     0.005 A 
ATOM     13  C   UNL d   1      11.057   8.985  -4.958  0.00  0.00     0.162 A 
ATOM     14  C   UNL d   1      12.332   8.275  -2.676  0.00  0.00     0.021 A 
ATOM     15  C   UNL d   1      11.877   9.585  -2.928  0.00  0.00     0.101 A 
ATOM     16  N   UNL d   1      11.234   9.974  -4.049  0.00  0.00    -0.225 NA
ATOM     17  N   UNL d   1      10.443   9.095  -6.186  0.00  0.00    -0.231 NA
ENDBRANCH   8   9
ENDBRANCH   7   8
ENDBRANCH   4   7
BRANCH   1  18
ATOM     18  C   UNL d   1       8.722   4.405 -13.726  0.00  0.00     0.056 A 
ATOM     19  C   UNL d   1       9.791   4.713 -14.611  0.00  0.00     0.018 A 
ATOM     20  C   UNL d   1      10.019   3.945 -15.776  0.00  0.00     0.013 A 
ATOM     21  C   UNL d   1       9.196   2.842 -16.069  0.00  0.00     0.058 A 
ATOM     22 CL   UNL d   1       9.451   1.923 -17.511  0.00  0.00    -0.082 Cl
ATOM     23  C   UNL d   1       8.136   2.521 -15.202  0.00  0.00     0.013 A 
ATOM     24  C   UNL d   1       7.887   3.304 -14.055  0.00  0.00     0.018 A 
ENDBRANCH   1  18
TORSDOF 4
