REMARK  8 active torsions:
REMARK  status: ('A' for Active; 'I' for Inactive)
REMARK    1  A    between atoms: C_2  and  C_4 
REMARK    2  A    between atoms: C_9  and  O_10 
REMARK    3  A    between atoms: O_10  and  C_11 
REMARK    4  A    between atoms: C_11  and  C_12 
REMARK    5  A    between atoms: C_12  and  N_13 
REMARK    6  A    between atoms: C_16  and  N_17 
REMARK    7  A    between atoms: N_17  and  S_19 
REMARK    8  A    between atoms: S_19  and  C_22 
ROOT
ATOM      1  N   UNL d   1      10.980   4.018 -16.617  0.00  0.00     0.140 N 
ATOM      2  C   UNL d   1      12.086   4.936 -16.651  0.00  0.00     0.252 C 
ATOM      3  C   UNL d   1      12.456   5.152 -18.096  0.00  0.00     0.058 C 
ATOM      4  C   UNL d   1      11.257   5.812 -18.845  0.00  0.00     0.096 C 
ATOM      5  C   UNL d   1      10.032   4.889 -18.725  0.00  0.00     0.058 C 
ATOM      6  C   UNL d   1       9.759   4.559 -17.256  0.00  0.00     0.252 C 
ENDROOT
BRANCH   1   7
ATOM      7  C   UNL d   1      10.750   3.620 -15.251  0.00  0.00     0.283 C 
BRANCH   7   8
ATOM      8  C   UNL d   1      10.388   4.770 -14.298  0.00  0.00     0.184 C 
BRANCH   8   9
ATOM      9  O   UNL d   1       9.758   4.282 -13.118  0.00  0.00    -0.329 OA
BRANCH   9  10
ATOM     10  C   UNL d   1       8.426   3.981 -13.195  0.00  0.00     0.090 A 
ATOM     11  C   UNL d   1       7.522   4.626 -12.324  0.00  0.00    -0.000 A 
ATOM     12  C   UNL d   1       6.159   4.245 -12.322  0.00  0.00    -0.002 A 
ATOM     13  C   UNL d   1       5.680   3.253 -13.191  0.00  0.00    -0.000 A 
ATOM     14  C   UNL d   1       6.568   2.613 -14.063  0.00  0.00     0.002 A 
ATOM     15  C   UNL d   1       7.925   2.939 -14.040  0.00  0.00     0.024 A 
BRANCH  11  16
ATOM     16  C   UNL d   1       7.978   5.703 -11.341  0.00  0.00     0.024 C 
ATOM     17  C   UNL d   1       8.555   6.938 -12.059  0.00  0.00     0.005 C 
ATOM     18  C   UNL d   1       8.938   5.165 -10.260  0.00  0.00     0.005 C 
ENDBRANCH  11  16
ENDBRANCH   9  10
ENDBRANCH   8   9
ENDBRANCH   7   8
ENDBRANCH   1   7
BRANCH   4  19
ATOM     19  N   UNL d   1      11.616   6.056 -20.256  0.00  0.00    -0.274 N 
ATOM     20  C   UNL d   1      11.715   4.870 -21.131  0.00  0.00     0.138 C 
BRANCH  19  21
ATOM     21  S   UNL d   1      11.696   7.659 -20.938  0.00  0.00     0.264 S 
ATOM     22  O   UNL d   1      11.955   7.538 -22.363  0.00  0.00    -0.200 OA
ATOM     23  O   UNL d   1      10.491   8.393 -20.460  0.00  0.00    -0.200 OA
BRANCH  21  24
ATOM     24  C   UNL d   1      13.136   8.416 -20.160  0.00  0.00     0.106 C 
ATOM     25  C   UNL d   1      13.910   9.324 -20.902  0.00  0.00     0.043 C 
ATOM     26  C   UNL d   1      15.041   9.916 -20.292  0.00  0.00     0.141 C 
ATOM     27  C   UNL d   1      15.443   9.541 -18.987  0.00  0.00     0.030 C 
ATOM     28  F   UNL d   1      15.764  10.863 -20.975  0.00  0.00    -0.204 F 
ATOM     29  C   UNL d   1      14.670   8.622 -18.264  0.00  0.00     0.003 C 
ATOM     30  C   UNL d   1      13.476   8.142 -18.819  0.00  0.00     0.013 C 
ENDBRANCH  21  24
ENDBRANCH  19  21
ENDBRANCH   4  19
TORSDOF 8
