REMARK  7 active torsions:
REMARK  status: ('A' for Active; 'I' for Inactive)
REMARK    1  A    between atoms: C_2  and  N_3 
REMARK    2  A    between atoms: N_3  and  C_4 
REMARK    3  A    between atoms: N_3  and  C_6 
REMARK    4  A    between atoms: C_6  and  C_7 
REMARK    5  A    between atoms: C_7  and  C_8 
REMARK    6  A    between atoms: C_8  and  C_9 
REMARK    7  A    between atoms: C_14  and  C_15 
ROOT
ATOM      1  C   UNL d   1       9.659   1.414 -16.986  0.00  0.00     0.106 C 
ATOM      2  C   UNL d   1      11.143   1.672 -16.606  0.00  0.00     0.031 C 
ATOM      3  C   UNL d   1       9.426  -0.097 -17.242  0.00  0.00     0.097 C 
ATOM      4  C   UNL d   1      10.222  -0.553 -18.445  0.00  0.00     0.177 C 
ATOM      5  O   UNL d   1      10.788  -1.614 -18.400  0.00  0.00    -0.291 OA
ATOM      6  C   UNL d   1      10.256   0.403 -19.579  0.00  0.00     0.059 C 
ATOM      7  C   UNL d   1       9.773   1.640 -19.374  0.00  0.00     0.119 C 
ATOM      8  O   UNL d   1       9.314   2.147 -18.152  0.00  0.00    -0.333 OA
ENDROOT
BRANCH   1   9
ATOM      9  C   UNL d   1       8.799   1.941 -15.809  0.00  0.00     0.030 C 
BRANCH   9  10
ATOM     10  C   UNL d   1       7.356   1.440 -15.838  0.00  0.00     0.038 C 
BRANCH  10  11
ATOM     11  C   UNL d   1       6.603   1.767 -14.550  0.00  0.00     0.250 C 
BRANCH  11  12
ATOM     12  N   UNL d   1       5.441   0.901 -14.284  0.00  0.00     0.137 N 
BRANCH  12  13
ATOM     13  C   UNL d   1       5.409   0.459 -12.904  0.00  0.00     0.250 C 
ATOM     14  C   UNL d   1       5.363   1.639 -11.928  0.00  0.00     0.037 C 
ENDBRANCH  12  13
BRANCH  12  15
ATOM     15  C   UNL d   1       5.166  -0.190 -15.237  0.00  0.00     0.250 C 
ATOM     16  C   UNL d   1       3.827  -0.940 -15.101  0.00  0.00     0.037 C 
ENDBRANCH  12  15
ENDBRANCH  11  12
ENDBRANCH  10  11
ENDBRANCH   9  10
ENDBRANCH   1   9
BRANCH   6  17
ATOM     17  C   UNL d   1      10.800  -0.083 -20.892  0.00  0.00     0.005 A 
ATOM     18  C   UNL d   1       9.973  -0.103 -22.050  0.00  0.00     0.000 A 
ATOM     19  C   UNL d   1      10.502  -0.576 -23.276  0.00  0.00     0.000 A 
ATOM     20  C   UNL d   1      11.824  -1.024 -23.350  0.00  0.00     0.000 A 
ATOM     21  C   UNL d   1      12.657  -1.004 -22.218  0.00  0.00     0.000 A 
ATOM     22  C   UNL d   1      12.133  -0.527 -20.984  0.00  0.00     0.000 A 
ENDBRANCH   6  17
TORSDOF 7
