REMARK  7 active torsions:
REMARK  status: ('A' for Active; 'I' for Inactive)
REMARK    1  A    between atoms: C_5  and  C_6 
REMARK    2  A    between atoms: N_14  and  C_15 
REMARK    3  A    between atoms: C_15  and  C_16 
REMARK    4  A    between atoms: C_16  and  C_17 
REMARK    5  A    between atoms: C_17  and  S_18 
REMARK    6  A    between atoms: S_18  and  C_19 
REMARK    7  A    between atoms: C_22  and  C_23 
ROOT
ATOM      1  C   UNL d   1      10.543   3.399 -14.562  0.00  0.00     0.251 C 
ENDROOT
BRANCH   1   2
ATOM      2  N   UNL d   1       9.523   2.982 -15.532  0.00  0.00     0.138 N 
ATOM      3  C   UNL d   1       8.922   1.700 -15.144  0.00  0.00     0.255 C 
ATOM      4  C   UNL d   1       7.617   1.403 -15.892  0.00  0.00     0.061 C 
ATOM      5  C   UNL d   1       7.829   0.795 -17.263  0.00  0.00    -0.024 A 
ATOM      6  C   UNL d   1       8.537   1.488 -18.268  0.00  0.00    -0.024 A 
ATOM      7  C   UNL d   1       7.323  -0.495 -17.524  0.00  0.00    -0.001 A 
ATOM      8  C   UNL d   1       8.740   0.873 -19.522  0.00  0.00    -0.004 A 
ATOM      9  C   UNL d   1       9.096   2.880 -18.013  0.00  0.00     0.061 C 
ATOM     10  C   UNL d   1       8.246  -0.423 -19.770  0.00  0.00     0.003 A 
ATOM     11  C   UNL d   1       7.543  -1.121 -18.768  0.00  0.00     0.041 A 
ATOM     12  C   UNL d   1      10.129   2.945 -16.869  0.00  0.00     0.255 C 
BRANCH  11  13
ATOM     13  C   UNL d   1       7.033  -2.465 -19.018  0.00  0.00     0.182 A 
ATOM     14  N   UNL d   1       7.383  -3.318 -19.982  0.00  0.00    -0.219 NA
ATOM     15  C   UNL d   1       6.600  -4.443 -19.770  0.00  0.00     0.121 A 
ATOM     16  C   UNL d   1       5.805  -4.210 -18.679  0.00  0.00     0.099 A 
ATOM     17  C   UNL d   1       4.765  -5.023 -17.984  0.00  0.00     0.060 C 
ATOM     18  O   UNL d   1       6.073  -2.962 -18.189  0.00  0.00    -0.292 OA
ENDBRANCH  11  13
ENDBRANCH   1   2
BRANCH   1  19
ATOM     19  C   UNL d   1       9.965   3.766 -13.177  0.00  0.00     0.047 C 
BRANCH  19  20
ATOM     20  C   UNL d   1       8.970   4.939 -13.247  0.00  0.00     0.067 C 
BRANCH  20  21
ATOM     21  S   UNL d   1       7.986   5.074 -11.727  0.00  0.00    -0.075 SA
BRANCH  21  22
ATOM     22  C   UNL d   1       8.934   6.256 -10.822  0.00  0.00     0.193 A 
ATOM     23  N   UNL d   1       9.148   6.158  -9.496  0.00  0.00    -0.287 N 
ATOM     24  C   UNL d   1       9.888   7.263  -9.250  0.00  0.00     0.185 A 
ATOM     25  C   UNL d   1       8.672   5.137  -8.576  0.00  0.00     0.134 C 
ATOM     26  N   UNL d   1      10.090   8.005 -10.346  0.00  0.00    -0.127 NA
ATOM     27  N   UNL d   1       9.459   7.351 -11.369  0.00  0.00    -0.122 NA
BRANCH  24  28
ATOM     28  C   UNL d   1      10.406   7.667  -7.942  0.00  0.00     0.117 A 
ATOM     29  N   UNL d   1      10.614   6.740  -6.933  0.00  0.00    -0.242 NA
ATOM     30  C   UNL d   1      11.100   7.344  -5.797  0.00  0.00     0.082 A 
ATOM     31  C   UNL d   1      11.216   8.727  -6.117  0.00  0.00     0.019 A 
ATOM     32  C   UNL d   1      11.464   6.826  -4.546  0.00  0.00     0.019 A 
ATOM     33  C   UNL d   1      10.784   8.904  -7.477  0.00  0.00     0.024 A 
ATOM     34  C   UNL d   1      11.711   9.577  -5.102  0.00  0.00     0.002 A 
ATOM     35  C   UNL d   1      12.078   9.070  -3.833  0.00  0.00     0.000 A 
ATOM     36  C   UNL d   1      11.953   7.694  -3.555  0.00  0.00     0.002 A 
ENDBRANCH  24  28
ENDBRANCH  21  22
ENDBRANCH  20  21
ENDBRANCH  19  20
ENDBRANCH   1  19
TORSDOF 7
