REMARK  4 active torsions:
REMARK  status: ('A' for Active; 'I' for Inactive)
REMARK    1  A    between atoms: C_2  and  N_3 
REMARK    2  A    between atoms: N_6  and  C_7 
REMARK    3  A    between atoms: N_15  and  S_16 
REMARK    4  A    between atoms: S_16  and  C_19 
ROOT
ATOM      1  C   UNL d   1       8.796   5.528 -12.270  0.00  0.00     0.056 A 
ATOM      2  C   UNL d   1       9.405   6.803 -12.317  0.00  0.00     0.018 A 
ATOM      3  C   UNL d   1       9.772   7.461 -11.136  0.00  0.00     0.019 A 
ATOM      4  C   UNL d   1       9.542   6.837  -9.910  0.00  0.00     0.066 A 
ATOM      5  C   UNL d   1       8.931   5.611  -9.853  0.00  0.00    -0.002 A 
ATOM      6  C   UNL d   1       8.537   4.939 -11.014  0.00  0.00     0.014 A 
ATOM      7  C   UNL d   1       8.767   5.157  -8.448  0.00  0.00     0.053 A 
ATOM      8  C   UNL d   1       9.490   6.279  -7.699  0.00  0.00     0.123 A 
ATOM      9  N   UNL d   1       9.904   7.314  -8.662  0.00  0.00    -0.254 N 
ENDROOT
BRANCH   9  10
ATOM     10  S   UNL d   1      11.265   8.357  -8.419  0.00  0.00     0.268 S 
ATOM     11  O   UNL d   1      12.462   7.594  -8.791  0.00  0.00    -0.200 OA
ATOM     12  O   UNL d   1      10.911   9.576  -9.130  0.00  0.00    -0.200 OA
BRANCH  10  13
ATOM     13  C   UNL d   1      11.281   8.625  -6.650  0.00  0.00     0.104 A 
ATOM     14  C   UNL d   1      11.120   9.935  -6.157  0.00  0.00     0.013 A 
ATOM     15  C   UNL d   1      11.148  10.141  -4.768  0.00  0.00     0.001 A 
ATOM     16  C   UNL d   1      11.373   9.071  -3.875  0.00  0.00     0.000 A 
ATOM     17  C   UNL d   1      11.505   7.759  -4.378  0.00  0.00     0.001 A 
ATOM     18  C   UNL d   1      11.472   7.538  -5.764  0.00  0.00     0.013 A 
ENDBRANCH  10  13
ENDBRANCH   9  10
BRANCH   1  19
ATOM     19  N   UNL d   1       8.446   4.860 -13.451  0.00  0.00    -0.344 N 
ATOM     20  C   UNL d   1       7.314   3.944 -13.516  0.00  0.00     0.137 C 
ATOM     21  C   UNL d   1       7.783   2.600 -14.094  0.00  0.00     0.274 C 
ATOM     22  N   UNL d   1       8.429   2.768 -15.398  0.00  0.00     0.141 N 
ATOM     23  C   UNL d   1       9.621   3.607 -15.204  0.00  0.00     0.274 C 
ATOM     24  C   UNL d   1       9.236   4.997 -14.664  0.00  0.00     0.137 C 
BRANCH  22  25
ATOM     25  C   UNL d   1       8.832   1.461 -15.909  0.00  0.00     0.251 C 
ATOM     26  C   UNL d   1       7.628   0.685 -16.473  0.00  0.00     0.037 C 
ENDBRANCH  22  25
ENDBRANCH   1  19
TORSDOF 4
