REMARK  10 active torsions:
REMARK  status: ('A' for Active; 'I' for Inactive)
REMARK    1  A    between atoms: C_5  and  C_6 
REMARK    2  A    between atoms: C_6  and  O_7 
REMARK    3  A    between atoms: C_6  and  C_34 
REMARK    4  A    between atoms: O_7  and  C_8 
REMARK    5  A    between atoms: C_8  and  C_9 
REMARK    6  A    between atoms: C_9  and  N_10 
REMARK    7  A    between atoms: C_16  and  O_17 
REMARK    8  A    between atoms: O_17  and  C_18 
REMARK    9  A    between atoms: C_18  and  C_19 
REMARK   10  A    between atoms: C_18  and  C_26 
ROOT
ATOM      1  N   UNL d   1      12.718   3.655 -17.134  0.00  0.00     0.136 N 
ATOM      2  C   UNL d   1      12.347   2.255 -17.311  0.00  0.00     0.222 C 
ATOM      3  C   UNL d   1      11.592   2.180 -18.654  0.00  0.00     0.035 C 
ATOM      4  C   UNL d   1      11.019   3.600 -18.822  0.00  0.00     0.035 C 
ATOM      5  C   UNL d   1      11.489   4.326 -17.545  0.00  0.00     0.222 C 
ATOM      6  C   UNL d   1      10.469   4.191 -16.396  0.00  0.00     0.063 C 
ATOM      7  C   UNL d   1      10.180   2.707 -16.041  0.00  0.00     0.120 C 
ATOM      8  C   UNL d   1      11.446   1.841 -16.131  0.00  0.00     0.063 C 
ENDROOT
BRANCH   1   9
ATOM      9  C   UNL d   1      13.888   4.017 -17.927  0.00  0.00     0.282 C 
BRANCH   9  10
ATOM     10  C   UNL d   1      14.389   5.446 -17.681  0.00  0.00     0.178 C 
BRANCH  10  11
ATOM     11  O   UNL d   1      15.611   5.619 -18.384  0.00  0.00    -0.346 OA
BRANCH  11  12
ATOM     12  C   UNL d   1      15.982   6.979 -18.573  0.00  0.00     0.160 C 
BRANCH  12  13
ATOM     13  C   UNL d   1      17.473   7.090 -18.853  0.00  0.00     0.009 A 
ATOM     14  C   UNL d   1      18.224   8.142 -18.283  0.00  0.00     0.001 A 
ATOM     15  C   UNL d   1      19.601   8.256 -18.549  0.00  0.00     0.029 A 
ATOM     16  C   UNL d   1      20.234   7.330 -19.399  0.00  0.00     0.140 A 
ATOM     17  F   UNL d   1      21.555   7.456 -19.661  0.00  0.00    -0.204 F 
ATOM     18  C   UNL d   1      19.490   6.288 -19.983  0.00  0.00     0.029 A 
ATOM     19  C   UNL d   1      18.111   6.172 -19.716  0.00  0.00     0.001 A 
ENDBRANCH  12  13
BRANCH  12  20
ATOM     20  C   UNL d   1      15.177   7.648 -19.681  0.00  0.00     0.009 A 
ATOM     21  C   UNL d   1      15.010   9.050 -19.689  0.00  0.00     0.001 A 
ATOM     22  C   UNL d   1      14.276   9.671 -20.719  0.00  0.00     0.029 A 
ATOM     23  C   UNL d   1      13.705   8.894 -21.746  0.00  0.00     0.140 A 
ATOM     24  C   UNL d   1      13.876   7.497 -21.747  0.00  0.00     0.029 A 
ATOM     25  F   UNL d   1      12.994   9.489 -22.733  0.00  0.00    -0.204 F 
ATOM     26  C   UNL d   1      14.614   6.877 -20.721  0.00  0.00     0.001 A 
ENDBRANCH  12  20
ENDBRANCH  11  12
ENDBRANCH  10  11
ENDBRANCH   9  10
ENDBRANCH   1   9
BRANCH   7  27
ATOM     27  O   UNL d   1       9.175   2.258 -16.962  0.00  0.00    -0.350 OA
BRANCH  27  28
ATOM     28  C   UNL d   1       8.362   1.141 -16.587  0.00  0.00     0.160 C 
BRANCH  28  29
ATOM     29  C   UNL d   1       7.569   0.591 -17.788  0.00  0.00     0.009 A 
ATOM     30  C   UNL d   1       7.716   1.199 -19.074  0.00  0.00     0.001 A 
ATOM     31  C   UNL d   1       6.960   0.723 -20.183  0.00  0.00     0.029 A 
ATOM     32  C   UNL d   1       6.038  -0.340 -20.003  0.00  0.00     0.140 A 
ATOM     33  C   UNL d   1       5.919  -0.936 -18.724  0.00  0.00     0.029 A 
ATOM     34  F   UNL d   1       5.320  -0.814 -21.065  0.00  0.00    -0.204 F 
ATOM     35  C   UNL d   1       6.708  -0.529 -17.652  0.00  0.00     0.001 A 
ENDBRANCH  28  29
BRANCH  28  36
ATOM     36  C   UNL d   1       7.466   1.478 -15.385  0.00  0.00     0.009 A 
ATOM     37  C   UNL d   1       6.654   0.483 -14.786  0.00  0.00     0.001 A 
ATOM     38  C   UNL d   1       5.778   0.844 -13.758  0.00  0.00     0.029 A 
ATOM     39  C   UNL d   1       5.794   2.148 -13.201  0.00  0.00     0.140 A 
ATOM     40  C   UNL d   1       6.672   3.127 -13.727  0.00  0.00     0.029 A 
ATOM     41  F   UNL d   1       5.029   2.447 -12.106  0.00  0.00    -0.204 F 
ATOM     42  C   UNL d   1       7.473   2.782 -14.830  0.00  0.00     0.001 A 
ENDBRANCH  28  36
ENDBRANCH  27  28
ENDBRANCH   7  27
TORSDOF 10
