REMARK  1 active torsions:
REMARK  status: ('A' for Active; 'I' for Inactive)
REMARK    1  A    between atoms: C_2  and  C_4 
ROOT
ATOM      1  C   UNL d   1      11.058   7.200  -5.786  0.00  0.00     0.047 C 
ATOM      2  C   UNL d   1      11.326   8.689  -6.074  0.00  0.00     0.238 C 
ATOM      3  O   UNL d   1      10.259   9.184  -6.860  0.00  0.00    -0.212 OA
ENDROOT
BRANCH   2   4
ATOM      4  C   UNL d   1      11.459   9.514  -4.781  0.00  0.00     0.217 C 
ATOM      5  O   UNL d   1      10.664  10.389  -4.439  0.00  0.00    -0.646 OA
ATOM      6  O   UNL d   1      12.554   9.148  -4.056  0.00  0.00    -0.646 OA
ENDBRANCH   2   4
TORSDOF 1
