REMARK  5 active torsions:
REMARK  status: ('A' for Active; 'I' for Inactive)
REMARK    1  A    between atoms: C_2  and  C_3 
REMARK    2  A    between atoms: C_3  and  O_4 
REMARK    3  A    between atoms: C_3  and  C_13 
REMARK    4  A    between atoms: O_4  and  C_5 
REMARK    5  A    between atoms: C_18  and  N_19 
ROOT
ATOM      1  C   UNL d   1       9.904   4.416 -13.535  0.00  0.00     0.203 A 
ATOM      2  N   UNL d   1       9.775   3.087 -13.643  0.00  0.00    -0.039 NA
ATOM      3  C   UNL d   1      10.651   2.558 -14.489  0.00  0.00     0.785 A 
ATOM      4  N   UNL d   1      10.569   1.214 -14.690  0.00  0.00     0.063 N 
ATOM      5  N   UNL d   1      11.585   3.176 -15.192  0.00  0.00     0.134 NA
ATOM      6  C   UNL d   1      11.602   4.500 -14.996  0.00  0.00     0.744 A 
ATOM      7  N   UNL d   1      10.800   5.178 -14.163  0.00  0.00    -0.043 NA
ENDROOT
BRANCH   1   8
ATOM      8  C   UNL d   1       8.926   5.143 -12.628  0.00  0.00     0.180 C 
BRANCH   8   9
ATOM      9  C   UNL d   1       7.475   4.992 -13.102  0.00  0.00     0.038 C 
ATOM     10  C   UNL d   1       6.510   5.986 -12.434  0.00  0.00     0.003 C 
ENDBRANCH   8   9
BRANCH   8  11
ATOM     11  O   UNL d   1       9.027   4.690 -11.275  0.00  0.00    -0.326 OA
BRANCH  11  12
ATOM     12  C   UNL d   1       9.245   5.586 -10.251  0.00  0.00     0.095 A 
ATOM     13  C   UNL d   1       9.889   6.840 -10.406  0.00  0.00     0.036 A 
ATOM     14  C   UNL d   1      10.117   7.683  -9.302  0.00  0.00     0.070 A 
ATOM     15  C   UNL d   1       9.692   7.292  -8.019  0.00  0.00     0.068 A 
ATOM     16 CL   UNL d   1      10.942   9.179  -9.548  0.00  0.00    -0.081 Cl
ATOM     17  C   UNL d   1       9.052   6.052  -7.854  0.00  0.00     0.014 A 
ATOM     18 CL   UNL d   1       9.957   8.305  -6.643  0.00  0.00    -0.082 Cl
ATOM     19  C   UNL d   1       8.845   5.197  -8.956  0.00  0.00     0.025 A 
ENDBRANCH  11  12
ENDBRANCH   8  11
ENDBRANCH   1   8
BRANCH   6  20
ATOM     20  N   UNL d   1      12.542   5.232 -15.718  0.00  0.00    -0.178 N 
ATOM     21  C   UNL d   1      13.608   4.625 -16.534  0.00  0.00     0.155 C 
ATOM     22  C   UNL d   1      13.577   5.174 -17.970  0.00  0.00     0.275 C 
ATOM     23  N   UNL d   1      13.723   6.627 -17.953  0.00  0.00     0.143 N 
ATOM     24  C   UNL d   1      12.591   7.201 -17.228  0.00  0.00     0.275 C 
ATOM     25  C   UNL d   1      13.724   7.129 -19.320  0.00  0.00     0.286 C 
ATOM     26  C   UNL d   1      12.585   6.703 -15.768  0.00  0.00     0.155 C 
ENDBRANCH   6  20
TORSDOF 5
