REMARK  7 active torsions:
REMARK  status: ('A' for Active; 'I' for Inactive)
REMARK    1  A    between atoms: O_2  and  C_3 
REMARK    2  A    between atoms: C_8  and  N_9 
REMARK    3  A    between atoms: N_12  and  C_13 
REMARK    4  A    between atoms: C_13  and  C_14 
REMARK    5  A    between atoms: C_14  and  C_15 
REMARK    6  A    between atoms: C_15  and  O_16 
REMARK    7  A    between atoms: O_16  and  C_17 
ROOT
ATOM      1  C   UNL d   1      13.039   2.787 -17.451  0.00  0.00     0.253 C 
ENDROOT
BRANCH   1   2
ATOM      2  N   UNL d   1      13.494   3.970 -18.174  0.00  0.00     0.141 N 
ATOM      3  C   UNL d   1      14.876   3.758 -18.614  0.00  0.00     0.274 C 
ATOM      4  C   UNL d   1      15.378   4.968 -19.423  0.00  0.00     0.137 C 
ATOM      5  N   UNL d   1      15.230   6.181 -18.639  0.00  0.00    -0.343 N 
ATOM      6  C   UNL d   1      13.908   6.409 -18.076  0.00  0.00     0.137 C 
ATOM      7  C   UNL d   1      13.450   5.156 -17.303  0.00  0.00     0.274 C 
BRANCH   5   8
ATOM      8  C   UNL d   1      16.290   7.081 -18.457  0.00  0.00     0.079 A 
ATOM      9  C   UNL d   1      16.128   8.464 -18.724  0.00  0.00     0.110 A 
ATOM     10  C   UNL d   1      17.229   9.335 -18.509  0.00  0.00     0.026 A 
ATOM     11  C   UNL d   1      18.461   8.841 -18.046  0.00  0.00     0.002 A 
ATOM     12  C   UNL d   1      18.617   7.470 -17.790  0.00  0.00     0.002 A 
ATOM     13  C   UNL d   1      17.532   6.595 -17.996  0.00  0.00     0.019 A 
BRANCH   9  14
ATOM     14  O   UNL d   1      14.902   8.892 -19.198  0.00  0.00    -0.327 OA
ATOM     15  C   UNL d   1      14.691  10.285 -19.363  0.00  0.00     0.181 C 
ENDBRANCH   9  14
ENDBRANCH   5   8
ENDBRANCH   1   2
BRANCH   1  16
ATOM     16  C   UNL d   1      11.506   2.720 -17.414  0.00  0.00     0.068 C 
BRANCH  16  17
ATOM     17  C   UNL d   1      11.009   1.460 -16.674  0.00  0.00     0.151 C 
BRANCH  17  18
ATOM     18  O   UNL d   1       9.588   1.434 -16.589  0.00  0.00    -0.331 OA
BRANCH  18  19
ATOM     19  C   UNL d   1       8.970   2.173 -15.601  0.00  0.00     0.096 A 
ATOM     20  C   UNL d   1       9.639   3.097 -14.759  0.00  0.00     0.049 A 
ATOM     21  C   UNL d   1       8.934   3.818 -13.778  0.00  0.00     0.105 A 
ATOM     22  C   UNL d   1       7.549   3.606 -13.611  0.00  0.00     0.019 A 
ATOM     23  O   UNL d   1       9.632   4.708 -12.992  0.00  0.00    -0.273 OA
ATOM     24  C   UNL d   1       6.881   2.675 -14.435  0.00  0.00     0.004 A 
ATOM     25  C   UNL d   1       6.887   4.369 -12.543  0.00  0.00    -0.015 A 
ATOM     26  C   UNL d   1       7.586   1.977 -15.433  0.00  0.00     0.024 A 
ATOM     27  C   UNL d   1       5.407   4.154 -12.312  0.00  0.00     0.031 C 
ATOM     28  C   UNL d   1       7.604   5.218 -11.784  0.00  0.00     0.065 A 
ATOM     29  C   UNL d   1       9.056   5.426 -11.980  0.00  0.00     0.300 A 
ATOM     30  O   UNL d   1       9.710   6.194 -11.279  0.00  0.00    -0.259 OA
ENDBRANCH  18  19
ENDBRANCH  17  18
ENDBRANCH  16  17
ENDBRANCH   1  16
TORSDOF 7
