REMARK  8 active torsions:
REMARK  status: ('A' for Active; 'I' for Inactive)
REMARK    1  A    between atoms: O_2  and  C_3 
REMARK    2  A    between atoms: C_6  and  N_7 
REMARK    3  A    between atoms: N_10  and  C_11 
REMARK    4  A    between atoms: C_11  and  C_12 
REMARK    5  A    between atoms: C_12  and  C_13 
REMARK    6  A    between atoms: C_13  and  C_14 
REMARK    7  A    between atoms: C_14  and  N_15 
REMARK       I    between atoms: N_15  and  C_16 
REMARK    8  A    between atoms: C_16  and  C_18 
ROOT
ATOM      1  N   UNL d   1       9.811   7.550  -7.967  0.00  0.00    -0.344 N 
ATOM      2  C   UNL d   1       9.970   8.175  -9.278  0.00  0.00     0.137 C 
ATOM      3  C   UNL d   1      10.268   7.093 -10.330  0.00  0.00     0.274 C 
ATOM      4  N   UNL d   1       9.258   6.037 -10.337  0.00  0.00     0.141 N 
ATOM      5  C   UNL d   1       9.215   5.396  -9.022  0.00  0.00     0.274 C 
ATOM      6  C   UNL d   1       8.855   6.434  -7.939  0.00  0.00     0.137 C 
ENDROOT
BRANCH   4   7
ATOM      7  C   UNL d   1       9.543   5.063 -11.379  0.00  0.00     0.251 C 
BRANCH   7   8
ATOM      8  C   UNL d   1       8.249   4.536 -11.998  0.00  0.00     0.037 C 
BRANCH   8   9
ATOM      9  C   UNL d   1       8.610   3.618 -13.170  0.00  0.00     0.029 C 
BRANCH   9  10
ATOM     10  C   UNL d   1       7.385   3.071 -13.932  0.00  0.00     0.129 C 
BRANCH  10  11
ATOM     11  N   UNL d   1       7.742   2.015 -14.886  0.00  0.00    -0.238 NA
ATOM     12  C   UNL d   1       8.654   2.046 -15.856  0.00  0.00     0.250 C 
ATOM     13  O   UNL d   1       9.321   3.064 -16.112  0.00  0.00    -0.271 OA
BRANCH  12  14
ATOM     14  C   UNL d   1       8.875   0.743 -16.665  0.00  0.00     0.073 C 
ATOM     15  C   UNL d   1       9.402   1.111 -18.072  0.00  0.00     0.009 C 
ATOM     16  C   UNL d   1       7.561  -0.059 -16.832  0.00  0.00     0.009 C 
ATOM     17  C   UNL d   1       9.940  -0.114 -15.947  0.00  0.00     0.009 C 
ENDBRANCH  12  14
ENDBRANCH  10  11
ENDBRANCH   9  10
ENDBRANCH   8   9
ENDBRANCH   7   8
ENDBRANCH   4   7
BRANCH   1  18
ATOM     18  C   UNL d   1      10.554   7.950  -6.842  0.00  0.00     0.056 A 
ATOM     19  C   UNL d   1      11.128   9.255  -6.729  0.00  0.00     0.019 A 
ATOM     20  C   UNL d   1      11.848   9.627  -5.585  0.00  0.00     0.026 A 
ATOM     21  C   UNL d   1      11.971   8.747  -4.485  0.00  0.00     0.094 A 
ATOM     22  C   UNL d   1      11.457   7.439  -4.607  0.00  0.00     0.026 A 
ATOM     23  C   UNL d   1      10.753   7.063  -5.765  0.00  0.00     0.019 A 
BRANCH  21  24
ATOM     24  O   UNL d   1      12.641   9.225  -3.375  0.00  0.00    -0.328 OA
ATOM     25  C   UNL d   1      12.680   8.362  -2.236  0.00  0.00     0.181 C 
ENDBRANCH  21  24
ENDBRANCH   1  18
TORSDOF 8
