REMARK  7 active torsions:
REMARK  status: ('A' for Active; 'I' for Inactive)
REMARK    1  A    between atoms: C_2  and  C_3 
REMARK       I    between atoms: C_2  and  N_9 
REMARK    2  A    between atoms: C_3  and  C_4 
REMARK    3  A    between atoms: N_9  and  C_10 
REMARK    4  A    between atoms: C_13  and  C_14 
REMARK    5  A    between atoms: C_14  and  C_15 
REMARK    6  A    between atoms: C_15  and  N_16 
REMARK    7  A    between atoms: N_19  and  C_20 
ROOT
ATOM      1  C   UNL d   1       8.566   5.869 -12.524  0.00  0.00     0.035 C 
ENDROOT
BRANCH   1   2
ATOM      2  C   UNL d   1       9.486   6.403 -11.418  0.00  0.00     0.002 C 
ATOM      3  C   UNL d   1       9.598   7.941 -11.487  0.00  0.00     0.002 C 
ATOM      4  C   UNL d   1      10.495   8.496 -10.367  0.00  0.00     0.024 C 
ATOM      5  C   UNL d   1      10.004   8.046  -8.987  0.00  0.00     0.106 C 
ATOM      6  C   UNL d   1       9.927   6.508  -8.913  0.00  0.00     0.024 C 
ATOM      7  C   UNL d   1       9.037   5.934 -10.022  0.00  0.00     0.002 C 
BRANCH   5   8
ATOM      8  N   UNL d   1      10.911   8.574  -7.979  0.00  0.00    -0.240 NA
ATOM      9  C   UNL d   1      10.600   8.724  -6.688  0.00  0.00     0.254 C 
ATOM     10  O   UNL d   1       9.507   8.410  -6.225  0.00  0.00    -0.271 OA
BRANCH   9  11
ATOM     11  C   UNL d   1      11.694   9.304  -5.790  0.00  0.00     0.119 C 
BRANCH  11  12
ATOM     12  C   UNL d   1      11.574   8.866  -4.313  0.00  0.00     0.125 C 
ATOM     13  O   UNL d   1      12.654   9.380  -3.550  0.00  0.00    -0.356 OA
ATOM     14  C   UNL d   1      12.648   8.674  -2.319  0.00  0.00     0.142 C 
ATOM     15  C   UNL d   1      12.368   7.228  -2.725  0.00  0.00     0.035 C 
ATOM     16  C   UNL d   1      11.672   7.349  -4.074  0.00  0.00     0.033 C 
ENDBRANCH  11  12
ENDBRANCH   9  11
ENDBRANCH   5   8
ENDBRANCH   1   2
BRANCH   1  17
ATOM     17  C   UNL d   1       8.627   4.335 -12.649  0.00  0.00     0.250 C 
BRANCH  17  18
ATOM     18  N   UNL d   1       8.491   3.935 -14.043  0.00  0.00     0.141 N 
ATOM     19  C   UNL d   1       8.061   2.536 -14.139  0.00  0.00     0.274 C 
ATOM     20  C   UNL d   1       7.900   2.110 -15.612  0.00  0.00     0.137 C 
ATOM     21  N   UNL d   1       9.139   2.356 -16.346  0.00  0.00    -0.343 N 
ATOM     22  C   UNL d   1       9.690   3.702 -16.192  0.00  0.00     0.137 C 
ATOM     23  C   UNL d   1       9.801   4.055 -14.699  0.00  0.00     0.274 C 
BRANCH  21  24
ATOM     24  C   UNL d   1       9.800   1.351 -17.084  0.00  0.00     0.081 A 
ATOM     25  C   UNL d   1       9.109   0.267 -17.681  0.00  0.00     0.135 A 
ATOM     26  C   UNL d   1       9.761  -0.704 -18.415  0.00  0.00     0.121 A 
ATOM     27  O   UNL d   1       7.772  -0.008 -17.686  0.00  0.00    -0.298 OA
ATOM     28  C   UNL d   1      11.148  -0.671 -18.624  0.00  0.00     0.026 A 
ATOM     29  O   UNL d   1       8.870  -1.615 -18.878  0.00  0.00    -0.299 OA
ATOM     30  C   UNL d   1      11.869   0.389 -18.044  0.00  0.00     0.004 A 
ATOM     31  C   UNL d   1      11.210   1.377 -17.277  0.00  0.00     0.019 A 
ATOM     32  C   UNL d   1       7.615  -1.198 -18.414  0.00  0.00     0.304 A 
ENDBRANCH  21  24
ENDBRANCH  17  18
ENDBRANCH   1  17
TORSDOF 7
