REMARK  9 active torsions:
REMARK  status: ('A' for Active; 'I' for Inactive)
REMARK    1  A    between atoms: C_2  and  C_3 
REMARK    2  A    between atoms: C_7  and  O_8 
REMARK    3  A    between atoms: C_10  and  N_11 
REMARK    4  A    between atoms: N_14  and  C_15 
REMARK    5  A    between atoms: C_15  and  C_16 
REMARK    6  A    between atoms: C_16  and  C_18 
REMARK    7  A    between atoms: C_18  and  C_19 
REMARK    8  A    between atoms: C_19  and  N_20 
REMARK       I    between atoms: N_20  and  C_21 
REMARK    9  A    between atoms: C_21  and  C_23 
ROOT
ATOM      1  N   UNL d   1       8.826   5.050 -10.580  0.00  0.00    -0.343 N 
ATOM      2  C   UNL d   1       9.509   4.325 -11.611  0.00  0.00     0.137 C 
ATOM      3  C   UNL d   1       8.821   4.482 -12.970  0.00  0.00     0.274 C 
ATOM      4  N   UNL d   1       7.421   4.110 -12.846  0.00  0.00     0.144 N 
ATOM      5  C   UNL d   1       6.782   5.131 -12.053  0.00  0.00     0.274 C 
ATOM      6  C   UNL d   1       7.384   5.080 -10.637  0.00  0.00     0.137 C 
ENDROOT
BRANCH   4   7
ATOM      7  C   UNL d   1       6.816   4.170 -14.160  0.00  0.00     0.285 C 
BRANCH   7   8
ATOM      8  C   UNL d   1       6.799   2.785 -14.843  0.00  0.00     0.196 C 
ATOM      9  F   UNL d   1       6.087   1.877 -14.158  0.00  0.00    -0.235 F 
BRANCH   8  10
ATOM     10  C   UNL d   1       8.190   2.307 -15.238  0.00  0.00     0.064 C 
BRANCH  10  11
ATOM     11  C   UNL d   1       8.174   1.192 -16.283  0.00  0.00     0.132 C 
BRANCH  11  12
ATOM     12  N   UNL d   1       9.497   0.900 -16.822  0.00  0.00    -0.233 NA
ATOM     13  C   UNL d   1      10.287   1.748 -17.495  0.00  0.00     0.293 C 
ATOM     14  O   UNL d   1      10.075   2.960 -17.590  0.00  0.00    -0.264 OA
BRANCH  13  15
ATOM     15  C   UNL d   1      11.459   1.142 -18.148  0.00  0.00     0.139 A 
ATOM     16  N   UNL d   1      12.458   1.976 -18.609  0.00  0.00    -0.241 NA
ATOM     17  C   UNL d   1      13.436   1.264 -19.265  0.00  0.00     0.082 A 
ATOM     18  C   UNL d   1      13.011  -0.096 -19.212  0.00  0.00     0.019 A 
ATOM     19  C   UNL d   1      14.631   1.655 -19.896  0.00  0.00     0.019 A 
ATOM     20  C   UNL d   1      11.762  -0.151 -18.503  0.00  0.00     0.025 A 
ATOM     21  C   UNL d   1      13.844  -1.059 -19.819  0.00  0.00     0.002 A 
ATOM     22  C   UNL d   1      15.051  -0.681 -20.443  0.00  0.00     0.000 A 
ATOM     23  C   UNL d   1      15.446   0.670 -20.481  0.00  0.00     0.002 A 
ENDBRANCH  13  15
ENDBRANCH  11  12
ENDBRANCH  10  11
ENDBRANCH   8  10
ENDBRANCH   7   8
ENDBRANCH   4   7
BRANCH   1  24
ATOM     24  C   UNL d   1       9.390   6.029  -9.727  0.00  0.00     0.079 C 
ATOM     25  C   UNL d   1       9.943   7.131 -10.337  0.00  0.00     0.120 C 
ATOM     26  C   UNL d   1      10.690   8.040  -9.518  0.00  0.00     0.081 C 
ATOM     27  C   UNL d   1      10.683   7.951  -8.115  0.00  0.00     0.009 C 
ATOM     28 CL   UNL d   1      11.814   9.137 -10.212  0.00  0.00    -0.080 Cl
ATOM     29  C   UNL d   1       9.963   6.901  -7.506  0.00  0.00    -0.020 C 
ATOM     30  C   UNL d   1       9.314   5.932  -8.327  0.00  0.00     0.015 C 
BRANCH  25  31
ATOM     31  O   UNL d   1       9.801   7.242 -11.695  0.00  0.00    -0.326 OA
ATOM     32  C   UNL d   1       9.161   8.401 -12.182  0.00  0.00     0.181 C 
ENDBRANCH  25  31
BRANCH  29  33
ATOM     33  C   UNL d   1       9.922   6.805  -6.017  0.00  0.00     0.026 C 
ATOM     34  C   UNL d   1      11.319   6.563  -5.424  0.00  0.00     0.005 C 
ENDBRANCH  29  33
ENDBRANCH   1  24
TORSDOF 9
