REMARK  7 active torsions:
REMARK  status: ('A' for Active; 'I' for Inactive)
REMARK    1  A    between atoms: O_2  and  C_3 
REMARK    2  A    between atoms: C_6  and  O_7 
REMARK    3  A    between atoms: O_7  and  C_8 
REMARK    4  A    between atoms: C_8  and  C_9 
REMARK    5  A    between atoms: C_9  and  N_10 
REMARK       I    between atoms: N_13  and  C_14 
REMARK    6  A    between atoms: C_14  and  C_16 
REMARK    7  A    between atoms: C_21  and  O_22 
ROOT
ATOM      1  N   UNL d   1       9.303   4.443 -13.211  0.00  0.00     0.144 N 
ATOM      2  C   UNL d   1       9.453   3.042 -13.598  0.00  0.00     0.274 C 
ATOM      3  C   UNL d   1      10.298   2.885 -14.868  0.00  0.00     0.140 C 
ATOM      4  N   UNL d   1       9.702   3.643 -15.983  0.00  0.00    -0.312 N 
ATOM      5  C   UNL d   1       9.401   3.159 -17.218  0.00  0.00     0.259 C 
ATOM      6  O   UNL d   1       8.987   3.866 -18.142  0.00  0.00    -0.267 OA
ATOM      7  C   UNL d   1       9.470   5.046 -15.614  0.00  0.00     0.140 C 
ATOM      8  C   UNL d   1       8.643   5.141 -14.308  0.00  0.00     0.274 C 
ENDROOT
BRANCH   1   9
ATOM      9  C   UNL d   1       8.496   4.565 -11.992  0.00  0.00     0.283 C 
BRANCH   9  10
ATOM     10  C   UNL d   1       9.424   4.834 -10.793  0.00  0.00     0.184 C 
BRANCH  10  11
ATOM     11  O   UNL d   1       8.705   5.421  -9.710  0.00  0.00    -0.329 OA
BRANCH  11  12
ATOM     12  C   UNL d   1       9.333   6.386  -8.946  0.00  0.00     0.094 A 
ATOM     13  C   UNL d   1      10.404   7.164  -9.439  0.00  0.00     0.026 A 
ATOM     14  C   UNL d   1      11.049   8.101  -8.604  0.00  0.00     0.026 A 
ATOM     15  C   UNL d   1      10.604   8.316  -7.286  0.00  0.00     0.094 A 
ATOM     16  C   UNL d   1       9.493   7.581  -6.809  0.00  0.00     0.026 A 
ATOM     17  C   UNL d   1       8.869   6.630  -7.638  0.00  0.00     0.026 A 
BRANCH  15  18
ATOM     18  O   UNL d   1      11.307   9.258  -6.568  0.00  0.00    -0.328 OA
ATOM     19  C   UNL d   1      10.890   9.527  -5.242  0.00  0.00     0.181 C 
ENDBRANCH  15  18
ENDBRANCH  11  12
ENDBRANCH  10  11
ENDBRANCH   9  10
ENDBRANCH   1   9
BRANCH   5  20
ATOM     20  C   UNL d   1       9.543   1.685 -17.463  0.00  0.00     0.078 A 
ATOM     21  C   UNL d   1       8.401   0.878 -17.713  0.00  0.00     0.099 A 
ATOM     22  C   UNL d   1       8.585  -0.509 -17.927  0.00  0.00     0.024 A 
ATOM     23  C   UNL d   1       9.874  -1.077 -17.901  0.00  0.00     0.002 A 
ATOM     24  C   UNL d   1      11.000  -0.267 -17.674  0.00  0.00     0.000 A 
ATOM     25  C   UNL d   1      10.834   1.111 -17.462  0.00  0.00     0.007 A 
BRANCH  21  26
ATOM     26  O   UNL d   1       7.155   1.482 -17.714  0.00  0.00    -0.328 OA
ATOM     27  C   UNL d   1       6.008   0.663 -17.914  0.00  0.00     0.181 C 
ENDBRANCH  21  26
ENDBRANCH   5  20
TORSDOF 7
