REMARK  5 active torsions:
REMARK  status: ('A' for Active; 'I' for Inactive)
REMARK    1  A    between atoms: C_2  and  N_3 
REMARK    2  A    between atoms: C_17  and  C_18 
REMARK       I    between atoms: C_18  and  N_20 
REMARK    3  A    between atoms: N_20  and  C_21 
REMARK    4  A    between atoms: C_21  and  C_22 
REMARK    5  A    between atoms: C_25  and  O_26 
ROOT
ATOM      1  N   UNL d   1      10.053   3.794 -18.738  0.00  0.00    -0.295 N 
ATOM      2  C   UNL d   1      10.970   3.575 -19.728  0.00  0.00     0.261 C 
ATOM      3  O   UNL d   1      10.969   4.188 -20.803  0.00  0.00    -0.267 OA
ATOM      4  C   UNL d   1      12.121   2.643 -19.508  0.00  0.00     0.065 A 
ATOM      5  C   UNL d   1      13.409   3.095 -19.846  0.00  0.00     0.005 A 
ATOM      6  C   UNL d   1      14.521   2.244 -19.760  0.00  0.00     0.000 A 
ATOM      7  C   UNL d   1      14.342   0.915 -19.345  0.00  0.00     0.001 A 
ATOM      8  C   UNL d   1      13.059   0.438 -19.012  0.00  0.00     0.009 A 
ATOM      9  C   UNL d   1      11.958   1.306 -19.105  0.00  0.00     0.065 A 
ATOM     10  S   UNL d   1      10.308   0.662 -18.700  0.00  0.00     0.090 S 
ATOM     11  O   UNL d   1      10.551  -0.732 -18.121  0.00  0.00    -0.247 OA
ATOM     12  C   UNL d   1      10.124   1.748 -17.262  0.00  0.00     0.076 A 
ATOM     13  C   UNL d   1      10.044   1.141 -15.981  0.00  0.00     0.011 A 
ATOM     14  C   UNL d   1       9.866   1.939 -14.835  0.00  0.00     0.005 A 
ATOM     15  C   UNL d   1       9.779   3.332 -14.988  0.00  0.00     0.059 A 
ATOM     16  C   UNL d   1       9.857   3.910 -16.268  0.00  0.00     0.023 A 
ATOM     17  C   UNL d   1      10.043   3.145 -17.442  0.00  0.00     0.071 A 
ENDROOT
BRANCH  15  18
ATOM     18  C   UNL d   1       9.614   4.242 -13.824  0.00  0.00     0.275 C 
ATOM     19  O   UNL d   1      10.348   5.223 -13.736  0.00  0.00    -0.266 OA
ATOM     20  N   UNL d   1       8.568   3.988 -13.030  0.00  0.00    -0.229 NA
BRANCH  20  21
ATOM     21  C   UNL d   1       7.815   4.948 -12.212  0.00  0.00     0.155 C 
BRANCH  21  22
ATOM     22  C   UNL d   1       8.636   5.593 -11.121  0.00  0.00     0.002 A 
ATOM     23  C   UNL d   1       9.389   6.736 -11.422  0.00  0.00    -0.000 A 
ATOM     24  C   UNL d   1      10.199   7.329 -10.452  0.00  0.00     0.024 A 
ATOM     25  C   UNL d   1      10.260   6.815  -9.133  0.00  0.00     0.094 A 
ATOM     26  C   UNL d   1       9.473   5.678  -8.824  0.00  0.00     0.024 A 
ATOM     27  C   UNL d   1       8.664   5.068  -9.814  0.00  0.00    -0.000 A 
BRANCH  25  28
ATOM     28  O   UNL d   1      11.059   7.370  -8.152  0.00  0.00    -0.328 OA
ATOM     29  C   UNL d   1      11.838   8.494  -8.528  0.00  0.00     0.181 C 
ENDBRANCH  25  28
ENDBRANCH  21  22
ENDBRANCH  20  21
ENDBRANCH  15  18
BRANCH   1  30
ATOM     30  C   UNL d   1       9.116   4.922 -18.933  0.00  0.00     0.109 C 
ATOM     31  C   UNL d   1       9.778   6.310 -18.729  0.00  0.00     0.027 C 
ENDBRANCH   1  30
TORSDOF 5
