REMARK  7 active torsions:
REMARK  status: ('A' for Active; 'I' for Inactive)
REMARK    1  A    between atoms: O_2  and  C_3 
REMARK    2  A    between atoms: C_6  and  C_7 
REMARK    3  A    between atoms: C_7  and  N_8 
REMARK    4  A    between atoms: N_8  and  C_9 
REMARK    5  A    between atoms: N_8  and  C_14 
REMARK    6  A    between atoms: C_9  and  C_10 
REMARK    7  A    between atoms: C_10  and  N_11 
ROOT
ATOM      1  N   UNL d   1       7.675   1.800 -14.835  0.00  0.00    -0.328 N 
ENDROOT
BRANCH   1   2
ATOM      2  C   UNL d   1       9.017   1.421 -15.312  0.00  0.00     0.130 C 
BRANCH   2   3
ATOM      3  C   UNL d   1      10.064   2.508 -15.507  0.00  0.00     0.000 A 
ATOM      4  C   UNL d   1      11.046   2.706 -14.517  0.00  0.00    -0.000 A 
ATOM      5  C   UNL d   1      11.908   3.816 -14.582  0.00  0.00     0.024 A 
ATOM      6  C   UNL d   1      11.818   4.734 -15.650  0.00  0.00     0.094 A 
ATOM      7  C   UNL d   1      10.832   4.531 -16.645  0.00  0.00     0.024 A 
ATOM      8  C   UNL d   1       9.956   3.430 -16.570  0.00  0.00    -0.000 A 
BRANCH   6   9
ATOM      9  O   UNL d   1      12.696   5.796 -15.631  0.00  0.00    -0.328 OA
ATOM     10  C   UNL d   1      12.704   6.667 -16.750  0.00  0.00     0.181 C 
ENDBRANCH   6   9
ENDBRANCH   2   3
ENDBRANCH   1   2
BRANCH   1  11
ATOM     11  C   UNL d   1       6.628   0.819 -15.075  0.00  0.00     0.139 C 
BRANCH  11  12
ATOM     12  C   UNL d   1       6.162   0.046 -13.805  0.00  0.00     0.274 C 
BRANCH  12  13
ATOM     13  N   UNL d   1       5.001  -0.806 -14.073  0.00  0.00     0.143 N 
ATOM     14  C   UNL d   1       5.269  -1.800 -15.114  0.00  0.00     0.286 C 
ATOM     15  C   UNL d   1       3.798  -0.070 -14.427  0.00  0.00     0.286 C 
ENDBRANCH  12  13
ENDBRANCH  11  12
ENDBRANCH   1  11
BRANCH   1  16
ATOM     16  C   UNL d   1       7.388   2.955 -14.038  0.00  0.00     0.140 A 
ATOM     17  N   UNL d   1       8.383   3.834 -13.822  0.00  0.00    -0.227 NA
ATOM     18  C   UNL d   1       8.223   4.915 -13.055  0.00  0.00     0.101 A 
ATOM     19  C   UNL d   1       7.019   5.188 -12.391  0.00  0.00     0.021 A 
ATOM     20  C   UNL d   1       5.946   4.293 -12.575  0.00  0.00     0.005 A 
ATOM     21  C   UNL d   1       6.123   3.188 -13.436  0.00  0.00     0.037 A 
ENDBRANCH   1  16
TORSDOF 7
