REMARK  7 active torsions:
REMARK  status: ('A' for Active; 'I' for Inactive)
REMARK    1  A    between atoms: C_2  and  C_3 
REMARK       I    between atoms: C_2  and  N_10 
REMARK    2  A    between atoms: C_3  and  C_4 
REMARK    3  A    between atoms: N_10  and  C_11 
REMARK    4  A    between atoms: C_14  and  C_15 
REMARK    5  A    between atoms: C_15  and  C_16 
REMARK    6  A    between atoms: C_16  and  N_17 
REMARK    7  A    between atoms: N_20  and  C_21 
ROOT
ATOM      1  C   UNL d   1       8.487   2.882 -14.676  0.00  0.00     0.084 A 
ATOM      2  C   UNL d   1       9.759   3.392 -14.353  0.00  0.00     0.019 A 
ATOM      3  C   UNL d   1       9.901   4.387 -13.367  0.00  0.00    -0.003 A 
ATOM      4  C   UNL d   1       8.772   4.897 -12.697  0.00  0.00    -0.020 A 
ATOM      5  C   UNL d   1       7.493   4.405 -13.025  0.00  0.00    -0.003 A 
ATOM      6  C   UNL d   1       7.350   3.409 -14.013  0.00  0.00     0.019 A 
ENDROOT
BRANCH   4   7
ATOM      7  C   UNL d   1       8.933   5.976 -11.643  0.00  0.00     0.062 C 
BRANCH   7   8
ATOM      8  C   UNL d   1       9.121   5.402 -10.226  0.00  0.00     0.255 C 
BRANCH   8   9
ATOM      9  N   UNL d   1       9.209   6.479  -9.242  0.00  0.00     0.141 N 
ATOM     10  C   UNL d   1       8.865   5.979  -7.909  0.00  0.00     0.274 C 
ATOM     11  C   UNL d   1       8.932   7.108  -6.857  0.00  0.00     0.137 C 
ATOM     12  N   UNL d   1      10.240   7.755  -6.875  0.00  0.00    -0.344 N 
ATOM     13  C   UNL d   1      10.672   8.209  -8.189  0.00  0.00     0.137 C 
ATOM     14  C   UNL d   1      10.553   7.060  -9.209  0.00  0.00     0.274 C 
BRANCH  12  15
ATOM     15  C   UNL d   1      11.045   7.883  -5.724  0.00  0.00     0.056 A 
ATOM     16  C   UNL d   1      11.067   6.866  -4.742  0.00  0.00     0.017 A 
ATOM     17  C   UNL d   1      11.862   6.982  -3.584  0.00  0.00     0.002 A 
ATOM     18  C   UNL d   1      12.648   8.133  -3.393  0.00  0.00     0.000 A 
ATOM     19  C   UNL d   1      12.657   9.143  -4.371  0.00  0.00     0.002 A 
ATOM     20  C   UNL d   1      11.855   9.024  -5.527  0.00  0.00     0.017 A 
ENDBRANCH  12  15
ENDBRANCH   8   9
ENDBRANCH   7   8
ENDBRANCH   4   7
BRANCH   1  21
ATOM     21  N   UNL d   1       8.413   1.897 -15.697  0.00  0.00    -0.211 NA
ATOM     22  C   UNL d   1       7.440   0.992 -15.900  0.00  0.00     0.262 C 
ATOM     23  O   UNL d   1       6.469   0.851 -15.156  0.00  0.00    -0.270 OA
BRANCH  22  24
ATOM     24  C   UNL d   1       7.615   0.085 -17.125  0.00  0.00     0.136 C 
BRANCH  24  25
ATOM     25  C   UNL d   1       6.280  -0.328 -17.724  0.00  0.00     0.069 A 
ATOM     26  N   UNL d   1       5.903   0.321 -18.849  0.00  0.00    -0.248 NA
ATOM     27  C   UNL d   1       4.713  -0.011 -19.396  0.00  0.00     0.099 A 
ATOM     28  C   UNL d   1       3.861  -0.987 -18.852  0.00  0.00     0.021 A 
ATOM     29  C   UNL d   1       4.257  -1.665 -17.687  0.00  0.00     0.003 A 
ATOM     30  C   UNL d   1       5.500  -1.336 -17.119  0.00  0.00     0.015 A 
ENDBRANCH  24  25
ENDBRANCH  22  24
ENDBRANCH   1  21
TORSDOF 7
