REMARK  7 active torsions:
REMARK  status: ('A' for Active; 'I' for Inactive)
REMARK    1  A    between atoms: C_2  and  C_3 
REMARK    2  A    between atoms: C_3  and  N_4 
REMARK    3  A    between atoms: N_4  and  C_5 
REMARK    4  A    between atoms: N_4  and  C_12 
REMARK    5  A    between atoms: C_5  and  C_6 
REMARK    6  A    between atoms: C_6  and  C_7 
REMARK    7  A    between atoms: C_18  and  O_19 
ROOT
ATOM      1  C   UNL d   1       8.850   4.930 -13.225  0.00  0.00     0.224 C 
ATOM      2  C   UNL d   1      10.012   4.464 -14.138  0.00  0.00     0.038 C 
ATOM      3  C   UNL d   1       9.471   3.784 -15.421  0.00  0.00     0.028 C 
ATOM      4  C   UNL d   1       8.337   2.790 -15.184  0.00  0.00    -0.026 A 
ATOM      5  C   UNL d   1       7.988   1.862 -16.182  0.00  0.00    -0.003 A 
ATOM      6  C   UNL d   1       6.929   0.955 -15.964  0.00  0.00     0.024 A 
ATOM      7  C   UNL d   1       6.198   0.953 -14.749  0.00  0.00     0.094 A 
ATOM      8  C   UNL d   1       6.520   1.925 -13.791  0.00  0.00     0.020 A 
ATOM      9  C   UNL d   1       7.594   2.835 -14.000  0.00  0.00    -0.022 A 
ATOM     10  C   UNL d   1       8.007   3.724 -12.858  0.00  0.00     0.059 C 
ENDROOT
BRANCH   1  11
ATOM     11  N   UNL d   1       9.307   5.627 -12.002  0.00  0.00     0.136 N 
BRANCH  11  12
ATOM     12  C   UNL d   1       9.419   7.044 -12.323  0.00  0.00     0.250 C 
BRANCH  12  13
ATOM     13  C   UNL d   1       8.019   7.709 -12.470  0.00  0.00     0.035 C 
ATOM     14  C   UNL d   1       8.123   9.183 -12.136  0.00  0.00     0.002 C 
ENDBRANCH  12  13
ENDBRANCH  11  12
BRANCH  11  15
ATOM     15  C   UNL d   1       8.627   5.388 -10.681  0.00  0.00     0.255 C 
BRANCH  15  16
ATOM     16  C   UNL d   1       9.622   5.394  -9.508  0.00  0.00     0.068 C 
BRANCH  16  17
ATOM     17  C   UNL d   1       9.552   6.582  -8.649  0.00  0.00     0.009 A 
ATOM     18  S   UNL d   1       8.671   6.432  -7.175  0.00  0.00    -0.091 SA
ATOM     19  C   UNL d   1       8.943   8.104  -6.830  0.00  0.00     0.035 A 
ATOM     20  C   UNL d   1       9.616   8.742  -7.829  0.00  0.00     0.007 A 
ATOM     21  C   UNL d   1       9.991   7.868  -8.874  0.00  0.00     0.003 A 
ENDBRANCH  16  17
ENDBRANCH  15  16
ENDBRANCH  11  15
ENDBRANCH   1  11
BRANCH   7  22
ATOM     22  O   UNL d   1       5.185   0.060 -14.423  0.00  0.00    -0.328 OA
ATOM     23  C   UNL d   1       4.751  -0.810 -15.456  0.00  0.00     0.181 C 
ENDBRANCH   7  22
TORSDOF 7
