REMARK  1 active torsions:
REMARK  status: ('A' for Active; 'I' for Inactive)
REMARK    1  A    between atoms: N_5  and  C_6 
ROOT
ATOM      1  C   UNL d   1       9.634   3.261 -15.296  0.00  0.00     0.142 C 
ATOM      2  N   UNL d   1      10.394   3.410 -16.339  0.00  0.00    -0.227 NA
ATOM      3  C   UNL d   1      10.273   2.716 -17.548  0.00  0.00     0.101 A 
ATOM      4  C   UNL d   1      10.651   3.435 -18.701  0.00  0.00     0.021 A 
ATOM      5  C   UNL d   1      10.669   2.818 -19.965  0.00  0.00     0.002 A 
ATOM      6  C   UNL d   1      10.318   1.463 -20.085  0.00  0.00     0.002 A 
ATOM      7  C   UNL d   1       9.944   0.733 -18.943  0.00  0.00     0.021 A 
ATOM      8  C   UNL d   1       9.913   1.348 -17.676  0.00  0.00     0.099 A 
ATOM      9  N   UNL d   1       9.478   0.575 -16.600  0.00  0.00    -0.244 NA
ATOM     10  C   UNL d   1       8.450   1.017 -15.769  0.00  0.00     0.084 A 
ATOM     11  C   UNL d   1       7.358   0.166 -15.531  0.00  0.00     0.019 A 
ATOM     12  C   UNL d   1       6.266   0.573 -14.748  0.00  0.00     0.002 A 
ATOM     13  C   UNL d   1       6.253   1.873 -14.224  0.00  0.00     0.000 A 
ATOM     14  C   UNL d   1       7.299   2.754 -14.517  0.00  0.00     0.004 A 
ATOM     15  C   UNL d   1       8.442   2.327 -15.230  0.00  0.00     0.051 A 
ENDROOT
BRANCH   1  16
ATOM     16  N   UNL d   1       9.866   3.966 -14.123  0.00  0.00    -0.330 N 
ATOM     17  C   UNL d   1      10.489   5.279 -14.087  0.00  0.00     0.138 C 
ATOM     18  C   UNL d   1       9.620   6.215 -13.209  0.00  0.00     0.274 C 
ATOM     19  N   UNL d   1       9.526   5.694 -11.849  0.00  0.00     0.143 N 
ATOM     20  C   UNL d   1       8.705   6.605 -11.054  0.00  0.00     0.286 C 
ATOM     21  C   UNL d   1       8.868   4.401 -11.882  0.00  0.00     0.274 C 
ATOM     22  C   UNL d   1       9.691   3.443 -12.770  0.00  0.00     0.138 C 
ENDBRANCH   1  16
TORSDOF 1
