REMARK  8 active torsions:
REMARK  status: ('A' for Active; 'I' for Inactive)
REMARK    1  A    between atoms: S_2  and  N_4 
REMARK    2  A    between atoms: S_2  and  C_23 
REMARK    3  A    between atoms: N_4  and  C_5 
REMARK    4  A    between atoms: C_5  and  C_6 
REMARK    5  A    between atoms: C_6  and  C_7 
REMARK    6  A    between atoms: C_7  and  C_8 
REMARK    7  A    between atoms: C_8  and  N_9 
REMARK    8  A    between atoms: N_12  and  C_13 
ROOT
ATOM      1  C   UNL d   1      10.180   6.178  -9.966  0.00  0.00     0.029 C 
ENDROOT
BRANCH   1   2
ATOM      2  C   UNL d   1       9.271   7.136  -9.195  0.00  0.00     0.139 C 
BRANCH   2   3
ATOM      3  N   UNL d   1       9.864   7.503  -7.920  0.00  0.00    -0.185 NA
BRANCH   3   4
ATOM      4  S   UNL d   1      11.292   8.448  -7.918  0.00  0.00     0.283 S 
ATOM      5  O   UNL d   1      12.449   7.587  -8.088  0.00  0.00    -0.199 OA
ATOM      6  O   UNL d   1      11.064   9.565  -8.845  0.00  0.00    -0.199 OA
BRANCH   4   7
ATOM      7  C   UNL d   1      11.298   9.055  -6.271  0.00  0.00     0.124 C 
ATOM      8  C   UNL d   1      11.504   8.263  -5.111  0.00  0.00     0.015 A 
ATOM      9  C   UNL d   1      11.497   8.866  -3.829  0.00  0.00     0.020 A 
ATOM     10  C   UNL d   1      11.779   6.903  -5.133  0.00  0.00     0.001 A 
ATOM     11  C   UNL d   1      11.065  10.163  -3.769  0.00  0.00     0.099 C 
ATOM     12  C   UNL d   1      11.799   8.233  -2.603  0.00  0.00     0.002 A 
ATOM     13  N   UNL d   1      10.742  10.869  -4.840  0.00  0.00    -0.242 NA
ATOM     14  C   UNL d   1      11.005  10.373  -6.051  0.00  0.00     0.112 C 
ATOM     15  C   UNL d   1      12.074   6.881  -2.660  0.00  0.00     0.000 A 
ATOM     16  C   UNL d   1      12.090   6.283  -3.921  0.00  0.00     0.000 A 
ENDBRANCH   4   7
ENDBRANCH   3   4
ENDBRANCH   2   3
ENDBRANCH   1   2
BRANCH   1  17
ATOM     17  C   UNL d   1       9.610   5.831 -11.346  0.00  0.00     0.037 C 
BRANCH  17  18
ATOM     18  C   UNL d   1       8.293   5.054 -11.303  0.00  0.00     0.251 C 
BRANCH  18  19
ATOM     19  N   UNL d   1       7.882   4.621 -12.639  0.00  0.00     0.141 N 
ATOM     20  C   UNL d   1       6.554   4.007 -12.495  0.00  0.00     0.274 C 
ATOM     21  C   UNL d   1       6.033   3.514 -13.854  0.00  0.00     0.137 C 
ATOM     22  N   UNL d   1       7.019   2.644 -14.497  0.00  0.00    -0.344 N 
ATOM     23  C   UNL d   1       8.358   3.197 -14.584  0.00  0.00     0.137 C 
ATOM     24  C   UNL d   1       8.835   3.646 -13.215  0.00  0.00     0.274 C 
BRANCH  22  25
ATOM     25  C   UNL d   1       6.673   1.415 -15.083  0.00  0.00     0.068 A 
ATOM     26  C   UNL d   1       7.079   1.025 -16.395  0.00  0.00     0.084 A 
ATOM     27  C   UNL d   1       6.660  -0.218 -16.912  0.00  0.00     0.070 A 
ATOM     28 CL   UNL d   1       8.018   2.016 -17.458  0.00  0.00    -0.080 Cl
ATOM     29  C   UNL d   1       5.852  -1.068 -16.146  0.00  0.00     0.012 A 
ATOM     30 CL   UNL d   1       7.186  -0.742 -18.469  0.00  0.00    -0.081 Cl
ATOM     31  C   UNL d   1       5.442  -0.694 -14.859  0.00  0.00     0.002 A 
ATOM     32  C   UNL d   1       5.856   0.543 -14.329  0.00  0.00     0.018 A 
ENDBRANCH  22  25
ENDBRANCH  18  19
ENDBRANCH  17  18
ENDBRANCH   1  17
TORSDOF 8
