REMARK  7 active torsions:
REMARK  status: ('A' for Active; 'I' for Inactive)
REMARK    1  A    between atoms: N_11  and  C_12 
REMARK    2  A    between atoms: C_12  and  C_13 
REMARK    3  A    between atoms: C_13  and  C_14 
REMARK    4  A    between atoms: C_14  and  C_15 
REMARK    5  A    between atoms: C_15  and  C_16 
REMARK    6  A    between atoms: C_16  and  N_17 
REMARK    7  A    between atoms: N_20  and  C_21 
ROOT
ATOM      1  C   UNL d   1       8.016   5.038 -11.401  0.00  0.00     0.004 C 
ENDROOT
BRANCH   1   2
ATOM      2  C   UNL d   1       8.375   4.681 -12.857  0.00  0.00     0.025 C 
BRANCH   2   3
ATOM      3  C   UNL d   1       9.628   3.774 -12.979  0.00  0.00     0.109 C 
BRANCH   3   4
ATOM      4  N   UNL d   1      10.037   3.578 -14.381  0.00  0.00    -0.300 N 
ATOM      5  C   UNL d   1      11.220   4.092 -14.809  0.00  0.00     0.238 C 
ATOM      6  O   UNL d   1      11.974   4.781 -14.112  0.00  0.00    -0.272 OA
ATOM      7  C   UNL d   1      11.690   3.773 -16.234  0.00  0.00     0.093 C 
ATOM      8  C   UNL d   1      10.530   3.656 -17.226  0.00  0.00     0.038 C 
ATOM      9  C   UNL d   1       9.400   2.807 -16.659  0.00  0.00    -0.006 A 
ATOM     10  C   UNL d   1       9.178   2.803 -15.248  0.00  0.00     0.058 A 
ATOM     11  C   UNL d   1       8.555   2.067 -17.515  0.00  0.00    -0.003 A 
ATOM     12  C   UNL d   1       8.102   2.029 -14.749  0.00  0.00     0.017 A 
ATOM     13  C   UNL d   1       7.257   1.310 -15.605  0.00  0.00     0.002 A 
ATOM     14  C   UNL d   1       7.483   1.317 -16.992  0.00  0.00    -0.000 A 
ENDBRANCH   3   4
ENDBRANCH   2   3
ENDBRANCH   1   2
BRANCH   1  15
ATOM     15  C   UNL d   1       9.119   5.840 -10.680  0.00  0.00     0.035 C 
BRANCH  15  16
ATOM     16  C   UNL d   1       8.784   6.120  -9.218  0.00  0.00     0.250 C 
BRANCH  16  17
ATOM     17  N   UNL d   1       9.853   6.915  -8.609  0.00  0.00     0.141 N 
ATOM     18  C   UNL d   1      10.633   6.036  -7.748  0.00  0.00     0.274 C 
ATOM     19  C   UNL d   1      11.780   6.805  -7.088  0.00  0.00     0.137 C 
ATOM     20  N   UNL d   1      11.234   7.913  -6.312  0.00  0.00    -0.344 N 
ATOM     21  C   UNL d   1      10.365   8.801  -7.078  0.00  0.00     0.137 C 
ATOM     22  C   UNL d   1       9.266   7.969  -7.769  0.00  0.00     0.274 C 
BRANCH  20  23
ATOM     23  C   UNL d   1      11.520   8.104  -4.944  0.00  0.00     0.056 A 
ATOM     24  C   UNL d   1      11.842   7.003  -4.109  0.00  0.00     0.017 A 
ATOM     25  C   UNL d   1      12.185   7.187  -2.760  0.00  0.00     0.002 A 
ATOM     26  C   UNL d   1      12.205   8.485  -2.220  0.00  0.00     0.000 A 
ATOM     27  C   UNL d   1      11.863   9.588  -3.023  0.00  0.00     0.002 A 
ATOM     28  C   UNL d   1      11.531   9.404  -4.381  0.00  0.00     0.017 A 
ENDBRANCH  20  23
ENDBRANCH  16  17
ENDBRANCH  15  16
ENDBRANCH   1  15
TORSDOF 7
