REMARK  7 active torsions:
REMARK  status: ('A' for Active; 'I' for Inactive)
REMARK    1  A    between atoms: C_3  and  O_4 
REMARK    2  A    between atoms: O_4  and  C_5 
REMARK    3  A    between atoms: C_5  and  C_6 
REMARK    4  A    between atoms: C_6  and  C_7 
REMARK    5  A    between atoms: C_7  and  C_8 
REMARK    6  A    between atoms: C_8  and  N_9 
REMARK    7  A    between atoms: N_12  and  C_13 
ROOT
ATOM      1  N   UNL d   1       8.060   5.324 -12.533  0.00  0.00     0.141 N 
ATOM      2  C   UNL d   1       6.613   5.043 -12.593  0.00  0.00     0.274 C 
ATOM      3  C   UNL d   1       6.297   4.194 -13.812  0.00  0.00     0.137 C 
ATOM      4  N   UNL d   1       7.095   2.998 -13.850  0.00  0.00    -0.344 N 
ATOM      5  C   UNL d   1       8.534   3.184 -13.691  0.00  0.00     0.137 C 
ATOM      6  C   UNL d   1       8.774   4.060 -12.449  0.00  0.00     0.274 C 
ENDROOT
BRANCH   1   7
ATOM      7  C   UNL d   1       8.303   6.020 -11.274  0.00  0.00     0.251 C 
BRANCH   7   8
ATOM      8  C   UNL d   1       9.656   6.730 -11.248  0.00  0.00     0.038 C 
BRANCH   8   9
ATOM      9  C   UNL d   1       9.843   7.540  -9.974  0.00  0.00     0.035 C 
BRANCH   9  10
ATOM     10  C   UNL d   1      11.262   8.171  -9.883  0.00  0.00     0.149 C 
BRANCH  10  11
ATOM     11  O   UNL d   1      11.406   8.998  -8.720  0.00  0.00    -0.331 OA
BRANCH  11  12
ATOM     12  C   UNL d   1      11.438   8.400  -7.471  0.00  0.00     0.090 A 
ATOM     13  C   UNL d   1      11.510   9.195  -6.286  0.00  0.00     0.005 A 
ATOM     14  C   UNL d   1      11.526  10.688  -6.382  0.00  0.00     0.033 C 
ATOM     15  C   UNL d   1      11.553   8.541  -5.027  0.00  0.00     0.053 A 
ATOM     16  C   UNL d   1      11.573   7.177  -4.926  0.00  0.00     0.007 A 
ATOM     17  C   UNL d   1      11.636   9.090  -3.646  0.00  0.00     0.275 C 
ATOM     18  C   UNL d   1      11.559   6.378  -6.067  0.00  0.00    -0.000 A 
ATOM     19  C   UNL d   1      11.720   6.746  -3.492  0.00  0.00     0.155 C 
ATOM     20  C   UNL d   1      11.441   6.991  -7.321  0.00  0.00     0.024 A 
ATOM     21  N   UNL d   1      11.843   8.047  -2.822  0.00  0.00    -0.229 NA
ATOM     22  O   UNL d   1      11.449  10.251  -3.308  0.00  0.00    -0.266 OA
ENDBRANCH  11  12
ENDBRANCH  10  11
ENDBRANCH   9  10
ENDBRANCH   8   9
ENDBRANCH   7   8
ENDBRANCH   1   7
BRANCH   4  23
ATOM     23  C   UNL d   1       6.504   1.783 -14.160  0.00  0.00     0.056 A 
ATOM     24  C   UNL d   1       6.721   1.077 -15.379  0.00  0.00     0.015 A 
ATOM     25  C   UNL d   1       6.064  -0.161 -15.597  0.00  0.00     0.001 A 
ATOM     26  C   UNL d   1       7.563   1.590 -16.396  0.00  0.00     0.001 A 
ATOM     27  C   UNL d   1       5.212  -0.695 -14.620  0.00  0.00     0.000 A 
ATOM     28  C   UNL d   1       6.253  -0.870 -16.799  0.00  0.00     0.000 A 
ATOM     29  C   UNL d   1       4.972   0.029 -13.447  0.00  0.00     0.002 A 
ATOM     30  C   UNL d   1       5.609   1.257 -13.217  0.00  0.00     0.017 A 
ATOM     31  C   UNL d   1       7.121  -0.364 -17.783  0.00  0.00     0.000 A 
ATOM     32  C   UNL d   1       7.765   0.866 -17.586  0.00  0.00     0.000 A 
ENDBRANCH   4  23
TORSDOF 7
