REMARK  1 active torsions:
REMARK  status: ('A' for Active; 'I' for Inactive)
REMARK    1  A    between atoms: O_2  and  C_3 
ROOT
ATOM      1  C   UNL d   1      10.310   6.303 -18.743  0.00  0.00     0.094 A 
ATOM      2  C   UNL d   1       9.706   5.274 -19.522  0.00  0.00     0.026 A 
ATOM      3  C   UNL d   1       9.338   4.066 -18.928  0.00  0.00     0.019 A 
ATOM      4  C   UNL d   1       9.527   3.862 -17.561  0.00  0.00     0.060 A 
ATOM      5  C   UNL d   1      10.117   4.854 -16.723  0.00  0.00     0.015 A 
ATOM      6  C   UNL d   1      10.528   6.048 -17.359  0.00  0.00     0.025 A 
ATOM      7  C   UNL d   1      10.121   4.341 -15.375  0.00  0.00    -0.007 A 
ATOM      8  C   UNL d   1       9.583   3.076 -15.449  0.00  0.00     0.038 A 
ATOM      9  N   UNL d   1       9.234   2.786 -16.759  0.00  0.00    -0.329 N 
ATOM     10  C   UNL d   1       8.634   1.557 -17.240  0.00  0.00     0.130 C 
ATOM     11  C   UNL d   1       9.336   2.103 -14.349  0.00  0.00     0.069 C 
ATOM     12  C   UNL d   1       7.883   1.673 -14.176  0.00  0.00    -0.020 A 
ATOM     13  C   UNL d   1       7.641   0.283 -14.145  0.00  0.00    -0.004 A 
ATOM     14  C   UNL d   1       6.372  -0.234 -13.841  0.00  0.00    -0.000 A 
ATOM     15  C   UNL d   1       5.318   0.648 -13.568  0.00  0.00    -0.000 A 
ATOM     16  C   UNL d   1       5.551   2.038 -13.536  0.00  0.00    -0.004 A 
ATOM     17  C   UNL d   1       6.804   2.571 -13.898  0.00  0.00    -0.024 A 
ATOM     18  C   UNL d   1       6.908   4.092 -13.888  0.00  0.00     0.061 C 
ATOM     19  C   UNL d   1       7.343   4.723 -12.562  0.00  0.00     0.255 C 
ATOM     20  N   UNL d   1       8.793   4.637 -12.416  0.00  0.00     0.140 N 
ATOM     21  C   UNL d   1       9.152   4.823 -11.029  0.00  0.00     0.285 C 
ATOM     22  C   UNL d   1       9.456   5.644 -13.247  0.00  0.00     0.255 C 
ATOM     23  C   UNL d   1      10.596   5.060 -14.131  0.00  0.00     0.063 C 
ENDROOT
BRANCH   1  24
ATOM     24  O   UNL d   1      10.698   7.534 -19.216  0.00  0.00    -0.328 OA
ATOM     25  C   UNL d   1      10.491   7.829 -20.588  0.00  0.00     0.181 C 
ENDBRANCH   1  24
TORSDOF 1
