REMARK  6 active torsions:
REMARK  status: ('A' for Active; 'I' for Inactive)
REMARK    1  A    between atoms: N_2  and  C_3 
REMARK    2  A    between atoms: C_5  and  O_6 
REMARK    3  A    between atoms: C_8  and  C_9 
REMARK       I    between atoms: C_9  and  N_11 
REMARK    4  A    between atoms: N_11  and  C_12 
REMARK    5  A    between atoms: N_14  and  C_15 
REMARK    6  A    between atoms: C_15  and  C_16 
ROOT
ATOM      1  C   UNL d   1       9.153   6.729 -11.805  0.00  0.00     0.277 C 
ATOM      2  O   UNL d   1       9.347   7.803 -12.374  0.00  0.00    -0.266 OA
ATOM      3  N   UNL d   1       9.348   6.501 -10.501  0.00  0.00    -0.234 NA
ENDROOT
BRANCH   3   4
ATOM      4  C   UNL d   1       9.673   7.534  -9.536  0.00  0.00     0.142 C 
ATOM      5  C   UNL d   1      11.179   7.828  -9.542  0.00  0.00     0.058 C 
ATOM      6  C   UNL d   1      11.655   7.538  -8.131  0.00  0.00     0.253 C 
ATOM      7  C   UNL d   1      11.428   9.289  -9.821  0.00  0.00     0.004 C 
ATOM      8  N   UNL d   1      10.613   6.640  -7.603  0.00  0.00     0.143 N 
ATOM      9  C   UNL d   1       9.302   7.032  -8.132  0.00  0.00     0.275 C 
BRANCH   8  10
ATOM     10  C   UNL d   1      10.635   6.433  -6.162  0.00  0.00     0.277 C 
BRANCH  10  11
ATOM     11  C   UNL d   1      10.892   7.690  -5.340  0.00  0.00     0.011 A 
ATOM     12  C   UNL d   1      11.597   7.562  -4.120  0.00  0.00    -0.002 A 
ATOM     13  C   UNL d   1      11.888   8.694  -3.333  0.00  0.00    -0.000 A 
ATOM     14  C   UNL d   1      11.454   9.966  -3.779  0.00  0.00    -0.000 A 
ATOM     15  C   UNL d   1      10.790  10.103  -5.001  0.00  0.00    -0.000 A 
ATOM     16  C   UNL d   1      10.453   8.964  -5.770  0.00  0.00    -0.002 A 
ENDBRANCH  10  11
ENDBRANCH   8  10
ENDBRANCH   3   4
BRANCH   1  17
ATOM     17  C   UNL d   1       8.633   5.549 -12.549  0.00  0.00     0.081 A 
ATOM     18  C   UNL d   1       9.457   4.791 -13.421  0.00  0.00     0.100 A 
ATOM     19  C   UNL d   1       8.912   3.675 -14.077  0.00  0.00     0.044 A 
ATOM     20  C   UNL d   1       7.556   3.323 -13.908  0.00  0.00     0.089 A 
ATOM     21  C   UNL d   1       6.740   4.096 -13.050  0.00  0.00     0.075 A 
ATOM     22  C   UNL d   1       7.282   5.194 -12.362  0.00  0.00     0.020 A 
ATOM     23 CL   UNL d   1       5.067   3.708 -12.859  0.00  0.00    -0.081 Cl
BRANCH  18  24
ATOM     24  O   UNL d   1      10.773   5.180 -13.577  0.00  0.00    -0.328 OA
ATOM     25  C   UNL d   1      11.631   4.402 -14.405  0.00  0.00     0.181 C 
ENDBRANCH  18  24
BRANCH  20  26
ATOM     26  N   UNL d   1       6.985   2.228 -14.566  0.00  0.00    -0.268 NA
ATOM     27  C   UNL d   1       7.766   1.367 -15.437  0.00  0.00     0.152 C 
ENDBRANCH  20  26
ENDBRANCH   1  17
TORSDOF 6
