REMARK  8 active torsions:
REMARK  status: ('A' for Active; 'I' for Inactive)
REMARK    1  A    between atoms: S_2  and  N_4 
REMARK    2  A    between atoms: S_2  and  C_26 
REMARK    3  A    between atoms: N_4  and  C_5 
REMARK    4  A    between atoms: N_8  and  C_9 
REMARK    5  A    between atoms: C_9  and  C_10 
REMARK    6  A    between atoms: C_10  and  O_11 
REMARK    7  A    between atoms: O_11  and  C_12 
REMARK    8  A    between atoms: C_17  and  C_18 
ROOT
ATOM      1  C   UNL d   1       9.539   5.885  -8.247  0.00  0.00     0.120 C 
ATOM      2  C   UNL d   1       9.992   4.549  -8.755  0.00  0.00     0.060 C 
ATOM      3  C   UNL d   1       9.832   4.462 -10.237  0.00  0.00     0.252 C 
ATOM      4  N   UNL d   1       8.441   4.621 -10.651  0.00  0.00     0.140 N 
ATOM      5  C   UNL d   1       8.015   5.981 -10.240  0.00  0.00     0.252 C 
ATOM      6  C   UNL d   1       8.154   6.098  -8.731  0.00  0.00     0.060 C 
ENDROOT
BRANCH   4   7
ATOM      7  C   UNL d   1       8.251   4.528 -12.100  0.00  0.00     0.283 C 
BRANCH   7   8
ATOM      8  C   UNL d   1       9.232   3.563 -12.755  0.00  0.00     0.184 C 
BRANCH   8   9
ATOM      9  O   UNL d   1       8.610   3.001 -13.887  0.00  0.00    -0.329 OA
BRANCH   9  10
ATOM     10  C   UNL d   1       9.421   2.501 -14.870  0.00  0.00     0.094 A 
ATOM     11  C   UNL d   1       8.919   1.443 -15.669  0.00  0.00     0.022 A 
ATOM     12  C   UNL d   1       9.685   1.021 -16.776  0.00  0.00     0.002 A 
ATOM     13  C   UNL d   1      10.928   1.613 -17.071  0.00  0.00     0.000 A 
ATOM     14  C   UNL d   1      11.432   2.635 -16.255  0.00  0.00     0.002 A 
ATOM     15  C   UNL d   1      10.685   3.074 -15.156  0.00  0.00     0.024 A 
BRANCH  11  16
ATOM     16  C   UNL d   1       7.615   0.804 -15.393  0.00  0.00     0.002 A 
ATOM     17  C   UNL d   1       7.280   0.344 -14.100  0.00  0.00     0.000 A 
ATOM     18  C   UNL d   1       6.037  -0.260 -13.843  0.00  0.00     0.000 A 
ATOM     19  C   UNL d   1       5.112  -0.442 -14.887  0.00  0.00     0.000 A 
ATOM     20  C   UNL d   1       5.441  -0.013 -16.186  0.00  0.00     0.000 A 
ATOM     21  C   UNL d   1       6.676   0.618 -16.431  0.00  0.00     0.000 A 
ENDBRANCH  11  16
ENDBRANCH   9  10
ENDBRANCH   8   9
ENDBRANCH   7   8
ENDBRANCH   4   7
BRANCH   1  22
ATOM     22  N   UNL d   1      10.464   6.962  -8.681  0.00  0.00    -0.187 NA
BRANCH  22  23
ATOM     23  S   UNL d   1      10.426   8.562  -8.028  0.00  0.00     0.281 S 
ATOM     24  O   UNL d   1      11.323   9.361  -8.891  0.00  0.00    -0.199 OA
ATOM     25  O   UNL d   1       9.058   8.994  -7.817  0.00  0.00    -0.199 OA
BRANCH  23  26
ATOM     26  C   UNL d   1      11.125   8.379  -6.398  0.00  0.00     0.107 A 
ATOM     27  C   UNL d   1      10.761   7.325  -5.534  0.00  0.00     0.045 A 
ATOM     28  C   UNL d   1      11.414   7.158  -4.307  0.00  0.00     0.168 A 
ATOM     29  C   UNL d   1      12.337   8.114  -3.848  0.00  0.00     0.167 A 
ATOM     30  F   UNL d   1      11.079   6.136  -3.516  0.00  0.00    -0.202 F 
ATOM     31  C   UNL d   1      12.648   9.203  -4.685  0.00  0.00     0.033 A 
ATOM     32  F   UNL d   1      12.898   7.991  -2.632  0.00  0.00    -0.202 F 
ATOM     33  C   UNL d   1      12.059   9.359  -5.965  0.00  0.00     0.015 A 
ENDBRANCH  23  26
ENDBRANCH  22  23
ENDBRANCH   1  22
TORSDOF 8
