REMARK  7 active torsions:
REMARK  status: ('A' for Active; 'I' for Inactive)
REMARK    1  A    between atoms: C_2  and  C_3 
REMARK    2  A    between atoms: C_3  and  N_4 
REMARK    3  A    between atoms: N_4  and  C_5 
REMARK    4  A    between atoms: N_4  and  C_23 
REMARK    5  A    between atoms: C_5  and  C_6 
REMARK    6  A    between atoms: C_6  and  N_7 
REMARK    7  A    between atoms: N_10  and  C_11 
ROOT
ATOM      1  N   UNL d   1       7.819   5.787 -11.665  0.00  0.00     0.143 N 
ATOM      2  C   UNL d   1       7.713   5.916 -13.123  0.00  0.00     0.274 C 
ATOM      3  C   UNL d   1       9.003   5.500 -13.864  0.00  0.00     0.138 C 
ATOM      4  N   UNL d   1       9.421   4.188 -13.404  0.00  0.00    -0.330 N 
ATOM      5  C   UNL d   1       9.467   3.947 -11.968  0.00  0.00     0.138 C 
ATOM      6  C   UNL d   1       8.118   4.394 -11.337  0.00  0.00     0.274 C 
ENDROOT
BRANCH   1   7
ATOM      7  C   UNL d   1       8.807   6.732 -11.121  0.00  0.00     0.286 C 
BRANCH   7   8
ATOM      8  C   UNL d   1       9.077   6.634  -9.610  0.00  0.00     0.285 C 
BRANCH   8   9
ATOM      9  N   UNL d   1      10.006   7.639  -9.086  0.00  0.00     0.137 N 
BRANCH   9  10
ATOM     10  C   UNL d   1      11.274   7.647  -9.830  0.00  0.00     0.250 C 
BRANCH  10  11
ATOM     11  C   UNL d   1      12.420   8.536  -9.297  0.00  0.00     0.035 C 
ATOM     12  C   UNL d   1      13.785   8.181  -9.875  0.00  0.00     0.002 C 
ENDBRANCH  10  11
ENDBRANCH   9  10
BRANCH   9  13
ATOM     13  C   UNL d   1      10.171   7.481  -7.636  0.00  0.00     0.225 C 
ATOM     14  C   UNL d   1      10.371   8.862  -6.974  0.00  0.00     0.068 C 
ATOM     15  C   UNL d   1      10.923   8.723  -5.608  0.00  0.00     0.026 C 
ATOM     16  C   UNL d   1      11.493   7.598  -5.090  0.00  0.00     0.063 C 
ATOM     17  S   UNL d   1      10.893   9.994  -4.436  0.00  0.00    -0.050 SA
ATOM     18  C   UNL d   1      11.572   6.281  -5.756  0.00  0.00     0.048 C 
ATOM     19  N   UNL d   1      12.043   7.765  -3.834  0.00  0.00    -0.224 NA
ATOM     20  C   UNL d   1      11.251   6.414  -7.242  0.00  0.00     0.040 C 
ATOM     21  C   UNL d   1      11.840   8.981  -3.358  0.00  0.00     0.214 C 
ATOM     22  N   UNL d   1      12.224   9.368  -2.109  0.00  0.00    -0.120 N 
ENDBRANCH   9  13
ENDBRANCH   8   9
ENDBRANCH   7   8
ENDBRANCH   1   7
BRANCH   4  23
ATOM     23  C   UNL d   1       9.719   3.176 -14.332  0.00  0.00     0.140 A 
ATOM     24  C   UNL d   1       8.725   2.280 -14.775  0.00  0.00     0.034 A 
ATOM     25  C   UNL d   1       9.100   1.298 -15.752  0.00  0.00     0.004 A 
ATOM     26  C   UNL d   1       7.391   2.296 -14.321  0.00  0.00     0.003 A 
ATOM     27  C   UNL d   1      10.426   1.288 -16.202  0.00  0.00     0.021 A 
ATOM     28  C   UNL d   1       8.155   0.391 -16.233  0.00  0.00     0.000 A 
ATOM     29  C   UNL d   1      11.331   2.223 -15.690  0.00  0.00     0.101 A 
ATOM     30  N   UNL d   1      10.994   3.156 -14.769  0.00  0.00    -0.227 NA
ATOM     31  C   UNL d   1       6.830   0.406 -15.760  0.00  0.00     0.000 A 
ATOM     32  C   UNL d   1       6.456   1.360 -14.787  0.00  0.00     0.000 A 
ENDBRANCH   4  23
TORSDOF 7
