REMARK  6 active torsions:
REMARK  status: ('A' for Active; 'I' for Inactive)
REMARK    1  A    between atoms: C_2  and  C_3 
REMARK       I    between atoms: C_2  and  N_5 
REMARK    2  A    between atoms: N_5  and  C_6 
REMARK    3  A    between atoms: C_9  and  C_10 
REMARK    4  A    between atoms: C_10  and  C_11 
REMARK    5  A    between atoms: C_11  and  N_12 
REMARK    6  A    between atoms: C_15  and  C_16 
ROOT
ATOM      1  N   UNL d   1       9.166   6.284  -9.318  0.00  0.00     0.137 N 
ATOM      2  C   UNL d   1      10.628   6.346  -9.234  0.00  0.00     0.251 C 
ATOM      3  C   UNL d   1      11.081   7.333  -8.173  0.00  0.00     0.040 C 
ATOM      4  C   UNL d   1      10.526   6.944  -6.806  0.00  0.00     0.028 C 
ATOM      5  C   UNL d   1       9.007   6.750  -6.903  0.00  0.00     0.040 C 
ATOM      6  C   UNL d   1       8.645   5.786  -8.042  0.00  0.00     0.251 C 
ENDROOT
BRANCH   1   7
ATOM      7  C   UNL d   1       8.696   5.381 -10.367  0.00  0.00     0.250 C 
BRANCH   7   8
ATOM      8  C   UNL d   1       9.305   5.668 -11.755  0.00  0.00     0.035 C 
BRANCH   8   9
ATOM      9  C   UNL d   1       9.461   4.408 -12.625  0.00  0.00     0.002 C 
ATOM     10  C   UNL d   1       8.124   4.064 -13.291  0.00  0.00     0.002 C 
ATOM     11  C   UNL d   1       8.253   2.862 -14.234  0.00  0.00     0.024 C 
ATOM     12  C   UNL d   1       9.360   3.088 -15.287  0.00  0.00     0.106 C 
ATOM     13  C   UNL d   1      10.701   3.397 -14.611  0.00  0.00     0.024 C 
ATOM     14  C   UNL d   1      10.567   4.600 -13.678  0.00  0.00     0.002 C 
BRANCH  12  15
ATOM     15  N   UNL d   1       9.505   1.904 -16.125  0.00  0.00    -0.238 NA
ATOM     16  C   UNL d   1       8.744   1.621 -17.185  0.00  0.00     0.287 C 
ATOM     17  O   UNL d   1       7.849   2.364 -17.595  0.00  0.00    -0.267 OA
BRANCH  16  18
ATOM     18  C   UNL d   1       9.029   0.300 -17.896  0.00  0.00     0.282 C 
ATOM     19  F   UNL d   1       8.563   0.341 -19.146  0.00  0.00    -0.224 F 
ENDBRANCH  16  18
ENDBRANCH  12  15
ENDBRANCH   8   9
ENDBRANCH   7   8
ENDBRANCH   1   7
BRANCH   4  20
ATOM     20  C   UNL d   1      10.893   7.983  -5.760  0.00  0.00     0.002 A 
ATOM     21  C   UNL d   1      11.485   7.622  -4.534  0.00  0.00     0.115 A 
ATOM     22  C   UNL d   1      11.818   8.561  -3.578  0.00  0.00     0.119 A 
ATOM     23  O   UNL d   1      11.803   6.389  -4.074  0.00  0.00    -0.300 OA
ATOM     24  C   UNL d   1      11.565   9.922  -3.773  0.00  0.00     0.026 A 
ATOM     25  O   UNL d   1      12.348   7.944  -2.488  0.00  0.00    -0.300 OA
ATOM     26  C   UNL d   1      11.007  10.319  -5.010  0.00  0.00     0.002 A 
ATOM     27  C   UNL d   1      10.664   9.359  -5.988  0.00  0.00    -0.002 A 
ATOM     28  C   UNL d   1      12.327   6.572  -2.791  0.00  0.00     0.304 A 
ENDBRANCH   4  20
TORSDOF 6
