REMARK  5 active torsions:
REMARK  status: ('A' for Active; 'I' for Inactive)
REMARK       I    between atoms: N_2  and  C_3 
REMARK    1  A    between atoms: N_2  and  C_13 
REMARK    2  A    between atoms: C_3  and  C_5 
REMARK    3  A    between atoms: C_6  and  C_7 
REMARK    4  A    between atoms: N_16  and  C_17 
REMARK    5  A    between atoms: C_17  and  C_18 
ROOT
ATOM      1  C   UNL d   1       8.900   6.145  -9.838  0.00  0.00     0.089 C 
ATOM      2  C   UNL d   1       9.535   4.771 -10.043  0.00  0.00     0.058 C 
ATOM      3  C   UNL d   1       9.213   4.197 -11.448  0.00  0.00     0.253 C 
ATOM      4  N   UNL d   1       9.593   5.110 -12.517  0.00  0.00     0.141 N 
ATOM      5  C   UNL d   1       8.836   6.353 -12.384  0.00  0.00     0.253 C 
ATOM      6  C   UNL d   1       9.218   7.040 -11.064  0.00  0.00     0.058 C 
ENDROOT
BRANCH   1   7
ATOM      7  N   UNL d   1       9.348   6.708  -8.544  0.00  0.00    -0.310 N 
ATOM      8  C   UNL d   1       8.391   6.542  -7.439  0.00  0.00     0.129 C 
ATOM      9  C   UNL d   1      10.564   7.299  -8.369  0.00  0.00     0.300 C 
ATOM     10  O   UNL d   1      11.345   7.567  -9.273  0.00  0.00    -0.258 OA
BRANCH   9  11
ATOM     11  C   UNL d   1      10.972   7.576  -7.001  0.00  0.00     0.000 C 
ATOM     12  C   UNL d   1      11.352   7.707  -5.856  0.00  0.00    -0.055 C 
BRANCH  12  13
ATOM     13  C   UNL d   1      11.789   7.896  -4.501  0.00  0.00     0.042 A 
ATOM     14  C   UNL d   1      12.149   6.785  -3.729  0.00  0.00     0.008 A 
ATOM     15  C   UNL d   1      12.561   6.973  -2.406  0.00  0.00     0.001 A 
ATOM     16  C   UNL d   1      12.607   8.276  -1.876  0.00  0.00     0.000 A 
ATOM     17  C   UNL d   1      12.230   9.378  -2.661  0.00  0.00     0.001 A 
ATOM     18  C   UNL d   1      11.823   9.201  -3.985  0.00  0.00     0.008 A 
ENDBRANCH  12  13
ENDBRANCH   9  11
ENDBRANCH   1   7
BRANCH   4  19
ATOM     19  C   UNL d   1       9.319   4.498 -13.819  0.00  0.00     0.277 C 
BRANCH  19  20
ATOM     20  C   UNL d   1      10.414   4.749 -14.839  0.00  0.00     0.011 A 
ATOM     21  C   UNL d   1      10.087   5.185 -16.140  0.00  0.00    -0.002 A 
ATOM     22  C   UNL d   1      11.101   5.382 -17.096  0.00  0.00    -0.000 A 
ATOM     23  C   UNL d   1      12.446   5.138 -16.758  0.00  0.00    -0.000 A 
ATOM     24  C   UNL d   1      12.773   4.692 -15.465  0.00  0.00    -0.000 A 
ATOM     25  C   UNL d   1      11.762   4.497 -14.505  0.00  0.00    -0.002 A 
ENDBRANCH  19  20
ENDBRANCH   4  19
TORSDOF 5
