REMARK  8 active torsions:
REMARK  status: ('A' for Active; 'I' for Inactive)
REMARK    1  A    between atoms: N_15  and  C_16 
REMARK    2  A    between atoms: C_16  and  C_17 
REMARK    3  A    between atoms: C_17  and  C_18 
REMARK    4  A    between atoms: C_18  and  C_19 
REMARK    5  A    between atoms: C_19  and  C_20 
REMARK    6  A    between atoms: C_20  and  C_21 
REMARK    7  A    between atoms: C_21  and  N_22 
REMARK    8  A    between atoms: N_25  and  C_26 
ROOT
ATOM      1  C   UNL d   1       8.570   1.893 -17.367  0.00  0.00     0.002 C 
ENDROOT
BRANCH   1   2
ATOM      2  C   UNL d   1       9.467   1.055 -18.312  0.00  0.00     0.025 C 
BRANCH   2   3
ATOM      3  C   UNL d   1       8.867   0.890 -19.732  0.00  0.00     0.112 C 
BRANCH   3   4
ATOM      4  N   UNL d   1       7.896  -0.231 -19.825  0.00  0.00    -0.264 N 
ATOM      5  C   UNL d   1       6.631  -0.024 -19.369  0.00  0.00     0.263 C 
ATOM      6  O   UNL d   1       6.243   1.067 -18.949  0.00  0.00    -0.267 OA
ATOM      7  C   UNL d   1       5.686  -1.197 -19.352  0.00  0.00     0.056 A 
ATOM      8  C   UNL d   1       6.029  -2.434 -19.969  0.00  0.00     0.009 A 
ATOM      9  C   UNL d   1       4.399  -1.084 -18.786  0.00  0.00     0.005 A 
ATOM     10  C   UNL d   1       5.098  -3.503 -20.045  0.00  0.00     0.000 A 
ATOM     11  C   UNL d   1       7.334  -2.534 -20.519  0.00  0.00     0.056 A 
ATOM     12  C   UNL d   1       3.819  -3.321 -19.483  0.00  0.00     0.000 A 
ATOM     13  C   UNL d   1       5.491  -4.690 -20.683  0.00  0.00     0.000 A 
ATOM     14  C   UNL d   1       3.468  -2.123 -18.849  0.00  0.00     0.000 A 
ATOM     15  C   UNL d   1       6.776  -4.818 -21.229  0.00  0.00     0.000 A 
ATOM     16  C   UNL d   1       7.680  -3.750 -21.152  0.00  0.00     0.005 A 
ATOM     17  C   UNL d   1       8.309  -1.393 -20.422  0.00  0.00     0.263 C 
ATOM     18  O   UNL d   1       9.436  -1.536 -20.916  0.00  0.00    -0.267 OA
ENDBRANCH   3   4
ENDBRANCH   2   3
ENDBRANCH   1   2
BRANCH   1  19
ATOM     19  C   UNL d   1       9.114   1.961 -15.942  0.00  0.00     0.002 C 
BRANCH  19  20
ATOM     20  C   UNL d   1       8.562   3.187 -15.223  0.00  0.00     0.035 C 
BRANCH  20  21
ATOM     21  C   UNL d   1       9.067   3.232 -13.796  0.00  0.00     0.250 C 
BRANCH  21  22
ATOM     22  N   UNL d   1       8.702   4.512 -13.200  0.00  0.00     0.141 N 
ATOM     23  C   UNL d   1       9.749   5.497 -13.467  0.00  0.00     0.274 C 
ATOM     24  C   UNL d   1       9.401   6.865 -12.823  0.00  0.00     0.138 C 
ATOM     25  N   UNL d   1       9.209   6.672 -11.381  0.00  0.00    -0.329 N 
ATOM     26  C   UNL d   1       8.228   5.656 -11.066  0.00  0.00     0.138 C 
ATOM     27  C   UNL d   1       8.641   4.346 -11.743  0.00  0.00     0.274 C 
BRANCH  25  28
ATOM     28  C   UNL d   1       9.860   7.500 -10.388  0.00  0.00     0.148 C 
ATOM     29  C   UNL d   1       9.716   7.316  -8.955  0.00  0.00     0.042 A 
ATOM     30  C   UNL d   1      10.592   8.270  -8.290  0.00  0.00     0.050 A 
ATOM     31  C   UNL d   1       8.943   6.507  -8.076  0.00  0.00     0.004 A 
ATOM     32  S   UNL d   1      11.429   9.181  -9.510  0.00  0.00     0.015 SA
ATOM     33  C   UNL d   1      10.684   8.378  -6.897  0.00  0.00     0.008 A 
ATOM     34  N   UNL d   1      10.617   8.484 -10.791  0.00  0.00    -0.192 NA
ATOM     35  C   UNL d   1       9.902   7.546  -6.093  0.00  0.00     0.001 A 
ATOM     36  C   UNL d   1       9.016   6.635  -6.720  0.00  0.00     0.000 A 
ENDBRANCH  25  28
ENDBRANCH  21  22
ENDBRANCH  20  21
ENDBRANCH  19  20
ENDBRANCH   1  19
TORSDOF 8
