REMARK  5 active torsions:
REMARK  status: ('A' for Active; 'I' for Inactive)
REMARK    1  A    between atoms: N_11  and  C_12 
REMARK    2  A    between atoms: C_12  and  C_13 
REMARK    3  A    between atoms: C_13  and  C_14 
REMARK    4  A    between atoms: C_14  and  N_15 
REMARK    5  A    between atoms: C_18  and  N_19 
ROOT
ATOM      1  N   UNL d   1       9.216   6.324  -9.372  0.00  0.00     0.137 N 
ATOM      2  C   UNL d   1      10.657   6.240  -9.292  0.00  0.00     0.252 C 
ATOM      3  C   UNL d   1      11.209   7.247  -8.308  0.00  0.00     0.058 C 
ATOM      4  C   UNL d   1      10.622   7.018  -6.900  0.00  0.00     0.094 C 
ATOM      5  C   UNL d   1       9.084   6.972  -6.997  0.00  0.00     0.058 C 
ATOM      6  C   UNL d   1       8.640   5.977  -8.082  0.00  0.00     0.252 C 
ENDROOT
BRANCH   1   7
ATOM      7  C   UNL d   1       8.675   5.439 -10.389  0.00  0.00     0.252 C 
BRANCH   7   8
ATOM      8  C   UNL d   1       9.288   5.731 -11.774  0.00  0.00     0.060 C 
BRANCH   8   9
ATOM      9  C   UNL d   1       8.376   5.396 -12.970  0.00  0.00     0.111 C 
BRANCH   9  10
ATOM     10  N   UNL d   1       8.816   4.237 -13.779  0.00  0.00    -0.295 N 
ATOM     11  C   UNL d   1      10.028   4.277 -14.395  0.00  0.00     0.268 C 
ATOM     12  O   UNL d   1      10.844   5.193 -14.275  0.00  0.00    -0.269 OA
ATOM     13  C   UNL d   1      10.395   3.109 -15.323  0.00  0.00     0.236 C 
ATOM     14  O   UNL d   1       9.851   1.869 -14.879  0.00  0.00    -0.319 OA
ATOM     15  C   UNL d   1       8.531   1.904 -14.502  0.00  0.00     0.110 A 
ATOM     16  C   UNL d   1       7.956   3.098 -13.986  0.00  0.00     0.085 A 
ATOM     17  C   UNL d   1       7.774   0.719 -14.598  0.00  0.00     0.026 A 
ATOM     18  C   UNL d   1       6.590   3.063 -13.588  0.00  0.00     0.019 A 
ATOM     19  C   UNL d   1       5.863   1.866 -13.639  0.00  0.00     0.002 A 
ATOM     20  C   UNL d   1       6.431   0.700 -14.173  0.00  0.00     0.002 A 
ENDBRANCH   9  10
ENDBRANCH   8   9
ENDBRANCH   7   8
ENDBRANCH   1   7
BRANCH   4  21
ATOM     21  N   UNL d   1      11.059   8.039  -5.928  0.00  0.00    -0.279 N 
ATOM     22  C   UNL d   1      11.483   7.772  -4.620  0.00  0.00     0.101 A 
ATOM     23  C   UNL d   1      11.790   8.972  -4.042  0.00  0.00     0.105 A 
ATOM     24  C   UNL d   1      11.613   6.589  -3.890  0.00  0.00     0.118 A 
ATOM     25  N   UNL d   1      11.534   9.952  -4.981  0.00  0.00    -0.191 NA
ATOM     26  C   UNL d   1      12.235   9.048  -2.727  0.00  0.00     0.041 A 
ATOM     27  C   UNL d   1      11.129   9.363  -6.101  0.00  0.00     0.350 A 
ATOM     28  O   UNL d   1      10.901   9.948  -7.144  0.00  0.00    -0.244 OA
ATOM     29  C   UNL d   1      12.327   7.824  -2.037  0.00  0.00     0.101 A 
ATOM     30  N   UNL d   1      12.038   6.625  -2.600  0.00  0.00    -0.241 NA
ENDBRANCH   4  21
TORSDOF 5
