REMARK  5 active torsions:
REMARK  status: ('A' for Active; 'I' for Inactive)
REMARK       I    between atoms: N_2  and  C_4 
REMARK       I    between atoms: C_4  and  N_6 
REMARK    1  A    between atoms: N_6  and  C_7 
REMARK    2  A    between atoms: C_10  and  C_11 
REMARK    3  A    between atoms: C_11  and  C_12 
REMARK    4  A    between atoms: C_12  and  N_13 
REMARK    5  A    between atoms: C_16  and  C_17 
ROOT
ATOM      1  N   UNL d   1       9.243   6.279  -9.373  0.00  0.00     0.137 N 
ATOM      2  C   UNL d   1      10.656   6.170  -9.129  0.00  0.00     0.251 C 
ATOM      3  C   UNL d   1      11.148   7.184  -8.104  0.00  0.00     0.040 C 
ATOM      4  C   UNL d   1      10.462   6.919  -6.771  0.00  0.00     0.026 C 
ATOM      5  C   UNL d   1       8.930   6.854  -6.974  0.00  0.00     0.040 C 
ATOM      6  C   UNL d   1       8.567   5.891  -8.122  0.00  0.00     0.251 C 
ENDROOT
BRANCH   1   7
ATOM      7  C   UNL d   1       8.828   5.382 -10.428  0.00  0.00     0.250 C 
BRANCH   7   8
ATOM      8  C   UNL d   1       9.489   5.700 -11.778  0.00  0.00     0.035 C 
BRANCH   8   9
ATOM      9  C   UNL d   1       9.641   4.471 -12.695  0.00  0.00     0.002 C 
ATOM     10  C   UNL d   1       8.289   4.102 -13.328  0.00  0.00     0.002 C 
ATOM     11  C   UNL d   1       8.428   2.933 -14.306  0.00  0.00     0.025 C 
ATOM     12  C   UNL d   1       9.473   3.239 -15.398  0.00  0.00     0.108 C 
ATOM     13  C   UNL d   1      10.840   3.543 -14.756  0.00  0.00     0.025 C 
ATOM     14  C   UNL d   1      10.714   4.691 -13.768  0.00  0.00     0.002 C 
BRANCH  12  15
ATOM     15  N   UNL d   1       9.638   2.088 -16.265  0.00  0.00    -0.221 NA
ATOM     16  C   UNL d   1       8.843   1.692 -17.270  0.00  0.00     0.342 C 
ATOM     17  N   UNL d   1       9.239   0.527 -17.828  0.00  0.00    -0.297 N 
ATOM     18  O   UNL d   1       7.856   2.334 -17.643  0.00  0.00    -0.245 OA
ATOM     19  C   UNL d   1      10.388  -0.277 -17.387  0.00  0.00     0.130 C 
ATOM     20  C   UNL d   1       8.438  -0.046 -18.914  0.00  0.00     0.130 C 
ENDBRANCH  12  15
ENDBRANCH   8   9
ENDBRANCH   7   8
ENDBRANCH   1   7
BRANCH   4  21
ATOM     21  C   UNL d   1      10.894   7.979  -5.760  0.00  0.00    -0.024 A 
ATOM     22  C   UNL d   1      11.513   7.671  -4.536  0.00  0.00    -0.001 A 
ATOM     23  C   UNL d   1      11.857   8.627  -3.588  0.00  0.00     0.090 A 
ATOM     24  C   UNL d   1      11.777   6.347  -3.958  0.00  0.00     0.061 A 
ATOM     25  C   UNL d   1      11.574   9.972  -3.846  0.00  0.00     0.024 A 
ATOM     26  O   UNL d   1      12.348   8.112  -2.421  0.00  0.00    -0.331 OA
ATOM     27  C   UNL d   1      11.041  10.320  -5.106  0.00  0.00     0.002 A 
ATOM     28  C   UNL d   1      10.678   9.339  -6.048  0.00  0.00    -0.004 A 
ATOM     29  C   UNL d   1      12.420   6.688  -2.596  0.00  0.00     0.154 A 
ENDBRANCH   4  21
TORSDOF 5
