REMARK  3 active torsions:
REMARK  status: ('A' for Active; 'I' for Inactive)
REMARK    1  A    between atoms: C_2  and  C_3 
REMARK    2  A    between atoms: C_3  and  N_4 
REMARK    3  A    between atoms: C_7  and  C_8 
ROOT
ATOM      1  N   UNL d   1       9.950   6.527  -8.963  0.00  0.00     0.137 N 
ATOM      2  C   UNL d   1       8.721   6.992  -8.352  0.00  0.00     0.251 C 
ATOM      3  C   UNL d   1       8.814   6.670  -6.885  0.00  0.00     0.042 C 
ATOM      4  C   UNL d   1      10.325   6.646  -6.664  0.00  0.00     0.058 C 
ATOM      5  C   UNL d   1      10.905   7.055  -8.010  0.00  0.00     0.255 C 
ENDROOT
BRANCH   4   6
ATOM      6  C   UNL d   1      10.822   7.565  -5.587  0.00  0.00    -0.018 A 
ATOM      7  C   UNL d   1      10.575   8.937  -5.716  0.00  0.00     0.023 A 
ATOM      8  C   UNL d   1      11.013   9.807  -4.723  0.00  0.00     0.131 A 
ATOM      9  C   UNL d   1      11.718   9.338  -3.591  0.00  0.00     0.027 A 
ATOM     10  O   UNL d   1      10.667  11.096  -4.841  0.00  0.00    -0.190 OA
ATOM     11  C   UNL d   1      11.974   7.965  -3.466  0.00  0.00     0.002 A 
ATOM     12  C   UNL d   1      11.526   7.078  -4.466  0.00  0.00    -0.004 A 
ENDBRANCH   4   6
BRANCH   1  13
ATOM     13  C   UNL d   1      10.077   7.121 -10.297  0.00  0.00     0.250 C 
BRANCH  13  14
ATOM     14  C   UNL d   1       9.070   6.555 -11.333  0.00  0.00     0.035 C 
ATOM     15  C   UNL d   1       9.482   5.188 -11.883  0.00  0.00     0.002 C 
ENDBRANCH  13  14
ENDBRANCH   1  13
TORSDOF 3
