REMARK  6 active torsions:
REMARK  status: ('A' for Active; 'I' for Inactive)
REMARK    1  A    between atoms: C_6  and  C_7 
REMARK    2  A    between atoms: C_10  and  S_11 
REMARK    3  A    between atoms: S_11  and  C_12 
REMARK    4  A    between atoms: C_12  and  C_13 
REMARK    5  A    between atoms: C_13  and  N_14 
REMARK    6  A    between atoms: C_20  and  C_21 
ROOT
ATOM      1  C   UNL d   1       9.225  -1.517 -19.449  0.00  0.00     0.101 C 
ENDROOT
BRANCH   1   2
ATOM      2  S   UNL d   1       7.684  -1.279 -18.497  0.00  0.00    -0.073 SA
BRANCH   2   3
ATOM      3  C   UNL d   1       8.034   0.275 -17.742  0.00  0.00     0.193 A 
ATOM      4  N   UNL d   1       7.248   1.334 -17.951  0.00  0.00    -0.122 NA
ATOM      5  N   UNL d   1       7.885   2.380 -17.340  0.00  0.00    -0.128 NA
ATOM      6  C   UNL d   1       8.953   1.859 -16.727  0.00  0.00     0.167 A 
ATOM      7  N   UNL d   1       9.104   0.533 -16.944  0.00  0.00    -0.289 N 
ATOM      8  C   UNL d   1      10.176  -0.358 -16.477  0.00  0.00     0.134 C 
BRANCH   6   9
ATOM      9  C   UNL d   1       9.859   2.675 -15.925  0.00  0.00     0.037 A 
ATOM     10  C   UNL d   1       9.439   3.351 -14.748  0.00  0.00     0.021 A 
ATOM     11  C   UNL d   1       8.097   3.293 -14.300  0.00  0.00     0.003 A 
ATOM     12  C   UNL d   1      10.369   4.104 -13.976  0.00  0.00     0.081 A 
ATOM     13  C   UNL d   1       7.730   3.993 -13.145  0.00  0.00     0.015 A 
ATOM     14  C   UNL d   1       8.720   4.710 -12.449  0.00  0.00     0.059 A 
ATOM     15  C   UNL d   1       8.385   5.455 -11.177  0.00  0.00     0.052 C 
ATOM     16  N   UNL d   1      10.008   4.763 -12.857  0.00  0.00    -0.250 NA
ATOM     17  C   UNL d   1      11.717   4.158 -14.406  0.00  0.00     0.019 A 
ATOM     18  C   UNL d   1      12.132   3.509 -15.579  0.00  0.00     0.002 A 
ATOM     19  C   UNL d   1      11.208   2.780 -16.339  0.00  0.00     0.003 A 
ENDBRANCH   6   9
ENDBRANCH   2   3
ENDBRANCH   1   2
BRANCH   1  20
ATOM     20  C   UNL d   1       9.912  -0.192 -19.906  0.00  0.00     0.262 C 
BRANCH  20  21
ATOM     21  N   UNL d   1      11.202  -0.406 -20.549  0.00  0.00     0.139 N 
ATOM     22  C   UNL d   1      11.547   0.878 -21.164  0.00  0.00     0.255 C 
ATOM     23  C   UNL d   1      12.684   0.742 -22.186  0.00  0.00     0.061 C 
ATOM     24  C   UNL d   1      14.066   0.724 -21.565  0.00  0.00    -0.024 A 
ATOM     25  C   UNL d   1      14.444  -0.261 -20.623  0.00  0.00    -0.024 A 
ATOM     26  C   UNL d   1      15.004   1.729 -21.931  0.00  0.00    -0.003 A 
ATOM     27  C   UNL d   1      13.486  -1.341 -20.185  0.00  0.00     0.061 C 
ATOM     28  C   UNL d   1      15.710  -0.216 -20.028  0.00  0.00    -0.004 A 
ATOM     29  C   UNL d   1      12.211  -0.778 -19.538  0.00  0.00     0.255 C 
ATOM     30  C   UNL d   1      16.609   0.802 -20.335  0.00  0.00     0.001 A 
ATOM     31  C   UNL d   1      16.296   1.757 -21.328  0.00  0.00     0.017 A 
BRANCH  31  32
ATOM     32  C   UNL d   1      17.264   2.794 -21.718  0.00  0.00     0.079 A 
ATOM     33  N   UNL d   1      18.641   2.614 -21.742  0.00  0.00    -0.249 N 
ATOM     34  N   UNL d   1      19.247   3.754 -22.108  0.00  0.00    -0.174 NA
ATOM     35  C   UNL d   1      19.502   1.465 -21.473  0.00  0.00     0.154 C 
ATOM     36  C   UNL d   1      18.300   4.629 -22.348  0.00  0.00     0.081 A 
ATOM     37  C   UNL d   1      17.008   4.081 -22.110  0.00  0.00     0.035 A 
ATOM     38  C   UNL d   1      18.687   6.024 -22.809  0.00  0.00     0.054 C 
ENDBRANCH  31  32
ENDBRANCH  20  21
ENDBRANCH   1  20
TORSDOF 6
