REMARK  3 active torsions:
REMARK  status: ('A' for Active; 'I' for Inactive)
REMARK    1  A    between atoms: C_2  and  C_3 
REMARK    2  A    between atoms: C_3  and  N_4 
REMARK    3  A    between atoms: N_4  and  C_6 
ROOT
ATOM      1  C   UNL d   1      11.568   7.460  -5.888  0.00  0.00     0.224 C 
ATOM      2  C   UNL d   1      11.902   8.764  -6.648  0.00  0.00     0.038 C 
ATOM      3  C   UNL d   1      11.995   8.536  -8.161  0.00  0.00     0.028 C 
ATOM      4  C   UNL d   1      10.881   7.691  -8.729  0.00  0.00    -0.026 A 
ATOM      5  C   UNL d   1      10.662   7.705 -10.107  0.00  0.00    -0.003 A 
ATOM      6  C   UNL d   1       9.682   6.894 -10.681  0.00  0.00     0.027 A 
ATOM      7  C   UNL d   1       8.906   6.034  -9.869  0.00  0.00     0.131 A 
ATOM      8  O   UNL d   1       7.948   5.264 -10.448  0.00  0.00    -0.190 OA
ATOM      9  C   UNL d   1       9.091   6.057  -8.465  0.00  0.00     0.023 A 
ATOM     10  C   UNL d   1      10.061   6.898  -7.890  0.00  0.00    -0.022 A 
ATOM     11  C   UNL d   1      10.210   6.949  -6.386  0.00  0.00     0.059 C 
ENDROOT
BRANCH   1  12
ATOM     12  N   UNL d   1      11.598   7.639  -4.419  0.00  0.00     0.137 N 
ATOM     13  C   UNL d   1      11.235   6.390  -3.745  0.00  0.00     0.285 C 
BRANCH  12  14
ATOM     14  C   UNL d   1      12.892   8.077  -3.871  0.00  0.00     0.250 C 
BRANCH  14  15
ATOM     15  C   UNL d   1      12.840   8.523  -2.402  0.00  0.00     0.035 C 
ATOM     16  C   UNL d   1      11.918   9.708  -2.261  0.00  0.00     0.002 C 
ENDBRANCH  14  15
ENDBRANCH  12  14
ENDBRANCH   1  12
TORSDOF 3
