REMARK  8 active torsions:
REMARK  status: ('A' for Active; 'I' for Inactive)
REMARK    1  A    between atoms: C_2  and  C_3 
REMARK    2  A    between atoms: N_13  and  C_14 
REMARK    3  A    between atoms: C_14  and  C_15 
REMARK    4  A    between atoms: C_15  and  C_17 
REMARK    5  A    between atoms: C_17  and  N_18 
REMARK    6  A    between atoms: N_21  and  C_22 
REMARK    7  A    between atoms: C_22  and  C_23 
REMARK    8  A    between atoms: C_22  and  C_29 
ROOT
ATOM      1  N   UNL d   1      10.374   4.078 -17.211  0.00  0.00     0.144 N 
ATOM      2  C   UNL d   1       9.104   4.676 -17.595  0.00  0.00     0.286 C 
ATOM      3  C   UNL d   1       9.053   5.098 -19.057  0.00  0.00     0.286 C 
ATOM      4  N   UNL d   1      10.112   6.062 -19.390  0.00  0.00     0.147 N 
ATOM      5  C   UNL d   1      11.396   5.417 -19.041  0.00  0.00     0.286 C 
ATOM      6  C   UNL d   1      11.432   5.019 -17.555  0.00  0.00     0.286 C 
ENDROOT
BRANCH   1   7
ATOM      7  C   UNL d   1      10.405   3.747 -15.799  0.00  0.00     0.285 C 
BRANCH   7   8
ATOM      8  C   UNL d   1       9.418   2.637 -15.345  0.00  0.00     0.208 C 
ATOM      9  O   UNL d   1       9.968   1.376 -15.704  0.00  0.00    -0.219 OA
BRANCH   8  10
ATOM     10  C   UNL d   1       9.142   2.617 -13.831  0.00  0.00     0.148 C 
BRANCH  10  11
ATOM     11  N   UNL d   1       8.559   3.838 -13.254  0.00  0.00    -0.247 N 
ATOM     12  C   UNL d   1       7.287   4.032 -12.870  0.00  0.00     0.348 A 
ATOM     13  N   UNL d   1       7.178   5.173 -12.214  0.00  0.00    -0.209 NA
ATOM     14  O   UNL d   1       6.346   3.229 -13.070  0.00  0.00    -0.245 OA
ATOM     15  C   UNL d   1       8.451   5.895 -12.153  0.00  0.00     0.179 A 
ATOM     16  C   UNL d   1       8.286   7.222 -12.863  0.00  0.00     0.039 C 
ATOM     17  C   UNL d   1       9.311   4.902 -12.933  0.00  0.00     0.265 A 
ATOM     18  O   UNL d   1      10.505   5.061 -13.223  0.00  0.00    -0.269 OA
BRANCH  15  19
ATOM     19  C   UNL d   1       9.017   6.061 -10.757  0.00  0.00     0.006 A 
ATOM     20  C   UNL d   1       9.937   7.105 -10.499  0.00  0.00    -0.001 A 
ATOM     21  C   UNL d   1      10.520   7.234  -9.242  0.00  0.00     0.011 A 
ATOM     22  C   UNL d   1      10.185   6.329  -8.228  0.00  0.00     0.058 A 
ATOM     23  C   UNL d   1       9.268   5.284  -8.477  0.00  0.00     0.011 A 
ATOM     24 CL   UNL d   1      10.938   6.532  -6.695  0.00  0.00    -0.082 Cl
ATOM     25  C   UNL d   1       8.669   5.155  -9.736  0.00  0.00    -0.001 A 
ENDBRANCH  15  19
ENDBRANCH  10  11
ENDBRANCH   8  10
ENDBRANCH   7   8
ENDBRANCH   1   7
BRANCH   4  26
ATOM     26  C   UNL d   1      10.045   6.519 -20.797  0.00  0.00     0.264 C 
BRANCH  26  27
ATOM     27  C   UNL d   1      11.217   7.418 -21.215  0.00  0.00     0.013 A 
ATOM     28  C   UNL d   1      11.546   7.561 -22.593  0.00  0.00    -0.002 A 
ATOM     29  C   UNL d   1      12.603   8.396 -22.996  0.00  0.00    -0.000 A 
ATOM     30  C   UNL d   1      13.401   9.056 -22.042  0.00  0.00    -0.000 A 
ATOM     31  C   UNL d   1      13.103   8.887 -20.664  0.00  0.00    -0.000 A 
ATOM     32  C   UNL d   1      11.993   8.128 -20.262  0.00  0.00    -0.002 A 
ENDBRANCH  26  27
BRANCH  26  33
ATOM     33  C   UNL d   1       8.705   7.173 -21.199  0.00  0.00     0.013 A 
ATOM     34  C   UNL d   1       8.357   7.286 -22.573  0.00  0.00    -0.002 A 
ATOM     35  C   UNL d   1       7.175   7.953 -22.959  0.00  0.00    -0.000 A 
ATOM     36  C   UNL d   1       6.288   8.470 -21.992  0.00  0.00    -0.000 A 
ATOM     37  C   UNL d   1       6.608   8.331 -20.623  0.00  0.00    -0.000 A 
ATOM     38  C   UNL d   1       7.809   7.704 -20.240  0.00  0.00    -0.002 A 
ENDBRANCH  26  33
ENDBRANCH   4  26
TORSDOF 8
