REMARK  2 active torsions:
REMARK  status: ('A' for Active; 'I' for Inactive)
REMARK    1  A    between atoms: C_2  and  C_3 
REMARK    2  A    between atoms: C_3  and  C_4 
ROOT
ATOM      1  C   UNL d   1      11.115   8.319  -6.193  0.00  0.00    -0.020 A 
ATOM      2  C   UNL d   1       9.812   7.836  -6.439  0.00  0.00    -0.002 A 
ATOM      3  C   UNL d   1       9.263   7.901  -7.729  0.00  0.00     0.027 A 
ATOM      4  C   UNL d   1      10.005   8.452  -8.790  0.00  0.00     0.131 A 
ATOM      5  O   UNL d   1       9.464   8.568 -10.034  0.00  0.00    -0.190 OA
ATOM      6  C   UNL d   1      11.311   8.913  -8.560  0.00  0.00     0.027 A 
ATOM      7  C   UNL d   1      11.862   8.859  -7.262  0.00  0.00    -0.002 A 
ENDROOT
BRANCH   1   8
ATOM      8  C   UNL d   1      11.703   8.245  -4.793  0.00  0.00     0.068 C 
BRANCH   8   9
ATOM      9  C   UNL d   1      11.695   6.809  -4.231  0.00  0.00     0.343 C 
ATOM     10  N   UNL d   1      12.258   6.787  -2.892  0.00  0.00     0.618 N 
ENDBRANCH   8   9
ENDBRANCH   1   8
TORSDOF 2
