REMARK  4 active torsions:
REMARK  status: ('A' for Active; 'I' for Inactive)
REMARK    1  A    between atoms: N_2  and  C_3 
REMARK    2  A    between atoms: N_2  and  C_15 
REMARK    3  A    between atoms: N_4  and  C_5 
REMARK    4  A    between atoms: C_15  and  C_16 
ROOT
ATOM      1  C   UNL d   1       8.902   4.890 -12.396  0.00  0.00     0.175 C 
ATOM      2  N   UNL d   1       8.252   5.299 -11.359  0.00  0.00    -0.226 NA
ENDROOT
BRANCH   2   3
ATOM      3  C   UNL d   1       8.993   5.859 -10.316  0.00  0.00     0.083 A 
ATOM      4  C   UNL d   1      10.001   6.834 -10.537  0.00  0.00     0.017 A 
ATOM      5  C   UNL d   1      10.714   7.331  -9.441  0.00  0.00     0.005 A 
ATOM      6  C   UNL d   1      10.429   6.914  -8.155  0.00  0.00    -0.024 A 
ATOM      7  C   UNL d   1      11.848   8.307  -9.476  0.00  0.00     0.174 C 
ATOM      8  C   UNL d   1       9.395   6.004  -7.903  0.00  0.00    -0.003 A 
ATOM      9  C   UNL d   1      11.320   7.578  -7.148  0.00  0.00     0.029 C 
ATOM     10  C   UNL d   1       8.675   5.475  -8.994  0.00  0.00     0.019 A 
ATOM     11  C   UNL d   1      12.359   8.325  -8.025  0.00  0.00     0.042 C 
ATOM     12  O   UNL d   1      11.436   9.598  -9.847  0.00  0.00    -0.219 OA
ENDBRANCH   2   3
BRANCH   1  13
ATOM     13  N   UNL d   1       8.309   4.386 -13.544  0.00  0.00    -0.325 N 
ATOM     14  C   UNL d   1       6.872   4.112 -13.577  0.00  0.00     0.127 C 
BRANCH  13  15
ATOM     15  C   UNL d   1       9.127   4.123 -14.729  0.00  0.00     0.130 C 
BRANCH  15  16
ATOM     16  C   UNL d   1       9.386   2.647 -15.051  0.00  0.00     0.000 A 
ATOM     17  C   UNL d   1       8.431   1.637 -14.824  0.00  0.00    -0.002 A 
ATOM     18  C   UNL d   1       8.683   0.317 -15.190  0.00  0.00    -0.000 A 
ATOM     19  C   UNL d   1       9.919  -0.048 -15.761  0.00  0.00    -0.000 A 
ATOM     20  C   UNL d   1      10.907   0.939 -15.979  0.00  0.00    -0.000 A 
ATOM     21  C   UNL d   1      10.643   2.285 -15.640  0.00  0.00    -0.002 A 
ENDBRANCH  15  16
ENDBRANCH  13  15
ENDBRANCH   1  13
TORSDOF 4
