REMARK  5 active torsions:
REMARK  status: ('A' for Active; 'I' for Inactive)
REMARK    1  A    between atoms: O_2  and  C_3 
REMARK    2  A    between atoms: C_3  and  C_5 
REMARK    3  A    between atoms: C_13  and  C_14 
REMARK    4  A    between atoms: C_14  and  N_15 
REMARK    5  A    between atoms: C_18  and  C_19 
ROOT
ATOM      1  N   UNL d   1      10.864   1.446 -17.729  0.00  0.00     0.137 N 
ATOM      2  C   UNL d   1      11.504   1.130 -16.452  0.00  0.00     0.251 C 
ATOM      3  C   UNL d   1      11.264   2.257 -15.443  0.00  0.00     0.041 C 
ATOM      4  C   UNL d   1       9.763   2.537 -15.231  0.00  0.00     0.047 C 
ATOM      5  C   UNL d   1       9.094   2.727 -16.602  0.00  0.00     0.041 C 
ATOM      6  C   UNL d   1       9.420   1.564 -17.551  0.00  0.00     0.251 C 
ENDROOT
BRANCH   1   7
ATOM      7  C   UNL d   1      11.148   0.428 -18.741  0.00  0.00     0.251 C 
BRANCH   7   8
ATOM      8  C   UNL d   1      12.599   0.501 -19.272  0.00  0.00     0.048 C 
ATOM      9  C   UNL d   1      13.068   1.971 -19.482  0.00  0.00     0.072 C 
ATOM     10  C   UNL d   1      14.475   2.108 -20.060  0.00  0.00     0.175 C 
ATOM     11  C   UNL d   1      14.860   1.097 -21.058  0.00  0.00     0.060 A 
ATOM     12  O   UNL d   1      15.205   3.032 -19.706  0.00  0.00    -0.291 OA
ATOM     13  C   UNL d   1      15.966   0.927 -21.945  0.00  0.00     0.092 A 
ATOM     14  C   UNL d   1      14.051   0.012 -21.237  0.00  0.00     0.081 A 
ATOM     15  C   UNL d   1      15.692  -0.228 -22.633  0.00  0.00     0.128 A 
ATOM     16  O   UNL d   1      14.533  -0.802 -22.211  0.00  0.00    -0.309 OA
ATOM     17  C   UNL d   1      12.774  -0.341 -20.559  0.00  0.00     0.054 C 
BRANCH  13  18
ATOM     18  C   UNL d   1      17.179   1.754 -22.180  0.00  0.00     0.298 C 
ATOM     19  O   UNL d   1      17.336   2.850 -21.645  0.00  0.00    -0.259 OA
BRANCH  18  20
ATOM     20  O   UNL d   1      18.076   1.186 -23.003  0.00  0.00    -0.296 OA
ATOM     21  C   UNL d   1      19.316   1.840 -23.241  0.00  0.00     0.185 C 
ENDBRANCH  18  20
ENDBRANCH  13  18
ENDBRANCH   7   8
ENDBRANCH   1   7
BRANCH   4  22
ATOM     22  C   UNL d   1       9.528   3.715 -14.312  0.00  0.00     0.087 A 
ATOM     23  C   UNL d   1       8.358   4.144 -13.639  0.00  0.00     0.041 A 
ATOM     24  C   UNL d   1       8.645   5.316 -12.935  0.00  0.00     0.129 A 
ATOM     25  C   UNL d   1       7.047   3.620 -13.602  0.00  0.00     0.006 A 
ATOM     26  O   UNL d   1       9.969   5.587 -13.200  0.00  0.00    -0.211 OA
ATOM     27  C   UNL d   1       7.703   6.007 -12.170  0.00  0.00     0.057 A 
ATOM     28  N   UNL d   1      10.498   4.605 -14.077  0.00  0.00    -0.131 NA
ATOM     29  C   UNL d   1       6.399   5.489 -12.139  0.00  0.00     0.142 A 
ATOM     30  F   UNL d   1       5.457   6.154 -11.445  0.00  0.00    -0.204 F 
ATOM     31  C   UNL d   1       6.071   4.304 -12.838  0.00  0.00     0.030 A 
ENDBRANCH   4  22
TORSDOF 5
