REMARK  5 active torsions:
REMARK  status: ('A' for Active; 'I' for Inactive)
REMARK    1  A    between atoms: C_2  and  C_3 
REMARK    2  A    between atoms: C_2  and  C_10 
REMARK    3  A    between atoms: N_13  and  C_14 
REMARK    4  A    between atoms: C_14  and  C_15 
REMARK    5  A    between atoms: C_15  and  N_16 
ROOT
ATOM      1  C   UNL d   1      10.489   7.255  -7.451  0.00  0.00     0.066 C 
ATOM      2  C   UNL d   1      10.727   7.619  -8.927  0.00  0.00     0.043 C 
ATOM      3  C   UNL d   1      10.396   6.432  -9.829  0.00  0.00     0.251 C 
ATOM      4  N   UNL d   1       9.008   6.013  -9.655  0.00  0.00     0.139 N 
ATOM      5  C   UNL d   1       8.788   5.572  -8.276  0.00  0.00     0.251 C 
ATOM      6  C   UNL d   1       9.055   6.723  -7.290  0.00  0.00     0.043 C 
ENDROOT
BRANCH   4   7
ATOM      7  C   UNL d   1       8.691   4.931 -10.581  0.00  0.00     0.275 C 
BRANCH   7   8
ATOM      8  C   UNL d   1       8.425   5.462 -12.010  0.00  0.00     0.149 C 
BRANCH   8   9
ATOM      9  N   UNL d   1       8.197   4.350 -12.958  0.00  0.00    -0.245 N 
ATOM     10  C   UNL d   1       9.310   3.759 -13.501  0.00  0.00     0.266 A 
ATOM     11  C   UNL d   1       9.078   2.608 -14.441  0.00  0.00     0.074 A 
ATOM     12  O   UNL d   1      10.463   4.123 -13.256  0.00  0.00    -0.267 OA
ATOM     13  C   UNL d   1       7.753   2.214 -14.690  0.00  0.00     0.091 A 
ATOM     14  C   UNL d   1      10.140   1.923 -15.074  0.00  0.00     0.006 A 
ATOM     15  N   UNL d   1       6.717   2.915 -14.039  0.00  0.00    -0.192 NA
ATOM     16  C   UNL d   1       7.468   1.150 -15.567  0.00  0.00     0.019 A 
ATOM     17  C   UNL d   1       6.907   3.949 -13.194  0.00  0.00     0.352 A 
ATOM     18  O   UNL d   1       5.923   4.471 -12.669  0.00  0.00    -0.244 OA
ATOM     19  C   UNL d   1       8.527   0.471 -16.201  0.00  0.00     0.002 A 
ATOM     20  C   UNL d   1       9.861   0.858 -15.954  0.00  0.00     0.000 A 
ENDBRANCH   8   9
ENDBRANCH   7   8
ENDBRANCH   4   7
BRANCH   1  21
ATOM     21  C   UNL d   1      10.714   8.469  -6.542  0.00  0.00     0.173 C 
ATOM     22  O   UNL d   1      10.463   9.591  -6.974  0.00  0.00    -0.291 OA
BRANCH  21  23
ATOM     23  C   UNL d   1      11.223   8.271  -5.162  0.00  0.00     0.035 A 
ATOM     24  C   UNL d   1      11.461   6.990  -4.606  0.00  0.00     0.005 A 
ATOM     25  C   UNL d   1      11.953   6.871  -3.294  0.00  0.00     0.030 A 
ATOM     26  C   UNL d   1      12.200   8.028  -2.527  0.00  0.00     0.140 A 
ATOM     27  C   UNL d   1      11.950   9.300  -3.064  0.00  0.00     0.030 A 
ATOM     28  F   UNL d   1      12.663   7.928  -1.259  0.00  0.00    -0.204 F 
ATOM     29  C   UNL d   1      11.464   9.423  -4.375  0.00  0.00     0.005 A 
ENDBRANCH  21  23
ENDBRANCH   1  21
TORSDOF 5
