REMARK  6 active torsions:
REMARK  status: ('A' for Active; 'I' for Inactive)
REMARK    1  A    between atoms: C_2  and  N_3 
REMARK    2  A    between atoms: C_7  and  C_8 
REMARK    3  A    between atoms: C_8  and  N_9 
REMARK       I    between atoms: N_9  and  C_10 
REMARK    4  A    between atoms: C_10  and  C_12 
REMARK    5  A    between atoms: C_13  and  O_14 
REMARK    6  A    between atoms: C_20  and  O_21 
ROOT
ATOM      1  C   UNL d   1       9.005   3.459 -13.784  0.00  0.00     0.104 A 
ATOM      2  C   UNL d   1       7.592   3.296 -13.856  0.00  0.00     0.101 A 
ATOM      3  C   UNL d   1       7.053   2.113 -14.425  0.00  0.00     0.027 A 
ATOM      4  C   UNL d   1       7.898   1.104 -14.900  0.00  0.00     0.031 A 
ATOM      5  C   UNL d   1       9.291   1.269 -14.858  0.00  0.00     0.153 A 
ATOM      6  O   UNL d   1      10.102   0.274 -15.316  0.00  0.00    -0.188 OA
ATOM      7  C   UNL d   1       9.857   2.452 -14.326  0.00  0.00     0.126 A 
ENDROOT
BRANCH   1   8
ATOM      8  C   UNL d   1       9.612   4.727 -13.210  0.00  0.00     0.279 C 
ATOM      9  N   UNL d   1       8.934   5.284 -12.198  0.00  0.00    -0.232 NA
ATOM     10  O   UNL d   1      10.651   5.194 -13.649  0.00  0.00    -0.265 OA
BRANCH   9  11
ATOM     11  C   UNL d   1       9.181   6.612 -11.636  0.00  0.00     0.162 C 
BRANCH  11  12
ATOM     12  C   UNL d   1       9.763   6.476 -10.221  0.00  0.00     0.243 C 
ATOM     13  N   UNL d   1      10.037   7.737  -9.565  0.00  0.00     0.137 N 
ATOM     14  C   UNL d   1      10.166   7.433  -8.149  0.00  0.00     0.250 C 
ATOM     15  C   UNL d   1       9.119   6.354  -7.890  0.00  0.00     0.037 C 
ATOM     16  C   UNL d   1       8.854   5.718  -9.250  0.00  0.00     0.037 C 
BRANCH  13  17
ATOM     17  C   UNL d   1      11.138   8.538 -10.140  0.00  0.00     0.250 C 
ATOM     18  C   UNL d   1      12.535   7.907 -10.002  0.00  0.00     0.037 C 
ENDBRANCH  13  17
ENDBRANCH  11  12
ENDBRANCH   9  11
ENDBRANCH   1   8
BRANCH   7  19
ATOM     19  O   UNL d   1      11.220   2.590 -14.301  0.00  0.00    -0.326 OA
ATOM     20  C   UNL d   1      11.774   3.062 -15.521  0.00  0.00     0.181 C 
ENDBRANCH   7  19
BRANCH   2  21
ATOM     21  O   UNL d   1       6.795   4.299 -13.357  0.00  0.00    -0.328 OA
ATOM     22  C   UNL d   1       5.394   4.172 -13.407  0.00  0.00     0.181 C 
ENDBRANCH   2  21
TORSDOF 6
