REMARK  5 active torsions:
REMARK  status: ('A' for Active; 'I' for Inactive)
REMARK    1  A    between atoms: N_3  and  C_4 
REMARK    2  A    between atoms: C_4  and  C_5 
REMARK    3  A    between atoms: C_5  and  N_6 
REMARK    4  A    between atoms: N_15  and  C_16 
REMARK    5  A    between atoms: C_20  and  C_21 
ROOT
ATOM      1  O   UNL d   1      10.646   5.150 -13.192  0.00  0.00    -0.247 OA
ATOM      2  C   UNL d   1       9.419   4.917 -13.221  0.00  0.00     0.328 C 
ATOM      3  N   UNL d   1       8.761   4.552 -14.300  0.00  0.00    -0.298 N 
ATOM      4  C   UNL d   1       7.401   4.109 -13.985  0.00  0.00     0.131 C 
ATOM      5  C   UNL d   1       7.261   4.460 -12.517  0.00  0.00     0.135 C 
ATOM      6  N   UNL d   1       8.570   5.021 -12.196  0.00  0.00    -0.280 N 
ENDROOT
BRANCH   6   7
ATOM      7  C   UNL d   1       8.893   5.444 -10.880  0.00  0.00     0.064 A 
ATOM      8  C   UNL d   1       9.786   6.528 -10.677  0.00  0.00     0.021 A 
ATOM      9  C   UNL d   1      10.107   6.949  -9.378  0.00  0.00     0.073 A 
ATOM     10  C   UNL d   1       9.534   6.297  -8.266  0.00  0.00     0.004 A 
ATOM     11  C   UNL d   1       8.636   5.231  -8.468  0.00  0.00     0.001 A 
ATOM     12  C   UNL d   1       8.320   4.813  -9.769  0.00  0.00     0.017 A 
BRANCH   9  13
ATOM     13  C   UNL d   1      11.066   8.121  -9.193  0.00  0.00     0.419 C 
ATOM     14  F   UNL d   1      11.233   8.427  -7.907  0.00  0.00    -0.166 F 
ATOM     15  F   UNL d   1      12.258   7.818  -9.709  0.00  0.00    -0.166 F 
ATOM     16  F   UNL d   1      10.588   9.191  -9.826  0.00  0.00    -0.166 F 
ENDBRANCH   9  13
ENDBRANCH   6   7
BRANCH   3  17
ATOM     17  C   UNL d   1       9.398   4.452 -15.612  0.00  0.00     0.141 C 
BRANCH  17  18
ATOM     18  C   UNL d   1      10.024   3.075 -15.742  0.00  0.00     0.274 C 
BRANCH  18  19
ATOM     19  N   UNL d   1      10.582   2.817 -17.070  0.00  0.00     0.139 N 
ATOM     20  C   UNL d   1       9.550   2.627 -18.095  0.00  0.00     0.250 C 
ATOM     21  C   UNL d   1       8.638   1.394 -17.880  0.00  0.00     0.035 C 
ATOM     22  C   UNL d   1       9.319   0.076 -18.276  0.00  0.00     0.002 C 
ATOM     23  C   UNL d   1      10.289  -0.528 -17.237  0.00  0.00     0.002 C 
ATOM     24  C   UNL d   1      11.015   0.471 -16.345  0.00  0.00     0.035 C 
ATOM     25  C   UNL d   1      11.562   1.728 -17.047  0.00  0.00     0.250 C 
ENDBRANCH  18  19
ENDBRANCH  17  18
ENDBRANCH   3  17
TORSDOF 5
