REMARK  7 active torsions:
REMARK  status: ('A' for Active; 'I' for Inactive)
REMARK    1  A    between atoms: C_3  and  S_4 
REMARK    2  A    between atoms: S_4  and  C_5 
REMARK    3  A    between atoms: C_5  and  C_6 
REMARK    4  A    between atoms: C_6  and  C_7 
REMARK    5  A    between atoms: C_7  and  N_8 
REMARK    6  A    between atoms: N_13  and  C_14 
REMARK    7  A    between atoms: C_24  and  C_25 
ROOT
ATOM      1  C   UNL d   1       8.845   5.759 -10.476  0.00  0.00     0.047 C 
ENDROOT
BRANCH   1   2
ATOM      2  C   UNL d   1       8.465   4.492 -11.225  0.00  0.00     0.067 C 
BRANCH   2   3
ATOM      3  S   UNL d   1       7.935   4.882 -12.916  0.00  0.00    -0.075 SA
BRANCH   3   4
ATOM      4  C   UNL d   1       8.839   3.607 -13.734  0.00  0.00     0.193 A 
ATOM      5  N   UNL d   1       8.274   2.552 -14.332  0.00  0.00    -0.292 N 
ATOM      6  C   UNL d   1       6.849   2.216 -14.458  0.00  0.00     0.134 C 
ATOM      7  C   UNL d   1       9.356   1.867 -14.793  0.00  0.00     0.143 A 
ATOM      8  N   UNL d   1      10.510   2.457 -14.438  0.00  0.00    -0.133 NA
ATOM      9  N   UNL d   1      10.184   3.603 -13.772  0.00  0.00    -0.122 NA
BRANCH   7  10
ATOM     10  C   UNL d   1       9.275   0.616 -15.636  0.00  0.00     0.064 C 
ATOM     11  C   UNL d   1       8.520   0.818 -16.979  0.00  0.00     0.040 C 
ATOM     12  C   UNL d   1       9.349   1.737 -17.902  0.00  0.00     0.143 C 
ATOM     13  O   UNL d   1      10.622   1.150 -18.180  0.00  0.00    -0.354 OA
ATOM     14  C   UNL d   1      11.416   0.980 -17.011  0.00  0.00     0.143 C 
ATOM     15  C   UNL d   1      10.682   0.067 -15.989  0.00  0.00     0.040 C 
ENDBRANCH   7  10
ENDBRANCH   3   4
ENDBRANCH   2   3
ENDBRANCH   1   2
BRANCH   1  16
ATOM     16  C   UNL d   1       9.030   5.568  -8.953  0.00  0.00     0.251 C 
BRANCH  16  17
ATOM     17  N   UNL d   1       9.850   6.627  -8.358  0.00  0.00     0.138 N 
ATOM     18  C   UNL d   1       9.717   6.691  -6.904  0.00  0.00     0.266 C 
ATOM     19  C   UNL d   1      10.133   8.122  -6.529  0.00  0.00     0.097 C 
ATOM     20  C   UNL d   1      10.027   8.919  -7.816  0.00  0.00     0.052 C 
ATOM     21  N   UNL d   1      11.512   8.226  -6.109  0.00  0.00    -0.252 NA
ATOM     22  C   UNL d   1       9.426   7.951  -8.788  0.00  0.00     0.252 C 
ATOM     23  C   UNL d   1      11.451   9.341  -8.186  0.00  0.00     0.021 C 
ATOM     24  C   UNL d   1      12.121   9.345  -6.828  0.00  0.00     0.077 C 
BRANCH  21  25
ATOM     25  C   UNL d   1      11.742   8.137  -4.733  0.00  0.00     0.036 A 
ATOM     26  C   UNL d   1      11.887   9.297  -3.953  0.00  0.00     0.011 A 
ATOM     27  C   UNL d   1      12.159   9.202  -2.582  0.00  0.00     0.001 A 
ATOM     28  C   UNL d   1      12.272   7.944  -1.969  0.00  0.00     0.000 A 
ATOM     29  C   UNL d   1      12.116   6.773  -2.732  0.00  0.00     0.001 A 
ATOM     30  C   UNL d   1      11.852   6.863  -4.116  0.00  0.00     0.011 A 
ENDBRANCH  21  25
ENDBRANCH  16  17
ENDBRANCH   1  16
TORSDOF 7
