REMARK  3 active torsions:
REMARK  status: ('A' for Active; 'I' for Inactive)
REMARK    1  A    between atoms: C_6  and  C_7 
REMARK       I    between atoms: C_7  and  N_9 
REMARK    2  A    between atoms: N_9  and  C_10 
REMARK    3  A    between atoms: C_13  and  C_14 
ROOT
ATOM      1  C   UNL d   1       9.787   7.208  -7.796  0.00  0.00     0.085 A 
ATOM      2  C   UNL d   1      10.745   6.401  -7.144  0.00  0.00     0.019 A 
ATOM      3  C   UNL d   1      11.419   6.854  -5.996  0.00  0.00     0.005 A 
ATOM      4  C   UNL d   1      11.185   8.156  -5.506  0.00  0.00     0.072 A 
ATOM      5  C   UNL d   1      10.269   8.984  -6.180  0.00  0.00     0.005 A 
ATOM      6  C   UNL d   1       9.561   8.513  -7.306  0.00  0.00     0.019 A 
ENDROOT
BRANCH   1   7
ATOM      7  N   UNL d   1       9.079   6.799  -8.957  0.00  0.00    -0.208 NA
ATOM      8  C   UNL d   1       9.074   5.626  -9.609  0.00  0.00     0.282 C 
ATOM      9  O   UNL d   1       9.449   4.549  -9.149  0.00  0.00    -0.265 OA
BRANCH   8  10
ATOM     10  C   UNL d   1       8.483   5.692 -10.980  0.00  0.00     0.100 A 
ATOM     11  C   UNL d   1       8.585   6.711 -11.884  0.00  0.00     0.109 A 
ATOM     12  C   UNL d   1       9.216   8.066 -11.868  0.00  0.00     0.061 C 
ATOM     13  O   UNL d   1       7.928   6.342 -13.013  0.00  0.00    -0.215 OA
ATOM     14  N   UNL d   1       7.396   5.053 -12.840  0.00  0.00    -0.125 NA
ATOM     15  C   UNL d   1       7.731   4.677 -11.617  0.00  0.00     0.134 A 
ENDBRANCH   8  10
ENDBRANCH   1   7
BRANCH   4  16
ATOM     16  C   UNL d   1      11.922   8.676  -4.280  0.00  0.00     0.419 C 
ATOM     17  F   UNL d   1      13.042   9.287  -4.658  0.00  0.00    -0.166 F 
ATOM     18  F   UNL d   1      11.175   9.559  -3.616  0.00  0.00    -0.166 F 
ATOM     19  F   UNL d   1      12.232   7.673  -3.456  0.00  0.00    -0.166 F 
ENDBRANCH   4  16
TORSDOF 3
