REMARK  9 active torsions:
REMARK  status: ('A' for Active; 'I' for Inactive)
REMARK    1  A    between atoms: O_2  and  C_3 
REMARK    2  A    between atoms: C_3  and  C_4 
REMARK    3  A    between atoms: C_4  and  C_5 
REMARK    4  A    between atoms: C_8  and  O_9 
REMARK    5  A    between atoms: O_9  and  C_10 
REMARK    6  A    between atoms: C_10  and  C_11 
REMARK    7  A    between atoms: C_11  and  C_13 
REMARK    8  A    between atoms: C_13  and  N_14 
REMARK    9  A    between atoms: N_14  and  C_15 
ROOT
ATOM      1  C   UNL d   1       8.845   5.449 -10.819  0.00  0.00    -0.019 A 
ATOM      2  C   UNL d   1       9.449   6.683 -11.131  0.00  0.00    -0.002 A 
ATOM      3  C   UNL d   1      10.126   7.416 -10.137  0.00  0.00     0.024 A 
ATOM      4  C   UNL d   1      10.224   6.913  -8.817  0.00  0.00     0.094 A 
ATOM      5  C   UNL d   1       9.610   5.674  -8.518  0.00  0.00     0.024 A 
ATOM      6  C   UNL d   1       8.922   4.945  -9.504  0.00  0.00    -0.002 A 
ENDROOT
BRANCH   4   7
ATOM      7  O   UNL d   1      10.927   7.536  -7.816  0.00  0.00    -0.328 OA
BRANCH   7   8
ATOM      8  C   UNL d   1      11.051   8.951  -7.874  0.00  0.00     0.184 C 
BRANCH   8   9
ATOM      9  C   UNL d   1      11.830   9.443  -6.639  0.00  0.00     0.206 C 
ATOM     10  O   UNL d   1      11.491  10.789  -6.439  0.00  0.00    -0.219 OA
BRANCH   9  11
ATOM     11  C   UNL d   1      11.488   8.730  -5.328  0.00  0.00     0.155 C 
BRANCH  11  12
ATOM     12  N   UNL d   1      12.639   8.694  -4.415  0.00  0.00    -0.295 NA
BRANCH  12  13
ATOM     13  C   UNL d   1      12.491   7.845  -3.229  0.00  0.00     0.098 C 
ATOM     14  C   UNL d   1      11.738   6.519  -3.492  0.00  0.00     0.026 C 
ATOM     15  C   UNL d   1      11.845   8.639  -2.108  0.00  0.00     0.026 C 
ENDBRANCH  12  13
ENDBRANCH  11  12
ENDBRANCH   9  11
ENDBRANCH   8   9
ENDBRANCH   7   8
ENDBRANCH   4   7
BRANCH   1  16
ATOM     16  C   UNL d   1       8.101   4.679 -11.896  0.00  0.00     0.058 C 
BRANCH  16  17
ATOM     17  C   UNL d   1       9.053   3.916 -12.830  0.00  0.00     0.147 C 
BRANCH  17  18
ATOM     18  O   UNL d   1       9.923   4.830 -13.482  0.00  0.00    -0.351 OA
ATOM     19  C   UNL d   1      10.844   4.188 -14.343  0.00  0.00     0.174 C 
ENDBRANCH  17  18
ENDBRANCH  16  17
ENDBRANCH   1  16
TORSDOF 9
