REMARK  2 active torsions:
REMARK  status: ('A' for Active; 'I' for Inactive)
REMARK    1  A    between atoms: C_2  and  C_3 
REMARK    2  A    between atoms: C_3  and  C_4 
ROOT
ATOM      1  C   UNL d   1      10.876   8.628  -6.403  0.00  0.00    -0.016 A 
ATOM      2  C   UNL d   1      11.024   7.244  -6.104  0.00  0.00    -0.002 A 
ATOM      3  C   UNL d   1      11.501   6.822  -4.847  0.00  0.00     0.026 A 
ATOM      4  C   UNL d   1      11.856   7.808  -3.918  0.00  0.00     0.119 A 
ATOM      5  C   UNL d   1      11.712   9.149  -4.198  0.00  0.00     0.119 A 
ATOM      6  C   UNL d   1      11.237   9.602  -5.437  0.00  0.00     0.022 A 
ATOM      7  O   UNL d   1      12.058   9.871  -3.108  0.00  0.00    -0.300 OA
ATOM      8  C   UNL d   1      12.464   8.945  -2.139  0.00  0.00     0.304 A 
ATOM      9  O   UNL d   1      12.325   7.652  -2.659  0.00  0.00    -0.300 OA
ENDROOT
BRANCH   1  10
ATOM     10  C   UNL d   1      10.348   9.083  -7.759  0.00  0.00     0.052 C 
BRANCH  10  11
ATOM     11  C   UNL d   1       9.513   8.058  -8.496  0.00  0.00    -0.021 C 
ATOM     12  C   UNL d   1       9.820   7.537  -9.693  0.00  0.00    -0.005 C 
ENDBRANCH  10  11
ENDBRANCH   1  10
TORSDOF 2
