REMARK  6 active torsions:
REMARK  status: ('A' for Active; 'I' for Inactive)
REMARK    1  A    between atoms: O_2  and  C_3 
REMARK    2  A    between atoms: C_10  and  C_11 
REMARK    3  A    between atoms: C_11  and  C_12 
REMARK    4  A    between atoms: C_13  and  C_15 
REMARK    5  A    between atoms: C_15  and  C_16 
REMARK    6  A    between atoms: C_16  and  C_17 
ROOT
ATOM      1  C   UNL d   1       7.103   5.192 -12.513  0.00  0.00     0.088 A 
ATOM      2  C   UNL d   1       6.565   4.013 -13.098  0.00  0.00    -0.001 A 
ATOM      3  C   UNL d   1       5.104   3.639 -12.942  0.00  0.00     0.033 C 
ATOM      4  C   UNL d   1       7.425   3.190 -13.843  0.00  0.00     0.013 A 
ATOM      5  C   UNL d   1       8.771   3.476 -13.969  0.00  0.00     0.086 A 
ATOM      6  C   UNL d   1       9.343   4.603 -13.362  0.00  0.00     0.134 A 
ATOM      7  O   UNL d   1      10.689   4.826 -13.494  0.00  0.00    -0.190 OA
ATOM      8  C   UNL d   1       8.501   5.471 -12.617  0.00  0.00     0.030 A 
ATOM      9  C   UNL d   1       9.391   2.405 -14.767  0.00  0.00     0.298 A 
ATOM     10  O   UNL d   1      10.579   2.312 -15.079  0.00  0.00    -0.259 OA
ATOM     11  O   UNL d   1       8.407   1.525 -15.096  0.00  0.00    -0.293 OA
ATOM     12  C   UNL d   1       7.134   1.907 -14.570  0.00  0.00     0.179 A 
ENDROOT
BRANCH   8  13
ATOM     13  C   UNL d   1       9.091   6.684 -11.894  0.00  0.00     0.056 C 
BRANCH  13  14
ATOM     14  C   UNL d   1       9.099   6.551 -10.380  0.00  0.00    -0.030 C 
ATOM     15  C   UNL d   1       9.652   7.439  -9.538  0.00  0.00    -0.047 C 
ATOM     16  C   UNL d   1      10.347   8.713 -10.007  0.00  0.00     0.026 C 
BRANCH  15  17
ATOM     17  C   UNL d   1       9.573   7.247  -8.031  0.00  0.00     0.033 C 
BRANCH  17  18
ATOM     18  C   UNL d   1      10.957   7.281  -7.336  0.00  0.00     0.102 C 
BRANCH  18  19
ATOM     19  C   UNL d   1      10.868   7.782  -5.896  0.00  0.00     0.185 C 
ATOM     20  O   UNL d   1      10.657   8.958  -5.614  0.00  0.00    -0.647 OA
ATOM     21  O   UNL d   1      11.060   6.786  -4.993  0.00  0.00    -0.647 OA
ENDBRANCH  18  19
ENDBRANCH  17  18
ENDBRANCH  15  17
ENDBRANCH  13  14
ENDBRANCH   8  13
BRANCH   1  22
ATOM     22  O   UNL d   1       6.268   6.008 -11.796  0.00  0.00    -0.329 OA
ATOM     23  C   UNL d   1       5.930   7.231 -12.439  0.00  0.00     0.181 C 
ENDBRANCH   1  22
TORSDOF 6
