REMARK  7 active torsions:
REMARK  status: ('A' for Active; 'I' for Inactive)
REMARK       I    between atoms: N_2  and  C_4 
REMARK       I    between atoms: C_4  and  N_6 
REMARK    1  A    between atoms: N_6  and  C_7 
REMARK    2  A    between atoms: C_10  and  C_11 
REMARK    3  A    between atoms: C_11  and  C_12 
REMARK    4  A    between atoms: C_12  and  N_13 
REMARK    5  A    between atoms: N_13  and  C_14 
REMARK    6  A    between atoms: C_14  and  C_15 
REMARK    7  A    between atoms: C_17  and  C_18 
ROOT
ATOM      1  N   UNL d   1       8.640   5.671 -10.575  0.00  0.00     0.339 N 
ENDROOT
BRANCH   1   2
ATOM      2  C   UNL d   1       8.921   4.905 -11.770  0.00  0.00     0.290 C 
BRANCH   2   3
ATOM      3  C   UNL d   1       7.606   4.378 -12.367  0.00  0.00     0.038 C 
BRANCH   3   4
ATOM      4  C   UNL d   1       7.778   3.673 -13.720  0.00  0.00     0.002 C 
ATOM      5  C   UNL d   1       9.107   2.898 -13.822  0.00  0.00     0.002 C 
ATOM      6  C   UNL d   1       9.247   2.139 -15.137  0.00  0.00     0.025 C 
ATOM      7  C   UNL d   1       8.042   1.227 -15.403  0.00  0.00     0.108 C 
ATOM      8  C   UNL d   1       6.707   1.980 -15.305  0.00  0.00     0.025 C 
ATOM      9  C   UNL d   1       6.561   2.760 -13.995  0.00  0.00     0.002 C 
BRANCH   7  10
ATOM     10  N   UNL d   1       8.179   0.570 -16.686  0.00  0.00    -0.221 NA
ATOM     11  C   UNL d   1       8.220   1.124 -17.924  0.00  0.00     0.342 C 
ATOM     12  N   UNL d   1       8.437   0.238 -18.913  0.00  0.00    -0.297 N 
ATOM     13  O   UNL d   1       8.086   2.329 -18.129  0.00  0.00    -0.245 OA
ATOM     14  C   UNL d   1       8.557   0.732 -20.288  0.00  0.00     0.130 C 
ATOM     15  C   UNL d   1       8.624  -1.211 -18.714  0.00  0.00     0.130 C 
ENDBRANCH   7  10
ENDBRANCH   3   4
ENDBRANCH   2   3
ENDBRANCH   1   2
BRANCH   1  16
ATOM     16  C   UNL d   1       9.885   5.991  -9.906  0.00  0.00     0.290 C 
BRANCH  16  17
ATOM     17  C   UNL d   1       9.577   6.725  -8.644  0.00  0.00     0.041 A 
ATOM     18  C   UNL d   1      10.579   6.617  -7.495  0.00  0.00     0.026 A 
ATOM     19  C   UNL d   1       9.264   5.896  -7.435  0.00  0.00     0.007 A 
BRANCH  18  20
ATOM     20  C   UNL d   1      10.877   7.802  -6.630  0.00  0.00     0.002 A 
ATOM     21  C   UNL d   1      11.338   7.659  -5.294  0.00  0.00     0.112 A 
ATOM     22  C   UNL d   1      11.564   8.816  -4.519  0.00  0.00     0.116 A 
ATOM     23  O   UNL d   1      11.548   6.411  -4.750  0.00  0.00    -0.326 OA
ATOM     24  C   UNL d   1      11.313  10.069  -5.078  0.00  0.00     0.026 A 
ATOM     25  O   UNL d   1      12.006   8.795  -3.220  0.00  0.00    -0.326 OA
ATOM     26  C   UNL d   1      10.956  10.215  -6.411  0.00  0.00     0.002 A 
ATOM     27  C   UNL d   1      10.714   9.079  -7.197  0.00  0.00    -0.002 A 
ATOM     28  C   UNL d   1      12.571   7.565  -2.859  0.00  0.00     0.181 C 
ATOM     29  C   UNL d   1      11.657   6.441  -3.325  0.00  0.00     0.181 C 
ENDBRANCH  18  20
ENDBRANCH  16  17
ENDBRANCH   1  16
TORSDOF 7
