REMARK  5 active torsions:
REMARK  status: ('A' for Active; 'I' for Inactive)
REMARK    1  A    between atoms: C_2  and  C_3 
REMARK       I    between atoms: C_2  and  N_8 
REMARK    2  A    between atoms: C_11  and  C_12 
REMARK    3  A    between atoms: C_12  and  C_13 
REMARK    4  A    between atoms: C_13  and  N_14 
REMARK    5  A    between atoms: N_17  and  C_18 
ROOT
ATOM      1  N   UNL d   1       9.524   5.426 -12.286  0.00  0.00     0.141 N 
ATOM      2  C   UNL d   1       8.574   5.724 -13.353  0.00  0.00     0.274 C 
ATOM      3  C   UNL d   1       9.073   5.109 -14.676  0.00  0.00     0.138 C 
ATOM      4  N   UNL d   1       9.251   3.673 -14.536  0.00  0.00    -0.329 N 
ATOM      5  C   UNL d   1      10.068   3.295 -13.404  0.00  0.00     0.138 C 
ATOM      6  C   UNL d   1       9.563   3.970 -12.121  0.00  0.00     0.274 C 
ENDROOT
BRANCH   1   7
ATOM      7  C   UNL d   1       9.059   6.077 -11.068  0.00  0.00     0.250 C 
BRANCH   7   8
ATOM      8  C   UNL d   1      10.106   5.984  -9.960  0.00  0.00     0.035 C 
BRANCH   8   9
ATOM      9  C   UNL d   1       9.678   6.717  -8.687  0.00  0.00     0.006 C 
ATOM     10  C   UNL d   1       9.747   8.240  -8.832  0.00  0.00     0.024 C 
ATOM     11  C   UNL d   1       9.367   8.920  -7.516  0.00  0.00     0.104 C 
ATOM     12  N   UNL d   1      10.201   8.431  -6.395  0.00  0.00    -0.315 N 
ATOM     13  C   UNL d   1      10.941   9.265  -5.601  0.00  0.00     0.280 C 
ATOM     14  C   UNL d   1      10.002   6.988  -6.221  0.00  0.00     0.104 C 
ATOM     15  O   UNL d   1      11.077  10.471  -5.854  0.00  0.00    -0.265 OA
ATOM     16  C   UNL d   1      10.526   6.305  -7.474  0.00  0.00     0.024 C 
BRANCH  13  17
ATOM     17  C   UNL d   1      11.553   8.775  -4.315  0.00  0.00     0.156 A 
ATOM     18  O   UNL d   1      11.711   9.697  -3.308  0.00  0.00    -0.300 OA
ATOM     19  C   UNL d   1      12.265   9.054  -2.217  0.00  0.00     0.123 A 
ATOM     20  C   UNL d   1      12.397   7.722  -2.501  0.00  0.00     0.029 A 
ATOM     21  C   UNL d   1      12.041   7.571  -3.857  0.00  0.00     0.032 A 
ENDBRANCH  13  17
ENDBRANCH   8   9
ENDBRANCH   7   8
ENDBRANCH   1   7
BRANCH   4  22
ATOM     22  C   UNL d   1       8.641   2.724 -15.377  0.00  0.00     0.148 A 
ATOM     23  C   UNL d   1       8.783   2.772 -16.816  0.00  0.00     0.042 A 
ATOM     24  C   UNL d   1       8.023   1.718 -17.405  0.00  0.00     0.050 A 
ATOM     25  C   UNL d   1       9.488   3.623 -17.709  0.00  0.00     0.004 A 
ATOM     26  S   UNL d   1       7.256   0.826 -16.103  0.00  0.00     0.015 SA
ATOM     27  C   UNL d   1       7.966   1.519 -18.797  0.00  0.00     0.008 A 
ATOM     28  N   UNL d   1       7.903   1.762 -14.868  0.00  0.00    -0.192 NA
ATOM     29  C   UNL d   1       8.684   2.381 -19.649  0.00  0.00     0.001 A 
ATOM     30  C   UNL d   1       9.444   3.431 -19.102  0.00  0.00     0.000 A 
ENDBRANCH   4  22
TORSDOF 5
