REMARK  7 active torsions:
REMARK  status: ('A' for Active; 'I' for Inactive)
REMARK       I    between atoms: C_2  and  N_3 
REMARK    1  A    between atoms: C_2  and  C_22 
REMARK    2  A    between atoms: N_3  and  C_4 
REMARK    3  A    between atoms: C_4  and  C_5 
REMARK    4  A    between atoms: C_5  and  C_6 
REMARK    5  A    between atoms: C_6  and  C_7 
REMARK    6  A    between atoms: C_7  and  N_8 
REMARK    7  A    between atoms: N_11  and  C_12 
ROOT
ATOM      1  C   UNL d   1       9.090   4.867 -10.797  0.00  0.00     0.037 C 
ENDROOT
BRANCH   1   2
ATOM      2  C   UNL d   1       9.450   6.189 -10.095  0.00  0.00     0.029 C 
BRANCH   2   3
ATOM      3  C   UNL d   1       8.986   6.227  -8.632  0.00  0.00     0.129 C 
BRANCH   3   4
ATOM      4  N   UNL d   1       9.584   7.327  -7.886  0.00  0.00    -0.233 NA
ATOM      5  C   UNL d   1      10.687   7.201  -7.132  0.00  0.00     0.294 C 
ATOM      6  O   UNL d   1      11.406   6.205  -7.135  0.00  0.00    -0.264 OA
BRANCH   5   7
ATOM      7  C   UNL d   1      10.918   8.324  -6.196  0.00  0.00     0.162 A 
ATOM      8  C   UNL d   1      11.437   8.094  -4.871  0.00  0.00     0.044 A 
ATOM      9  C   UNL d   1      11.495   9.381  -4.282  0.00  0.00     0.105 A 
ATOM     10  C   UNL d   1      11.825   6.989  -4.069  0.00  0.00     0.003 A 
ATOM     11  N   UNL d   1      11.060  10.234  -5.275  0.00  0.00    -0.148 NA
ATOM     12  C   UNL d   1      11.925   9.580  -2.958  0.00  0.00     0.021 A 
ATOM     13  N   UNL d   1      10.711   9.598  -6.422  0.00  0.00    -0.143 NA
ATOM     14  C   UNL d   1      12.320   8.469  -2.192  0.00  0.00     0.002 A 
ATOM     15  C   UNL d   1      12.257   7.173  -2.738  0.00  0.00     0.000 A 
ENDBRANCH   5   7
ENDBRANCH   3   4
ENDBRANCH   2   3
ENDBRANCH   1   2
BRANCH   1  16
ATOM     16  C   UNL d   1       8.794   5.080 -12.288  0.00  0.00     0.251 C 
BRANCH  16  17
ATOM     17  N   UNL d   1       8.493   3.804 -12.935  0.00  0.00     0.141 N 
ATOM     18  C   UNL d   1       9.546   3.417 -13.882  0.00  0.00     0.274 C 
ATOM     19  C   UNL d   1       9.227   2.067 -14.563  0.00  0.00     0.137 C 
ATOM     20  N   UNL d   1       7.901   2.090 -15.170  0.00  0.00    -0.344 N 
ATOM     21  C   UNL d   1       6.834   2.541 -14.288  0.00  0.00     0.137 C 
ATOM     22  C   UNL d   1       7.206   3.887 -13.633  0.00  0.00     0.274 C 
BRANCH  20  23
ATOM     23  C   UNL d   1       7.681   1.714 -16.502  0.00  0.00     0.068 A 
ATOM     24  C   UNL d   1       6.684   0.770 -16.880  0.00  0.00     0.084 A 
ATOM     25  C   UNL d   1       6.489   0.460 -18.244  0.00  0.00     0.070 A 
ATOM     26 CL   UNL d   1       5.726  -0.049 -15.690  0.00  0.00    -0.080 Cl
ATOM     27  C   UNL d   1       7.288   1.055 -19.227  0.00  0.00     0.012 A 
ATOM     28 CL   UNL d   1       5.272  -0.664 -18.725  0.00  0.00    -0.081 Cl
ATOM     29  C   UNL d   1       8.284   1.973 -18.867  0.00  0.00     0.002 A 
ATOM     30  C   UNL d   1       8.480   2.301 -17.513  0.00  0.00     0.018 A 
ENDBRANCH  20  23
ENDBRANCH  16  17
ENDBRANCH   1  16
TORSDOF 7
