REMARK  6 active torsions:
REMARK  status: ('A' for Active; 'I' for Inactive)
REMARK    1  A    between atoms: C_2  and  C_3 
REMARK    2  A    between atoms: N_13  and  C_14 
REMARK    3  A    between atoms: C_14  and  C_15 
REMARK    4  A    between atoms: C_15  and  C_17 
REMARK    5  A    between atoms: C_17  and  N_18 
REMARK    6  A    between atoms: N_21  and  C_22 
ROOT
ATOM      1  C   UNL d   1       7.793   3.251 -13.812  0.00  0.00     0.066 A 
ATOM      2  C   UNL d   1       6.563   3.606 -13.215  0.00  0.00     0.018 A 
ATOM      3  C   UNL d   1       6.500   4.620 -12.245  0.00  0.00     0.002 A 
ATOM      4  C   UNL d   1       7.670   5.303 -11.865  0.00  0.00     0.001 A 
ATOM      5  C   UNL d   1       8.901   4.973 -12.462  0.00  0.00     0.012 A 
ATOM      6  C   UNL d   1       8.977   3.963 -13.435  0.00  0.00     0.084 A 
ATOM      7  C   UNL d   1      10.302   3.649 -13.979  0.00  0.00     0.102 C 
ATOM      8  N   UNL d   1      11.347   3.408 -14.407  0.00  0.00    -0.191 NA
ENDROOT
BRANCH   1   9
ATOM      9  N   UNL d   1       7.813   2.214 -14.745  0.00  0.00    -0.344 N 
ATOM     10  C   UNL d   1       8.401   2.391 -16.054  0.00  0.00     0.137 C 
ATOM     11  C   UNL d   1       7.414   1.999 -17.134  0.00  0.00     0.274 C 
ATOM     12  N   UNL d   1       6.923   0.629 -16.980  0.00  0.00     0.144 N 
ATOM     13  C   UNL d   1       6.282   0.502 -15.653  0.00  0.00     0.274 C 
ATOM     14  C   UNL d   1       7.230   0.898 -14.492  0.00  0.00     0.137 C 
BRANCH  12  15
ATOM     15  C   UNL d   1       5.974   0.279 -18.054  0.00  0.00     0.285 C 
BRANCH  15  16
ATOM     16  C   UNL d   1       6.570   0.117 -19.472  0.00  0.00     0.208 C 
ATOM     17  O   UNL d   1       7.074   1.347 -19.980  0.00  0.00    -0.219 OA
BRANCH  16  18
ATOM     18  C   UNL d   1       5.535  -0.286 -20.526  0.00  0.00     0.148 C 
BRANCH  18  19
ATOM     19  N   UNL d   1       5.385  -1.731 -20.673  0.00  0.00    -0.247 N 
ATOM     20  C   UNL d   1       6.088  -2.484 -21.543  0.00  0.00     0.348 A 
ATOM     21  N   UNL d   1       5.681  -3.755 -21.416  0.00  0.00    -0.209 NA
ATOM     22  O   UNL d   1       6.956  -2.096 -22.319  0.00  0.00    -0.245 OA
ATOM     23  C   UNL d   1       4.668  -3.925 -20.389  0.00  0.00     0.179 A 
ATOM     24  C   UNL d   1       3.365  -4.448 -21.033  0.00  0.00     0.039 C 
ATOM     25  C   UNL d   1       4.514  -2.463 -19.979  0.00  0.00     0.265 A 
ATOM     26  O   UNL d   1       3.714  -2.047 -19.140  0.00  0.00    -0.269 OA
BRANCH  23  27
ATOM     27  C   UNL d   1       5.176  -4.749 -19.192  0.00  0.00     0.006 A 
ATOM     28  C   UNL d   1       6.537  -4.697 -18.800  0.00  0.00    -0.001 A 
ATOM     29  C   UNL d   1       6.999  -5.444 -17.698  0.00  0.00     0.011 A 
ATOM     30  C   UNL d   1       6.106  -6.254 -16.970  0.00  0.00     0.058 A 
ATOM     31  C   UNL d   1       4.753  -6.307 -17.343  0.00  0.00     0.011 A 
ATOM     32 CL   UNL d   1       6.666  -7.169 -15.618  0.00  0.00    -0.082 Cl
ATOM     33  C   UNL d   1       4.290  -5.556 -18.436  0.00  0.00    -0.001 A 
ENDBRANCH  23  27
ENDBRANCH  18  19
ENDBRANCH  16  18
ENDBRANCH  15  16
ENDBRANCH  12  15
ENDBRANCH   1   9
TORSDOF 6
