REMARK  4 active torsions:
REMARK  status: ('A' for Active; 'I' for Inactive)
REMARK    1  A    between atoms: C_5  and  C_6 
REMARK    2  A    between atoms: C_11  and  C_12 
REMARK    3  A    between atoms: C_12  and  O_13 
REMARK    4  A    between atoms: O_13  and  C_14 
ROOT
ATOM      1  C   UNL d   1       8.568   4.566 -14.172  0.00  0.00     0.029 C 
ATOM      2  C   UNL d   1       9.049   5.364 -12.946  0.00  0.00     0.043 C 
ATOM      3  C   UNL d   1       7.884   5.666 -11.995  0.00  0.00     0.290 C 
ATOM      4  N   UNL d   1       7.271   4.415 -11.574  0.00  0.00     0.339 N 
ATOM      5  C   UNL d   1       6.673   3.720 -12.707  0.00  0.00     0.293 C 
ATOM      6  C   UNL d   1       7.761   3.328 -13.728  0.00  0.00     0.070 C 
ENDROOT
BRANCH   6   7
ATOM      7  C   UNL d   1       7.140   2.562 -14.902  0.00  0.00     0.151 C 
BRANCH   7   8
ATOM      8  O   UNL d   1       6.750   1.265 -14.491  0.00  0.00    -0.331 OA
BRANCH   8   9
ATOM      9  C   UNL d   1       6.131   0.466 -15.427  0.00  0.00     0.096 A 
ATOM     10  C   UNL d   1       6.137   0.725 -16.827  0.00  0.00     0.051 A 
ATOM     11  C   UNL d   1       5.414  -0.143 -17.663  0.00  0.00     0.121 A 
ATOM     12  C   UNL d   1       4.726  -1.226 -17.158  0.00  0.00     0.119 A 
ATOM     13  O   UNL d   1       5.248  -0.086 -19.009  0.00  0.00    -0.299 OA
ATOM     14  C   UNL d   1       4.716  -1.517 -15.785  0.00  0.00     0.028 A 
ATOM     15  O   UNL d   1       4.112  -1.887 -18.170  0.00  0.00    -0.300 OA
ATOM     16  C   UNL d   1       5.439  -0.659 -14.925  0.00  0.00     0.026 A 
ATOM     17  C   UNL d   1       4.444  -1.191 -19.341  0.00  0.00     0.304 A 
ENDBRANCH   8   9
ENDBRANCH   7   8
ENDBRANCH   6   7
BRANCH   1  18
ATOM     18  C   UNL d   1       9.734   4.206 -15.092  0.00  0.00    -0.022 A 
ATOM     19  C   UNL d   1      10.650   3.194 -14.716  0.00  0.00    -0.002 A 
ATOM     20  C   UNL d   1      11.675   2.813 -15.592  0.00  0.00     0.029 A 
ATOM     21  C   UNL d   1      11.836   3.461 -16.831  0.00  0.00     0.140 A 
ATOM     22  F   UNL d   1      12.851   3.104 -17.652  0.00  0.00    -0.204 F 
ATOM     23  C   UNL d   1      10.937   4.470 -17.212  0.00  0.00     0.029 A 
ATOM     24  C   UNL d   1       9.876   4.828 -16.353  0.00  0.00    -0.002 A 
ENDBRANCH   1  18
TORSDOF 4
