REMARK  6 active torsions:
REMARK  status: ('A' for Active; 'I' for Inactive)
REMARK       I    between atoms: C_2  and  N_3 
REMARK    1  A    between atoms: C_2  and  C_27 
REMARK    2  A    between atoms: N_3  and  C_4 
REMARK    3  A    between atoms: C_7  and  C_8 
REMARK    4  A    between atoms: C_8  and  C_9 
REMARK    5  A    between atoms: C_9  and  N_10 
REMARK    6  A    between atoms: C_13  and  C_14 
ROOT
ATOM      1  C   UNL d   1       8.577   5.563 -11.851  0.00  0.00     0.107 C 
ATOM      2  C   UNL d   1       9.847   4.875 -12.388  0.00  0.00     0.024 C 
ATOM      3  C   UNL d   1       9.630   4.318 -13.785  0.00  0.00     0.002 C 
ATOM      4  C   UNL d   1       8.474   3.321 -13.759  0.00  0.00     0.002 C 
ATOM      5  C   UNL d   1       7.183   3.960 -13.155  0.00  0.00     0.002 C 
ATOM      6  C   UNL d   1       7.396   4.595 -11.783  0.00  0.00     0.024 C 
ENDROOT
BRANCH   4   7
ATOM      7  C   UNL d   1       8.211   2.777 -15.149  0.00  0.00     0.035 C 
BRANCH   7   8
ATOM      8  C   UNL d   1       8.719   1.344 -15.378  0.00  0.00     0.250 C 
BRANCH   8   9
ATOM      9  N   UNL d   1       8.281   0.816 -16.668  0.00  0.00     0.137 N 
ATOM     10  C   UNL d   1       6.833   0.971 -16.873  0.00  0.00     0.251 C 
ATOM     11  C   UNL d   1       6.369   0.289 -18.140  0.00  0.00     0.040 C 
ATOM     12  C   UNL d   1       7.144   0.841 -19.351  0.00  0.00     0.028 C 
ATOM     13  C   UNL d   1       8.658   0.758 -19.098  0.00  0.00     0.040 C 
ATOM     14  C   UNL d   1       9.041   1.416 -17.763  0.00  0.00     0.251 C 
BRANCH  12  15
ATOM     15  C   UNL d   1       6.753   0.136 -20.635  0.00  0.00     0.002 A 
ATOM     16  C   UNL d   1       6.511   0.849 -21.825  0.00  0.00     0.115 A 
ATOM     17  C   UNL d   1       6.145   0.201 -22.989  0.00  0.00     0.119 A 
ATOM     18  O   UNL d   1       6.592   2.184 -22.058  0.00  0.00    -0.300 OA
ATOM     19  C   UNL d   1       6.003  -1.196 -23.045  0.00  0.00     0.026 A 
ATOM     20  O   UNL d   1       5.980   1.111 -23.983  0.00  0.00    -0.300 OA
ATOM     21  C   UNL d   1       6.249  -1.932 -21.864  0.00  0.00     0.002 A 
ATOM     22  C   UNL d   1       6.631  -1.272 -20.677  0.00  0.00    -0.002 A 
ATOM     23  C   UNL d   1       6.251   2.363 -23.409  0.00  0.00     0.304 A 
ENDBRANCH  12  15
ENDBRANCH   8   9
ENDBRANCH   7   8
ENDBRANCH   4   7
BRANCH   1  24
ATOM     24  N   UNL d   1       8.828   6.215 -10.577  0.00  0.00    -0.236 NA
ATOM     25  C   UNL d   1       9.326   5.686  -9.442  0.00  0.00     0.275 C 
ATOM     26  O   UNL d   1       9.456   4.470  -9.255  0.00  0.00    -0.266 OA
BRANCH  25  27
ATOM     27  C   UNL d   1       9.819   6.700  -8.428  0.00  0.00     0.060 A 
ATOM     28  C   UNL d   1      10.658   6.306  -7.361  0.00  0.00     0.031 A 
ATOM     29  C   UNL d   1      11.062   7.223  -6.370  0.00  0.00     0.116 A 
ATOM     30  C   UNL d   1      10.677   8.571  -6.451  0.00  0.00     0.116 A 
ATOM     31  O   UNL d   1      11.832   6.766  -5.329  0.00  0.00    -0.326 OA
ATOM     32  C   UNL d   1       9.867   8.974  -7.521  0.00  0.00     0.026 A 
ATOM     33  O   UNL d   1      11.072   9.507  -5.537  0.00  0.00    -0.326 OA
ATOM     34  C   UNL d   1       9.468   8.060  -8.495  0.00  0.00     0.007 A 
ATOM     35  C   UNL d   1      12.195   9.107  -4.771  0.00  0.00     0.181 C 
ATOM     36  C   UNL d   1      11.970   7.676  -4.255  0.00  0.00     0.181 C 
ENDBRANCH  25  27
ENDBRANCH   1  24
TORSDOF 6
