REMARK  7 active torsions:
REMARK  status: ('A' for Active; 'I' for Inactive)
REMARK    1  A    between atoms: O_2  and  C_3 
REMARK    2  A    between atoms: N_15  and  C_16 
REMARK    3  A    between atoms: C_16  and  C_17 
REMARK    4  A    between atoms: C_17  and  C_18 
REMARK    5  A    between atoms: C_18  and  S_19 
REMARK    6  A    between atoms: S_19  and  C_20 
REMARK    7  A    between atoms: C_23  and  C_24 
ROOT
ATOM      1  C   UNL d   1       5.863   1.368 -13.830  0.00  0.00     0.094 A 
ATOM      2  C   UNL d   1       7.098   1.153 -14.488  0.00  0.00     0.024 A 
ATOM      3  C   UNL d   1       8.104   2.134 -14.441  0.00  0.00    -0.003 A 
ATOM      4  C   UNL d   1       7.904   3.366 -13.790  0.00  0.00    -0.025 A 
ATOM      5  C   UNL d   1       6.667   3.591 -13.121  0.00  0.00    -0.024 A 
ATOM      6  C   UNL d   1       5.663   2.593 -13.156  0.00  0.00     0.020 A 
ATOM      7  C   UNL d   1       6.406   4.870 -12.345  0.00  0.00     0.026 C 
ATOM      8  C   UNL d   1       7.671   5.675 -12.029  0.00  0.00     0.005 C 
ATOM      9  C   UNL d   1       8.565   5.766 -13.268  0.00  0.00     0.006 C 
ATOM     10  C   UNL d   1       9.055   4.383 -13.755  0.00  0.00     0.052 C 
ATOM     11  C   UNL d   1      10.198   3.917 -12.843  0.00  0.00     0.041 C 
ATOM     12  C   UNL d   1      11.428   3.876 -13.756  0.00  0.00     0.251 C 
ATOM     13  N   UNL d   1      11.120   4.835 -14.807  0.00  0.00     0.137 N 
ATOM     14  C   UNL d   1       9.729   4.552 -15.133  0.00  0.00     0.254 C 
ENDROOT
BRANCH  13  15
ATOM     15  C   UNL d   1      11.976   4.646 -15.974  0.00  0.00     0.251 C 
BRANCH  15  16
ATOM     16  C   UNL d   1      12.141   5.972 -16.723  0.00  0.00     0.047 C 
BRANCH  16  17
ATOM     17  C   UNL d   1      12.866   5.763 -18.058  0.00  0.00     0.067 C 
BRANCH  17  18
ATOM     18  S   UNL d   1      13.326   7.353 -18.829  0.00  0.00    -0.075 SA
BRANCH  18  19
ATOM     19  C   UNL d   1      15.088   7.343 -18.676  0.00  0.00     0.193 A 
ATOM     20  N   UNL d   1      15.835   8.464 -18.782  0.00  0.00    -0.287 N 
ATOM     21  C   UNL d   1      17.088   7.981 -18.604  0.00  0.00     0.191 A 
ATOM     22  C   UNL d   1      15.409   9.838 -19.027  0.00  0.00     0.134 C 
ATOM     23  N   UNL d   1      17.116   6.657 -18.426  0.00  0.00    -0.126 NA
ATOM     24  N   UNL d   1      15.813   6.243 -18.473  0.00  0.00    -0.122 NA
BRANCH  21  25
ATOM     25  C   UNL d   1      18.323   8.763 -18.601  0.00  0.00     0.151 A 
ATOM     26  C   UNL d   1      19.648   8.398 -18.690  0.00  0.00     0.087 A 
ATOM     27  N   UNL d   1      20.424   9.548 -18.635  0.00  0.00    -0.221 NA
ATOM     28  C   UNL d   1      20.267   7.039 -18.826  0.00  0.00     0.054 C 
ATOM     29  C   UNL d   1      19.545  10.536 -18.515  0.00  0.00     0.225 A 
ATOM     30  O   UNL d   1      18.251  10.126 -18.491  0.00  0.00    -0.282 OA
ENDBRANCH  21  25
ENDBRANCH  18  19
ENDBRANCH  17  18
ENDBRANCH  16  17
ENDBRANCH  15  16
ENDBRANCH  13  15
BRANCH   1  31
ATOM     31  O   UNL d   1       4.844   0.433 -13.822  0.00  0.00    -0.328 OA
ATOM     32  C   UNL d   1       5.044  -0.763 -14.571  0.00  0.00     0.181 C 
ENDBRANCH   1  31
TORSDOF 7
