REMARK  11 active torsions:
REMARK  status: ('A' for Active; 'I' for Inactive)
REMARK    1  A    between atoms: C_2  and  N_3 
REMARK    2  A    between atoms: N_3  and  C_4 
REMARK       I    between atoms: N_3  and  C_11 
REMARK    3  A    between atoms: C_4  and  C_5 
REMARK       I    between atoms: C_11  and  N_13 
REMARK    4  A    between atoms: N_13  and  C_14 
REMARK    5  A    between atoms: C_14  and  C_15 
REMARK    6  A    between atoms: C_15  and  C_16 
REMARK    7  A    between atoms: C_16  and  C_17 
REMARK    8  A    between atoms: C_17  and  N_18 
REMARK    9  A    between atoms: N_21  and  C_22 
REMARK   10  A    between atoms: C_24  and  C_25 
REMARK   11  A    between atoms: C_30  and  C_31 
ROOT
ATOM      1  N   UNL d   1       8.539   3.039 -14.023  0.00  0.00     0.141 N 
ATOM      2  C   UNL d   1       7.219   2.516 -14.387  0.00  0.00     0.274 C 
ATOM      3  C   UNL d   1       7.337   1.055 -14.866  0.00  0.00     0.138 C 
ATOM      4  N   UNL d   1       8.302   0.951 -15.973  0.00  0.00    -0.330 N 
ATOM      5  C   UNL d   1       9.613   1.527 -15.645  0.00  0.00     0.138 C 
ATOM      6  C   UNL d   1       9.439   2.980 -15.172  0.00  0.00     0.274 C 
ENDROOT
BRANCH   1   7
ATOM      7  C   UNL d   1       8.466   4.425 -13.546  0.00  0.00     0.251 C 
BRANCH   7   8
ATOM      8  C   UNL d   1       7.611   4.552 -12.266  0.00  0.00     0.037 C 
BRANCH   8   9
ATOM      9  C   UNL d   1       8.028   5.728 -11.382  0.00  0.00     0.029 C 
BRANCH   9  10
ATOM     10  C   UNL d   1       9.303   5.430 -10.582  0.00  0.00     0.131 C 
BRANCH  10  11
ATOM     11  N   UNL d   1       9.771   6.650  -9.941  0.00  0.00    -0.219 NA
ATOM     12  C   UNL d   1       9.626   6.998  -8.650  0.00  0.00     0.342 C 
ATOM     13  N   UNL d   1      10.186   8.178  -8.329  0.00  0.00    -0.297 N 
ATOM     14  O   UNL d   1       9.011   6.293  -7.829  0.00  0.00    -0.245 OA
BRANCH  13  15
ATOM     15  C   UNL d   1      11.144   8.903  -9.203  0.00  0.00     0.106 C 
ATOM     16  C   UNL d   1      12.443   8.129  -9.490  0.00  0.00     0.026 C 
ENDBRANCH  13  15
BRANCH  13  17
ATOM     17  C   UNL d   1       9.855   8.866  -7.071  0.00  0.00     0.133 C 
BRANCH  17  18
ATOM     18  C   UNL d   1      10.729   8.511  -5.862  0.00  0.00     0.000 A 
ATOM     19  C   UNL d   1      11.063   7.166  -5.579  0.00  0.00    -0.002 A 
ATOM     20  C   UNL d   1      11.822   6.854  -4.432  0.00  0.00    -0.000 A 
ATOM     21  C   UNL d   1      12.264   7.866  -3.557  0.00  0.00    -0.000 A 
ATOM     22  C   UNL d   1      11.943   9.213  -3.836  0.00  0.00    -0.000 A 
ATOM     23  C   UNL d   1      11.170   9.533  -4.982  0.00  0.00    -0.002 A 
ENDBRANCH  17  18
ENDBRANCH  13  17
ENDBRANCH  10  11
ENDBRANCH   9  10
ENDBRANCH   8   9
ENDBRANCH   7   8
ENDBRANCH   1   7
BRANCH   4  24
ATOM     24  C   UNL d   1       7.989   0.362 -17.199  0.00  0.00     0.143 A 
ATOM     25  N   UNL d   1       6.792  -0.276 -17.327  0.00  0.00    -0.214 NA
ATOM     26  C   UNL d   1       6.475  -0.857 -18.485  0.00  0.00     0.140 A 
ATOM     27  N   UNL d   1       7.279  -0.889 -19.558  0.00  0.00    -0.227 NA
ATOM     28  C   UNL d   1       8.461  -0.253 -19.481  0.00  0.00     0.157 A 
ATOM     29  C   UNL d   1       8.864   0.414 -18.300  0.00  0.00     0.060 A 
BRANCH  26  30
ATOM     30  C   UNL d   1       5.181  -1.690 -18.553  0.00  0.00     0.052 C 
ATOM     31  C   UNL d   1       3.998  -0.871 -17.996  0.00  0.00     0.008 C 
ATOM     32  C   UNL d   1       5.354  -2.992 -17.750  0.00  0.00     0.008 C 
ATOM     33  C   UNL d   1       4.823  -2.072 -20.013  0.00  0.00     0.008 C 
ENDBRANCH  26  30
BRANCH  28  34
ATOM     34  C   UNL d   1       9.336  -0.258 -20.721  0.00  0.00     0.435 C 
ATOM     35  F   UNL d   1      10.553   0.209 -20.448  0.00  0.00    -0.165 F 
ATOM     36  F   UNL d   1       9.462  -1.498 -21.195  0.00  0.00    -0.165 F 
ATOM     37  F   UNL d   1       8.795   0.515 -21.663  0.00  0.00    -0.165 F 
ENDBRANCH  28  34
ENDBRANCH   4  24
TORSDOF 11
