REMARK  5 active torsions:
REMARK  status: ('A' for Active; 'I' for Inactive)
REMARK    1  A    between atoms: C_2  and  C_3 
REMARK    2  A    between atoms: C_2  and  C_23 
REMARK    3  A    between atoms: C_3  and  C_4 
REMARK    4  A    between atoms: C_4  and  C_5 
REMARK    5  A    between atoms: C_5  and  N_6 
ROOT
ATOM      1  N   UNL d   1       9.784   3.655 -14.457  0.00  0.00     0.137 N 
ATOM      2  C   UNL d   1      10.850   3.996 -15.401  0.00  0.00     0.252 C 
ATOM      3  C   UNL d   1      10.653   3.169 -16.679  0.00  0.00     0.052 C 
ATOM      4  C   UNL d   1      10.716   1.645 -16.427  0.00  0.00     0.070 C 
ATOM      5  C   UNL d   1       9.927   1.262 -15.173  0.00  0.00     0.072 C 
ATOM      6  C   UNL d   1       9.998   2.276 -14.025  0.00  0.00     0.256 C 
ATOM      7  C   UNL d   1       8.562   0.954 -15.719  0.00  0.00    -0.008 A 
ATOM      8  C   UNL d   1       7.302   0.794 -15.121  0.00  0.00    -0.003 A 
ATOM      9  C   UNL d   1       6.227   0.386 -15.941  0.00  0.00     0.000 A 
ATOM     10  C   UNL d   1       6.420   0.131 -17.323  0.00  0.00     0.007 A 
ATOM     11  C   UNL d   1       7.677   0.282 -17.958  0.00  0.00     0.035 A 
ATOM     12  C   UNL d   1       8.703   0.716 -17.087  0.00  0.00     0.038 A 
ATOM     13  N   UNL d   1      10.038   0.952 -17.518  0.00  0.00    -0.253 NA
ATOM     14  C   UNL d   1      10.632  -0.225 -18.137  0.00  0.00     0.077 C 
ATOM     15  C   UNL d   1      10.661  -0.087 -19.666  0.00  0.00     0.030 C 
ATOM     16  C   UNL d   1       9.427   0.605 -20.271  0.00  0.00     0.064 C 
ATOM     17  S   UNL d   1       7.859  -0.093 -19.684  0.00  0.00    -0.113 SA
ENDROOT
BRANCH   1  18
ATOM     18  C   UNL d   1       9.863   4.523 -13.286  0.00  0.00     0.251 C 
BRANCH  18  19
ATOM     19  C   UNL d   1       8.515   4.608 -12.536  0.00  0.00     0.043 C 
BRANCH  19  20
ATOM     20  C   UNL d   1       8.653   5.167 -11.105  0.00  0.00     0.071 C 
BRANCH  20  21
ATOM     21  C   UNL d   1       9.317   6.550 -11.008  0.00  0.00     0.173 C 
ATOM     22  O   UNL d   1       9.398   7.265 -12.010  0.00  0.00    -0.291 OA
BRANCH  21  23
ATOM     23  C   UNL d   1       9.871   6.947  -9.686  0.00  0.00     0.035 A 
ATOM     24  C   UNL d   1       9.396   6.378  -8.483  0.00  0.00     0.005 A 
ATOM     25  C   UNL d   1       9.894   6.820  -7.241  0.00  0.00     0.030 A 
ATOM     26  C   UNL d   1      10.870   7.833  -7.194  0.00  0.00     0.140 A 
ATOM     27  C   UNL d   1      11.350   8.405  -8.386  0.00  0.00     0.030 A 
ATOM     28  F   UNL d   1      11.341   8.265  -6.000  0.00  0.00    -0.204 F 
ATOM     29  C   UNL d   1      10.846   7.971  -9.627  0.00  0.00     0.005 A 
ENDBRANCH  21  23
ENDBRANCH  20  21
ENDBRANCH  19  20
ENDBRANCH  18  19
ENDBRANCH   1  18
TORSDOF 5
