REMARK  0 active torsions:
REMARK  status: ('A' for Active; 'I' for Inactive)
ROOT
ATOM      1 CL   UNL d   1       9.362   4.516 -12.689  0.00  0.00    -0.067 Cl
ATOM      2  C   UNL d   1       8.470   5.680 -11.675  0.00  0.00     0.267 C 
ATOM      3 CL   UNL d   1       6.733   5.566 -12.056  0.00  0.00    -0.067 Cl
ATOM      4 CL   UNL d   1       8.762   5.293  -9.960  0.00  0.00    -0.067 Cl
ATOM      5 CL   UNL d   1       9.053   7.322 -12.038  0.00  0.00    -0.067 Cl
ENDROOT
TORSDOF 0
