REMARK  5 active torsions:
REMARK  status: ('A' for Active; 'I' for Inactive)
REMARK    1  A    between atoms: C_2  and  C_4 
REMARK    2  A    between atoms: C_7  and  C_8 
REMARK    3  A    between atoms: C_8  and  S_9 
REMARK    4  A    between atoms: S_9  and  C_12 
REMARK    5  A    between atoms: C_15  and  C_16 
ROOT
ATOM      1  S   UNL d   1       8.267   4.938 -12.449  0.00  0.00     0.194 S 
ATOM      2  O   UNL d   1       8.225   5.995 -13.467  0.00  0.00    -0.221 OA
ATOM      3  O   UNL d   1       7.043   4.213 -12.115  0.00  0.00    -0.221 OA
ENDROOT
BRANCH   1   4
ATOM      4  C   UNL d   1       9.564   3.725 -12.965  0.00  0.00     0.153 C 
BRANCH   4   5
ATOM      5  C   UNL d   1       9.076   2.772 -14.053  0.00  0.00    -0.006 A 
ATOM      6  C   UNL d   1       7.744   2.821 -14.514  0.00  0.00    -0.004 A 
ATOM      7  C   UNL d   1       7.295   1.902 -15.476  0.00  0.00    -0.005 A 
ATOM      8  C   UNL d   1       8.159   0.921 -15.992  0.00  0.00    -0.022 A 
ATOM      9  C   UNL d   1       9.503   0.874 -15.553  0.00  0.00    -0.005 A 
ATOM     10  C   UNL d   1       9.958   1.799 -14.588  0.00  0.00    -0.004 A 
BRANCH   8  11
ATOM     11  C   UNL d   1       7.629  -0.068 -17.018  0.00  0.00     0.022 C 
ATOM     12  C   UNL d   1       7.512   0.584 -18.406  0.00  0.00     0.005 C 
ATOM     13  C   UNL d   1       6.284  -0.691 -16.577  0.00  0.00     0.005 C 
ENDBRANCH   8  11
ENDBRANCH   4   5
ENDBRANCH   1   4
BRANCH   1  14
ATOM     14  C   UNL d   1       8.901   5.678 -10.957  0.00  0.00     0.084 A 
ATOM     15  C   UNL d   1       9.643   6.873 -11.009  0.00  0.00     0.011 A 
ATOM     16  C   UNL d   1      10.156   7.421  -9.819  0.00  0.00    -0.004 A 
ATOM     17  C   UNL d   1       9.934   6.764  -8.593  0.00  0.00    -0.021 A 
ATOM     18  C   UNL d   1       9.177   5.573  -8.554  0.00  0.00    -0.004 A 
ATOM     19  C   UNL d   1       8.658   5.028  -9.740  0.00  0.00     0.011 A 
BRANCH  17  20
ATOM     20  C   UNL d   1      10.521   7.305  -7.323  0.00  0.00     0.055 A 
ATOM     21  C   UNL d   1      11.953   7.707  -7.321  0.00  0.00     0.042 A 
ATOM     22  C   UNL d   1      12.014   9.069  -6.699  0.00  0.00     0.290 C 
ATOM     23  C   UNL d   1      11.527   6.478  -6.552  0.00  0.00     0.009 A 
ATOM     24  N   UNL d   1      10.657   9.588  -6.857  0.00  0.00     0.339 N 
ATOM     25  C   UNL d   1       9.757   8.443  -6.718  0.00  0.00     0.294 C 
ENDBRANCH  17  20
ENDBRANCH   1  14
TORSDOF 5
