REMARK  9 active torsions:
REMARK  status: ('A' for Active; 'I' for Inactive)
REMARK    1  A    between atoms: C_2  and  C_5 
REMARK    2  A    between atoms: N_8  and  C_9 
REMARK    3  A    between atoms: C_9  and  C_10 
REMARK    4  A    between atoms: C_10  and  C_11 
REMARK    5  A    between atoms: C_11  and  C_12 
REMARK    6  A    between atoms: C_12  and  N_13 
REMARK    7  A    between atoms: N_16  and  C_17 
REMARK    8  A    between atoms: C_19  and  C_20 
REMARK    9  A    between atoms: C_25  and  C_26 
ROOT
ATOM      1  N   UNL d   1      10.083   2.276 -15.004  0.00  0.00     0.141 N 
ATOM      2  C   UNL d   1       8.787   1.977 -15.622  0.00  0.00     0.274 C 
ATOM      3  C   UNL d   1       8.753   0.535 -16.149  0.00  0.00     0.138 C 
ATOM      4  N   UNL d   1       9.847   0.312 -17.087  0.00  0.00    -0.330 N 
ATOM      5  C   UNL d   1      11.162   0.698 -16.575  0.00  0.00     0.138 C 
ATOM      6  C   UNL d   1      11.129   2.138 -16.024  0.00  0.00     0.274 C 
ENDROOT
BRANCH   1   7
ATOM      7  C   UNL d   1      10.098   3.643 -14.488  0.00  0.00     0.251 C 
BRANCH   7   8
ATOM      8  C   UNL d   1       9.165   3.813 -13.275  0.00  0.00     0.037 C 
BRANCH   8   9
ATOM      9  C   UNL d   1       9.296   5.188 -12.622  0.00  0.00     0.027 C 
BRANCH   9  10
ATOM     10  C   UNL d   1       8.370   5.353 -11.399  0.00  0.00     0.111 C 
BRANCH  10  11
ATOM     11  N   UNL d   1       9.066   6.005 -10.278  0.00  0.00    -0.279 N 
ATOM     12  C   UNL d   1       9.625   7.266 -10.516  0.00  0.00     0.081 A 
ATOM     13  C   UNL d   1      10.261   7.934  -9.546  0.00  0.00     0.034 A 
ATOM     14  C   UNL d   1      10.328   7.292  -8.214  0.00  0.00     0.065 A 
ATOM     15  N   UNL d   1       9.799   6.141  -8.014  0.00  0.00    -0.197 NA
ATOM     16  C   UNL d   1       9.141   5.436  -9.034  0.00  0.00     0.350 A 
ATOM     17  O   UNL d   1       8.664   4.331  -8.812  0.00  0.00    -0.244 OA
BRANCH  14  18
ATOM     18  C   UNL d   1      11.058   8.032  -7.073  0.00  0.00     0.036 C 
ATOM     19  C   UNL d   1      11.437   7.069  -5.918  0.00  0.00     0.006 C 
ATOM     20  C   UNL d   1      10.125   9.111  -6.494  0.00  0.00     0.006 C 
ATOM     21  C   UNL d   1      12.355   8.689  -7.586  0.00  0.00     0.006 C 
ENDBRANCH  14  18
ENDBRANCH  10  11
ENDBRANCH   9  10
ENDBRANCH   8   9
ENDBRANCH   7   8
ENDBRANCH   1   7
BRANCH   4  22
ATOM     22  C   UNL d   1       9.646  -0.177 -18.393  0.00  0.00     0.143 A 
ATOM     23  N   UNL d   1      10.636   0.002 -19.293  0.00  0.00    -0.214 NA
ATOM     24  C   UNL d   1      10.476  -0.482 -20.528  0.00  0.00     0.140 A 
ATOM     25  N   UNL d   1       9.367  -1.075 -20.976  0.00  0.00    -0.227 NA
ATOM     26  C   UNL d   1       8.362  -1.275 -20.098  0.00  0.00     0.157 A 
ATOM     27  C   UNL d   1       8.459  -0.844 -18.762  0.00  0.00     0.060 A 
BRANCH  24  28
ATOM     28  C   UNL d   1      11.570  -0.159 -21.564  0.00  0.00     0.052 C 
ATOM     29  C   UNL d   1      11.513  -1.130 -22.769  0.00  0.00     0.008 C 
ATOM     30  C   UNL d   1      12.973  -0.307 -20.928  0.00  0.00     0.008 C 
ATOM     31  C   UNL d   1      11.383   1.272 -22.093  0.00  0.00     0.008 C 
ENDBRANCH  24  28
BRANCH  26  32
ATOM     32  C   UNL d   1       7.124  -1.994 -20.621  0.00  0.00     0.435 C 
ATOM     33  F   UNL d   1       6.196  -2.123 -19.673  0.00  0.00    -0.165 F 
ATOM     34  F   UNL d   1       6.603  -1.298 -21.631  0.00  0.00    -0.165 F 
ATOM     35  F   UNL d   1       7.455  -3.211 -21.056  0.00  0.00    -0.165 F 
ENDBRANCH  26  32
ENDBRANCH   4  22
TORSDOF 9
