REMARK  9 active torsions:
REMARK  status: ('A' for Active; 'I' for Inactive)
REMARK    1  A    between atoms: C_2  and  C_3 
REMARK    2  A    between atoms: C_7  and  O_8 
REMARK    3  A    between atoms: C_10  and  N_11 
REMARK    4  A    between atoms: N_14  and  C_15 
REMARK    5  A    between atoms: C_15  and  C_16 
REMARK    6  A    between atoms: C_16  and  C_18 
REMARK    7  A    between atoms: C_18  and  C_19 
REMARK    8  A    between atoms: C_19  and  N_20 
REMARK       I    between atoms: N_20  and  C_21 
REMARK    9  A    between atoms: C_21  and  C_23 
ROOT
ATOM      1  N   UNL d   1       8.604   2.797 -15.659  0.00  0.00    -0.343 N 
ATOM      2  C   UNL d   1       7.613   2.838 -14.575  0.00  0.00     0.137 C 
ATOM      3  C   UNL d   1       8.314   3.350 -13.309  0.00  0.00     0.274 C 
ATOM      4  N   UNL d   1       8.994   4.631 -13.505  0.00  0.00     0.144 N 
ATOM      5  C   UNL d   1       9.996   4.541 -14.556  0.00  0.00     0.274 C 
ATOM      6  C   UNL d   1       9.371   4.046 -15.868  0.00  0.00     0.137 C 
ENDROOT
BRANCH   4   7
ATOM      7  C   UNL d   1       9.598   5.059 -12.257  0.00  0.00     0.283 C 
BRANCH   7   8
ATOM      8  C   UNL d   1       8.659   5.840 -11.339  0.00  0.00     0.188 C 
ATOM      9  O   UNL d   1       8.135   6.932 -12.061  0.00  0.00    -0.221 OA
BRANCH   8  10
ATOM     10  C   UNL d   1       9.466   6.408 -10.171  0.00  0.00     0.061 C 
BRANCH  10  11
ATOM     11  C   UNL d   1       9.588   5.510  -8.921  0.00  0.00     0.132 C 
BRANCH  11  12
ATOM     12  N   UNL d   1      10.126   6.218  -7.754  0.00  0.00    -0.234 NA
ATOM     13  C   UNL d   1      10.821   7.363  -7.723  0.00  0.00     0.275 C 
ATOM     14  O   UNL d   1      11.237   7.956  -8.715  0.00  0.00    -0.266 OA
BRANCH  13  15
ATOM     15  C   UNL d   1      11.023   7.962  -6.373  0.00  0.00     0.060 A 
ATOM     16  C   UNL d   1      11.446   7.163  -5.290  0.00  0.00     0.031 A 
ATOM     17  C   UNL d   1      11.746   7.826  -4.090  0.00  0.00     0.119 A 
ATOM     18  C   UNL d   1      11.590   9.192  -3.966  0.00  0.00     0.119 A 
ATOM     19  O   UNL d   1      12.176   7.298  -2.925  0.00  0.00    -0.300 OA
ATOM     20  C   UNL d   1      11.156  10.003  -5.021  0.00  0.00     0.026 A 
ATOM     21  O   UNL d   1      11.896   9.565  -2.707  0.00  0.00    -0.300 OA
ATOM     22  C   UNL d   1      10.880   9.369  -6.244  0.00  0.00     0.007 A 
ATOM     23  C   UNL d   1      12.270   8.385  -2.049  0.00  0.00     0.304 A 
ENDBRANCH  13  15
ENDBRANCH  11  12
ENDBRANCH  10  11
ENDBRANCH   8  10
ENDBRANCH   7   8
ENDBRANCH   4   7
BRANCH   1  24
ATOM     24  C   UNL d   1       8.779   1.655 -16.443  0.00  0.00     0.079 A 
ATOM     25  C   UNL d   1      10.082   1.202 -16.825  0.00  0.00     0.120 A 
ATOM     26  C   UNL d   1      10.225   0.074 -17.652  0.00  0.00     0.081 A 
ATOM     27  C   UNL d   1       9.102  -0.663 -18.060  0.00  0.00     0.009 A 
ATOM     28 CL   UNL d   1      11.807  -0.404 -18.148  0.00  0.00    -0.080 Cl
ATOM     29  C   UNL d   1       7.811  -0.255 -17.677  0.00  0.00    -0.020 A 
ATOM     30  C   UNL d   1       7.657   0.908 -16.884  0.00  0.00     0.015 A 
BRANCH  25  31
ATOM     31  O   UNL d   1      11.219   1.810 -16.373  0.00  0.00    -0.326 OA
ATOM     32  C   UNL d   1      11.417   1.716 -14.974  0.00  0.00     0.181 C 
ENDBRANCH  25  31
BRANCH  29  33
ATOM     33  C   UNL d   1       6.598  -1.050 -18.138  0.00  0.00     0.026 C 
ATOM     34  C   UNL d   1       5.558  -1.274 -17.030  0.00  0.00     0.005 C 
ENDBRANCH  29  33
ENDBRANCH   1  24
TORSDOF 9
