REMARK  8 active torsions:
REMARK  status: ('A' for Active; 'I' for Inactive)
REMARK    1  A    between atoms: C_2  and  C_4 
REMARK    2  A    between atoms: C_8  and  O_9 
REMARK    3  A    between atoms: O_9  and  C_10 
REMARK    4  A    between atoms: C_10  and  C_11 
REMARK    5  A    between atoms: C_11  and  N_12 
REMARK    6  A    between atoms: N_12  and  C_13 
REMARK    7  A    between atoms: C_13  and  C_14 
REMARK       I    between atoms: N_18  and  C_19 
REMARK    8  A    between atoms: C_19  and  C_21 
ROOT
ATOM      1  C   UNL d   1       9.407   4.551 -13.698  0.00  0.00     0.172 C 
ATOM      2  F   UNL d   1       8.348   5.168 -14.201  0.00  0.00    -0.238 F 
ATOM      3  C   UNL d   1      10.626   4.958 -14.543  0.00  0.00     0.059 C 
ATOM      4  C   UNL d   1      10.448   4.492 -16.007  0.00  0.00     0.107 C 
ATOM      5  N   UNL d   1      10.350   3.008 -15.997  0.00  0.00    -0.317 N 
ATOM      6  C   UNL d   1      11.163   2.122 -16.639  0.00  0.00     0.257 C 
ATOM      7  O   UNL d   1      10.961   0.906 -16.630  0.00  0.00    -0.267 OA
ATOM      8  C   UNL d   1       9.164   2.540 -15.242  0.00  0.00     0.107 C 
ATOM      9  C   UNL d   1       9.221   3.026 -13.783  0.00  0.00     0.059 C 
ENDROOT
BRANCH   1  10
ATOM     10  C   UNL d   1       9.555   4.998 -12.240  0.00  0.00     0.323 C 
BRANCH  10  11
ATOM     11  N   UNL d   1       8.255   4.995 -11.575  0.00  0.00     0.345 N 
BRANCH  11  12
ATOM     12  C   UNL d   1       8.342   5.755 -10.345  0.00  0.00     0.323 C 
BRANCH  12  13
ATOM     13  C   UNL d   1       9.219   5.009  -9.309  0.00  0.00     0.187 C 
BRANCH  13  14
ATOM     14  O   UNL d   1       9.222   5.642  -8.045  0.00  0.00    -0.329 OA
BRANCH  14  15
ATOM     15  C   UNL d   1       9.971   6.792  -7.870  0.00  0.00     0.094 A 
ATOM     16  C   UNL d   1      10.411   7.631  -8.921  0.00  0.00     0.024 A 
ATOM     17  C   UNL d   1      11.120   8.800  -8.632  0.00  0.00     0.002 A 
ATOM     18  C   UNL d   1      11.457   9.126  -7.307  0.00  0.00     0.005 A 
ATOM     19  C   UNL d   1      11.054   8.283  -6.248  0.00  0.00     0.061 A 
ATOM     20  C   UNL d   1      10.299   7.120  -6.536  0.00  0.00     0.029 A 
BRANCH  19  21
ATOM     21  C   UNL d   1      11.466   8.576  -4.843  0.00  0.00     0.297 C 
ATOM     22  N   UNL d   1      11.384   9.861  -4.492  0.00  0.00    -0.102 N 
ATOM     23  O   UNL d   1      11.800   7.691  -4.060  0.00  0.00    -0.264 OA
ENDBRANCH  19  21
ENDBRANCH  14  15
ENDBRANCH  13  14
ENDBRANCH  12  13
ENDBRANCH  11  12
ENDBRANCH  10  11
ENDBRANCH   1  10
BRANCH   6  24
ATOM     24  C   UNL d   1      12.311   2.635 -17.469  0.00  0.00     0.057 A 
ATOM     25  C   UNL d   1      13.164   3.668 -17.011  0.00  0.00     0.018 A 
ATOM     26  C   UNL d   1      14.179   4.186 -17.812  0.00  0.00     0.085 A 
ATOM     27  C   UNL d   1      14.445   3.604 -19.064  0.00  0.00     0.151 A 
ATOM     28 CL   UNL d   1      15.084   5.553 -17.256  0.00  0.00    -0.080 Cl
ATOM     29  C   UNL d   1      13.669   2.518 -19.516  0.00  0.00     0.031 A 
ATOM     30  F   UNL d   1      15.457   4.079 -19.851  0.00  0.00    -0.203 F 
ATOM     31  C   UNL d   1      12.606   2.044 -18.723  0.00  0.00     0.007 A 
ENDBRANCH   6  24
TORSDOF 8
