REMARK  4 active torsions:
REMARK  status: ('A' for Active; 'I' for Inactive)
REMARK    1  A    between atoms: S_2  and  C_3 
REMARK    2  A    between atoms: C_10  and  C_11 
REMARK    3  A    between atoms: C_11  and  N_12 
REMARK    4  A    between atoms: C_15  and  C_16 
ROOT
ATOM      1  N   UNL d   1      12.787   4.903 -17.647  0.00  0.00     0.137 N 
ATOM      2  C   UNL d   1      12.955   3.732 -16.776  0.00  0.00     0.251 C 
ATOM      3  C   UNL d   1      12.120   3.896 -15.505  0.00  0.00     0.041 C 
ATOM      4  C   UNL d   1      10.637   4.057 -15.840  0.00  0.00     0.047 C 
ATOM      5  C   UNL d   1      10.455   5.178 -16.878  0.00  0.00     0.041 C 
ATOM      6  C   UNL d   1      11.390   4.982 -18.086  0.00  0.00     0.251 C 
ENDROOT
BRANCH   1   7
ATOM      7  C   UNL d   1      13.690   4.816 -18.804  0.00  0.00     0.251 C 
BRANCH   7   8
ATOM      8  C   UNL d   1      14.957   5.680 -18.602  0.00  0.00     0.047 C 
ATOM      9  C   UNL d   1      15.805   5.769 -19.893  0.00  0.00     0.049 C 
ATOM     10  C   UNL d   1      17.188   6.377 -19.662  0.00  0.00     0.066 A 
ATOM     11  C   UNL d   1      17.770   6.441 -18.377  0.00  0.00     0.068 A 
ATOM     12  N   UNL d   1      17.854   6.825 -20.751  0.00  0.00    -0.226 NA
ATOM     13  C   UNL d   1      19.047   7.017 -18.289  0.00  0.00     0.105 A 
ATOM     14  C   UNL d   1      17.085   5.926 -17.178  0.00  0.00     0.176 C 
ATOM     15  N   UNL d   1      19.706   7.461 -19.373  0.00  0.00    -0.220 NA
ATOM     16  C   UNL d   1      19.065   7.338 -20.534  0.00  0.00     0.190 A 
ATOM     17  C   UNL d   1      15.790   5.171 -17.411  0.00  0.00     0.072 C 
ATOM     18  O   UNL d   1      17.536   5.995 -16.037  0.00  0.00    -0.291 OA
BRANCH  16  19
ATOM     19  S   UNL d   1      19.901   7.984 -21.944  0.00  0.00    -0.075 SA
ATOM     20  C   UNL d   1      20.738   6.486 -22.530  0.00  0.00     0.077 C 
ENDBRANCH  16  19
ENDBRANCH   7   8
ENDBRANCH   1   7
BRANCH   4  21
ATOM     21  C   UNL d   1       9.825   4.294 -14.587  0.00  0.00     0.087 A 
ATOM     22  C   UNL d   1       8.595   3.746 -14.168  0.00  0.00     0.041 A 
ATOM     23  C   UNL d   1       8.205   4.351 -12.965  0.00  0.00     0.129 A 
ATOM     24  C   UNL d   1       7.753   2.777 -14.759  0.00  0.00     0.006 A 
ATOM     25  O   UNL d   1       9.226   5.226 -12.653  0.00  0.00    -0.211 OA
ATOM     26  C   UNL d   1       7.007   4.046 -12.309  0.00  0.00     0.057 A 
ATOM     27  N   UNL d   1      10.215   5.190 -13.675  0.00  0.00    -0.131 NA
ATOM     28  C   UNL d   1       6.169   3.090 -12.907  0.00  0.00     0.142 A 
ATOM     29  F   UNL d   1       5.045   2.700 -12.273  0.00  0.00    -0.204 F 
ATOM     30  C   UNL d   1       6.538   2.451 -14.116  0.00  0.00     0.030 A 
ENDBRANCH   4  21
TORSDOF 4
