REMARK  3 active torsions:
REMARK  status: ('A' for Active; 'I' for Inactive)
REMARK    1  A    between atoms: O_2  and  C_3 
REMARK    2  A    between atoms: N_11  and  C_12 
REMARK    3  A    between atoms: C_12  and  C_13 
ROOT
ATOM      1  C   UNL d   1       8.036   5.134 -11.459  0.00  0.00     0.094 A 
ATOM      2  C   UNL d   1       8.429   5.926 -12.568  0.00  0.00     0.026 A 
ATOM      3  C   UNL d   1       9.153   7.109 -12.364  0.00  0.00     0.026 A 
ATOM      4  C   UNL d   1       9.516   7.525 -11.080  0.00  0.00     0.090 A 
ATOM      5  C   UNL d   1       9.174   6.705  -9.980  0.00  0.00     0.004 A 
ATOM      6  C   UNL d   1       8.422   5.535 -10.162  0.00  0.00     0.022 A 
ATOM      7  C   UNL d   1       9.504   7.241  -8.617  0.00  0.00     0.062 C 
ATOM      8  C   UNL d   1       9.855   6.302  -7.496  0.00  0.00     0.255 C 
ATOM      9  N   UNL d   1      10.418   7.239  -6.511  0.00  0.00     0.142 N 
ATOM     10  C   UNL d   1      11.034   8.338  -7.283  0.00  0.00     0.254 C 
ATOM     11  C   UNL d   1      10.765   8.033  -8.729  0.00  0.00     0.070 C 
ATOM     12  C   UNL d   1      10.518   9.209  -9.658  0.00  0.00     0.151 C 
ATOM     13  O   UNL d   1      10.232   8.715 -10.952  0.00  0.00    -0.331 OA
ENDROOT
BRANCH   9  14
ATOM     14  C   UNL d   1      11.350   6.601  -5.584  0.00  0.00     0.277 C 
BRANCH  14  15
ATOM     15  C   UNL d   1      11.685   7.439  -4.353  0.00  0.00     0.011 A 
ATOM     16  C   UNL d   1      12.146   6.766  -3.189  0.00  0.00    -0.002 A 
ATOM     17  C   UNL d   1      12.465   7.486  -2.037  0.00  0.00    -0.000 A 
ATOM     18  C   UNL d   1      12.326   8.887  -2.001  0.00  0.00    -0.000 A 
ATOM     19  C   UNL d   1      11.857   9.560  -3.141  0.00  0.00    -0.000 A 
ATOM     20  C   UNL d   1      11.537   8.849  -4.294  0.00  0.00    -0.002 A 
ENDBRANCH  14  15
ENDBRANCH   9  14
BRANCH   1  21
ATOM     21  O   UNL d   1       7.281   3.990 -11.580  0.00  0.00    -0.328 OA
ATOM     22  C   UNL d   1       6.772   3.643 -12.846  0.00  0.00     0.181 C 
ENDBRANCH   1  21
TORSDOF 3
