REMARK  3 active torsions:
REMARK  status: ('A' for Active; 'I' for Inactive)
REMARK    1  A    between atoms: C_4  and  C_5 
REMARK    2  A    between atoms: C_5  and  N_6 
REMARK    3  A    between atoms: C_9  and  C_10 
ROOT
ATOM      1  N   UNL d   1       7.324   3.104 -14.334  0.00  0.00     0.137 N 
ATOM      2  C   UNL d   1       8.731   2.940 -13.934  0.00  0.00     0.251 C 
ATOM      3  C   UNL d   1       9.273   4.251 -13.342  0.00  0.00     0.041 C 
ATOM      4  C   UNL d   1       8.441   4.731 -12.151  0.00  0.00     0.047 C 
ATOM      5  C   UNL d   1       6.954   4.793 -12.537  0.00  0.00     0.041 C 
ATOM      6  C   UNL d   1       6.474   3.483 -13.190  0.00  0.00     0.251 C 
ENDROOT
BRANCH   1   7
ATOM      7  C   UNL d   1       6.822   1.874 -14.963  0.00  0.00     0.251 C 
BRANCH   7   8
ATOM      8  C   UNL d   1       7.064   1.865 -16.496  0.00  0.00     0.045 C 
ATOM      9  C   UNL d   1       8.563   1.876 -16.859  0.00  0.00     0.071 C 
ATOM     10  C   UNL d   1       8.827   1.910 -18.360  0.00  0.00     0.173 C 
ATOM     11  O   UNL d   1       9.826   2.492 -18.779  0.00  0.00    -0.291 OA
ATOM     12  C   UNL d   1       7.832   1.248 -19.231  0.00  0.00     0.031 A 
ATOM     13  C   UNL d   1       6.646   0.676 -18.699  0.00  0.00    -0.019 A 
ATOM     14  C   UNL d   1       8.074   1.216 -20.620  0.00  0.00     0.003 A 
ATOM     15  C   UNL d   1       6.341   0.708 -17.206  0.00  0.00     0.029 C 
ATOM     16  C   UNL d   1       5.724   0.063 -19.572  0.00  0.00    -0.004 A 
ATOM     17  C   UNL d   1       5.981   0.020 -20.956  0.00  0.00    -0.000 A 
ATOM     18  C   UNL d   1       7.153   0.597 -21.481  0.00  0.00     0.000 A 
ENDBRANCH   7   8
ENDBRANCH   1   7
BRANCH   4  19
ATOM     19  C   UNL d   1       8.939   6.059 -11.614  0.00  0.00     0.087 A 
ATOM     20  C   UNL d   1       9.480   6.420 -10.363  0.00  0.00     0.041 A 
ATOM     21  C   UNL d   1       9.828   7.774 -10.390  0.00  0.00     0.129 A 
ATOM     22  C   UNL d   1       9.678   5.670  -9.188  0.00  0.00     0.006 A 
ATOM     23  O   UNL d   1       9.497   8.216 -11.650  0.00  0.00    -0.211 OA
ATOM     24  C   UNL d   1      10.346   8.454  -9.285  0.00  0.00     0.057 A 
ATOM     25  N   UNL d   1       8.931   7.143 -12.384  0.00  0.00    -0.131 NA
ATOM     26  C   UNL d   1      10.539   7.710  -8.105  0.00  0.00     0.142 A 
ATOM     27  F   UNL d   1      11.049   8.319  -7.011  0.00  0.00    -0.204 F 
ATOM     28  C   UNL d   1      10.213   6.333  -8.059  0.00  0.00     0.030 A 
ENDBRANCH   4  19
TORSDOF 3
