REMARK  6 active torsions:
REMARK  status: ('A' for Active; 'I' for Inactive)
REMARK    1  A    between atoms: C_2  and  N_3 
REMARK    2  A    between atoms: N_3  and  C_4 
REMARK    3  A    between atoms: N_3  and  C_6 
REMARK    4  A    between atoms: C_6  and  C_7 
REMARK    5  A    between atoms: C_7  and  C_8 
REMARK    6  A    between atoms: C_11  and  C_12 
ROOT
ATOM      1  C   UNL d   1       8.866   5.762 -11.864  0.00  0.00     0.155 A 
ATOM      2  C   UNL d   1       9.047   7.247 -12.232  0.00  0.00     0.038 C 
ATOM      3  O   UNL d   1       9.678   4.994 -12.770  0.00  0.00    -0.328 OA
ATOM      4  C   UNL d   1       8.881   4.130 -13.477  0.00  0.00     0.097 A 
ATOM      5  C   UNL d   1       7.580   4.236 -13.158  0.00  0.00     0.064 A 
ATOM      6  C   UNL d   1       7.455   5.272 -12.171  0.00  0.00     0.200 A 
ATOM      7  O   UNL d   1       6.419   5.713 -11.701  0.00  0.00    -0.289 OA
ENDROOT
BRANCH   1   8
ATOM      8  C   UNL d   1       9.346   5.419 -10.439  0.00  0.00     0.071 C 
BRANCH   8   9
ATOM      9  C   UNL d   1       8.755   6.289  -9.309  0.00  0.00     0.253 C 
BRANCH   9  10
ATOM     10  N   UNL d   1       9.509   6.251  -8.057  0.00  0.00     0.137 N 
BRANCH  10  11
ATOM     11  C   UNL d   1      10.880   6.767  -8.193  0.00  0.00     0.250 C 
ATOM     12  C   UNL d   1      11.704   6.314  -6.991  0.00  0.00     0.037 C 
ENDBRANCH  10  11
BRANCH  10  13
ATOM     13  C   UNL d   1       8.764   6.994  -7.022  0.00  0.00     0.250 C 
ATOM     14  C   UNL d   1       8.853   8.546  -7.140  0.00  0.00     0.037 C 
ENDBRANCH  10  13
ENDBRANCH   9  10
ENDBRANCH   8   9
ENDBRANCH   1   8
BRANCH   4  15
ATOM     15  C   UNL d   1       9.452   3.208 -14.472  0.00  0.00     0.022 A 
ATOM     16  C   UNL d   1      10.837   3.269 -14.754  0.00  0.00     0.002 A 
ATOM     17  C   UNL d   1      11.397   2.394 -15.702  0.00  0.00     0.000 A 
ATOM     18  C   UNL d   1      10.585   1.459 -16.371  0.00  0.00     0.000 A 
ATOM     19  C   UNL d   1       9.204   1.402 -16.098  0.00  0.00     0.000 A 
ATOM     20  C   UNL d   1       8.639   2.278 -15.154  0.00  0.00     0.002 A 
ENDBRANCH   4  15
TORSDOF 6
