REMARK  6 active torsions:
REMARK  status: ('A' for Active; 'I' for Inactive)
REMARK    1  A    between atoms: C_2  and  N_3 
REMARK    2  A    between atoms: N_6  and  C_7 
REMARK    3  A    between atoms: C_7  and  C_8 
REMARK    4  A    between atoms: C_8  and  C_9 
REMARK    5  A    between atoms: C_9  and  N_10 
REMARK       I    between atoms: N_10  and  C_11 
REMARK    6  A    between atoms: C_11  and  C_13 
ROOT
ATOM      1  C   UNL d   1      10.030   6.390  -9.402  0.00  0.00     0.131 C 
ENDROOT
BRANCH   1   2
ATOM      2  C   UNL d   1       9.569   7.771  -8.914  0.00  0.00     0.062 C 
BRANCH   2   3
ATOM      3  C   UNL d   1      10.633   8.555  -8.142  0.00  0.00     0.253 C 
BRANCH   3   4
ATOM      4  N   UNL d   1      10.657   8.325  -6.696  0.00  0.00     0.141 N 
ATOM      5  C   UNL d   1      11.408   9.374  -6.005  0.00  0.00     0.285 C 
ATOM      6  C   UNL d   1      11.428   9.147  -4.483  0.00  0.00     0.285 C 
ATOM      7  N   UNL d   1      12.020   7.845  -4.145  0.00  0.00     0.141 N 
ATOM      8  C   UNL d   1      11.301   6.789  -4.851  0.00  0.00     0.285 C 
ATOM      9  C   UNL d   1      11.245   7.026  -6.365  0.00  0.00     0.285 C 
BRANCH   7  10
ATOM     10  C   UNL d   1      12.051   7.567  -2.703  0.00  0.00     0.251 C 
ATOM     11  C   UNL d   1      12.714   8.651  -1.850  0.00  0.00     0.037 C 
ENDBRANCH   7  10
ENDBRANCH   3   4
ENDBRANCH   2   3
ENDBRANCH   1   2
BRANCH   1  12
ATOM     12  N   UNL d   1       9.057   5.758 -10.286  0.00  0.00    -0.234 NA
ATOM     13  C   UNL d   1       8.938   6.002 -11.595  0.00  0.00     0.276 C 
ATOM     14  O   UNL d   1       9.448   6.939 -12.195  0.00  0.00    -0.266 OA
BRANCH  13  15
ATOM     15  C   UNL d   1       8.159   4.983 -12.350  0.00  0.00     0.068 A 
ATOM     16  C   UNL d   1       8.767   4.216 -13.374  0.00  0.00     0.065 A 
ATOM     17  C   UNL d   1       8.012   3.246 -14.054  0.00  0.00     0.041 A 
ATOM     18 CL   UNL d   1      10.442   4.398 -13.786  0.00  0.00    -0.082 Cl
ATOM     19  C   UNL d   1       6.657   3.038 -13.717  0.00  0.00     0.141 A 
ATOM     20  C   UNL d   1       6.047   3.814 -12.717  0.00  0.00     0.030 A 
ATOM     21  F   UNL d   1       5.963   2.057 -14.337  0.00  0.00    -0.204 F 
ATOM     22  C   UNL d   1       6.802   4.784 -12.030  0.00  0.00     0.008 A 
ENDBRANCH  13  15
ENDBRANCH   1  12
TORSDOF 6
