REMARK  13 active torsions:
REMARK  status: ('A' for Active; 'I' for Inactive)
REMARK    1  A    between atoms: C_9  and  C_10 
REMARK    2  A    between atoms: C_10  and  C_12 
REMARK    3  A    between atoms: C_12  and  N_13 
REMARK    4  A    between atoms: N_13  and  C_14 
REMARK    5  A    between atoms: C_14  and  C_15 
REMARK    6  A    between atoms: C_15  and  S_16 
REMARK    7  A    between atoms: S_16  and  C_17 
REMARK    8  A    between atoms: C_17  and  C_18 
REMARK    9  A    between atoms: C_18  and  C_19 
REMARK   10  A    between atoms: C_19  and  N_20 
REMARK   11  A    between atoms: N_20  and  C_21 
REMARK   12  A    between atoms: C_21  and  C_22 
REMARK   13  A    between atoms: C_22  and  C_23 
ROOT
ATOM      1  C   UNL d   1       7.188   3.371 -13.027  0.00  0.00     0.132 C 
ENDROOT
BRANCH   1   2
ATOM      2  N   UNL d   1       7.300   2.325 -14.042  0.00  0.00    -0.292 NA
BRANCH   2   3
ATOM      3  C   UNL d   1       8.511   2.333 -14.850  0.00  0.00     0.157 C 
BRANCH   3   4
ATOM      4  C   UNL d   1       8.807   0.918 -15.377  0.00  0.00     0.199 C 
ATOM      5  O   UNL d   1      10.053   0.986 -16.038  0.00  0.00    -0.216 OA
BRANCH   4   6
ATOM      6  C   UNL d   1       7.686   0.358 -16.266  0.00  0.00     0.018 A 
ATOM      7  C   UNL d   1       7.853   0.280 -17.673  0.00  0.00     0.001 A 
ATOM      8  C   UNL d   1       6.821  -0.199 -18.512  0.00  0.00     0.029 A 
ATOM      9  C   UNL d   1       5.573  -0.574 -17.967  0.00  0.00     0.149 A 
ATOM     10  C   UNL d   1       5.409  -0.515 -16.570  0.00  0.00     0.116 A 
ATOM     11  O   UNL d   1       4.557  -0.998 -18.773  0.00  0.00    -0.189 OA
ATOM     12  N   UNL d   1       4.225  -0.832 -15.874  0.00  0.00    -0.200 NA
ATOM     13  C   UNL d   1       6.459  -0.116 -15.738  0.00  0.00     0.052 A 
ATOM     14  C   UNL d   1       4.304  -0.707 -14.495  0.00  0.00     0.311 C 
ATOM     15  O   UNL d   1       3.391  -0.845 -13.659  0.00  0.00    -0.258 OA
ATOM     16  S   UNL d   1       6.022  -0.270 -14.053  0.00  0.00    -0.024 SA
ENDBRANCH   4   6
ENDBRANCH   3   4
ENDBRANCH   2   3
ENDBRANCH   1   2
BRANCH   1  17
ATOM     17  C   UNL d   1       6.879   4.725 -13.637  0.00  0.00     0.083 C 
BRANCH  17  18
ATOM     18  S   UNL d   1       6.422   5.952 -12.399  0.00  0.00    -0.138 SA
BRANCH  18  19
ATOM     19  C   UNL d   1       8.060   6.498 -11.858  0.00  0.00     0.060 C 
BRANCH  19  20
ATOM     20  C   UNL d   1       8.491   5.844 -10.533  0.00  0.00     0.050 C 
BRANCH  20  21
ATOM     21  C   UNL d   1       9.777   6.455  -9.959  0.00  0.00     0.291 C 
BRANCH  21  22
ATOM     22  N   UNL d   1       9.992   5.980  -8.599  0.00  0.00     0.339 N 
BRANCH  22  23
ATOM     23  C   UNL d   1      10.601   7.052  -7.822  0.00  0.00     0.295 C 
BRANCH  23  24
ATOM     24  C   UNL d   1      10.809   6.667  -6.342  0.00  0.00     0.065 C 
BRANCH  24  25
ATOM     25  C   UNL d   1      11.058   7.861  -5.422  0.00  0.00    -0.009 A 
ATOM     26  C   UNL d   1      11.687   7.727  -4.158  0.00  0.00     0.064 A 
ATOM     27  C   UNL d   1      11.881   8.796  -3.281  0.00  0.00     0.068 A 
ATOM     28 CL   UNL d   1      12.217   6.232  -3.506  0.00  0.00    -0.082 Cl
ATOM     29  C   UNL d   1      11.407  10.039  -3.655  0.00  0.00     0.012 A 
ATOM     30 CL   UNL d   1      12.663   8.606  -1.746  0.00  0.00    -0.082 Cl
ATOM     31  C   UNL d   1      10.766  10.225  -4.896  0.00  0.00     0.001 A 
ATOM     32  C   UNL d   1      10.583   9.146  -5.785  0.00  0.00    -0.003 A 
ENDBRANCH  24  25
ENDBRANCH  23  24
ENDBRANCH  22  23
ENDBRANCH  21  22
ENDBRANCH  20  21
ENDBRANCH  19  20
ENDBRANCH  18  19
ENDBRANCH  17  18
ENDBRANCH   1  17
TORSDOF 13
