REMARK  6 active torsions:
REMARK  status: ('A' for Active; 'I' for Inactive)
REMARK    1  A    between atoms: C_5  and  N_6 
REMARK    2  A    between atoms: N_9  and  C_10 
REMARK    3  A    between atoms: C_10  and  C_11 
REMARK    4  A    between atoms: C_11  and  C_13 
REMARK    5  A    between atoms: C_13  and  N_14 
REMARK    6  A    between atoms: C_18  and  C_20 
ROOT
ATOM      1  C   UNL d   1       8.244   5.651 -11.675  0.00  0.00     0.208 C 
ATOM      2  O   UNL d   1       6.923   5.985 -11.336  0.00  0.00    -0.219 OA
ENDROOT
BRANCH   1   3
ATOM      3  C   UNL d   1       9.204   6.682 -11.033  0.00  0.00     0.285 C 
BRANCH   3   4
ATOM      4  N   UNL d   1       9.666   6.314  -9.692  0.00  0.00     0.144 N 
ATOM      5  C   UNL d   1       8.710   6.762  -8.681  0.00  0.00     0.274 C 
ATOM      6  C   UNL d   1       9.061   6.380  -7.255  0.00  0.00     0.137 C 
ATOM      7  N   UNL d   1      10.400   6.835  -6.993  0.00  0.00    -0.344 N 
ATOM      8  C   UNL d   1      11.419   6.505  -7.933  0.00  0.00     0.137 C 
ATOM      9  C   UNL d   1      10.955   6.885  -9.371  0.00  0.00     0.274 C 
BRANCH   7  10
ATOM     10  C   UNL d   1      10.786   7.582  -5.901  0.00  0.00     0.056 A 
ATOM     11  C   UNL d   1      10.856   8.978  -6.045  0.00  0.00     0.017 A 
ATOM     12  C   UNL d   1      11.247   9.761  -4.931  0.00  0.00    -0.003 A 
ATOM     13  C   UNL d   1      11.592   9.104  -3.730  0.00  0.00    -0.026 A 
ATOM     14  C   UNL d   1      12.007   9.889  -2.528  0.00  0.00     0.031 C 
ATOM     15  C   UNL d   1      11.566   7.702  -3.613  0.00  0.00    -0.024 A 
ATOM     16  C   UNL d   1      11.161   6.928  -4.722  0.00  0.00     0.012 A 
ATOM     17  C   UNL d   1      11.838   7.035  -2.279  0.00  0.00     0.031 C 
ENDBRANCH   7  10
ENDBRANCH   3   4
ENDBRANCH   1   3
BRANCH   1  18
ATOM     18  C   UNL d   1       8.264   5.728 -13.211  0.00  0.00     0.148 C 
BRANCH  18  19
ATOM     19  N   UNL d   1       8.726   4.493 -13.846  0.00  0.00    -0.247 N 
ATOM     20  C   UNL d   1       9.943   4.333 -14.380  0.00  0.00     0.265 A 
ATOM     21  C   UNL d   1      10.011   2.951 -15.030  0.00  0.00     0.179 A 
ATOM     22  O   UNL d   1      10.869   5.145 -14.359  0.00  0.00    -0.269 OA
ATOM     23  N   UNL d   1       8.680   2.482 -14.680  0.00  0.00    -0.209 NA
ATOM     24  C   UNL d   1      11.059   2.091 -14.320  0.00  0.00     0.039 C 
ATOM     25  C   UNL d   1       7.962   3.404 -14.037  0.00  0.00     0.348 A 
ATOM     26  O   UNL d   1       6.792   3.259 -13.678  0.00  0.00    -0.245 OA
BRANCH  21  27
ATOM     27  C   UNL d   1      10.254   3.065 -16.545  0.00  0.00     0.006 A 
ATOM     28  C   UNL d   1       9.209   2.857 -17.483  0.00  0.00     0.000 A 
ATOM     29  C   UNL d   1       9.458   2.953 -18.867  0.00  0.00     0.029 A 
ATOM     30  C   UNL d   1      10.750   3.254 -19.333  0.00  0.00     0.140 A 
ATOM     31  C   UNL d   1      11.795   3.462 -18.417  0.00  0.00     0.029 A 
ATOM     32  F   UNL d   1      10.987   3.343 -20.662  0.00  0.00    -0.204 F 
ATOM     33  C   UNL d   1      11.546   3.374 -17.034  0.00  0.00     0.000 A 
ENDBRANCH  21  27
ENDBRANCH  18  19
ENDBRANCH   1  18
TORSDOF 6
