REMARK  6 active torsions:
REMARK  status: ('A' for Active; 'I' for Inactive)
REMARK    1  A    between atoms: C_2  and  C_3 
REMARK    2  A    between atoms: C_3  and  C_4 
REMARK    3  A    between atoms: C_4  and  N_5 
REMARK    4  A    between atoms: N_5  and  C_6 
REMARK    5  A    between atoms: N_5  and  C_9 
REMARK    6  A    between atoms: C_6  and  C_7 
ROOT
ATOM      1  C   UNL d   1       8.895   3.801 -12.931  0.00  0.00     0.224 C 
ATOM      2  C   UNL d   1      10.104   4.342 -13.726  0.00  0.00     0.038 C 
ATOM      3  C   UNL d   1      10.863   3.242 -14.443  0.00  0.00     0.030 C 
ATOM      4  C   UNL d   1       9.991   2.250 -15.178  0.00  0.00     0.001 A 
ATOM      5  C   UNL d   1      10.567   1.445 -16.171  0.00  0.00     0.136 A 
ATOM      6  F   UNL d   1      11.893   1.579 -16.461  0.00  0.00    -0.205 F 
ATOM      7  C   UNL d   1       9.802   0.514 -16.874  0.00  0.00     0.029 A 
ATOM      8  C   UNL d   1       8.413   0.395 -16.593  0.00  0.00     0.002 A 
ATOM      9  C   UNL d   1       7.828   1.199 -15.605  0.00  0.00    -0.004 A 
ATOM     10  C   UNL d   1       8.601   2.123 -14.873  0.00  0.00    -0.022 A 
ATOM     11  C   UNL d   1       7.917   3.022 -13.872  0.00  0.00     0.059 C 
ENDROOT
BRANCH   1  12
ATOM     12  N   UNL d   1       8.246   4.839 -12.082  0.00  0.00     0.135 N 
BRANCH  12  13
ATOM     13  C   UNL d   1       9.175   5.607 -11.240  0.00  0.00     0.250 C 
BRANCH  13  14
ATOM     14  C   UNL d   1       9.701   4.739 -10.082  0.00  0.00     0.035 C 
BRANCH  14  15
ATOM     15  C   UNL d   1       8.607   4.384  -9.061  0.00  0.00     0.002 C 
ATOM     16  C   UNL d   1       8.269   5.592  -8.179  0.00  0.00     0.000 C 
ENDBRANCH  14  15
ENDBRANCH  13  14
ENDBRANCH  12  13
BRANCH  12  17
ATOM     17  C   UNL d   1       7.334   5.679 -12.860  0.00  0.00     0.250 C 
BRANCH  17  18
ATOM     18  C   UNL d   1       6.724   6.843 -12.097  0.00  0.00     0.035 C 
ATOM     19  C   UNL d   1       5.868   7.782 -12.913  0.00  0.00     0.002 C 
ENDBRANCH  17  18
ENDBRANCH  12  17
ENDBRANCH   1  12
TORSDOF 6
