REMARK  5 active torsions:
REMARK  status: ('A' for Active; 'I' for Inactive)
REMARK    1  A    between atoms: C_2  and  C_3 
REMARK       I    between atoms: N_11  and  C_12 
REMARK    2  A    between atoms: C_12  and  C_14 
REMARK    3  A    between atoms: C_14  and  N_15 
REMARK    4  A    between atoms: N_18  and  C_19 
REMARK    5  A    between atoms: C_19  and  C_20 
ROOT
ATOM      1  N   UNL d   1       6.250   0.831 -16.318  0.00  0.00     0.151 N 
ATOM      2  C   UNL d   1       6.207   1.130 -14.883  0.00  0.00     0.286 C 
ATOM      3  C   UNL d   1       6.769   2.531 -14.568  0.00  0.00     0.286 C 
ATOM      4  N   UNL d   1       8.141   2.719 -15.075  0.00  0.00     0.146 N 
ATOM      5  C   UNL d   1       8.191   2.374 -16.512  0.00  0.00     0.286 C 
ATOM      6  C   UNL d   1       7.613   0.990 -16.817  0.00  0.00     0.286 C 
ENDROOT
BRANCH   1   7
ATOM      7  C   UNL d   1       5.643  -0.461 -16.619  0.00  0.00     0.337 C 
BRANCH   7   8
ATOM      8  C   UNL d   1       5.489  -0.762 -18.126  0.00  0.00     0.271 C 
ATOM      9  N   UNL d   1       5.735  -2.000 -18.626  0.00  0.00    -0.299 N 
ATOM     10  C   UNL d   1       6.053  -2.252 -20.046  0.00  0.00     0.093 C 
ATOM     11  C   UNL d   1       5.848  -3.218 -17.917  0.00  0.00     0.058 A 
ATOM     12  C   UNL d   1       6.673  -3.647 -20.126  0.00  0.00     0.051 C 
ATOM     13  C   UNL d   1       6.427  -4.196 -18.746  0.00  0.00    -0.004 A 
ATOM     14  C   UNL d   1       6.693  -5.503 -18.298  0.00  0.00    -0.003 A 
ATOM     15  C   UNL d   1       6.371  -5.827 -16.965  0.00  0.00    -0.000 A 
ATOM     16  C   UNL d   1       5.769  -4.857 -16.148  0.00  0.00     0.002 A 
ATOM     17  C   UNL d   1       5.452  -3.580 -16.612  0.00  0.00     0.017 A 
ATOM     18  O   UNL d   1       5.174   0.187 -18.859  0.00  0.00    -0.270 OA
BRANCH  10  19
ATOM     19  C   UNL d   1       4.804  -2.106 -20.957  0.00  0.00     0.023 C 
ATOM     20  C   UNL d   1       3.666  -3.061 -20.569  0.00  0.00     0.002 C 
ENDBRANCH  10  19
ENDBRANCH   7   8
ENDBRANCH   1   7
BRANCH   4  21
ATOM     21  C   UNL d   1       8.768   4.017 -14.776  0.00  0.00     0.277 C 
BRANCH  21  22
ATOM     22  C   UNL d   1       8.814   4.360 -13.306  0.00  0.00     0.011 A 
ATOM     23  C   UNL d   1       9.791   3.706 -12.530  0.00  0.00    -0.002 A 
ATOM     24  C   UNL d   1       9.856   4.012 -11.174  0.00  0.00     0.011 A 
ATOM     25  C   UNL d   1       9.009   4.934 -10.564  0.00  0.00     0.058 A 
ATOM     26  C   UNL d   1       8.018   5.575 -11.327  0.00  0.00     0.011 A 
ATOM     27 CL   UNL d   1       9.073   5.143  -8.864  0.00  0.00    -0.082 Cl
ATOM     28  C   UNL d   1       7.913   5.272 -12.697  0.00  0.00    -0.002 A 
ENDBRANCH  21  22
ENDBRANCH   4  21
TORSDOF 5
