REMARK  7 active torsions:
REMARK  status: ('A' for Active; 'I' for Inactive)
REMARK    1  A    between atoms: O_2  and  C_3 
REMARK    2  A    between atoms: C_3  and  C_5 
REMARK       I    between atoms: C_5  and  N_7 
REMARK    3  A    between atoms: N_7  and  C_8 
REMARK    4  A    between atoms: C_11  and  C_12 
REMARK    5  A    between atoms: C_12  and  C_13 
REMARK    6  A    between atoms: C_13  and  N_14 
REMARK    7  A    between atoms: C_17  and  C_18 
ROOT
ATOM      1  N   UNL d   1       9.548   6.768  -9.949  0.00  0.00     0.137 N 
ATOM      2  C   UNL d   1      10.928   7.231  -9.998  0.00  0.00     0.251 C 
ATOM      3  C   UNL d   1      11.206   8.091  -8.783  0.00  0.00     0.040 C 
ATOM      4  C   UNL d   1      10.948   7.335  -7.454  0.00  0.00     0.028 C 
ATOM      5  C   UNL d   1       9.569   6.665  -7.507  0.00  0.00     0.040 C 
ATOM      6  C   UNL d   1       9.375   5.873  -8.802  0.00  0.00     0.251 C 
ENDROOT
BRANCH   1   7
ATOM      7  C   UNL d   1       9.286   6.090 -11.201  0.00  0.00     0.250 C 
BRANCH   7   8
ATOM      8  C   UNL d   1       7.822   5.661 -11.382  0.00  0.00     0.035 C 
BRANCH   8   9
ATOM      9  C   UNL d   1       7.551   4.867 -12.677  0.00  0.00     0.002 C 
ATOM     10  C   UNL d   1       8.668   3.841 -12.992  0.00  0.00     0.002 C 
ATOM     11  C   UNL d   1       8.330   2.971 -14.200  0.00  0.00     0.024 C 
ATOM     12  C   UNL d   1       6.969   2.286 -14.048  0.00  0.00     0.106 C 
ATOM     13  C   UNL d   1       5.870   3.311 -13.761  0.00  0.00     0.024 C 
ATOM     14  C   UNL d   1       6.178   4.168 -12.536  0.00  0.00     0.002 C 
BRANCH  12  15
ATOM     15  N   UNL d   1       6.671   1.516 -15.249  0.00  0.00    -0.238 NA
ATOM     16  C   UNL d   1       5.989   0.380 -15.265  0.00  0.00     0.279 C 
ATOM     17  O   UNL d   1       5.485  -0.177 -14.290  0.00  0.00    -0.268 OA
BRANCH  16  18
ATOM     18  C   UNL d   1       5.835  -0.208 -16.696  0.00  0.00     0.195 C 
ATOM     19  C   UNL d   1       5.113  -1.572 -16.659  0.00  0.00     0.042 C 
BRANCH  18  20
ATOM     20  O   UNL d   1       7.121  -0.369 -17.322  0.00  0.00    -0.345 OA
ATOM     21  C   UNL d   1       7.866   0.758 -17.814  0.00  0.00     0.175 C 
ENDBRANCH  18  20
ENDBRANCH  16  18
ENDBRANCH  12  15
ENDBRANCH   8   9
ENDBRANCH   7   8
ENDBRANCH   1   7
BRANCH   4  22
ATOM     22  C   UNL d   1      11.085   8.215  -6.216  0.00  0.00     0.002 A 
ATOM     23  C   UNL d   1      11.470   7.679  -4.971  0.00  0.00     0.115 A 
ATOM     24  C   UNL d   1      11.611   8.460  -3.847  0.00  0.00     0.119 A 
ATOM     25  O   UNL d   1      11.765   6.394  -4.648  0.00  0.00    -0.300 OA
ATOM     26  C   UNL d   1      11.369   9.840  -3.857  0.00  0.00     0.026 A 
ATOM     27  O   UNL d   1      11.973   7.713  -2.784  0.00  0.00    -0.300 OA
ATOM     28  C   UNL d   1      10.970  10.388  -5.095  0.00  0.00     0.002 A 
ATOM     29  C   UNL d   1      10.826   9.606  -6.258  0.00  0.00    -0.002 A 
ATOM     30  C   UNL d   1      12.063   6.405  -3.271  0.00  0.00     0.304 A 
ENDBRANCH   4  22
TORSDOF 7
