REMARK  6 active torsions:
REMARK  status: ('A' for Active; 'I' for Inactive)
REMARK    1  A    between atoms: C_2  and  C_3 
REMARK    2  A    between atoms: N_13  and  C_14 
REMARK    3  A    between atoms: C_14  and  C_15 
REMARK    4  A    between atoms: C_15  and  C_17 
REMARK    5  A    between atoms: C_17  and  N_18 
REMARK    6  A    between atoms: N_21  and  C_22 
ROOT
ATOM      1  C   UNL d   1      10.326   6.142 -10.187  0.00  0.00     0.148 C 
ENDROOT
BRANCH   1   2
ATOM      2  N   UNL d   1      10.264   7.168  -9.172  0.00  0.00    -0.247 N 
ATOM      3  C   UNL d   1      10.589   8.468  -9.276  0.00  0.00     0.348 A 
ATOM      4  N   UNL d   1      10.319   9.047  -8.100  0.00  0.00    -0.209 NA
ATOM      5  O   UNL d   1      11.042   9.051 -10.256  0.00  0.00    -0.245 OA
ATOM      6  C   UNL d   1       9.840   8.081  -7.122  0.00  0.00     0.179 A 
ATOM      7  C   UNL d   1       8.410   8.363  -6.762  0.00  0.00     0.039 C 
ATOM      8  C   UNL d   1       9.788   6.850  -7.981  0.00  0.00     0.265 A 
ATOM      9  O   UNL d   1       9.278   5.777  -7.662  0.00  0.00    -0.269 OA
BRANCH   6  10
ATOM     10  C   UNL d   1      10.711   7.998  -5.880  0.00  0.00     0.006 A 
ATOM     11  C   UNL d   1      10.691   6.835  -5.084  0.00  0.00     0.000 A 
ATOM     12  C   UNL d   1      11.486   6.749  -3.934  0.00  0.00     0.029 A 
ATOM     13  C   UNL d   1      12.282   7.825  -3.541  0.00  0.00     0.140 A 
ATOM     14  C   UNL d   1      12.278   9.010  -4.302  0.00  0.00     0.029 A 
ATOM     15  F   UNL d   1      13.057   7.723  -2.437  0.00  0.00    -0.204 F 
ATOM     16  C   UNL d   1      11.487   9.098  -5.464  0.00  0.00     0.000 A 
ENDBRANCH   6  10
ENDBRANCH   1   2
BRANCH   1  17
ATOM     17  C   UNL d   1       9.074   6.037 -11.075  0.00  0.00     0.208 C 
ATOM     18  O   UNL d   1       7.883   5.989 -10.322  0.00  0.00    -0.219 OA
BRANCH  17  19
ATOM     19  C   UNL d   1       9.065   4.734 -11.888  0.00  0.00     0.285 C 
BRANCH  19  20
ATOM     20  N   UNL d   1      10.120   4.553 -12.882  0.00  0.00     0.144 N 
ATOM     21  C   UNL d   1      10.060   5.581 -13.900  0.00  0.00     0.274 C 
ATOM     22  C   UNL d   1      11.185   5.446 -14.937  0.00  0.00     0.137 C 
ATOM     23  N   UNL d   1      11.140   4.121 -15.534  0.00  0.00    -0.343 N 
ATOM     24  C   UNL d   1      11.112   3.019 -14.572  0.00  0.00     0.137 C 
ATOM     25  C   UNL d   1       9.998   3.258 -13.547  0.00  0.00     0.274 C 
BRANCH  23  26
ATOM     26  C   UNL d   1      11.102   3.917 -16.925  0.00  0.00     0.084 A 
ATOM     27  C   UNL d   1      11.709   2.789 -17.528  0.00  0.00     0.155 A 
ATOM     28  C   UNL d   1      11.667   2.615 -18.929  0.00  0.00     0.031 A 
ATOM     29  F   UNL d   1      12.382   1.858 -16.812  0.00  0.00    -0.203 F 
ATOM     30  C   UNL d   1      11.031   3.561 -19.742  0.00  0.00     0.002 A 
ATOM     31  C   UNL d   1      10.429   4.683 -19.158  0.00  0.00     0.002 A 
ATOM     32  C   UNL d   1      10.459   4.862 -17.755  0.00  0.00     0.019 A 
ENDBRANCH  23  26
ENDBRANCH  19  20
ENDBRANCH  17  19
ENDBRANCH   1  17
TORSDOF 6
