REMARK  5 active torsions:
REMARK  status: ('A' for Active; 'I' for Inactive)
REMARK    1  A    between atoms: C_8  and  S_9 
REMARK    2  A    between atoms: S_9  and  N_12 
REMARK    3  A    between atoms: N_12  and  C_13 
REMARK    4  A    between atoms: N_21  and  C_22 
REMARK    5  A    between atoms: C_22  and  C_23 
ROOT
ATOM      1  C   UNL d   1       8.917   6.212 -10.475  0.00  0.00     0.093 A 
ATOM      2  C   UNL d   1       9.556   7.301 -11.118  0.00  0.00     0.020 A 
ATOM      3  C   UNL d   1      10.509   8.061 -10.428  0.00  0.00    -0.003 A 
ATOM      4  C   UNL d   1      10.832   7.785  -9.095  0.00  0.00    -0.024 A 
ATOM      5  C   UNL d   1      10.148   6.740  -8.430  0.00  0.00    -0.022 A 
ATOM      6  C   UNL d   1       9.196   5.962  -9.123  0.00  0.00     0.015 A 
ATOM      7  C   UNL d   1      10.410   6.413  -6.986  0.00  0.00     0.061 C 
ATOM      8  C   UNL d   1      10.231   7.611  -6.041  0.00  0.00     0.255 C 
ATOM      9  N   UNL d   1      11.419   8.465  -6.015  0.00  0.00     0.144 N 
ATOM     10  C   UNL d   1      11.454   9.350  -7.166  0.00  0.00     0.255 C 
ATOM     11  C   UNL d   1      11.904   8.631  -8.437  0.00  0.00     0.061 C 
ENDROOT
BRANCH   1  12
ATOM     12  N   UNL d   1       7.990   5.392 -11.126  0.00  0.00    -0.158 NA
BRANCH  12  13
ATOM     13  S   UNL d   1       7.247   5.642 -12.650  0.00  0.00     0.285 S 
ATOM     14  O   UNL d   1       8.279   6.083 -13.583  0.00  0.00    -0.198 OA
ATOM     15  O   UNL d   1       6.026   6.436 -12.440  0.00  0.00    -0.198 OA
BRANCH  13  16
ATOM     16  C   UNL d   1       6.825   4.037 -13.157  0.00  0.00     0.107 A 
ATOM     17  C   UNL d   1       7.694   3.370 -14.036  0.00  0.00     0.039 A 
ATOM     18  C   UNL d   1       7.379   2.059 -14.457  0.00  0.00     0.110 A 
ATOM     19  O   UNL d   1       8.243   1.441 -15.339  0.00  0.00    -0.327 OA
ATOM     20  C   UNL d   1       6.189   1.462 -13.996  0.00  0.00     0.079 A 
ATOM     21  C   UNL d   1       8.114   0.028 -15.366  0.00  0.00     0.173 C 
ATOM     22  C   UNL d   1       6.644  -0.387 -15.511  0.00  0.00     0.134 C 
ATOM     23  N   UNL d   1       5.838   0.144 -14.433  0.00  0.00    -0.342 N 
ATOM     24  C   UNL d   1       4.537  -0.427 -14.136  0.00  0.00     0.126 C 
ATOM     25  C   UNL d   1       5.334   2.173 -13.126  0.00  0.00     0.020 A 
ATOM     26  C   UNL d   1       5.643   3.474 -12.702  0.00  0.00     0.015 A 
ENDBRANCH  13  16
ENDBRANCH  12  13
ENDBRANCH   1  12
BRANCH   9  27
ATOM     27  C   UNL d   1      11.435   9.283  -4.811  0.00  0.00     0.297 C 
BRANCH  27  28
ATOM     28  C   UNL d   1      11.855   8.522  -3.611  0.00  0.00     0.116 A 
ATOM     29  N   UNL d   1      12.308   9.184  -2.491  0.00  0.00    -0.150 NA
ATOM     30  N   UNL d   1      12.646   8.339  -1.513  0.00  0.00    -0.147 NA
ATOM     31  C   UNL d   1      12.387   7.143  -2.015  0.00  0.00     0.123 A 
ATOM     32  C   UNL d   1      11.892   7.182  -3.321  0.00  0.00     0.041 A 
ENDBRANCH  27  28
ENDBRANCH   9  27
TORSDOF 5
