REMARK  7 active torsions:
REMARK  status: ('A' for Active; 'I' for Inactive)
REMARK    1  A    between atoms: C_5  and  N_6 
REMARK       I    between atoms: N_6  and  C_7 
REMARK    2  A    between atoms: C_7  and  C_9 
REMARK    3  A    between atoms: C_12  and  C_13 
REMARK    4  A    between atoms: C_13  and  N_14 
REMARK    5  A    between atoms: C_24  and  N_25 
REMARK    6  A    between atoms: N_25  and  C_26 
REMARK    7  A    between atoms: C_30  and  C_31 
ROOT
ATOM      1  C   UNL d   1      10.472   0.048 -19.163  0.00  0.00     0.033 C 
ATOM      2  C   UNL d   1      10.216   0.933 -17.954  0.00  0.00    -0.004 A 
ATOM      3  C   UNL d   1      11.309   1.568 -17.323  0.00  0.00    -0.001 A 
ATOM      4  C   UNL d   1      11.108   2.390 -16.198  0.00  0.00     0.019 A 
ATOM      5  C   UNL d   1       9.802   2.570 -15.692  0.00  0.00     0.086 A 
ATOM      6  C   UNL d   1       8.713   1.944 -16.321  0.00  0.00     0.039 A 
ATOM      7  C   UNL d   1       8.902   1.125 -17.453  0.00  0.00     0.097 A 
ENDROOT
BRANCH   5   8
ATOM      8  N   UNL d   1       9.537   3.314 -14.524  0.00  0.00    -0.208 NA
ATOM      9  C   UNL d   1      10.103   4.467 -14.149  0.00  0.00     0.279 C 
ATOM     10  O   UNL d   1      10.877   5.138 -14.838  0.00  0.00    -0.265 OA
BRANCH   9  11
ATOM     11  C   UNL d   1       9.692   4.912 -12.778  0.00  0.00     0.058 A 
ATOM     12  C   UNL d   1       9.692   3.988 -11.714  0.00  0.00     0.004 A 
ATOM     13  C   UNL d   1       9.453   4.418 -10.385  0.00  0.00    -0.002 A 
ATOM     14  C   UNL d   1       9.126   5.749 -10.107  0.00  0.00     0.011 A 
ATOM     15  C   UNL d   1       9.071   6.666 -11.178  0.00  0.00    -0.002 A 
ATOM     16  C   UNL d   1       9.393   6.262 -12.488  0.00  0.00     0.004 A 
BRANCH  14  17
ATOM     17  C   UNL d   1       8.813   6.162  -8.674  0.00  0.00     0.277 C 
BRANCH  17  18
ATOM     18  N   UNL d   1       9.895   6.885  -8.002  0.00  0.00     0.146 N 
ATOM     19  C   UNL d   1      10.074   8.243  -8.531  0.00  0.00     0.286 C 
ATOM     20  C   UNL d   1      11.200   9.001  -7.822  0.00  0.00     0.286 C 
ATOM     21  N   UNL d   1      10.960   9.111  -6.388  0.00  0.00     0.143 N 
ATOM     22  C   UNL d   1      10.788   7.760  -5.850  0.00  0.00     0.286 C 
ATOM     23  C   UNL d   1      12.031   9.833  -5.728  0.00  0.00     0.285 C 
ATOM     24  C   UNL d   1       9.647   7.001  -6.564  0.00  0.00     0.286 C 
ENDBRANCH  17  18
ENDBRANCH  14  17
ENDBRANCH   9  11
ENDBRANCH   5   8
BRANCH   7  25
ATOM     25  N   UNL d   1       7.814   0.496 -18.072  0.00  0.00    -0.059 NA
BRANCH  25  26
ATOM     26  C   UNL d   1       6.723  -0.197 -17.586  0.00  0.00     0.750 A 
ATOM     27  N   UNL d   1       6.208  -1.079 -18.439  0.00  0.00    -0.059 NA
ATOM     28  C   UNL d   1       5.151  -1.821 -18.023  0.00  0.00     0.103 A 
ATOM     29  C   UNL d   1       4.612  -1.615 -16.735  0.00  0.00     0.041 A 
ATOM     30  C   UNL d   1       5.233  -0.653 -15.924  0.00  0.00     0.120 A 
ATOM     31  N   UNL d   1       6.299   0.052 -16.349  0.00  0.00    -0.058 NA
BRANCH  28  32
ATOM     32  C   UNL d   1       4.623  -2.830 -18.975  0.00  0.00     0.037 A 
ATOM     33  C   UNL d   1       5.398  -3.330 -20.051  0.00  0.00     0.100 A 
ATOM     34  N   UNL d   1       4.967  -4.250 -20.942  0.00  0.00    -0.242 NA
ATOM     35  C   UNL d   1       3.719  -4.737 -20.795  0.00  0.00     0.099 A 
ATOM     36  C   UNL d   1       2.861  -4.334 -19.760  0.00  0.00     0.021 A 
ATOM     37  C   UNL d   1       3.324  -3.373 -18.841  0.00  0.00     0.005 A 
ENDBRANCH  28  32
ENDBRANCH  25  26
ENDBRANCH   7  25
TORSDOF 7
