REMARK  2 active torsions:
REMARK  status: ('A' for Active; 'I' for Inactive)
REMARK    1  A    between atoms: C_7  and  N_8 
REMARK       I    between atoms: N_8  and  C_9 
REMARK    2  A    between atoms: C_9  and  C_11 
ROOT
ATOM      1  C   UNL d   1       8.546   3.780 -14.198  0.00  0.00     0.094 C 
ATOM      2  C   UNL d   1       9.334   3.393 -15.306  0.00  0.00     0.099 C 
ATOM      3  C   UNL d   1       8.925   2.327 -16.152  0.00  0.00     0.097 C 
ATOM      4  C   UNL d   1       7.738   1.581 -15.873  0.00  0.00     0.060 C 
ATOM      5  C   UNL d   1       7.011   1.956 -14.708  0.00  0.00     0.040 C 
ATOM      6  C   UNL d   1       5.890   1.172 -14.334  0.00  0.00     0.085 C 
ATOM      7  N   UNL d   1       5.196   1.462 -13.221  0.00  0.00    -0.224 NA
ATOM      8  C   UNL d   1       5.500   2.598 -12.599  0.00  0.00     0.199 C 
ATOM      9  N   UNL d   1       6.490   3.430 -12.903  0.00  0.00    -0.224 NA
ATOM     10  C   UNL d   1       7.332   3.095 -13.914  0.00  0.00     0.091 C 
ATOM     11  C   UNL d   1       5.342   0.115 -15.168  0.00  0.00     0.021 A 
ATOM     12  C   UNL d   1       4.111  -0.519 -14.867  0.00  0.00     0.002 A 
ATOM     13  C   UNL d   1       3.588  -1.509 -15.719  0.00  0.00     0.000 A 
ATOM     14  C   UNL d   1       4.283  -1.881 -16.880  0.00  0.00     0.000 A 
ATOM     15  C   UNL d   1       5.470  -1.228 -17.230  0.00  0.00     0.003 A 
ATOM     16  C   UNL d   1       5.990  -0.223 -16.379  0.00  0.00     0.041 A 
ATOM     17  C   UNL d   1       7.251   0.474 -16.779  0.00  0.00     0.197 C 
ATOM     18  O   UNL d   1       7.821   0.172 -17.834  0.00  0.00    -0.286 OA
ATOM     19  N   UNL d   1       9.708   2.013 -17.283  0.00  0.00    -0.269 NA
ATOM     20  C   UNL d   1      10.710   2.970 -17.730  0.00  0.00     0.126 C 
ATOM     21  C   UNL d   1      11.671   2.360 -18.752  0.00  0.00     0.026 C 
ATOM     22  C   UNL d   1      12.735   3.384 -19.189  0.00  0.00     0.002 C 
ATOM     23  C   UNL d   1      13.501   3.957 -17.982  0.00  0.00     0.002 C 
ATOM     24  C   UNL d   1      12.540   4.549 -16.947  0.00  0.00     0.026 C 
ATOM     25  C   UNL d   1      11.482   3.515 -16.521  0.00  0.00     0.126 C 
ATOM     26  N   UNL d   1      10.524   4.094 -15.605  0.00  0.00    -0.269 NA
ENDROOT
BRANCH   1  27
ATOM     27  C   UNL d   1       9.075   4.825 -13.226  0.00  0.00     0.278 C 
ATOM     28  N   UNL d   1       8.169   5.465 -12.473  0.00  0.00    -0.234 NA
ATOM     29  O   UNL d   1      10.293   5.030 -13.092  0.00  0.00    -0.265 OA
BRANCH  28  30
ATOM     30  C   UNL d   1       8.400   5.976 -11.131  0.00  0.00     0.143 C 
ATOM     31  C   UNL d   1       9.478   7.073 -11.097  0.00  0.00     0.324 C 
ATOM     32  N   UNL d   1       9.064   8.137 -12.000  0.00  0.00     0.618 N 
ATOM     33  C   UNL d   1       9.829   7.590  -9.695  0.00  0.00     0.041 C 
ATOM     34  C   UNL d   1      10.136   6.421  -8.754  0.00  0.00     0.002 C 
ATOM     35  C   UNL d   1       9.007   5.370  -8.729  0.00  0.00     0.002 C 
ATOM     36  C   UNL d   1       8.708   4.837 -10.138  0.00  0.00     0.027 C 
ENDBRANCH  28  30
ENDBRANCH   1  27
TORSDOF 2
