REMARK  8 active torsions:
REMARK  status: ('A' for Active; 'I' for Inactive)
REMARK    1  A    between atoms: C_3  and  S_4 
REMARK    2  A    between atoms: S_4  and  C_5 
REMARK    3  A    between atoms: C_5  and  C_6 
REMARK    4  A    between atoms: C_6  and  C_7 
REMARK    5  A    between atoms: C_7  and  N_8 
REMARK    6  A    between atoms: C_12  and  C_13 
REMARK    7  A    between atoms: C_16  and  C_17 
REMARK    8  A    between atoms: C_26  and  C_27 
ROOT
ATOM      1  N   UNL d   1       7.030   4.409 -12.633  0.00  0.00     0.143 N 
ATOM      2  C   UNL d   1       8.094   3.784 -13.422  0.00  0.00     0.282 C 
ATOM      3  C   UNL d   1       9.154   4.800 -13.843  0.00  0.00     0.178 C 
ATOM      4  O   UNL d   1       9.730   5.405 -12.685  0.00  0.00    -0.348 OA
ATOM      5  C   UNL d   1       8.762   6.066 -11.871  0.00  0.00     0.171 C 
ATOM      6  C   UNL d   1       7.629   5.085 -11.481  0.00  0.00     0.284 C 
ENDROOT
BRANCH   1   7
ATOM      7  C   UNL d   1       6.002   3.473 -12.167  0.00  0.00     0.251 C 
BRANCH   7   8
ATOM      8  C   UNL d   1       5.361   2.562 -13.222  0.00  0.00     0.047 C 
BRANCH   8   9
ATOM      9  C   UNL d   1       5.818   1.086 -13.094  0.00  0.00     0.067 C 
BRANCH   9  10
ATOM     10  S   UNL d   1       4.757  -0.080 -14.008  0.00  0.00    -0.075 SA
BRANCH  10  11
ATOM     11  C   UNL d   1       5.445   0.013 -15.631  0.00  0.00     0.193 A 
ATOM     12  N   UNL d   1       4.922  -0.693 -16.654  0.00  0.00    -0.287 N 
ATOM     13  C   UNL d   1       3.754  -1.569 -16.625  0.00  0.00     0.134 C 
ATOM     14  C   UNL d   1       5.718  -0.328 -17.685  0.00  0.00     0.186 A 
ATOM     15  N   UNL d   1       6.656   0.559 -17.319  0.00  0.00    -0.127 NA
ATOM     16  N   UNL d   1       6.485   0.769 -15.973  0.00  0.00    -0.122 NA
BRANCH  14  17
ATOM     17  C   UNL d   1       5.649  -0.811 -19.065  0.00  0.00     0.136 A 
ATOM     18  N   UNL d   1       6.019   0.047 -20.040  0.00  0.00    -0.238 NA
ATOM     19  C   UNL d   1       5.995  -0.392 -21.319  0.00  0.00     0.120 A 
ATOM     20  C   UNL d   1       5.563  -1.703 -21.629  0.00  0.00     0.120 A 
ATOM     21  N   UNL d   1       5.188  -2.577 -20.667  0.00  0.00    -0.239 NA
ATOM     22  C   UNL d   1       5.240  -2.140 -19.389  0.00  0.00     0.121 A 
ENDBRANCH  14  17
ENDBRANCH  10  11
ENDBRANCH   9  10
ENDBRANCH   8   9
ENDBRANCH   7   8
ENDBRANCH   1   7
BRANCH   5  23
ATOM     23  C   UNL d   1       9.446   6.706 -10.654  0.00  0.00     0.007 A 
ATOM     24  C   UNL d   1       9.664   5.959  -9.479  0.00  0.00    -0.002 A 
ATOM     25  C   UNL d   1      10.264   6.566  -8.357  0.00  0.00     0.004 A 
ATOM     26  C   UNL d   1      10.672   7.912  -8.418  0.00  0.00     0.071 A 
ATOM     27  C   UNL d   1      10.480   8.655  -9.595  0.00  0.00     0.004 A 
ATOM     28  C   UNL d   1       9.857   8.051 -10.718  0.00  0.00    -0.002 A 
BRANCH  26  29
ATOM     29  C   UNL d   1      11.353   8.550  -7.218  0.00  0.00     0.419 C 
ATOM     30  F   UNL d   1      10.687   9.643  -6.837  0.00  0.00    -0.166 F 
ATOM     31  F   UNL d   1      11.426   7.718  -6.175  0.00  0.00    -0.166 F 
ATOM     32  F   UNL d   1      12.591   8.886  -7.582  0.00  0.00    -0.166 F 
ENDBRANCH  26  29
ENDBRANCH   5  23
TORSDOF 8
