REMARK  8 active torsions:
REMARK  status: ('A' for Active; 'I' for Inactive)
REMARK    1  A    between atoms: S_2  and  N_4 
REMARK    2  A    between atoms: S_2  and  C_25 
REMARK    3  A    between atoms: N_4  and  C_5 
REMARK    4  A    between atoms: C_5  and  C_6 
REMARK    5  A    between atoms: C_6  and  C_7 
REMARK    6  A    between atoms: C_7  and  C_8 
REMARK    7  A    between atoms: C_8  and  N_9 
REMARK    8  A    between atoms: C_12  and  C_13 
ROOT
ATOM      1  N   UNL d   1       9.211   5.407  -9.445  0.00  0.00     0.142 N 
ATOM      2  C   UNL d   1       9.560   6.689 -10.086  0.00  0.00     0.276 C 
ATOM      3  C   UNL d   1      10.250   7.631  -9.134  0.00  0.00     0.005 C 
ATOM      4  C   UNL d   1      10.277   7.470  -7.797  0.00  0.00    -0.021 C 
ATOM      5  C   UNL d   1       9.607   6.273  -7.181  0.00  0.00     0.061 C 
ATOM      6  C   UNL d   1       8.599   5.645  -8.130  0.00  0.00     0.255 C 
ENDROOT
BRANCH   1   7
ATOM      7  C   UNL d   1       8.194   4.789 -10.289  0.00  0.00     0.251 C 
BRANCH   7   8
ATOM      8  C   UNL d   1       8.811   4.339 -11.645  0.00  0.00     0.037 C 
BRANCH   8   9
ATOM      9  C   UNL d   1       7.728   3.926 -12.660  0.00  0.00     0.029 C 
BRANCH   9  10
ATOM     10  C   UNL d   1       8.355   3.120 -13.809  0.00  0.00     0.139 C 
BRANCH  10  11
ATOM     11  N   UNL d   1       7.302   2.516 -14.620  0.00  0.00    -0.185 NA
BRANCH  11  12
ATOM     12  S   UNL d   1       7.449   0.896 -15.175  0.00  0.00     0.281 S 
ATOM     13  O   UNL d   1       7.836   0.058 -14.025  0.00  0.00    -0.199 OA
ATOM     14  O   UNL d   1       6.239   0.607 -15.950  0.00  0.00    -0.199 OA
BRANCH  12  15
ATOM     15  C   UNL d   1       8.822   1.020 -16.316  0.00  0.00     0.107 A 
ATOM     16  C   UNL d   1       8.576   1.291 -17.679  0.00  0.00     0.043 A 
ATOM     17  C   UNL d   1       9.658   1.390 -18.576  0.00  0.00     0.141 A 
ATOM     18  C   UNL d   1      10.977   1.217 -18.111  0.00  0.00     0.030 A 
ATOM     19  F   UNL d   1       9.428   1.649 -19.885  0.00  0.00    -0.204 F 
ATOM     20  C   UNL d   1      11.217   0.950 -16.749  0.00  0.00     0.003 A 
ATOM     21  C   UNL d   1      10.139   0.849 -15.847  0.00  0.00     0.013 A 
ENDBRANCH  12  15
ENDBRANCH  11  12
ENDBRANCH  10  11
ENDBRANCH   9  10
ENDBRANCH   8   9
ENDBRANCH   7   8
ENDBRANCH   1   7
BRANCH   4  22
ATOM     22  C   UNL d   1      10.974   8.410  -6.928  0.00  0.00     0.017 A 
ATOM     23  C   UNL d   1      11.452   8.213  -5.588  0.00  0.00     0.020 A 
ATOM     24  C   UNL d   1      12.177   9.405  -5.253  0.00  0.00     0.082 A 
ATOM     25  C   UNL d   1      11.384   7.174  -4.601  0.00  0.00     0.013 A 
ATOM     26  N   UNL d   1      12.122  10.213  -6.341  0.00  0.00    -0.244 NA
ATOM     27  C   UNL d   1      12.797   9.577  -4.041  0.00  0.00     0.020 A 
ATOM     28  C   UNL d   1      11.454   9.598  -7.371  0.00  0.00     0.099 A 
ATOM     29  C   UNL d   1      12.687   8.610  -3.085  0.00  0.00     0.013 A 
ATOM     30  C   UNL d   1      11.995   7.444  -3.344  0.00  0.00     0.058 A 
ATOM     31 CL   UNL d   1      12.001   6.403  -2.019  0.00  0.00    -0.082 Cl
ENDBRANCH   4  22
TORSDOF 8
