REMARK  6 active torsions:
REMARK  status: ('A' for Active; 'I' for Inactive)
REMARK    1  A    between atoms: C_6  and  O_7 
REMARK    2  A    between atoms: O_7  and  C_8 
REMARK    3  A    between atoms: C_8  and  C_9 
REMARK    4  A    between atoms: C_9  and  N_10 
REMARK    5  A    between atoms: C_13  and  C_14 
REMARK    6  A    between atoms: C_14  and  C_15 
ROOT
ATOM      1  N   UNL d   1      10.136   3.425 -14.529  0.00  0.00     0.140 N 
ATOM      2  C   UNL d   1       9.081   2.481 -14.174  0.00  0.00     0.250 C 
ATOM      3  C   UNL d   1       8.875   1.464 -15.270  0.00  0.00     0.036 C 
ATOM      4  C   UNL d   1      10.161   0.674 -15.573  0.00  0.00     0.008 C 
ATOM      5  C   UNL d   1      11.314   1.679 -15.802  0.00  0.00     0.036 C 
ATOM      6  C   UNL d   1      11.405   2.700 -14.661  0.00  0.00     0.250 C 
ENDROOT
BRANCH   1   7
ATOM      7  C   UNL d   1      10.283   4.447 -13.515  0.00  0.00     0.283 C 
BRANCH   7   8
ATOM      8  C   UNL d   1       9.021   5.330 -13.367  0.00  0.00     0.184 C 
BRANCH   8   9
ATOM      9  O   UNL d   1       9.275   6.350 -12.415  0.00  0.00    -0.329 OA
BRANCH   9  10
ATOM     10  C   UNL d   1       9.227   6.026 -11.065  0.00  0.00     0.096 A 
ATOM     11  C   UNL d   1       9.705   6.979 -10.131  0.00  0.00     0.040 A 
ATOM     12  C   UNL d   1      10.221   8.223 -10.557  0.00  0.00     0.005 A 
ATOM     13  C   UNL d   1       9.658   6.741  -8.733  0.00  0.00     0.083 A 
ATOM     14  C   UNL d   1      10.702   9.135  -9.596  0.00  0.00     0.015 A 
ATOM     15  C   UNL d   1      10.611   8.787  -8.236  0.00  0.00     0.059 A 
ATOM     16  C   UNL d   1      11.088   9.701  -7.132  0.00  0.00     0.052 C 
ATOM     17  N   UNL d   1      10.111   7.620  -7.811  0.00  0.00    -0.250 NA
ATOM     18  C   UNL d   1       9.144   5.519  -8.294  0.00  0.00     0.019 A 
ATOM     19  C   UNL d   1       8.685   4.556  -9.193  0.00  0.00     0.004 A 
ATOM     20  C   UNL d   1       8.716   4.800 -10.573  0.00  0.00     0.024 A 
ENDBRANCH   9  10
ENDBRANCH   8   9
ENDBRANCH   7   8
ENDBRANCH   1   7
BRANCH   4  21
ATOM     21  C   UNL d   1      10.016  -0.322 -16.752  0.00  0.00     0.026 C 
BRANCH  21  22
ATOM     22  C   UNL d   1       9.254   0.255 -17.935  0.00  0.00    -0.021 A 
ATOM     23  C   UNL d   1       7.863   0.046 -18.053  0.00  0.00     0.017 A 
ATOM     24  C   UNL d   1       7.167   0.624 -19.131  0.00  0.00     0.106 A 
ATOM     25  C   UNL d   1       7.839   1.425 -20.079  0.00  0.00     0.112 A 
ATOM     26  N   UNL d   1       5.773   0.456 -19.249  0.00  0.00    -0.208 NA
ATOM     27  C   UNL d   1       9.217   1.665 -19.934  0.00  0.00     0.025 A 
ATOM     28  O   UNL d   1       7.143   2.008 -21.114  0.00  0.00    -0.319 OA
ATOM     29  C   UNL d   1       9.922   1.066 -18.874  0.00  0.00    -0.002 A 
ATOM     30  C   UNL d   1       5.934   1.354 -21.530  0.00  0.00     0.238 C 
ATOM     31  C   UNL d   1       5.103   0.829 -20.344  0.00  0.00     0.286 C 
ATOM     32  O   UNL d   1       3.882   0.789 -20.404  0.00  0.00    -0.267 OA
ENDBRANCH  21  22
ENDBRANCH   4  21
TORSDOF 6
