REMARK  4 active torsions:
REMARK  status: ('A' for Active; 'I' for Inactive)
REMARK    1  A    between atoms: O_2  and  C_3 
REMARK    2  A    between atoms: C_4  and  N_5 
REMARK    3  A    between atoms: C_18  and  C_19 
REMARK    4  A    between atoms: N_23  and  C_24 
ROOT
ATOM      1  C   UNL d   1       7.381   3.742 -13.240  0.00  0.00     0.128 A 
ATOM      2  C   UNL d   1       8.386   4.693 -12.853  0.00  0.00     0.108 A 
ATOM      3  C   UNL d   1       9.656   4.627 -13.466  0.00  0.00     0.158 A 
ATOM      4  F   UNL d   1      10.653   5.487 -13.174  0.00  0.00    -0.203 F 
ATOM      5  C   UNL d   1       9.954   3.645 -14.406  0.00  0.00     0.036 A 
ATOM      6  C   UNL d   1       8.991   2.700 -14.771  0.00  0.00     0.059 A 
ATOM      7  C   UNL d   1       9.396   1.727 -15.820  0.00  0.00     0.204 C 
ATOM      8  O   UNL d   1      10.551   1.702 -16.262  0.00  0.00    -0.286 OA
ATOM      9  C   UNL d   1       8.304   0.847 -16.317  0.00  0.00     0.120 C 
ATOM     10  C   UNL d   1       7.093   0.883 -15.660  0.00  0.00     0.085 C 
ATOM     11  N   UNL d   1       6.811   1.654 -14.553  0.00  0.00    -0.326 N 
ATOM     12  C   UNL d   1       7.691   2.695 -14.172  0.00  0.00     0.087 A 
ENDROOT
BRANCH   2  13
ATOM     13  N   UNL d   1       8.133   5.683 -11.875  0.00  0.00    -0.341 N 
ATOM     14  C   UNL d   1       8.912   6.917 -11.687  0.00  0.00     0.138 C 
ATOM     15  C   UNL d   1       9.931   6.730 -10.561  0.00  0.00     0.279 C 
ATOM     16  N   UNL d   1       9.268   6.341  -9.319  0.00  0.00     0.341 N 
ATOM     17  C   UNL d   1      10.654   8.052 -10.320  0.00  0.00     0.040 C 
ATOM     18  C   UNL d   1       8.626   5.059  -9.529  0.00  0.00     0.314 C 
ATOM     19  C   UNL d   1       7.564   5.241 -10.617  0.00  0.00     0.140 C 
ENDBRANCH   2  13
BRANCH   1  20
ATOM     20  O   UNL d   1       6.119   3.875 -12.701  0.00  0.00    -0.325 OA
ATOM     21  C   UNL d   1       5.151   4.376 -13.601  0.00  0.00     0.181 C 
ENDBRANCH   1  20
BRANCH  11  22
ATOM     22  C   UNL d   1       5.764   1.202 -13.602  0.00  0.00     0.086 A 
ATOM     23  C   UNL d   1       5.231  -0.221 -13.621  0.00  0.00     0.025 A 
ATOM     24  C   UNL d   1       6.109   0.228 -12.487  0.00  0.00     0.025 A 
ENDBRANCH  11  22
BRANCH   9  25
ATOM     25  C   UNL d   1       8.493  -0.076 -17.423  0.00  0.00     0.215 C 
ATOM     26  O   UNL d   1       9.568  -0.361 -17.971  0.00  0.00    -0.644 OA
ATOM     27  O   UNL d   1       7.329  -0.664 -17.815  0.00  0.00    -0.644 OA
ENDBRANCH   9  25
TORSDOF 4
