REMARK  7 active torsions:
REMARK  status: ('A' for Active; 'I' for Inactive)
REMARK    1  A    between atoms: C_2  and  C_3 
REMARK       I    between atoms: C_2  and  N_10 
REMARK    2  A    between atoms: C_3  and  C_4 
REMARK    3  A    between atoms: N_10  and  C_11 
REMARK    4  A    between atoms: N_14  and  C_15 
REMARK    5  A    between atoms: C_15  and  C_16 
REMARK    6  A    between atoms: C_16  and  C_17 
REMARK    7  A    between atoms: C_17  and  N_18 
ROOT
ATOM      1  C   UNL d   1      10.056   7.577  -8.756  0.00  0.00     0.110 C 
ATOM      2  C   UNL d   1       9.952   6.061  -8.865  0.00  0.00     0.060 C 
ATOM      3  C   UNL d   1       9.113   5.657 -10.083  0.00  0.00     0.252 C 
ATOM      4  N   UNL d   1       9.677   6.236 -11.301  0.00  0.00     0.137 N 
ATOM      5  C   UNL d   1       9.674   7.696 -11.233  0.00  0.00     0.252 C 
ATOM      6  C   UNL d   1      10.538   8.187 -10.069  0.00  0.00     0.060 C 
ENDROOT
BRANCH   4   7
ATOM      7  C   UNL d   1       8.924   5.818 -12.471  0.00  0.00     0.252 C 
BRANCH   7   8
ATOM      8  C   UNL d   1       9.386   4.448 -12.991  0.00  0.00     0.060 C 
BRANCH   8   9
ATOM      9  C   UNL d   1       8.928   4.228 -14.447  0.00  0.00     0.111 C 
BRANCH   9  10
ATOM     10  N   UNL d   1       8.917   2.796 -14.827  0.00  0.00    -0.295 N 
ATOM     11  C   UNL d   1       7.802   1.960 -14.458  0.00  0.00     0.085 A 
ATOM     12  C   UNL d   1       7.968   0.550 -14.479  0.00  0.00     0.110 A 
ATOM     13  C   UNL d   1       6.572   2.489 -13.996  0.00  0.00     0.019 A 
ATOM     14  O   UNL d   1       9.152   0.002 -14.905  0.00  0.00    -0.319 OA
ATOM     15  C   UNL d   1       6.934  -0.304 -14.043  0.00  0.00     0.026 A 
ATOM     16  C   UNL d   1       9.882   0.764 -15.858  0.00  0.00     0.236 C 
ATOM     17  C   UNL d   1       9.984   2.244 -15.457  0.00  0.00     0.268 C 
ATOM     18  O   UNL d   1      11.010   2.863 -15.737  0.00  0.00    -0.269 OA
ATOM     19  C   UNL d   1       5.714   0.239 -13.602  0.00  0.00     0.002 A 
ATOM     20  C   UNL d   1       5.549   1.631 -13.555  0.00  0.00     0.002 A 
ENDBRANCH   9  10
ENDBRANCH   8   9
ENDBRANCH   7   8
ENDBRANCH   4   7
BRANCH   1  21
ATOM     21  N   UNL d   1      10.995   7.967  -7.711  0.00  0.00    -0.240 NA
ATOM     22  C   UNL d   1      10.631   8.676  -6.643  0.00  0.00     0.256 C 
ATOM     23  O   UNL d   1       9.453   8.792  -6.302  0.00  0.00    -0.270 OA
BRANCH  22  24
ATOM     24  C   UNL d   1      11.730   9.364  -5.833  0.00  0.00     0.116 C 
BRANCH  24  25
ATOM     25  C   UNL d   1      11.908   8.695  -4.486  0.00  0.00    -0.013 A 
ATOM     26  C   UNL d   1      11.952   9.465  -3.299  0.00  0.00    -0.004 A 
ATOM     27  C   UNL d   1      12.250   8.843  -2.073  0.00  0.00    -0.000 A 
ATOM     28  C   UNL d   1      12.438   7.455  -2.030  0.00  0.00    -0.000 A 
ATOM     29  C   UNL d   1      12.341   6.684  -3.189  0.00  0.00    -0.000 A 
ATOM     30  C   UNL d   1      12.096   7.290  -4.419  0.00  0.00    -0.004 A 
ENDBRANCH  24  25
ENDBRANCH  22  24
ENDBRANCH   1  21
TORSDOF 7
