REMARK  10 active torsions:
REMARK  status: ('A' for Active; 'I' for Inactive)
REMARK    1  A    between atoms: C_2  and  O_3 
REMARK       I    between atoms: C_2  and  N_13 
REMARK    2  A    between atoms: O_3  and  C_4 
REMARK    3  A    between atoms: C_4  and  C_5 
REMARK    4  A    between atoms: C_5  and  C_6 
REMARK    5  A    between atoms: N_16  and  C_17 
REMARK    6  A    between atoms: C_17  and  C_18 
REMARK    7  A    between atoms: C_18  and  C_19 
REMARK    8  A    between atoms: C_19  and  C_20 
REMARK    9  A    between atoms: C_20  and  C_21 
REMARK   10  A    between atoms: C_20  and  C_28 
ROOT
ATOM      1  O   UNL d   1      10.014  -1.557 -18.320  0.00  0.00    -0.238 OA
ATOM      2  C   UNL d   1       9.601  -0.400 -18.442  0.00  0.00     0.365 C 
ATOM      3  N   UNL d   1       9.246   0.452 -17.392  0.00  0.00    -0.293 N 
ATOM      4  C   UNL d   1       9.233  -0.019 -16.007  0.00  0.00     0.142 C 
ATOM      5  C   UNL d   1      10.052   0.928 -15.118  0.00  0.00     0.274 C 
ATOM      6  N   UNL d   1       9.547   2.298 -15.226  0.00  0.00     0.141 N 
ATOM      7  C   UNL d   1       9.621   2.749 -16.614  0.00  0.00     0.274 C 
ATOM      8  C   UNL d   1       8.782   1.846 -17.533  0.00  0.00     0.142 C 
ENDROOT
BRANCH   6   9
ATOM      9  C   UNL d   1      10.310   3.198 -14.362  0.00  0.00     0.250 C 
BRANCH   9  10
ATOM     10  C   UNL d   1       9.334   3.922 -13.417  0.00  0.00     0.036 C 
BRANCH  10  11
ATOM     11  C   UNL d   1      10.018   4.474 -12.166  0.00  0.00     0.011 C 
BRANCH  11  12
ATOM     12  C   UNL d   1       9.130   5.151 -11.109  0.00  0.00     0.045 C 
BRANCH  12  13
ATOM     13  C   UNL d   1       8.085   5.993 -11.758  0.00  0.00    -0.018 C 
ATOM     14  C   UNL d   1       8.331   7.346 -12.114  0.00  0.00    -0.002 C 
ATOM     15  C   UNL d   1       7.271   8.126 -12.553  0.00  0.00     0.029 C 
ATOM     16  C   UNL d   1       6.023   7.582 -12.800  0.00  0.00     0.140 C 
ATOM     17  C   UNL d   1       5.826   6.203 -12.561  0.00  0.00     0.029 C 
ATOM     18  F   UNL d   1       5.105   8.370 -13.377  0.00  0.00    -0.204 F 
ATOM     19  C   UNL d   1       6.813   5.393 -12.006  0.00  0.00    -0.002 C 
ENDBRANCH  12  13
BRANCH  12  20
ATOM     20  C   UNL d   1       9.862   5.877  -9.967  0.00  0.00    -0.018 A 
ATOM     21  C   UNL d   1      10.629   7.054 -10.178  0.00  0.00    -0.002 A 
ATOM     22  C   UNL d   1      11.214   7.779  -9.127  0.00  0.00     0.029 A 
ATOM     23  C   UNL d   1      11.136   7.270  -7.820  0.00  0.00     0.140 A 
ATOM     24  C   UNL d   1      10.454   6.056  -7.611  0.00  0.00     0.029 A 
ATOM     25  F   UNL d   1      11.772   7.898  -6.804  0.00  0.00    -0.204 F 
ATOM     26  C   UNL d   1       9.801   5.364  -8.654  0.00  0.00    -0.002 A 
ENDBRANCH  12  20
ENDBRANCH  11  12
ENDBRANCH  10  11
ENDBRANCH   9  10
ENDBRANCH   6   9
BRANCH   2  27
ATOM     27  O   UNL d   1       9.406   0.208 -19.628  0.00  0.00    -0.285 OA
BRANCH  27  28
ATOM     28  C   UNL d   1       9.610  -0.465 -20.866  0.00  0.00     0.158 C 
BRANCH  28  29
ATOM     29  C   UNL d   1      10.666   0.266 -21.711  0.00  0.00     0.059 C 
BRANCH  29  30
ATOM     30  C   UNL d   1      12.069   0.108 -21.153  0.00  0.00    -0.019 A 
ATOM     31  C   UNL d   1      12.905  -0.922 -21.634  0.00  0.00    -0.002 A 
ATOM     32  C   UNL d   1      14.203  -1.083 -21.113  0.00  0.00     0.029 A 
ATOM     33  C   UNL d   1      14.674  -0.208 -20.117  0.00  0.00     0.140 A 
ATOM     34  C   UNL d   1      13.841   0.820 -19.633  0.00  0.00     0.029 A 
ATOM     35  F   UNL d   1      15.930  -0.354 -19.631  0.00  0.00    -0.204 F 
ATOM     36  C   UNL d   1      12.540   0.979 -20.148  0.00  0.00    -0.002 A 
ENDBRANCH  29  30
ENDBRANCH  28  29
ENDBRANCH  27  28
ENDBRANCH   2  27
TORSDOF 10
