REMARK  7 active torsions:
REMARK  status: ('A' for Active; 'I' for Inactive)
REMARK    1  A    between atoms: S_2  and  N_4 
REMARK    2  A    between atoms: S_2  and  C_22 
REMARK    3  A    between atoms: N_4  and  C_5 
REMARK    4  A    between atoms: N_8  and  C_9 
REMARK    5  A    between atoms: C_9  and  C_10 
REMARK    6  A    between atoms: C_10  and  C_11 
REMARK    7  A    between atoms: C_11  and  C_12 
ROOT
ATOM      1  C   UNL d   1       9.537   6.064  -9.627  0.00  0.00     0.151 C 
ATOM      2  C   UNL d   1       8.265   5.282  -9.352  0.00  0.00     0.063 C 
ATOM      3  C   UNL d   1       7.755   4.892 -10.744  0.00  0.00     0.252 C 
ATOM      4  N   UNL d   1       8.948   4.864 -11.573  0.00  0.00     0.139 N 
ATOM      5  C   UNL d   1       9.624   6.082 -11.155  0.00  0.00     0.275 C 
ENDROOT
BRANCH   1   6
ATOM      6  N   UNL d   1       9.463   7.426  -9.120  0.00  0.00    -0.185 NA
BRANCH   6   7
ATOM      7  S   UNL d   1      10.900   8.370  -8.990  0.00  0.00     0.281 S 
ATOM      8  O   UNL d   1      12.057   7.590  -9.465  0.00  0.00    -0.199 OA
ATOM      9  O   UNL d   1      10.595   9.639  -9.636  0.00  0.00    -0.199 OA
BRANCH   7  10
ATOM     10  C   UNL d   1      11.094   8.605  -7.221  0.00  0.00     0.105 A 
ATOM     11  C   UNL d   1      11.194   7.489  -6.371  0.00  0.00     0.013 A 
ATOM     12  C   UNL d   1      11.447   7.689  -4.994  0.00  0.00     0.001 A 
ATOM     13  C   UNL d   1      11.548   8.996  -4.457  0.00  0.00     0.000 A 
ATOM     14  C   UNL d   1      11.612   6.595  -4.136  0.00  0.00     0.000 A 
ATOM     15  C   UNL d   1      11.377  10.093  -5.300  0.00  0.00     0.001 A 
ATOM     16  C   UNL d   1      11.832   9.199  -3.096  0.00  0.00     0.000 A 
ATOM     17  C   UNL d   1      11.186   9.893  -6.663  0.00  0.00     0.013 A 
ATOM     18  C   UNL d   1      11.994   8.091  -2.253  0.00  0.00     0.000 A 
ATOM     19  C   UNL d   1      11.874   6.789  -2.771  0.00  0.00     0.000 A 
ENDBRANCH   7  10
ENDBRANCH   6   7
ENDBRANCH   1   6
BRANCH   4  20
ATOM     20  C   UNL d   1       8.616   4.864 -12.995  0.00  0.00     0.251 C 
BRANCH  20  21
ATOM     21  C   UNL d   1       9.874   4.632 -13.850  0.00  0.00     0.042 C 
BRANCH  21  22
ATOM     22  C   UNL d   1       9.593   4.678 -15.360  0.00  0.00     0.050 C 
BRANCH  22  23
ATOM     23  C   UNL d   1      10.854   4.604 -16.179  0.00  0.00     0.088 A 
ATOM     24  C   UNL d   1      11.179   3.804 -17.294  0.00  0.00     0.041 A 
ATOM     25  C   UNL d   1      12.474   4.116 -17.716  0.00  0.00     0.126 A 
ATOM     26  C   UNL d   1      10.436   2.831 -17.996  0.00  0.00     0.003 A 
ATOM     27  O   UNL d   1      12.910   5.109 -16.854  0.00  0.00    -0.211 OA
ATOM     28  C   UNL d   1      13.093   3.490 -18.807  0.00  0.00     0.027 A 
ATOM     29  N   UNL d   1      11.877   5.424 -15.929  0.00  0.00    -0.131 NA
ATOM     30  C   UNL d   1      12.355   2.511 -19.506  0.00  0.00     0.002 A 
ATOM     31  C   UNL d   1      11.036   2.186 -19.103  0.00  0.00     0.000 A 
ENDBRANCH  22  23
ENDBRANCH  21  22
ENDBRANCH  20  21
ENDBRANCH   4  20
TORSDOF 7
