REMARK  6 active torsions:
REMARK  status: ('A' for Active; 'I' for Inactive)
REMARK    1  A    between atoms: C_5  and  N_6 
REMARK    2  A    between atoms: N_9  and  C_10 
REMARK    3  A    between atoms: C_10  and  C_11 
REMARK    4  A    between atoms: C_11  and  C_12 
REMARK    5  A    between atoms: C_15  and  N_16 
REMARK       I    between atoms: N_16  and  C_17 
REMARK    6  A    between atoms: C_17  and  C_19 
ROOT
ATOM      1  C   UNL d   1       6.549  -0.379 -16.990  0.00  0.00     0.250 C 
ENDROOT
BRANCH   1   2
ATOM      2  N   UNL d   1       6.529  -0.895 -18.356  0.00  0.00     0.141 N 
ATOM      3  C   UNL d   1       7.210  -2.192 -18.412  0.00  0.00     0.274 C 
ATOM      4  C   UNL d   1       7.198  -2.748 -19.852  0.00  0.00     0.138 C 
ATOM      5  N   UNL d   1       5.829  -2.793 -20.348  0.00  0.00    -0.330 N 
ATOM      6  C   UNL d   1       5.073  -1.555 -20.235  0.00  0.00     0.138 C 
ATOM      7  C   UNL d   1       5.134  -1.055 -18.778  0.00  0.00     0.274 C 
BRANCH   5   8
ATOM      8  C   UNL d   1       5.263  -3.974 -20.821  0.00  0.00     0.138 A 
ATOM      9  N   UNL d   1       5.955  -4.650 -21.774  0.00  0.00    -0.228 NA
ATOM     10  C   UNL d   1       5.417  -5.773 -22.305  0.00  0.00     0.098 A 
ATOM     11  C   UNL d   1       4.173  -6.313 -21.903  0.00  0.00     0.019 A 
ATOM     12  C   UNL d   1       3.616  -7.590 -22.503  0.00  0.00     0.035 C 
ATOM     13  C   UNL d   1       3.477  -5.617 -20.897  0.00  0.00     0.090 A 
ATOM     14  C   UNL d   1       4.012  -4.455 -20.370  0.00  0.00     0.036 A 
ATOM     15  O   UNL d   1       2.286  -5.963 -20.330  0.00  0.00    -0.331 OA
ATOM     16  C   UNL d   1       3.120  -3.964 -19.273  0.00  0.00     0.064 C 
ATOM     17  C   UNL d   1       1.909  -4.909 -19.427  0.00  0.00     0.154 C 
ENDBRANCH   5   8
ENDBRANCH   1   2
BRANCH   1  18
ATOM     18  C   UNL d   1       7.931   0.200 -16.617  0.00  0.00     0.035 C 
BRANCH  18  19
ATOM     19  C   UNL d   1       7.936   1.080 -15.351  0.00  0.00     0.002 C 
ATOM     20  C   UNL d   1       6.720   2.021 -15.263  0.00  0.00     0.002 C 
ATOM     21  C   UNL d   1       6.751   2.943 -14.048  0.00  0.00     0.024 C 
ATOM     22  C   UNL d   1       8.059   3.743 -13.965  0.00  0.00     0.106 C 
ATOM     23  C   UNL d   1       9.286   2.796 -14.054  0.00  0.00     0.024 C 
ATOM     24  C   UNL d   1       9.239   1.901 -15.295  0.00  0.00     0.002 C 
BRANCH  22  25
ATOM     25  N   UNL d   1       8.050   4.505 -12.725  0.00  0.00    -0.240 NA
ATOM     26  C   UNL d   1       9.023   5.342 -12.366  0.00  0.00     0.251 C 
ATOM     27  O   UNL d   1       9.980   5.582 -13.103  0.00  0.00    -0.271 OA
BRANCH  26  28
ATOM     28  C   UNL d   1       8.902   5.982 -10.982  0.00  0.00     0.086 C 
ATOM     29  C   UNL d   1       8.868   4.915  -9.876  0.00  0.00     0.042 C 
ATOM     30  C   UNL d   1       8.840   5.573  -8.494  0.00  0.00     0.143 C 
ATOM     31  O   UNL d   1       9.967   6.427  -8.335  0.00  0.00    -0.354 OA
ATOM     32  C   UNL d   1       9.958   7.513  -9.255  0.00  0.00     0.143 C 
ATOM     33  C   UNL d   1      10.046   6.970 -10.688  0.00  0.00     0.042 C 
ENDBRANCH  26  28
ENDBRANCH  22  25
ENDBRANCH  18  19
ENDBRANCH   1  18
TORSDOF 6
