REMARK  4 active torsions:
REMARK  status: ('A' for Active; 'I' for Inactive)
REMARK    1  A    between atoms: C_6  and  C_7 
REMARK    2  A    between atoms: N_11  and  C_12 
REMARK    3  A    between atoms: N_15  and  C_16 
REMARK    4  A    between atoms: C_16  and  C_17 
ROOT
ATOM      1  N   UNL d   1      16.688   7.175 -20.223  0.00  0.00    -0.191 NA
ATOM      2  C   UNL d   1      16.443   6.633 -19.230  0.00  0.00     0.111 C 
ATOM      3  C   UNL d   1      16.186   5.937 -18.014  0.00  0.00     0.138 C 
ATOM      4  C   UNL d   1      17.115   5.985 -16.935  0.00  0.00     0.111 C 
ATOM      5  N   UNL d   1      17.855   5.990 -16.039  0.00  0.00    -0.191 NA
ATOM      6  C   UNL d   1      15.060   5.216 -17.838  0.00  0.00     0.038 C 
ENDROOT
BRANCH   6   7
ATOM      7  C   UNL d   1      13.959   4.966 -18.734  0.00  0.00     0.061 A 
ATOM      8  N   UNL d   1      12.725   4.495 -18.278  0.00  0.00    -0.328 N 
ATOM      9  C   UNL d   1      11.876   4.371 -19.370  0.00  0.00     0.076 A 
ATOM     10  C   UNL d   1      12.542   4.752 -20.495  0.00  0.00     0.020 A 
ATOM     11  C   UNL d   1      13.844   5.147 -20.089  0.00  0.00     0.019 A 
BRANCH   8  12
ATOM     12  C   UNL d   1      12.305   4.197 -16.905  0.00  0.00     0.090 C 
ATOM     13  C   UNL d   1      11.244   5.189 -16.409  0.00  0.00     0.058 C 
ATOM     14  C   UNL d   1      10.782   4.800 -15.002  0.00  0.00     0.253 C 
ATOM     15  N   UNL d   1      10.225   3.445 -14.992  0.00  0.00     0.141 N 
ATOM     16  C   UNL d   1      11.273   2.486 -15.358  0.00  0.00     0.253 C 
ATOM     17  C   UNL d   1      11.771   2.759 -16.784  0.00  0.00     0.058 C 
BRANCH  15  18
ATOM     18  C   UNL d   1       9.721   3.113 -13.669  0.00  0.00     0.277 C 
BRANCH  18  19
ATOM     19  C   UNL d   1       8.534   3.954 -13.236  0.00  0.00     0.011 A 
ATOM     20  C   UNL d   1       8.731   5.091 -12.423  0.00  0.00    -0.002 A 
ATOM     21  C   UNL d   1       7.635   5.881 -12.037  0.00  0.00    -0.000 A 
ATOM     22  C   UNL d   1       6.331   5.523 -12.435  0.00  0.00    -0.000 A 
ATOM     23  C   UNL d   1       6.129   4.383 -13.235  0.00  0.00    -0.000 A 
ATOM     24  C   UNL d   1       7.231   3.602 -13.638  0.00  0.00    -0.002 A 
ENDBRANCH  18  19
ENDBRANCH  15  18
ENDBRANCH   8  12
ENDBRANCH   6   7
TORSDOF 4
