REMARK  6 active torsions:
REMARK  status: ('A' for Active; 'I' for Inactive)
REMARK    1  A    between atoms: C_2  and  C_3 
REMARK       I    between atoms: C_2  and  N_20 
REMARK    2  A    between atoms: C_3  and  C_4 
REMARK    3  A    between atoms: C_4  and  C_5 
REMARK    4  A    between atoms: C_5  and  N_6 
REMARK    5  A    between atoms: N_9  and  C_10 
REMARK    6  A    between atoms: N_20  and  C_21 
ROOT
ATOM      1  C   UNL d   1       9.202   5.059 -11.386  0.00  0.00     0.251 C 
ENDROOT
BRANCH   1   2
ATOM      2  C   UNL d   1       8.650   6.389 -10.870  0.00  0.00     0.045 C 
BRANCH   2   3
ATOM      3  C   UNL d   1       9.723   7.343 -10.304  0.00  0.00     0.092 C 
BRANCH   3   4
ATOM      4  C   UNL d   1      10.025   7.093  -8.829  0.00  0.00     0.256 C 
ATOM      5  O   UNL d   1      10.031   5.944  -8.382  0.00  0.00    -0.270 OA
ATOM      6  N   UNL d   1      10.291   8.200  -8.114  0.00  0.00    -0.212 NA
BRANCH   6   7
ATOM      7  C   UNL d   1      10.689   8.325  -6.757  0.00  0.00     0.087 A 
ATOM      8  C   UNL d   1      11.064   7.257  -5.957  0.00  0.00     0.038 A 
ATOM      9  C   UNL d   1      11.465   7.504  -4.621  0.00  0.00     0.086 A 
ATOM     10  N   UNL d   1      11.466   8.831  -4.146  0.00  0.00    -0.228 N 
ATOM     11  C   UNL d   1      11.883   6.733  -3.575  0.00  0.00     0.042 A 
ATOM     12  C   UNL d   1      11.098   9.882  -4.921  0.00  0.00     0.102 A 
ATOM     13  N   UNL d   1      11.878   8.900  -2.841  0.00  0.00    -0.164 NA
ATOM     14  C   UNL d   1      10.736   9.642  -6.226  0.00  0.00     0.040 A 
ATOM     15  C   UNL d   1      12.118   7.646  -2.522  0.00  0.00     0.122 A 
ENDBRANCH   6   7
ENDBRANCH   3   4
ENDBRANCH   2   3
ENDBRANCH   1   2
BRANCH   1  16
ATOM     16  N   UNL d   1       8.534   4.669 -12.620  0.00  0.00     0.141 N 
ATOM     17  C   UNL d   1       9.304   3.570 -13.209  0.00  0.00     0.274 C 
ATOM     18  C   UNL d   1       8.665   3.123 -14.535  0.00  0.00     0.137 C 
ATOM     19  N   UNL d   1       7.256   2.795 -14.350  0.00  0.00    -0.344 N 
ATOM     20  C   UNL d   1       6.468   3.817 -13.665  0.00  0.00     0.137 C 
ATOM     21  C   UNL d   1       7.142   4.267 -12.354  0.00  0.00     0.274 C 
BRANCH  19  22
ATOM     22  C   UNL d   1       6.692   1.590 -14.807  0.00  0.00     0.068 A 
ATOM     23  C   UNL d   1       6.913   1.080 -16.116  0.00  0.00     0.084 A 
ATOM     24  C   UNL d   1       6.319  -0.141 -16.503  0.00  0.00     0.070 A 
ATOM     25 CL   UNL d   1       7.847   1.956 -17.287  0.00  0.00    -0.080 Cl
ATOM     26  C   UNL d   1       5.486  -0.835 -15.612  0.00  0.00     0.012 A 
ATOM     27 CL   UNL d   1       6.571  -0.784 -18.083  0.00  0.00    -0.081 Cl
ATOM     28  C   UNL d   1       5.245  -0.329 -14.329  0.00  0.00     0.002 A 
ATOM     29  C   UNL d   1       5.849   0.872 -13.924  0.00  0.00     0.018 A 
ENDBRANCH  19  22
ENDBRANCH   1  16
TORSDOF 6
