REMARK  1 active torsions:
REMARK  status: ('A' for Active; 'I' for Inactive)
REMARK    1  A    between atoms: N_5  and  C_6 
ROOT
ATOM      1  C   UNL d   1       9.090   3.329 -14.297  0.00  0.00     0.056 C 
ATOM      2  C   UNL d   1       8.555   2.163 -14.752  0.00  0.00     0.017 C 
ATOM      3  C   UNL d   1       7.354   1.484 -14.263  0.00  0.00    -0.002 C 
ATOM      4  C   UNL d   1       7.362   0.077 -14.212  0.00  0.00    -0.000 C 
ATOM      5  C   UNL d   1       6.251  -0.629 -13.714  0.00  0.00    -0.000 C 
ATOM      6  C   UNL d   1       5.121   0.077 -13.262  0.00  0.00    -0.000 C 
ATOM      7  C   UNL d   1       5.145   1.477 -13.203  0.00  0.00    -0.004 C 
ATOM      8  C   UNL d   1       6.231   2.174 -13.747  0.00  0.00    -0.018 C 
ATOM      9  C   UNL d   1       6.152   3.675 -13.806  0.00  0.00     0.053 C 
ATOM     10  C   UNL d   1       7.194   4.307 -12.917  0.00  0.00    -0.016 A 
ATOM     11  C   UNL d   1       6.752   5.049 -11.810  0.00  0.00    -0.003 A 
ATOM     12  C   UNL d   1       7.682   5.574 -10.904  0.00  0.00     0.011 A 
ATOM     13  C   UNL d   1       9.047   5.409 -11.107  0.00  0.00     0.058 A 
ATOM     14 CL   UNL d   1      10.060   6.161  -9.929  0.00  0.00    -0.082 Cl
ATOM     15  C   UNL d   1       9.497   4.668 -12.220  0.00  0.00     0.013 A 
ATOM     16  C   UNL d   1       8.571   4.112 -13.147  0.00  0.00     0.013 A 
ENDROOT
BRANCH   1  17
ATOM     17  N   UNL d   1      10.172   3.897 -14.932  0.00  0.00    -0.344 N 
ATOM     18  C   UNL d   1      10.101   5.168 -15.639  0.00  0.00     0.137 C 
ATOM     19  C   UNL d   1      10.546   5.021 -17.109  0.00  0.00     0.274 C 
ATOM     20  N   UNL d   1      11.902   4.477 -17.156  0.00  0.00     0.143 N 
ATOM     21  C   UNL d   1      12.341   4.373 -18.541  0.00  0.00     0.286 C 
ATOM     22  C   UNL d   1      11.895   3.150 -16.544  0.00  0.00     0.274 C 
ATOM     23  C   UNL d   1      11.476   3.261 -15.065  0.00  0.00     0.137 C 
ENDBRANCH   1  17
TORSDOF 1
