REMARK  3 active torsions:
REMARK  status: ('A' for Active; 'I' for Inactive)
REMARK    1  A    between atoms: C_4  and  C_5 
REMARK    2  A    between atoms: C_8  and  N_9 
REMARK    3  A    between atoms: N_12  and  C_13 
ROOT
ATOM      1  C   UNL d   1       7.870   3.783 -13.398  0.00  0.00     0.153 C 
ATOM      2  N   UNL d   1       7.138   4.110 -12.368  0.00  0.00    -0.251 NA
ATOM      3  C   UNL d   1       7.352   5.364 -11.646  0.00  0.00     0.161 C 
ATOM      4  C   UNL d   1       8.757   5.424 -11.003  0.00  0.00     0.245 C 
ATOM      5  C   UNL d   1       9.735   5.873 -12.087  0.00  0.00     0.062 C 
ATOM      6  C   UNL d   1      10.061   4.809 -13.102  0.00  0.00     0.129 C 
ATOM      7  N   UNL d   1       8.911   4.532 -13.926  0.00  0.00    -0.253 NA
ENDROOT
BRANCH   4   8
ATOM      8  N   UNL d   1       8.777   6.307  -9.817  0.00  0.00     0.141 N 
ATOM      9  C   UNL d   1       8.869   5.556  -8.567  0.00  0.00     0.274 C 
ATOM     10  C   UNL d   1       8.766   6.481  -7.324  0.00  0.00     0.137 C 
ATOM     11  N   UNL d   1       9.709   7.585  -7.399  0.00  0.00    -0.344 N 
ATOM     12  C   UNL d   1       9.598   8.353  -8.632  0.00  0.00     0.137 C 
ATOM     13  C   UNL d   1       9.760   7.413  -9.803  0.00  0.00     0.274 C 
BRANCH  11  14
ATOM     14  C   UNL d   1      10.623   7.903  -6.372  0.00  0.00     0.056 A 
ATOM     15  C   UNL d   1      11.259   9.171  -6.325  0.00  0.00     0.017 A 
ATOM     16  C   UNL d   1      12.176   9.464  -5.315  0.00  0.00     0.002 A 
ATOM     17  C   UNL d   1      12.451   8.541  -4.283  0.00  0.00     0.000 A 
ATOM     18  C   UNL d   1      11.832   7.273  -4.325  0.00  0.00     0.002 A 
ATOM     19  C   UNL d   1      10.942   6.968  -5.352  0.00  0.00     0.017 A 
ENDBRANCH  11  14
ENDBRANCH   4   8
BRANCH   1  20
ATOM     20  C   UNL d   1       7.619   2.494 -14.082  0.00  0.00     0.035 A 
ATOM     21  C   UNL d   1       6.323   1.953 -14.124  0.00  0.00     0.003 A 
ATOM     22  C   UNL d   1       6.085   0.753 -14.823  0.00  0.00     0.000 A 
ATOM     23  C   UNL d   1       7.143   0.093 -15.469  0.00  0.00     0.000 A 
ATOM     24  C   UNL d   1       8.452   0.606 -15.398  0.00  0.00     0.000 A 
ATOM     25  C   UNL d   1       8.694   1.797 -14.694  0.00  0.00     0.003 A 
ENDBRANCH   1  20
TORSDOF 3
