REMARK  5 active torsions:
REMARK  status: ('A' for Active; 'I' for Inactive)
REMARK    1  A    between atoms: S_2  and  C_4 
REMARK    2  A    between atoms: S_2  and  N_11 
REMARK    3  A    between atoms: C_14  and  C_15 
REMARK    4  A    between atoms: C_15  and  C_16 
REMARK    5  A    between atoms: C_16  and  C_17 
ROOT
ATOM      1  N   UNL d   1      10.115   7.117  -8.845  0.00  0.00    -0.274 N 
ATOM      2  C   UNL d   1       9.344   5.946  -8.381  0.00  0.00     0.113 C 
ATOM      3  C   UNL d   1       8.336   5.375  -9.350  0.00  0.00     0.025 C 
ATOM      4  C   UNL d   1       8.906   5.189 -10.746  0.00  0.00     0.004 C 
ATOM      5  C   UNL d   1       9.526   6.545 -11.164  0.00  0.00     0.025 C 
ATOM      6  C   UNL d   1      10.595   7.069 -10.218  0.00  0.00     0.113 C 
ENDROOT
BRANCH   1   7
ATOM      7  S   UNL d   1      10.174   8.595  -7.957  0.00  0.00     0.266 S 
ATOM      8  O   UNL d   1       8.795   8.976  -7.666  0.00  0.00    -0.200 OA
ATOM      9  O   UNL d   1      11.055   9.491  -8.725  0.00  0.00    -0.200 OA
BRANCH   7  10
ATOM     10  C   UNL d   1      10.974   8.206  -6.396  0.00  0.00     0.131 A 
ATOM     11  C   UNL d   1      11.670   9.249  -5.694  0.00  0.00     0.152 A 
ATOM     12  C   UNL d   1      12.272   8.952  -4.433  0.00  0.00     0.030 A 
ATOM     13  F   UNL d   1      11.774  10.512  -6.197  0.00  0.00    -0.203 F 
ATOM     14  C   UNL d   1      12.188   7.633  -3.887  0.00  0.00     0.002 A 
ATOM     15  C   UNL d   1      11.476   6.653  -4.618  0.00  0.00     0.001 A 
ATOM     16  C   UNL d   1      10.900   6.931  -5.822  0.00  0.00     0.015 A 
ENDBRANCH   7  10
ENDBRANCH   1   7
BRANCH   4  17
ATOM     17  C   UNL d   1       7.753   4.739 -11.676  0.00  0.00     0.005 C 
BRANCH  17  18
ATOM     18  C   UNL d   1       7.995   4.896 -13.193  0.00  0.00     0.029 C 
BRANCH  18  19
ATOM     19  C   UNL d   1       8.754   3.719 -13.760  0.00  0.00     0.005 A 
ATOM     20  C   UNL d   1      10.156   3.715 -13.950  0.00  0.00     0.138 A 
ATOM     21  C   UNL d   1      10.796   2.585 -14.495  0.00  0.00     0.059 A 
ATOM     22  F   UNL d   1      10.910   4.793 -13.638  0.00  0.00    -0.204 F 
ATOM     23  C   UNL d   1      10.045   1.446 -14.843  0.00  0.00     0.142 A 
ATOM     24  C   UNL d   1       8.651   1.432 -14.633  0.00  0.00     0.029 A 
ATOM     25  F   UNL d   1      10.663   0.360 -15.359  0.00  0.00    -0.204 F 
ATOM     26  C   UNL d   1       8.013   2.567 -14.088  0.00  0.00     0.000 A 
ENDBRANCH  18  19
ENDBRANCH  17  18
ENDBRANCH   4  17
TORSDOF 5
