REMARK  5 active torsions:
REMARK  status: ('A' for Active; 'I' for Inactive)
REMARK       I    between atoms: C_2  and  N_4 
REMARK    1  A    between atoms: N_4  and  C_5 
REMARK    2  A    between atoms: C_11  and  C_12 
REMARK    3  A    between atoms: C_12  and  C_13 
REMARK    4  A    between atoms: C_13  and  N_14 
REMARK    5  A    between atoms: N_17  and  C_18 
ROOT
ATOM      1  N   UNL d   1       9.312   5.860  -9.924  0.00  0.00     0.141 N 
ATOM      2  C   UNL d   1       9.811   7.214 -10.187  0.00  0.00     0.274 C 
ATOM      3  C   UNL d   1      11.086   7.471  -9.375  0.00  0.00     0.138 C 
ATOM      4  N   UNL d   1      10.827   7.280  -7.949  0.00  0.00    -0.329 N 
ATOM      5  C   UNL d   1      10.184   6.016  -7.619  0.00  0.00     0.138 C 
ATOM      6  C   UNL d   1       8.957   5.776  -8.502  0.00  0.00     0.274 C 
ENDROOT
BRANCH   1   7
ATOM      7  C   UNL d   1       8.105   5.584 -10.689  0.00  0.00     0.255 C 
BRANCH   7   8
ATOM      8  C   UNL d   1       8.253   5.805 -12.201  0.00  0.00     0.062 C 
BRANCH   8   9
ATOM      9  C   UNL d   1       8.283   4.519 -12.987  0.00  0.00    -0.020 A 
ATOM     10  C   UNL d   1       7.079   3.917 -13.429  0.00  0.00    -0.005 A 
ATOM     11  C   UNL d   1       7.111   2.742 -14.215  0.00  0.00    -0.005 A 
ATOM     12  C   UNL d   1       8.370   2.196 -14.540  0.00  0.00    -0.024 A 
ATOM     13  C   UNL d   1       8.650   0.964 -15.356  0.00  0.00     0.028 C 
ATOM     14  C   UNL d   1       9.556   2.777 -14.092  0.00  0.00    -0.004 A 
ATOM     15  C   UNL d   1      10.176   0.750 -15.216  0.00  0.00     0.034 C 
ATOM     16  C   UNL d   1      10.773   2.040 -14.590  0.00  0.00     0.129 C 
ATOM     17  C   UNL d   1       9.529   3.928 -13.288  0.00  0.00    -0.007 A 
BRANCH  16  18
ATOM     18  N   UNL d   1      11.506   2.803 -15.600  0.00  0.00    -0.235 NA
ATOM     19  C   UNL d   1      12.281   3.878 -15.382  0.00  0.00     0.252 C 
ATOM     20  C   UNL d   1      12.961   4.478 -16.605  0.00  0.00     0.100 C 
ATOM     21  O   UNL d   1      12.488   4.371 -14.270  0.00  0.00    -0.271 OA
ENDBRANCH  16  18
ENDBRANCH   8   9
ENDBRANCH   7   8
ENDBRANCH   1   7
BRANCH   4  22
ATOM     22  C   UNL d   1      11.088   8.267  -6.977  0.00  0.00     0.148 A 
ATOM     23  C   UNL d   1      11.402   7.972  -5.588  0.00  0.00     0.042 A 
ATOM     24  C   UNL d   1      11.642   9.191  -4.880  0.00  0.00     0.050 A 
ATOM     25  C   UNL d   1      11.550   6.788  -4.839  0.00  0.00     0.004 A 
ATOM     26  S   UNL d   1      11.508  10.495  -6.036  0.00  0.00     0.015 SA
ATOM     27  C   UNL d   1      11.944   9.232  -3.505  0.00  0.00     0.008 A 
ATOM     28  N   UNL d   1      11.107   9.531  -7.331  0.00  0.00    -0.192 NA
ATOM     29  C   UNL d   1      12.051   8.025  -2.791  0.00  0.00     0.001 A 
ATOM     30  C   UNL d   1      11.866   6.808  -3.465  0.00  0.00     0.000 A 
ENDBRANCH   4  22
TORSDOF 5
