REMARK  1 active torsions:
REMARK  status: ('A' for Active; 'I' for Inactive)
REMARK    1  A    between atoms: C_2  and  C_3 
ROOT
ATOM      1  C   UNL d   1      11.067   8.135  -5.490  0.00  0.00     0.011 A 
ATOM      2  C   UNL d   1      11.273   9.380  -4.857  0.00  0.00    -0.002 A 
ATOM      3  C   UNL d   1      11.858   9.434  -3.578  0.00  0.00    -0.000 A 
ATOM      4  C   UNL d   1      12.244   8.246  -2.927  0.00  0.00    -0.000 A 
ATOM      5  C   UNL d   1      12.039   7.003  -3.554  0.00  0.00    -0.000 A 
ATOM      6  C   UNL d   1      11.453   6.946  -4.834  0.00  0.00    -0.002 A 
ENDROOT
BRANCH   1   7
ATOM      7  C   UNL d   1      10.434   8.075  -6.866  0.00  0.00     0.209 C 
ATOM      8  O   UNL d   1       9.061   8.387  -6.838  0.00  0.00    -0.215 OA
ENDBRANCH   1   7
TORSDOF 1
