REMARK  6 active torsions:
REMARK  status: ('A' for Active; 'I' for Inactive)
REMARK    1  A    between atoms: C_2  and  C_3 
REMARK    2  A    between atoms: C_3  and  C_4 
REMARK    3  A    between atoms: C_4  and  C_5 
REMARK    4  A    between atoms: C_5  and  C_6 
REMARK    5  A    between atoms: C_6  and  N_7 
REMARK    6  A    between atoms: C_10  and  C_11 
ROOT
ATOM      1  N   UNL d   1      10.942   7.614  -9.591  0.00  0.00     0.137 N 
ATOM      2  C   UNL d   1      12.034   8.574  -9.561  0.00  0.00     0.251 C 
ATOM      3  C   UNL d   1      12.757   8.236  -8.268  0.00  0.00     0.042 C 
ATOM      4  C   UNL d   1      11.681   7.610  -7.372  0.00  0.00     0.058 C 
ATOM      5  C   UNL d   1      10.420   7.613  -8.235  0.00  0.00     0.255 C 
ENDROOT
BRANCH   4   6
ATOM      6  C   UNL d   1      11.489   8.338  -6.053  0.00  0.00    -0.018 A 
ATOM      7  C   UNL d   1      11.809   7.703  -4.827  0.00  0.00     0.023 A 
ATOM      8  C   UNL d   1      11.723   8.424  -3.622  0.00  0.00     0.131 A 
ATOM      9  C   UNL d   1      11.295   9.762  -3.634  0.00  0.00     0.027 A 
ATOM     10  O   UNL d   1      12.008   7.820  -2.431  0.00  0.00    -0.190 OA
ATOM     11  C   UNL d   1      10.964  10.385  -4.845  0.00  0.00     0.002 A 
ATOM     12  C   UNL d   1      11.081   9.686  -6.053  0.00  0.00    -0.004 A 
ENDBRANCH   4   6
BRANCH   1  13
ATOM     13  C   UNL d   1       9.912   8.024 -10.539  0.00  0.00     0.250 C 
BRANCH  13  14
ATOM     14  C   UNL d   1       9.434   6.826 -11.351  0.00  0.00     0.035 C 
BRANCH  14  15
ATOM     15  C   UNL d   1       8.659   5.777 -10.540  0.00  0.00     0.002 C 
BRANCH  15  16
ATOM     16  C   UNL d   1       8.105   4.626 -11.399  0.00  0.00     0.000 C 
BRANCH  16  17
ATOM     17  C   UNL d   1       7.279   5.050 -12.630  0.00  0.00     0.000 C 
ATOM     18  C   UNL d   1       5.991   5.788 -12.245  0.00  0.00     0.000 C 
ENDBRANCH  16  17
ENDBRANCH  15  16
ENDBRANCH  14  15
ENDBRANCH  13  14
ENDBRANCH   1  13
TORSDOF 6
