REMARK  6 active torsions:
REMARK  status: ('A' for Active; 'I' for Inactive)
REMARK    1  A    between atoms: C_2  and  C_3 
REMARK    2  A    between atoms: C_3  and  N_4 
REMARK    3  A    between atoms: N_4  and  C_5 
REMARK    4  A    between atoms: C_13  and  C_14 
REMARK    5  A    between atoms: C_14  and  S_15 
REMARK    6  A    between atoms: S_15  and  C_18 
ROOT
ATOM      1  C   UNL d   1       8.996   5.384 -11.392  0.00  0.00     0.261 C 
ATOM      2  C   UNL d   1       9.422   5.703 -12.810  0.00  0.00     0.041 C 
ATOM      3  C   UNL d   1       9.290   4.477 -13.685  0.00  0.00     0.028 C 
ATOM      4  C   UNL d   1       7.943   3.771 -13.566  0.00  0.00    -0.029 A 
ATOM      5  C   UNL d   1       7.095   4.049 -12.460  0.00  0.00    -0.024 A 
ATOM      6  C   UNL d   1       5.864   3.384 -12.304  0.00  0.00    -0.004 A 
ATOM      7  C   UNL d   1       5.489   2.394 -13.237  0.00  0.00    -0.001 A 
ATOM      8  C   UNL d   1       6.324   2.108 -14.327  0.00  0.00    -0.004 A 
ATOM      9  C   UNL d   1       7.551   2.786 -14.513  0.00  0.00    -0.010 A 
ATOM     10  C   UNL d   1       7.509   5.045 -11.379  0.00  0.00     0.062 C 
ENDROOT
BRANCH   9  11
ATOM     11  C   UNL d   1       8.410   2.437 -15.731  0.00  0.00     0.157 C 
BRANCH  11  12
ATOM     12  S   UNL d   1       9.621   1.129 -15.320  0.00  0.00     0.262 S 
ATOM     13  O   UNL d   1      10.719   1.687 -14.524  0.00  0.00    -0.217 OA
ATOM     14  O   UNL d   1       8.854  -0.020 -14.811  0.00  0.00    -0.217 OA
BRANCH  12  15
ATOM     15  C   UNL d   1      10.299   0.704 -16.967  0.00  0.00     0.499 C 
ATOM     16  F   UNL d   1      11.045   1.728 -17.395  0.00  0.00    -0.157 F 
ATOM     17  F   UNL d   1      11.056  -0.386 -16.857  0.00  0.00    -0.157 F 
ATOM     18  F   UNL d   1       9.297   0.481 -17.820  0.00  0.00    -0.157 F 
ENDBRANCH  12  15
ENDBRANCH  11  12
ENDBRANCH   9  11
BRANCH   1  19
ATOM     19  N   UNL d   1       9.283   6.547 -10.554  0.00  0.00     0.337 N 
BRANCH  19  20
ATOM     20  C   UNL d   1       9.457   6.206  -9.156  0.00  0.00     0.290 C 
BRANCH  20  21
ATOM     21  C   UNL d   1      10.243   7.329  -8.453  0.00  0.00     0.038 C 
ATOM     22  C   UNL d   1       9.421   8.601  -8.222  0.00  0.00     0.002 C 
ENDBRANCH  20  21
ENDBRANCH  19  20
ENDBRANCH   1  19
TORSDOF 6
