REMARK  7 active torsions:
REMARK  status: ('A' for Active; 'I' for Inactive)
REMARK    1  A    between atoms: C_8  and  O_9 
REMARK    2  A    between atoms: O_9  and  C_10 
REMARK    3  A    between atoms: C_10  and  C_11 
REMARK    4  A    between atoms: C_11  and  C_12 
REMARK    5  A    between atoms: C_12  and  C_13 
REMARK    6  A    between atoms: C_13  and  N_14 
REMARK    7  A    between atoms: N_17  and  C_18 
ROOT
ATOM      1  N   UNL d   1       8.324   6.279 -12.090  0.00  0.00     0.141 N 
ATOM      2  C   UNL d   1       7.016   5.718 -11.796  0.00  0.00     0.274 C 
ATOM      3  C   UNL d   1       7.161   4.217 -11.695  0.00  0.00     0.137 C 
ATOM      4  N   UNL d   1       7.649   3.725 -12.992  0.00  0.00    -0.343 N 
ATOM      5  C   UNL d   1       8.944   4.292 -13.356  0.00  0.00     0.137 C 
ATOM      6  C   UNL d   1       8.774   5.786 -13.390  0.00  0.00     0.274 C 
ENDROOT
BRANCH   1   7
ATOM      7  C   UNL d   1       8.172   7.721 -12.194  0.00  0.00     0.251 C 
BRANCH   7   8
ATOM      8  C   UNL d   1       9.402   8.463 -11.694  0.00  0.00     0.038 C 
BRANCH   8   9
ATOM      9  C   UNL d   1       9.460   8.573 -10.170  0.00  0.00     0.035 C 
BRANCH   9  10
ATOM     10  C   UNL d   1      10.835   8.893  -9.589  0.00  0.00     0.149 C 
BRANCH  10  11
ATOM     11  O   UNL d   1      10.762   9.555  -8.334  0.00  0.00    -0.331 OA
BRANCH  11  12
ATOM     12  C   UNL d   1      10.862   8.798  -7.205  0.00  0.00     0.096 A 
ATOM     13  C   UNL d   1      10.418   7.465  -7.124  0.00  0.00     0.024 A 
ATOM     14  C   UNL d   1      10.672   6.736  -5.966  0.00  0.00    -0.001 A 
ATOM     15  C   UNL d   1      11.341   7.304  -4.876  0.00  0.00    -0.004 A 
ATOM     16  C   UNL d   1      11.658   6.496  -3.640  0.00  0.00     0.038 C 
ATOM     17  C   UNL d   1      11.727   8.650  -4.921  0.00  0.00     0.082 A 
ATOM     18  C   UNL d   1      11.650   7.338  -2.378  0.00  0.00     0.095 C 
ATOM     19  C   UNL d   1      12.403   8.619  -2.589  0.00  0.00     0.256 C 
ATOM     20  O   UNL d   1      12.990   9.047  -1.621  0.00  0.00    -0.270 OA
ATOM     21  N   UNL d   1      12.381   9.206  -3.808  0.00  0.00    -0.212 NA
ATOM     22  C   UNL d   1      11.483   9.393  -6.088  0.00  0.00     0.043 A 
ENDBRANCH  11  12
ENDBRANCH  10  11
ENDBRANCH   9  10
ENDBRANCH   8   9
ENDBRANCH   7   8
ENDBRANCH   1   7
BRANCH   4  23
ATOM     23  C   UNL d   1       7.097   2.603 -13.652  0.00  0.00     0.080 C 
ATOM     24  C   UNL d   1       7.847   1.782 -14.533  0.00  0.00     0.130 C 
ATOM     25  C   UNL d   1       7.237   0.746 -15.243  0.00  0.00     0.133 C 
ATOM     26  O   UNL d   1       9.220   1.877 -14.643  0.00  0.00    -0.318 OA
ATOM     27  C   UNL d   1       5.923   0.314 -14.935  0.00  0.00     0.151 C 
ATOM     28  N   UNL d   1       7.996  -0.015 -16.173  0.00  0.00    -0.205 NA
ATOM     29  C   UNL d   1       5.218   1.030 -13.945  0.00  0.00     0.031 C 
ATOM     30  O   UNL d   1       5.303  -0.685 -15.627  0.00  0.00    -0.189 OA
ATOM     31  C   UNL d   1       5.766   2.195 -13.380  0.00  0.00     0.021 C 
ATOM     32  C   UNL d   1       9.265   0.283 -16.489  0.00  0.00     0.287 C 
ATOM     33  C   UNL d   1       9.772   1.615 -15.937  0.00  0.00     0.238 C 
ATOM     34  O   UNL d   1      10.006  -0.494 -17.131  0.00  0.00    -0.267 OA
ENDBRANCH   4  23
TORSDOF 7
