REMARK  10 active torsions:
REMARK  status: ('A' for Active; 'I' for Inactive)
REMARK    1  A    between atoms: S_2  and  N_4 
REMARK    2  A    between atoms: S_2  and  C_29 
REMARK    3  A    between atoms: N_4  and  C_5 
REMARK    4  A    between atoms: C_8  and  N_9 
REMARK    5  A    between atoms: C_12  and  C_13 
REMARK    6  A    between atoms: C_18  and  O_19 
REMARK    7  A    between atoms: O_19  and  C_20 
REMARK    8  A    between atoms: C_20  and  C_21 
REMARK    9  A    between atoms: C_33  and  O_34 
REMARK   10  A    between atoms: O_34  and  C_35 
ROOT
ATOM      1  C   UNL d   1      10.404   0.113 -19.695  0.00  0.00     0.116 C 
ATOM      2  C   UNL d   1      11.511  -0.191 -18.665  0.00  0.00     0.027 C 
ATOM      3  C   UNL d   1      11.143   0.406 -17.300  0.00  0.00     0.035 C 
ATOM      4  C   UNL d   1      10.842   1.923 -17.395  0.00  0.00     0.219 C 
ATOM      5  C   UNL d   1       9.754   2.200 -18.459  0.00  0.00     0.035 C 
ATOM      6  C   UNL d   1      10.139   1.627 -19.796  0.00  0.00     0.027 C 
ENDROOT
BRANCH   4   7
ATOM      7  N   UNL d   1      10.493   2.471 -16.079  0.00  0.00     0.135 N 
ATOM      8  C   UNL d   1      10.538   3.944 -16.118  0.00  0.00     0.251 C 
ATOM      9  C   UNL d   1      10.315   4.513 -14.713  0.00  0.00     0.040 C 
ATOM     10  C   UNL d   1       8.960   4.013 -14.173  0.00  0.00     0.028 C 
ATOM     11  C   UNL d   1       8.914   2.462 -14.214  0.00  0.00     0.040 C 
ATOM     12  C   UNL d   1       9.173   1.992 -15.632  0.00  0.00     0.251 C 
BRANCH  10  13
ATOM     13  C   UNL d   1       8.670   4.507 -12.779  0.00  0.00    -0.000 C 
ATOM     14  C   UNL d   1       7.442   5.086 -12.414  0.00  0.00     0.090 C 
ATOM     15  C   UNL d   1       7.302   5.603 -11.122  0.00  0.00     0.024 C 
ATOM     16  C   UNL d   1       8.271   5.422 -10.122  0.00  0.00     0.002 C 
ATOM     17  C   UNL d   1       9.460   4.765 -10.469  0.00  0.00    -0.000 C 
ATOM     18  C   UNL d   1       9.659   4.342 -11.797  0.00  0.00    -0.002 C 
BRANCH  14  19
ATOM     19  O   UNL d   1       6.369   5.148 -13.261  0.00  0.00    -0.322 OA
BRANCH  19  20
ATOM     20  C   UNL d   1       5.868   3.979 -13.875  0.00  0.00     0.252 C 
BRANCH  20  21
ATOM     21  C   UNL d   1       5.184   3.081 -12.841  0.00  0.00     0.425 C 
ATOM     22  F   UNL d   1       3.899   3.428 -12.836  0.00  0.00    -0.168 F 
ATOM     23  F   UNL d   1       5.287   1.825 -13.237  0.00  0.00    -0.168 F 
ATOM     24  F   UNL d   1       5.711   3.161 -11.624  0.00  0.00    -0.168 F 
ENDBRANCH  20  21
ENDBRANCH  19  20
ENDBRANCH  14  19
ENDBRANCH  10  13
ENDBRANCH   4   7
BRANCH   1  25
ATOM     25  N   UNL d   1      10.802  -0.397 -21.010  0.00  0.00    -0.187 NA
BRANCH  25  26
ATOM     26  S   UNL d   1       9.661  -1.158 -22.069  0.00  0.00     0.281 S 
ATOM     27  O   UNL d   1      10.360  -1.514 -23.300  0.00  0.00    -0.199 OA
ATOM     28  O   UNL d   1       8.962  -2.188 -21.269  0.00  0.00    -0.199 OA
BRANCH  26  29
ATOM     29  C   UNL d   1       8.461   0.123 -22.415  0.00  0.00     0.107 A 
ATOM     30  C   UNL d   1       8.907   1.438 -22.664  0.00  0.00     0.037 A 
ATOM     31  C   UNL d   1       7.977   2.483 -22.835  0.00  0.00     0.100 A 
ATOM     32  C   UNL d   1       6.595   2.193 -22.787  0.00  0.00     0.024 A 
ATOM     33  C   UNL d   1       6.147   0.882 -22.515  0.00  0.00     0.003 A 
ATOM     34  C   UNL d   1       7.084  -0.155 -22.323  0.00  0.00     0.013 A 
BRANCH  31  35
ATOM     35  O   UNL d   1       8.442   3.765 -23.022  0.00  0.00    -0.275 OA
BRANCH  35  36
ATOM     36  C   UNL d   1       7.950   4.752 -22.218  0.00  0.00     0.455 C 
ATOM     37  F   UNL d   1       8.929   5.644 -21.914  0.00  0.00    -0.166 F 
ATOM     38  F   UNL d   1       6.971   5.421 -22.866  0.00  0.00    -0.166 F 
ENDBRANCH  35  36
ENDBRANCH  31  35
ENDBRANCH  26  29
ENDBRANCH  25  26
ENDBRANCH   1  25
TORSDOF 10
