REMARK  3 active torsions:
REMARK  status: ('A' for Active; 'I' for Inactive)
REMARK    1  A    between atoms: C_3  and  C_4 
REMARK    2  A    between atoms: N_16  and  C_17 
REMARK    3  A    between atoms: C_17  and  C_18 
ROOT
ATOM      1  O   UNL d   1      10.589   0.068 -15.626  0.00  0.00    -0.293 OA
ATOM      2  C   UNL d   1       9.992   0.920 -16.258  0.00  0.00     0.181 C 
ATOM      3  C   UNL d   1       9.925   0.964 -17.760  0.00  0.00     0.112 C 
ATOM      4  C   UNL d   1       9.275   2.330 -17.970  0.00  0.00     0.154 C 
ATOM      5  O   UNL d   1       8.631   2.698 -16.763  0.00  0.00    -0.351 OA
ATOM      6  C   UNL d   1       9.232   2.055 -15.658  0.00  0.00     0.148 C 
ATOM      7  C   UNL d   1       8.123   1.597 -14.688  0.00  0.00     0.070 C 
ATOM      8  C   UNL d   1       7.403   2.806 -14.060  0.00  0.00     0.254 C 
ATOM      9  N   UNL d   1       8.347   3.649 -13.318  0.00  0.00     0.142 N 
ATOM     10  C   UNL d   1       9.359   4.181 -14.232  0.00  0.00     0.254 C 
ATOM     11  C   UNL d   1      10.152   3.039 -14.899  0.00  0.00     0.070 C 
ENDROOT
BRANCH   3  12
ATOM     12  C   UNL d   1      11.287   0.837 -18.414  0.00  0.00    -0.013 A 
ATOM     13  C   UNL d   1      12.265   1.843 -18.230  0.00  0.00    -0.002 A 
ATOM     14  C   UNL d   1      13.519   1.744 -18.855  0.00  0.00     0.029 A 
ATOM     15  C   UNL d   1      13.816   0.623 -19.648  0.00  0.00     0.140 A 
ATOM     16  C   UNL d   1      12.851  -0.387 -19.838  0.00  0.00     0.029 A 
ATOM     17  F   UNL d   1      15.037   0.513 -20.218  0.00  0.00    -0.204 F 
ATOM     18  C   UNL d   1      11.583  -0.277 -19.227  0.00  0.00    -0.002 A 
ENDBRANCH   3  12
BRANCH   9  19
ATOM     19  C   UNL d   1       7.623   4.738 -12.659  0.00  0.00     0.277 C 
BRANCH  19  20
ATOM     20  C   UNL d   1       8.419   5.444 -11.575  0.00  0.00     0.011 A 
ATOM     21  C   UNL d   1       9.127   6.626 -11.857  0.00  0.00    -0.002 A 
ATOM     22  C   UNL d   1       9.853   7.286 -10.832  0.00  0.00    -0.000 A 
ATOM     23  C   UNL d   1       9.860   6.757  -9.527  0.00  0.00    -0.000 A 
ATOM     24  C   UNL d   1       9.143   5.583  -9.239  0.00  0.00    -0.000 A 
ATOM     25  C   UNL d   1       8.426   4.932 -10.261  0.00  0.00    -0.002 A 
ENDBRANCH  19  20
ENDBRANCH   9  19
TORSDOF 3
