REMARK  10 active torsions:
REMARK  status: ('A' for Active; 'I' for Inactive)
REMARK    1  A    between atoms: O_2  and  C_3 
REMARK    2  A    between atoms: C_6  and  O_7 
REMARK    3  A    between atoms: O_7  and  C_8 
REMARK    4  A    between atoms: C_8  and  C_9 
REMARK    5  A    between atoms: C_9  and  N_10 
REMARK    6  A    between atoms: N_10  and  C_11 
REMARK    7  A    between atoms: C_11  and  C_12 
REMARK    8  A    between atoms: C_12  and  C_13 
REMARK    9  A    between atoms: C_13  and  O_14 
REMARK   10  A    between atoms: O_14  and  C_15 
ROOT
ATOM      1  C   UNL d   1       9.528   6.787 -10.748  0.00  0.00     0.323 C 
ENDROOT
BRANCH   1   2
ATOM      2  C   UNL d   1       8.408   5.820 -11.140  0.00  0.00     0.187 C 
BRANCH   2   3
ATOM      3  O   UNL d   1       8.679   5.368 -12.455  0.00  0.00    -0.329 OA
BRANCH   3   4
ATOM      4  C   UNL d   1       7.898   4.343 -12.945  0.00  0.00     0.094 A 
ATOM      5  C   UNL d   1       6.578   4.071 -12.512  0.00  0.00     0.026 A 
ATOM      6  C   UNL d   1       5.865   2.990 -13.065  0.00  0.00     0.026 A 
ATOM      7  C   UNL d   1       6.448   2.147 -14.040  0.00  0.00     0.094 A 
ATOM      8  C   UNL d   1       7.759   2.434 -14.474  0.00  0.00     0.026 A 
ATOM      9  C   UNL d   1       8.474   3.524 -13.937  0.00  0.00     0.026 A 
BRANCH   7  10
ATOM     10  O   UNL d   1       5.703   1.073 -14.471  0.00  0.00    -0.328 OA
ATOM     11  C   UNL d   1       6.256   0.230 -15.478  0.00  0.00     0.181 C 
ENDBRANCH   7  10
ENDBRANCH   3   4
ENDBRANCH   2   3
ENDBRANCH   1   2
BRANCH   1  12
ATOM     12  N   UNL d   1       9.461   7.091  -9.335  0.00  0.00     0.342 N 
BRANCH  12  13
ATOM     13  C   UNL d   1      10.439   8.105  -8.984  0.00  0.00     0.293 C 
BRANCH  13  14
ATOM     14  C   UNL d   1      10.190   8.466  -7.507  0.00  0.00     0.071 C 
BRANCH  14  15
ATOM     15  C   UNL d   1      11.334   9.377  -6.940  0.00  0.00     0.151 C 
BRANCH  15  16
ATOM     16  O   UNL d   1      11.182   9.836  -5.598  0.00  0.00    -0.331 OA
BRANCH  16  17
ATOM     17  C   UNL d   1      11.499   8.976  -4.587  0.00  0.00     0.094 A 
ATOM     18  C   UNL d   1      11.842   9.531  -3.312  0.00  0.00     0.024 A 
ATOM     19  C   UNL d   1      12.257   8.655  -2.267  0.00  0.00     0.002 A 
ATOM     20  C   UNL d   1      12.262   7.249  -2.437  0.00  0.00     0.000 A 
ATOM     21  C   UNL d   1      11.880   6.739  -3.696  0.00  0.00     0.002 A 
ATOM     22  C   UNL d   1      11.547   7.564  -4.774  0.00  0.00     0.024 A 
ENDBRANCH  16  17
ENDBRANCH  15  16
ENDBRANCH  14  15
ENDBRANCH  13  14
ENDBRANCH  12  13
ENDBRANCH   1  12
TORSDOF 10
