REMARK  4 active torsions:
REMARK  status: ('A' for Active; 'I' for Inactive)
REMARK    1  A    between atoms: C_2  and  C_3 
REMARK    2  A    between atoms: C_2  and  N_10 
REMARK    3  A    between atoms: N_13  and  C_14 
REMARK    4  A    between atoms: C_14  and  C_15 
REMARK       I    between atoms: C_15  and  N_17 
ROOT
ATOM      1  N   UNL d   1       9.298   6.042 -12.262  0.00  0.00     0.143 N 
ATOM      2  C   UNL d   1       9.471   4.757 -11.585  0.00  0.00     0.286 C 
ATOM      3  C   UNL d   1      10.054   3.703 -12.508  0.00  0.00     0.286 C 
ATOM      4  N   UNL d   1       9.178   3.444 -13.625  0.00  0.00     0.151 N 
ATOM      5  C   UNL d   1       9.008   4.717 -14.336  0.00  0.00     0.286 C 
ATOM      6  C   UNL d   1       8.414   5.788 -13.410  0.00  0.00     0.286 C 
ENDROOT
BRANCH   4   7
ATOM      7  C   UNL d   1       9.699   2.337 -14.443  0.00  0.00     0.337 C 
BRANCH   7   8
ATOM      8  C   UNL d   1       8.648   1.789 -15.466  0.00  0.00     0.271 C 
ATOM      9  O   UNL d   1       7.549   2.336 -15.500  0.00  0.00    -0.270 OA
ATOM     10  N   UNL d   1       8.958   0.756 -16.285  0.00  0.00    -0.299 N 
ATOM     11  C   UNL d   1      10.278   0.473 -16.872  0.00  0.00     0.093 A 
ATOM     12  C   UNL d   1       7.937   0.033 -16.981  0.00  0.00     0.058 A 
ATOM     13  C   UNL d   1       9.998  -0.530 -18.033  0.00  0.00     0.051 A 
ATOM     14  C   UNL d   1      10.916   1.779 -17.445  0.00  0.00     0.025 C 
ATOM     15  C   UNL d   1       8.491  -0.673 -18.035  0.00  0.00    -0.004 A 
ATOM     16  C   UNL d   1       7.678  -1.347 -18.981  0.00  0.00    -0.003 A 
ATOM     17  C   UNL d   1       6.265  -1.315 -18.812  0.00  0.00    -0.000 A 
ATOM     18  C   UNL d   1       5.712  -0.648 -17.692  0.00  0.00     0.002 A 
ATOM     19  C   UNL d   1       6.542  -0.007 -16.765  0.00  0.00     0.017 A 
ENDBRANCH   7   8
ENDBRANCH   4   7
BRANCH   1  20
ATOM     20  C   UNL d   1       8.736   7.047 -11.364  0.00  0.00     0.242 C 
ATOM     21  C   UNL d   1       8.678   8.476 -11.927  0.00  0.00     0.040 C 
BRANCH  20  22
ATOM     22  C   UNL d   1       9.479   7.086 -10.014  0.00  0.00     0.009 A 
ATOM     23  C   UNL d   1      10.636   7.840  -9.827  0.00  0.00    -0.002 A 
ATOM     24  C   UNL d   1      11.247   7.897  -8.556  0.00  0.00     0.011 A 
ATOM     25  C   UNL d   1      10.687   7.176  -7.480  0.00  0.00     0.058 A 
ATOM     26  C   UNL d   1       9.520   6.414  -7.668  0.00  0.00     0.011 A 
ATOM     27 CL   UNL d   1      11.413   7.205  -5.920  0.00  0.00    -0.082 Cl
ATOM     28  C   UNL d   1       8.921   6.360  -8.931  0.00  0.00    -0.002 A 
ENDBRANCH  20  22
ENDBRANCH   1  20
TORSDOF 4
