REMARK  6 active torsions:
REMARK  status: ('A' for Active; 'I' for Inactive)
REMARK    1  A    between atoms: C_2  and  N_3 
REMARK    2  A    between atoms: C_7  and  C_8 
REMARK    3  A    between atoms: C_8  and  N_9 
REMARK       I    between atoms: N_9  and  C_10 
REMARK    4  A    between atoms: C_10  and  C_12 
REMARK    5  A    between atoms: C_13  and  O_14 
REMARK    6  A    between atoms: C_19  and  O_20 
ROOT
ATOM      1  N   UNL d   1       8.790   5.092 -11.411  0.00  0.00    -0.232 NA
ATOM      2  C   UNL d   1       9.175   5.075 -12.696  0.00  0.00     0.279 C 
ATOM      3  O   UNL d   1       9.852   5.963 -13.237  0.00  0.00    -0.265 OA
ENDROOT
BRANCH   2   4
ATOM      4  C   UNL d   1       8.692   3.906 -13.495  0.00  0.00     0.102 A 
ATOM      5  C   UNL d   1       7.320   3.531 -13.471  0.00  0.00     0.101 A 
ATOM      6  C   UNL d   1       6.889   2.410 -14.207  0.00  0.00     0.025 A 
ATOM      7  C   UNL d   1       7.803   1.686 -14.997  0.00  0.00     0.004 A 
ATOM      8  C   UNL d   1       9.149   2.079 -15.050  0.00  0.00     0.025 A 
ATOM      9  C   UNL d   1       9.613   3.189 -14.312  0.00  0.00     0.101 A 
BRANCH   5  10
ATOM     10  O   UNL d   1       6.450   4.278 -12.703  0.00  0.00    -0.328 OA
ATOM     11  C   UNL d   1       5.208   3.700 -12.335  0.00  0.00     0.181 C 
ENDBRANCH   5  10
BRANCH   9  12
ATOM     12  O   UNL d   1      10.931   3.608 -14.326  0.00  0.00    -0.328 OA
ATOM     13  C   UNL d   1      11.807   3.041 -15.287  0.00  0.00     0.181 C 
ENDBRANCH   9  12
ENDBRANCH   2   4
BRANCH   1  14
ATOM     14  C   UNL d   1       8.760   6.299 -10.598  0.00  0.00     0.162 C 
BRANCH  14  15
ATOM     15  C   UNL d   1       9.971   6.386  -9.659  0.00  0.00     0.243 C 
ATOM     16  N   UNL d   1      10.064   7.650  -8.943  0.00  0.00     0.137 N 
ATOM     17  C   UNL d   1      10.957   7.388  -7.819  0.00  0.00     0.250 C 
ATOM     18  C   UNL d   1      10.536   6.012  -7.316  0.00  0.00     0.037 C 
ATOM     19  C   UNL d   1       9.890   5.340  -8.527  0.00  0.00     0.037 C 
BRANCH  16  20
ATOM     20  C   UNL d   1      10.467   8.787  -9.783  0.00  0.00     0.250 C 
ATOM     21  C   UNL d   1      11.976   8.853 -10.054  0.00  0.00     0.037 C 
ENDBRANCH  16  20
ENDBRANCH  14  15
ENDBRANCH   1  14
TORSDOF 6
