REMARK  4 active torsions:
REMARK  status: ('A' for Active; 'I' for Inactive)
REMARK    1  A    between atoms: C_2  and  O_4 
REMARK    2  A    between atoms: C_2  and  C_21 
REMARK    3  A    between atoms: O_4  and  C_5 
REMARK    4  A    between atoms: C_8  and  C_9 
ROOT
ATOM      1  C   UNL d   1       9.082   4.164 -13.386  0.00  0.00     0.095 A 
ATOM      2  C   UNL d   1       8.386   5.408 -13.330  0.00  0.00     0.024 A 
ATOM      3  C   UNL d   1       8.341   6.124 -12.089  0.00  0.00     0.002 A 
ATOM      4  C   UNL d   1       9.005   5.593 -10.943  0.00  0.00    -0.004 A 
ATOM      5  C   UNL d   1       9.595   4.359 -11.030  0.00  0.00     0.002 A 
ATOM      6  C   UNL d   1       9.640   3.650 -12.235  0.00  0.00     0.024 A 
ENDROOT
BRANCH   4   7
ATOM      7  C   UNL d   1       9.096   6.306  -9.573  0.00  0.00    -0.022 C 
ATOM      8  C   UNL d   1      10.353   7.106  -9.273  0.00  0.00    -0.008 C 
ATOM      9  C   UNL d   1      10.872   7.232  -7.968  0.00  0.00    -0.022 C 
ATOM     10  C   UNL d   1      10.929   7.856 -10.288  0.00  0.00    -0.001 C 
ATOM     11  C   UNL d   1      10.172   6.641  -6.806  0.00  0.00     0.027 C 
ATOM     12  C   UNL d   1      12.029   7.958  -7.746  0.00  0.00    -0.004 C 
ATOM     13  C   UNL d   1       8.691   6.394  -7.127  0.00  0.00     0.009 C 
ATOM     14  C   UNL d   1       8.602   5.486  -8.356  0.00  0.00     0.027 C 
ATOM     15  C   UNL d   1      12.782   8.421  -8.812  0.00  0.00    -0.000 C 
ATOM     16  C   UNL d   1      12.178   8.443 -10.072  0.00  0.00    -0.000 C 
ENDBRANCH   4   7
BRANCH   1  17
ATOM     17  O   UNL d   1       9.313   3.441 -14.546  0.00  0.00    -0.325 OA
BRANCH  17  18
ATOM     18  C   UNL d   1       8.398   2.384 -14.901  0.00  0.00     0.176 C 
ATOM     19  C   UNL d   1       8.962   1.027 -14.450  0.00  0.00     0.041 C 
ATOM     20  C   UNL d   1       6.969   2.586 -14.354  0.00  0.00     0.041 C 
BRANCH  18  21
ATOM     21  C   UNL d   1       8.390   2.379 -16.428  0.00  0.00     0.211 C 
ATOM     22  O   UNL d   1       7.438   1.937 -17.090  0.00  0.00    -0.646 OA
ATOM     23  O   UNL d   1       9.538   2.865 -16.953  0.00  0.00    -0.646 OA
ENDBRANCH  18  21
ENDBRANCH  17  18
ENDBRANCH   1  17
TORSDOF 4
