REMARK  5 active torsions:
REMARK  status: ('A' for Active; 'I' for Inactive)
REMARK       I    between atoms: C_2  and  N_3 
REMARK    1  A    between atoms: C_2  and  C_18 
REMARK    2  A    between atoms: N_3  and  C_4 
REMARK    3  A    between atoms: C_4  and  C_5 
REMARK    4  A    between atoms: C_5  and  N_6 
REMARK    5  A    between atoms: N_9  and  C_10 
ROOT
ATOM      1  O   UNL d   1      10.475   5.186  -8.408  0.00  0.00    -0.266 OA
ATOM      2  C   UNL d   1      10.200   6.337  -8.233  0.00  0.00     0.275 C 
ATOM      3  N   UNL d   1       9.395   6.961  -9.086  0.00  0.00    -0.232 NA
ENDROOT
BRANCH   3   4
ATOM      4  C   UNL d   1       9.100   6.451 -10.413  0.00  0.00     0.164 C 
BRANCH   4   5
ATOM      5  C   UNL d   1       7.860   5.544 -10.427  0.00  0.00     0.277 C 
BRANCH   5   6
ATOM      6  N   UNL d   1       7.434   5.205 -11.784  0.00  0.00     0.143 N 
ATOM      7  C   UNL d   1       6.184   4.426 -11.719  0.00  0.00     0.274 C 
ATOM      8  C   UNL d   1       5.728   4.033 -13.136  0.00  0.00     0.137 C 
ATOM      9  N   UNL d   1       6.807   3.329 -13.821  0.00  0.00    -0.344 N 
ATOM     10  C   UNL d   1       8.088   4.008 -13.835  0.00  0.00     0.137 C 
ATOM     11  C   UNL d   1       8.471   4.393 -12.415  0.00  0.00     0.274 C 
BRANCH   9  12
ATOM     12  C   UNL d   1       6.652   2.070 -14.425  0.00  0.00     0.056 A 
ATOM     13  C   UNL d   1       7.397   1.735 -15.577  0.00  0.00     0.017 A 
ATOM     14  C   UNL d   1       7.204   0.495 -16.214  0.00  0.00     0.002 A 
ATOM     15  C   UNL d   1       6.260  -0.413 -15.699  0.00  0.00     0.000 A 
ATOM     16  C   UNL d   1       5.527  -0.103 -14.543  0.00  0.00     0.002 A 
ATOM     17  C   UNL d   1       5.728   1.135 -13.906  0.00  0.00     0.017 A 
ENDBRANCH   9  12
ENDBRANCH   5   6
ENDBRANCH   4   5
ENDBRANCH   3   4
BRANCH   2  18
ATOM     18  C   UNL d   1      10.746   7.173  -7.112  0.00  0.00     0.058 A 
ATOM     19  C   UNL d   1      11.001   6.606  -5.851  0.00  0.00     0.005 A 
ATOM     20  C   UNL d   1      11.466   7.310  -4.733  0.00  0.00     0.001 A 
ATOM     21  C   UNL d   1      11.710   8.664  -4.875  0.00  0.00     0.006 A 
ATOM     22  C   UNL d   1      11.593   6.651  -3.491  0.00  0.00     0.000 A 
ATOM     23  C   UNL d   1      11.520   9.213  -6.170  0.00  0.00     0.035 A 
ATOM     24  C   UNL d   1      12.112   9.374  -3.735  0.00  0.00     0.001 A 
ATOM     25  C   UNL d   1      11.076   8.503  -7.285  0.00  0.00     0.011 A 
ATOM     26 BR   UNL d   1      11.875  10.978  -6.442  0.00  0.00    -0.049 Br
ATOM     27  C   UNL d   1      12.283   8.736  -2.491  0.00  0.00     0.000 A 
ATOM     28  C   UNL d   1      12.021   7.368  -2.371  0.00  0.00     0.000 A 
ENDBRANCH   2  18
TORSDOF 5
