REMARK  9 active torsions:
REMARK  status: ('A' for Active; 'I' for Inactive)
REMARK    1  A    between atoms: S_2  and  C_4 
REMARK    2  A    between atoms: S_2  and  N_14 
REMARK    3  A    between atoms: C_7  and  C_8 
REMARK    4  A    between atoms: N_14  and  C_15 
REMARK    5  A    between atoms: N_14  and  C_34 
REMARK    6  A    between atoms: C_15  and  C_16 
REMARK    7  A    between atoms: C_16  and  C_17 
REMARK    8  A    between atoms: C_17  and  N_18 
REMARK    9  A    between atoms: C_21  and  C_22 
ROOT
ATOM      1  C   UNL d   1       8.468   2.339 -15.778  0.00  0.00     0.115 C 
ENDROOT
BRANCH   1   2
ATOM      2  N   UNL d   1       8.815   1.130 -16.517  0.00  0.00    -0.271 N 
BRANCH   2   3
ATOM      3  S   UNL d   1      10.335   0.359 -16.206  0.00  0.00     0.264 S 
ATOM      4  O   UNL d   1      10.264  -1.018 -16.760  0.00  0.00    -0.200 OA
ATOM      5  O   UNL d   1      10.665   0.595 -14.806  0.00  0.00    -0.200 OA
BRANCH   3   6
ATOM      6  C   UNL d   1      11.457   1.282 -17.240  0.00  0.00     0.103 A 
ATOM      7  C   UNL d   1      11.858   0.769 -18.481  0.00  0.00     0.013 A 
ATOM      8  C   UNL d   1      12.777   1.494 -19.269  0.00  0.00     0.005 A 
ATOM      9  C   UNL d   1      13.283   2.729 -18.818  0.00  0.00     0.071 A 
ATOM     10  C   UNL d   1      12.869   3.235 -17.560  0.00  0.00     0.005 A 
ATOM     11  C   UNL d   1      11.958   2.516 -16.770  0.00  0.00     0.013 A 
BRANCH   9  12
ATOM     12  C   UNL d   1      14.264   3.504 -19.683  0.00  0.00     0.419 C 
ATOM     13  F   UNL d   1      14.595   4.691 -19.172  0.00  0.00    -0.166 F 
ATOM     14  F   UNL d   1      15.371   2.775 -19.820  0.00  0.00    -0.166 F 
ATOM     15  F   UNL d   1      13.727   3.702 -20.885  0.00  0.00    -0.166 F 
ENDBRANCH   9  12
ENDBRANCH   3   6
ENDBRANCH   2   3
BRANCH   2  16
ATOM     16  C   UNL d   1       7.674   0.471 -17.172  0.00  0.00     0.151 C 
ATOM     17  C   UNL d   1       6.725   1.190 -18.138  0.00  0.00     0.168 C 
ATOM     18  O   UNL d   1       6.613   0.008 -18.948  0.00  0.00    -0.350 OA
ATOM     19  C   UNL d   1       7.847  -0.475 -18.356  0.00  0.00     0.168 C 
ENDBRANCH   2  16
ENDBRANCH   1   2
BRANCH   1  20
ATOM     20  C   UNL d   1       7.659   2.014 -14.493  0.00  0.00     0.060 C 
BRANCH  20  21
ATOM     21  C   UNL d   1       6.853   3.241 -13.989  0.00  0.00     0.252 C 
BRANCH  21  22
ATOM     22  N   UNL d   1       7.646   4.330 -13.414  0.00  0.00     0.137 N 
ATOM     23  C   UNL d   1       6.709   5.240 -12.729  0.00  0.00     0.251 C 
ATOM     24  C   UNL d   1       7.492   6.420 -12.115  0.00  0.00     0.041 C 
ATOM     25  C   UNL d   1       8.494   5.935 -11.030  0.00  0.00     0.047 C 
ATOM     26  C   UNL d   1       9.357   4.839 -11.633  0.00  0.00     0.041 C 
ATOM     27  C   UNL d   1       8.490   3.809 -12.347  0.00  0.00     0.251 C 
BRANCH  25  28
ATOM     28  C   UNL d   1       9.388   7.005 -10.447  0.00  0.00     0.087 A 
ATOM     29  C   UNL d   1       9.829   7.236  -9.127  0.00  0.00     0.041 A 
ATOM     30  C   UNL d   1      10.625   8.377  -9.100  0.00  0.00     0.129 A 
ATOM     31  C   UNL d   1       9.565   6.544  -7.922  0.00  0.00     0.006 A 
ATOM     32  O   UNL d   1      10.686   8.811 -10.412  0.00  0.00    -0.211 OA
ATOM     33  C   UNL d   1      11.174   8.894  -7.939  0.00  0.00     0.057 A 
ATOM     34  N   UNL d   1       9.921   7.948 -11.229  0.00  0.00    -0.131 NA
ATOM     35  C   UNL d   1      10.926   8.231  -6.733  0.00  0.00     0.142 A 
ATOM     36  F   UNL d   1      11.455   8.715  -5.587  0.00  0.00    -0.204 F 
ATOM     37  C   UNL d   1      10.125   7.051  -6.718  0.00  0.00     0.030 A 
ENDBRANCH  25  28
ENDBRANCH  21  22
ENDBRANCH  20  21
ENDBRANCH   1  20
TORSDOF 9
