REMARK  3 active torsions:
REMARK  status: ('A' for Active; 'I' for Inactive)
REMARK    1  A    between atoms: N_10  and  C_11 
REMARK    2  A    between atoms: N_14  and  C_15 
REMARK    3  A    between atoms: C_15  and  C_16 
ROOT
ATOM      1  C   UNL d   1       9.526   7.222  -9.244  0.00  0.00     0.094 C 
ATOM      2  C   UNL d   1       9.998   5.775  -9.297  0.00  0.00     0.058 C 
ATOM      3  C   UNL d   1       9.203   4.954 -10.315  0.00  0.00     0.253 C 
ATOM      4  N   UNL d   1       9.286   5.515 -11.667  0.00  0.00     0.142 N 
ATOM      5  C   UNL d   1       8.668   6.823 -11.646  0.00  0.00     0.253 C 
ATOM      6  C   UNL d   1       9.466   7.723 -10.726  0.00  0.00     0.058 C 
ENDROOT
BRANCH   1   7
ATOM      7  N   UNL d   1      10.351   8.065  -8.345  0.00  0.00    -0.281 N 
ATOM      8  C   UNL d   1      11.062   9.180  -8.633  0.00  0.00     0.350 A 
ATOM      9  O   UNL d   1      11.203   9.752  -9.700  0.00  0.00    -0.244 OA
ATOM     10  N   UNL d   1      11.667   9.594  -7.523  0.00  0.00    -0.191 NA
ATOM     11  C   UNL d   1      11.413   8.770  -6.486  0.00  0.00     0.102 A 
ATOM     12  C   UNL d   1      10.584   7.794  -6.983  0.00  0.00     0.082 A 
ATOM     13  C   UNL d   1      11.919   8.844  -5.189  0.00  0.00     0.021 A 
ATOM     14  C   UNL d   1      10.131   6.789  -6.142  0.00  0.00     0.019 A 
ATOM     15  C   UNL d   1      10.661   6.789  -4.838  0.00  0.00     0.002 A 
ATOM     16  C   UNL d   1      11.529   7.789  -4.348  0.00  0.00     0.002 A 
ENDBRANCH   1   7
BRANCH   4  17
ATOM     17  C   UNL d   1       8.560   4.667 -12.596  0.00  0.00     0.279 C 
BRANCH  17  18
ATOM     18  C   UNL d   1       9.342   3.718 -13.437  0.00  0.00     0.037 A 
ATOM     19  C   UNL d   1       8.829   2.636 -14.220  0.00  0.00     0.023 A 
ATOM     20  C   UNL d   1       9.952   2.038 -14.844  0.00  0.00     0.100 A 
ATOM     21  C   UNL d   1       7.559   2.073 -14.478  0.00  0.00     0.002 A 
ATOM     22  O   UNL d   1      11.096   2.719 -14.487  0.00  0.00    -0.305 OA
ATOM     23  C   UNL d   1       9.850   0.927 -15.692  0.00  0.00     0.025 A 
ATOM     24  C   UNL d   1      10.700   3.722 -13.649  0.00  0.00     0.120 A 
ATOM     25  C   UNL d   1       8.573   0.389 -15.936  0.00  0.00     0.002 A 
ATOM     26  C   UNL d   1       7.434   0.958 -15.331  0.00  0.00     0.000 A 
ENDBRANCH  17  18
ENDBRANCH   4  17
TORSDOF 3
