REMARK  12 active torsions:
REMARK  status: ('A' for Active; 'I' for Inactive)
REMARK    1  A    between atoms: C_2  and  C_3 
REMARK    2  A    between atoms: C_3  and  N_4 
REMARK    3  A    between atoms: N_4  and  C_5 
REMARK    4  A    between atoms: N_4  and  C_22 
REMARK    5  A    between atoms: C_5  and  C_6 
REMARK    6  A    between atoms: C_6  and  C_7 
REMARK    7  A    between atoms: C_7  and  C_8 
REMARK    8  A    between atoms: C_8  and  N_9 
REMARK       I    between atoms: N_9  and  C_10 
REMARK    9  A    between atoms: C_10  and  C_12 
REMARK   10  A    between atoms: C_22  and  C_23 
REMARK   11  A    between atoms: C_25  and  C_26 
REMARK   12  A    between atoms: C_32  and  O_33 
ROOT
ATOM      1  N   UNL d   1       8.530   4.364 -12.991  0.00  0.00     0.137 N 
ENDROOT
BRANCH   1   2
ATOM      2  C   UNL d   1       7.135   4.779 -13.161  0.00  0.00     0.250 C 
BRANCH   2   3
ATOM      3  C   UNL d   1       6.429   4.913 -11.807  0.00  0.00     0.035 C 
ATOM      4  C   UNL d   1       5.772   6.294 -11.642  0.00  0.00     0.002 C 
ENDBRANCH   2   3
ENDBRANCH   1   2
BRANCH   1   5
ATOM      5  C   UNL d   1       9.469   5.429 -13.327  0.00  0.00     0.250 C 
BRANCH   5   6
ATOM      6  C   UNL d   1       9.289   6.720 -12.521  0.00  0.00     0.037 C 
BRANCH   6   7
ATOM      7  C   UNL d   1       9.685   6.481 -11.059  0.00  0.00     0.029 C 
BRANCH   7   8
ATOM      8  C   UNL d   1       9.784   7.802 -10.335  0.00  0.00     0.129 C 
BRANCH   8   9
ATOM      9  N   UNL d   1      10.223   7.619  -8.963  0.00  0.00    -0.234 NA
ATOM     10  C   UNL d   1      11.479   7.852  -8.600  0.00  0.00     0.275 C 
ATOM     11  O   UNL d   1      12.417   8.003  -9.396  0.00  0.00    -0.266 OA
BRANCH  10  12
ATOM     12  C   UNL d   1      11.659   8.087  -7.138  0.00  0.00     0.058 A 
ATOM     13  C   UNL d   1      11.238   7.150  -6.168  0.00  0.00     0.005 A 
ATOM     14  C   UNL d   1      11.536   7.425  -4.809  0.00  0.00     0.000 A 
ATOM     15  C   UNL d   1      12.201   8.601  -4.403  0.00  0.00     0.000 A 
ATOM     16  C   UNL d   1      11.221   6.471  -3.842  0.00  0.00     0.000 A 
ATOM     17  C   UNL d   1      12.606   9.508  -5.375  0.00  0.00     0.000 A 
ATOM     18  C   UNL d   1      12.496   8.842  -3.045  0.00  0.00     0.000 A 
ATOM     19  C   UNL d   1      12.336   9.235  -6.713  0.00  0.00     0.005 A 
ATOM     20  C   UNL d   1      12.113   7.905  -2.074  0.00  0.00     0.000 A 
ATOM     21  C   UNL d   1      11.468   6.727  -2.476  0.00  0.00     0.000 A 
ENDBRANCH  10  12
ENDBRANCH   8   9
ENDBRANCH   7   8
ENDBRANCH   6   7
ENDBRANCH   5   6
ENDBRANCH   1   5
BRANCH   1  22
ATOM     22  C   UNL d   1       8.743   3.189 -13.827  0.00  0.00     0.251 C 
BRANCH  22  23
ATOM     23  C   UNL d   1      10.172   2.788 -14.210  0.00  0.00     0.038 A 
ATOM     24  C   UNL d   1      10.395   2.079 -15.533  0.00  0.00     0.026 A 
ATOM     25  C   UNL d   1      10.657   1.356 -14.236  0.00  0.00     0.007 A 
BRANCH  24  26
ATOM     26  C   UNL d   1       9.243   1.650 -16.423  0.00  0.00     0.001 A 
ATOM     27  C   UNL d   1       9.196   1.968 -17.804  0.00  0.00     0.090 A 
ATOM     28  C   UNL d   1       8.054   1.611 -18.568  0.00  0.00     0.025 A 
ATOM     29  C   UNL d   1       6.970   0.934 -17.973  0.00  0.00     0.013 A 
ATOM     30  C   UNL d   1       7.015   0.617 -16.602  0.00  0.00     0.058 A 
ATOM     31  C   UNL d   1       8.140   0.959 -15.851  0.00  0.00     0.009 A 
ATOM     32 CL   UNL d   1       5.683  -0.136 -15.807  0.00  0.00    -0.082 Cl
BRANCH  27  33
ATOM     33  O   UNL d   1      10.200   2.687 -18.413  0.00  0.00    -0.328 OA
ATOM     34  C   UNL d   1      11.430   2.005 -18.637  0.00  0.00     0.181 C 
ENDBRANCH  27  33
ENDBRANCH  24  26
ENDBRANCH  22  23
ENDBRANCH   1  22
TORSDOF 12
