REMARK  13 active torsions:
REMARK  status: ('A' for Active; 'I' for Inactive)
REMARK    1  A    between atoms: C_9  and  C_10 
REMARK    2  A    between atoms: C_10  and  C_12 
REMARK    3  A    between atoms: C_12  and  N_13 
REMARK    4  A    between atoms: N_13  and  C_14 
REMARK    5  A    between atoms: C_14  and  C_15 
REMARK    6  A    between atoms: C_15  and  S_16 
REMARK    7  A    between atoms: S_16  and  C_17 
REMARK    8  A    between atoms: C_17  and  C_18 
REMARK    9  A    between atoms: C_18  and  C_19 
REMARK   10  A    between atoms: C_19  and  N_20 
REMARK   11  A    between atoms: N_20  and  C_21 
REMARK   12  A    between atoms: C_21  and  C_22 
REMARK   13  A    between atoms: C_22  and  C_23 
ROOT
ATOM      1  C   UNL d   1       9.413   1.094 -18.512  0.00  0.00     0.132 C 
ENDROOT
BRANCH   1   2
ATOM      2  N   UNL d   1       9.106   1.242 -17.100  0.00  0.00    -0.292 NA
BRANCH   2   3
ATOM      3  C   UNL d   1       7.883   0.593 -16.634  0.00  0.00     0.157 C 
BRANCH   3   4
ATOM      4  C   UNL d   1       7.832   0.541 -15.094  0.00  0.00     0.199 C 
ATOM      5  O   UNL d   1       6.846  -0.410 -14.767  0.00  0.00    -0.216 OA
BRANCH   4   6
ATOM      6  C   UNL d   1       7.571   1.900 -14.436  0.00  0.00     0.018 A 
ATOM      7  C   UNL d   1       6.261   2.266 -14.034  0.00  0.00     0.001 A 
ATOM      8  C   UNL d   1       6.008   3.501 -13.398  0.00  0.00     0.029 A 
ATOM      9  C   UNL d   1       7.044   4.417 -13.148  0.00  0.00     0.149 A 
ATOM     10  C   UNL d   1       8.344   4.060 -13.561  0.00  0.00     0.116 A 
ATOM     11  O   UNL d   1       6.766   5.595 -12.512  0.00  0.00    -0.189 OA
ATOM     12  N   UNL d   1       9.505   4.851 -13.421  0.00  0.00    -0.200 NA
ATOM     13  C   UNL d   1       8.603   2.827 -14.165  0.00  0.00     0.052 A 
ATOM     14  C   UNL d   1      10.671   4.286 -13.907  0.00  0.00     0.311 A 
ATOM     15  O   UNL d   1      11.790   4.783 -13.966  0.00  0.00    -0.258 OA
ATOM     16  S   UNL d   1      10.309   2.621 -14.491  0.00  0.00    -0.024 SA
ENDBRANCH   4   6
ENDBRANCH   3   4
ENDBRANCH   2   3
ENDBRANCH   1   2
BRANCH   1  17
ATOM     17  C   UNL d   1       8.487   1.935 -19.387  0.00  0.00     0.083 C 
BRANCH  17  18
ATOM     18  S   UNL d   1       9.001   1.891 -21.120  0.00  0.00    -0.138 SA
BRANCH  18  19
ATOM     19  C   UNL d   1       7.874   3.127 -21.825  0.00  0.00     0.060 C 
BRANCH  19  20
ATOM     20  C   UNL d   1       8.249   4.562 -21.404  0.00  0.00     0.050 C 
BRANCH  20  21
ATOM     21  C   UNL d   1       7.416   5.630 -22.123  0.00  0.00     0.291 C 
BRANCH  21  22
ATOM     22  N   UNL d   1       7.677   6.929 -21.523  0.00  0.00     0.339 N 
BRANCH  22  23
ATOM     23  C   UNL d   1       6.823   7.936 -22.129  0.00  0.00     0.295 C 
BRANCH  23  24
ATOM     24  C   UNL d   1       7.058   9.302 -21.473  0.00  0.00     0.065 C 
BRANCH  24  25
ATOM     25  C   UNL d   1       6.158  10.378 -22.063  0.00  0.00    -0.019 A 
ATOM     26  C   UNL d   1       4.771  10.354 -21.806  0.00  0.00     0.007 A 
ATOM     27  C   UNL d   1       3.932  11.337 -22.363  0.00  0.00     0.057 A 
ATOM     28  C   UNL d   1       4.473  12.354 -23.173  0.00  0.00     0.011 A 
ATOM     29 CL   UNL d   1       2.243  11.300 -22.038  0.00  0.00    -0.082 Cl
ATOM     30  C   UNL d   1       5.857  12.385 -23.430  0.00  0.00     0.001 A 
ATOM     31  C   UNL d   1       6.697  11.398 -22.879  0.00  0.00    -0.004 A 
ENDBRANCH  24  25
ENDBRANCH  23  24
ENDBRANCH  22  23
ENDBRANCH  21  22
ENDBRANCH  20  21
ENDBRANCH  19  20
ENDBRANCH  18  19
ENDBRANCH  17  18
ENDBRANCH   1  17
TORSDOF 13
