REMARK  8 active torsions:
REMARK  status: ('A' for Active; 'I' for Inactive)
REMARK    1  A    between atoms: C_4  and  C_5 
REMARK    2  A    between atoms: C_5  and  C_6 
REMARK    3  A    between atoms: C_6  and  C_7 
REMARK    4  A    between atoms: C_7  and  O_8 
REMARK    5  A    between atoms: O_8  and  C_9 
REMARK    6  A    between atoms: C_9  and  C_10 
REMARK    7  A    between atoms: N_13  and  C_14 
REMARK    8  A    between atoms: C_14  and  C_15 
ROOT
ATOM      1  C   UNL d   1       9.588   3.662 -13.992  0.00  0.00     0.034 C 
ATOM      2  C   UNL d   1      11.114   3.741 -14.094  0.00  0.00     0.038 C 
ATOM      3  C   UNL d   1      11.567   3.912 -15.546  0.00  0.00     0.251 C 
ATOM      4  N   UNL d   1      10.974   5.115 -16.137  0.00  0.00     0.141 N 
ATOM      5  C   UNL d   1       9.516   4.972 -16.163  0.00  0.00     0.251 C 
ATOM      6  C   UNL d   1       8.964   4.843 -14.727  0.00  0.00     0.038 C 
ENDROOT
BRANCH   1   7
ATOM      7  C   UNL d   1       9.123   3.640 -12.538  0.00  0.00     0.142 C 
BRANCH   7   8
ATOM      8  O   UNL d   1       9.474   4.846 -11.889  0.00  0.00    -0.354 OA
BRANCH   8   9
ATOM      9  C   UNL d   1       9.039   4.902 -10.545  0.00  0.00     0.143 C 
BRANCH   9  10
ATOM     10  C   UNL d   1       9.563   6.210  -9.959  0.00  0.00     0.037 C 
BRANCH  10  11
ATOM     11  C   UNL d   1       9.367   6.306  -8.433  0.00  0.00     0.029 C 
BRANCH  11  12
ATOM     12  C   UNL d   1      10.150   7.431  -7.769  0.00  0.00    -0.022 A 
ATOM     13  C   UNL d   1       9.578   8.152  -6.695  0.00  0.00    -0.004 A 
ATOM     14  C   UNL d   1      10.304   9.184  -6.063  0.00  0.00    -0.000 A 
ATOM     15  C   UNL d   1      11.600   9.512  -6.507  0.00  0.00    -0.000 A 
ATOM     16  C   UNL d   1      12.174   8.790  -7.571  0.00  0.00    -0.000 A 
ATOM     17  C   UNL d   1      11.458   7.753  -8.190  0.00  0.00    -0.004 A 
ENDBRANCH  11  12
ENDBRANCH  10  11
ENDBRANCH   9  10
ENDBRANCH   8   9
ENDBRANCH   7   8
ENDBRANCH   1   7
BRANCH   4  18
ATOM     18  C   UNL d   1      11.460   5.311 -17.505  0.00  0.00     0.277 C 
BRANCH  18  19
ATOM     19  C   UNL d   1      12.918   5.736 -17.590  0.00  0.00     0.011 A 
ATOM     20  C   UNL d   1      13.951   4.776 -17.587  0.00  0.00    -0.002 A 
ATOM     21  C   UNL d   1      15.297   5.178 -17.639  0.00  0.00    -0.000 A 
ATOM     22  C   UNL d   1      15.621   6.546 -17.739  0.00  0.00    -0.000 A 
ATOM     23  C   UNL d   1      14.592   7.509 -17.765  0.00  0.00    -0.000 A 
ATOM     24  C   UNL d   1      13.245   7.106 -17.683  0.00  0.00    -0.002 A 
ENDBRANCH  18  19
ENDBRANCH   4  18
TORSDOF 8
