REMARK  8 active torsions:
REMARK  status: ('A' for Active; 'I' for Inactive)
REMARK    1  A    between atoms: O_2  and  C_3 
REMARK    2  A    between atoms: C_5  and  N_6 
REMARK    3  A    between atoms: N_11  and  C_12 
REMARK    4  A    between atoms: C_12  and  C_13 
REMARK    5  A    between atoms: C_13  and  C_14 
REMARK    6  A    between atoms: C_14  and  S_15 
REMARK    7  A    between atoms: S_15  and  C_16 
REMARK    8  A    between atoms: C_19  and  C_20 
ROOT
ATOM      1  N   UNL d   1       8.130   0.820 -17.177  0.00  0.00    -0.348 N 
ATOM      2  C   UNL d   1       8.855   0.592 -18.419  0.00  0.00     0.102 C 
ATOM      3  C   UNL d   1      10.191   1.303 -18.229  0.00  0.00     0.028 C 
ATOM      4  C   UNL d   1      10.464   1.169 -16.726  0.00  0.00     0.058 C 
ATOM      5  C   UNL d   1      11.046   2.413 -16.038  0.00  0.00     0.252 C 
ATOM      6  N   UNL d   1      10.243   2.550 -14.824  0.00  0.00     0.139 N 
ATOM      7  C   UNL d   1       8.890   2.243 -15.271  0.00  0.00     0.272 C 
ATOM      8  C   UNL d   1       9.093   0.974 -16.092  0.00  0.00     0.117 C 
ENDROOT
BRANCH   6   9
ATOM      9  C   UNL d   1      10.370   3.886 -14.246  0.00  0.00     0.251 C 
BRANCH   9  10
ATOM     10  C   UNL d   1       9.459   4.072 -13.018  0.00  0.00     0.047 C 
BRANCH  10  11
ATOM     11  C   UNL d   1       9.611   5.447 -12.363  0.00  0.00     0.067 C 
BRANCH  11  12
ATOM     12  S   UNL d   1       8.573   5.566 -10.888  0.00  0.00    -0.075 SA
BRANCH  12  13
ATOM     13  C   UNL d   1       9.462   6.794  -9.977  0.00  0.00     0.193 A 
ATOM     14  N   UNL d   1       9.642   6.708  -8.644  0.00  0.00    -0.287 N 
ATOM     15  C   UNL d   1      10.377   7.818  -8.369  0.00  0.00     0.186 A 
ATOM     16  C   UNL d   1       9.153   5.679  -7.745  0.00  0.00     0.134 C 
ATOM     17  N   UNL d   1      10.609   8.544  -9.472  0.00  0.00    -0.127 NA
ATOM     18  N   UNL d   1      10.025   7.872 -10.517  0.00  0.00    -0.122 NA
BRANCH  15  19
ATOM     19  C   UNL d   1      10.899   8.235  -7.051  0.00  0.00     0.136 A 
ATOM     20  N   UNL d   1      10.905   7.353  -6.019  0.00  0.00    -0.238 NA
ATOM     21  C   UNL d   1      11.398   7.779  -4.835  0.00  0.00     0.120 A 
ATOM     22  C   UNL d   1      11.857   9.100  -4.653  0.00  0.00     0.120 A 
ATOM     23  N   UNL d   1      11.848   9.991  -5.664  0.00  0.00    -0.239 NA
ATOM     24  C   UNL d   1      11.377   9.555  -6.852  0.00  0.00     0.121 A 
ENDBRANCH  15  19
ENDBRANCH  12  13
ENDBRANCH  11  12
ENDBRANCH  10  11
ENDBRANCH   9  10
ENDBRANCH   6   9
BRANCH   1  25
ATOM     25  C   UNL d   1       6.871   0.201 -16.963  0.00  0.00     0.058 A 
ATOM     26  C   UNL d   1       6.346  -0.019 -15.658  0.00  0.00     0.043 A 
ATOM     27  C   UNL d   1       5.073  -0.599 -15.467  0.00  0.00     0.123 A 
ATOM     28  C   UNL d   1       4.332  -1.023 -16.596  0.00  0.00     0.162 A 
ATOM     29  C   UNL d   1       4.837  -0.813 -17.886  0.00  0.00     0.033 A 
ATOM     30  F   UNL d   1       3.124  -1.607 -16.468  0.00  0.00    -0.202 F 
ATOM     31  C   UNL d   1       6.087  -0.201 -18.072  0.00  0.00     0.019 A 
BRANCH  27  32
ATOM     32  O   UNL d   1       4.630  -0.756 -14.173  0.00  0.00    -0.326 OA
ATOM     33  C   UNL d   1       3.317  -0.296 -13.881  0.00  0.00     0.181 C 
ENDBRANCH  27  32
ENDBRANCH   1  25
TORSDOF 8
