REMARK  4 active torsions:
REMARK  status: ('A' for Active; 'I' for Inactive)
REMARK       I    between atoms: N_10  and  C_11 
REMARK    1  A    between atoms: C_11  and  C_13 
REMARK    2  A    between atoms: C_13  and  N_14 
REMARK    3  A    between atoms: N_17  and  C_18 
REMARK    4  A    between atoms: C_18  and  C_19 
ROOT
ATOM      1  N   UNL d   1       8.871   5.676 -10.970  0.00  0.00     0.151 N 
ATOM      2  C   UNL d   1       8.697   4.748  -9.851  0.00  0.00     0.286 C 
ATOM      3  C   UNL d   1       8.377   5.481  -8.555  0.00  0.00     0.286 C 
ATOM      4  N   UNL d   1       9.437   6.414  -8.163  0.00  0.00     0.146 N 
ATOM      5  C   UNL d   1       9.598   7.347  -9.283  0.00  0.00     0.286 C 
ATOM      6  C   UNL d   1       9.902   6.648 -10.596  0.00  0.00     0.286 C 
ENDROOT
BRANCH   1   7
ATOM      7  C   UNL d   1       9.209   4.970 -12.196  0.00  0.00     0.337 C 
BRANCH   7   8
ATOM      8  C   UNL d   1       8.028   4.248 -12.893  0.00  0.00     0.271 C 
ATOM      9  N   UNL d   1       8.303   3.449 -13.966  0.00  0.00    -0.299 N 
ATOM     10  C   UNL d   1       7.207   2.744 -14.678  0.00  0.00     0.093 C 
ATOM     11  C   UNL d   1       9.543   3.250 -14.664  0.00  0.00     0.058 A 
ATOM     12  C   UNL d   1       6.650   1.551 -13.873  0.00  0.00     0.025 C 
ATOM     13  C   UNL d   1       7.833   2.252 -16.016  0.00  0.00     0.051 C 
ATOM     14  C   UNL d   1       9.297   2.567 -15.852  0.00  0.00    -0.004 A 
ATOM     15  C   UNL d   1      10.342   2.223 -16.758  0.00  0.00    -0.003 A 
ATOM     16  C   UNL d   1      11.663   2.589 -16.413  0.00  0.00    -0.000 A 
ATOM     17  C   UNL d   1      11.909   3.271 -15.205  0.00  0.00     0.002 A 
ATOM     18  C   UNL d   1      10.864   3.605 -14.300  0.00  0.00     0.017 A 
ATOM     19  O   UNL d   1       6.876   4.423 -12.464  0.00  0.00    -0.270 OA
ENDBRANCH   7   8
ENDBRANCH   1   7
BRANCH   4  20
ATOM     20  C   UNL d   1       9.026   7.128  -6.954  0.00  0.00     0.277 C 
BRANCH  20  21
ATOM     21  C   UNL d   1      10.152   7.946  -6.353  0.00  0.00     0.012 A 
ATOM     22  C   UNL d   1      10.834   7.445  -5.233  0.00  0.00     0.009 A 
ATOM     23  C   UNL d   1      11.858   8.201  -4.630  0.00  0.00     0.058 A 
ATOM     24  C   UNL d   1      12.258   9.425  -5.201  0.00  0.00     0.011 A 
ATOM     25 CL   UNL d   1      12.628   7.623  -3.202  0.00  0.00    -0.082 Cl
ATOM     26  C   UNL d   1      11.596   9.916  -6.341  0.00  0.00     0.001 A 
ATOM     27  C   UNL d   1      10.525   9.190  -6.892  0.00  0.00    -0.002 A 
ENDBRANCH  20  21
ENDBRANCH   4  20
TORSDOF 4
