REMARK  10 active torsions:
REMARK  status: ('A' for Active; 'I' for Inactive)
REMARK       I    between atoms: C_2  and  N_3 
REMARK    1  A    between atoms: C_2  and  C_24 
REMARK    2  A    between atoms: N_3  and  C_4 
REMARK    3  A    between atoms: C_4  and  C_5 
REMARK    4  A    between atoms: C_5  and  C_6 
REMARK    5  A    between atoms: C_6  and  C_7 
REMARK    6  A    between atoms: C_7  and  N_8 
REMARK    7  A    between atoms: N_11  and  C_12 
REMARK    8  A    between atoms: C_17  and  O_18 
REMARK    9  A    between atoms: O_18  and  C_19 
REMARK   10  A    between atoms: C_19  and  C_20 
ROOT
ATOM      1  N   UNL d   1       7.571   5.170 -12.459  0.00  0.00     0.141 N 
ATOM      2  C   UNL d   1       8.491   4.065 -12.738  0.00  0.00     0.274 C 
ATOM      3  C   UNL d   1       8.113   3.345 -14.040  0.00  0.00     0.137 C 
ATOM      4  N   UNL d   1       6.707   2.924 -14.032  0.00  0.00    -0.343 N 
ATOM      5  C   UNL d   1       5.757   3.981 -13.638  0.00  0.00     0.137 C 
ATOM      6  C   UNL d   1       6.203   4.654 -12.329  0.00  0.00     0.274 C 
ENDROOT
BRANCH   1   7
ATOM      7  C   UNL d   1       7.949   5.803 -11.196  0.00  0.00     0.251 C 
BRANCH   7   8
ATOM      8  C   UNL d   1       9.103   6.803 -11.386  0.00  0.00     0.037 C 
BRANCH   8   9
ATOM      9  C   UNL d   1       9.470   7.527 -10.079  0.00  0.00     0.029 C 
BRANCH   9  10
ATOM     10  C   UNL d   1      10.979   7.615  -9.796  0.00  0.00     0.129 C 
BRANCH  10  11
ATOM     11  N   UNL d   1      11.269   8.195  -8.492  0.00  0.00    -0.234 NA
ATOM     12  C   UNL d   1      10.897   7.686  -7.308  0.00  0.00     0.276 C 
ATOM     13  O   UNL d   1      10.393   6.571  -7.168  0.00  0.00    -0.266 OA
BRANCH  12  14
ATOM     14  C   UNL d   1      11.150   8.579  -6.160  0.00  0.00     0.078 A 
ATOM     15  C   UNL d   1      11.520   8.114  -4.850  0.00  0.00     0.024 A 
ATOM     16  C   UNL d   1      11.620   9.262  -4.016  0.00  0.00     0.082 A 
ATOM     17  C   UNL d   1      11.814   6.862  -4.260  0.00  0.00     0.002 A 
ATOM     18  N   UNL d   1      11.246  10.333  -4.803  0.00  0.00    -0.244 NA
ATOM     19  C   UNL d   1      12.032   9.180  -2.678  0.00  0.00     0.019 A 
ATOM     20  C   UNL d   1      11.009   9.935  -6.095  0.00  0.00     0.104 A 
ATOM     21  C   UNL d   1      12.329   7.928  -2.124  0.00  0.00     0.002 A 
ATOM     22  C   UNL d   1      12.212   6.770  -2.913  0.00  0.00     0.000 A 
ENDBRANCH  12  14
ENDBRANCH  10  11
ENDBRANCH   9  10
ENDBRANCH   8   9
ENDBRANCH   7   8
ENDBRANCH   1   7
BRANCH   4  23
ATOM     23  C   UNL d   1       6.305   1.629 -14.337  0.00  0.00     0.079 A 
ATOM     24  C   UNL d   1       6.879   0.877 -15.421  0.00  0.00     0.110 A 
ATOM     25  C   UNL d   1       6.390  -0.413 -15.694  0.00  0.00     0.026 A 
ATOM     26  C   UNL d   1       5.356  -0.989 -14.928  0.00  0.00     0.002 A 
ATOM     27  C   UNL d   1       4.763  -0.248 -13.900  0.00  0.00     0.002 A 
ATOM     28  C   UNL d   1       5.261   1.030 -13.586  0.00  0.00     0.019 A 
BRANCH  24  29
ATOM     29  O   UNL d   1       7.822   1.501 -16.221  0.00  0.00    -0.326 OA
BRANCH  29  30
ATOM     30  C   UNL d   1       8.690   0.762 -17.078  0.00  0.00     0.187 C 
BRANCH  30  31
ATOM     31  C   UNL d   1      10.104   0.706 -16.494  0.00  0.00     0.226 C 
ATOM     32  F   UNL d   1      10.134  -0.015 -15.379  0.00  0.00    -0.232 F 
ENDBRANCH  30  31
ENDBRANCH  29  30
ENDBRANCH  24  29
ENDBRANCH   4  23
TORSDOF 10
