REMARK  7 active torsions:
REMARK  status: ('A' for Active; 'I' for Inactive)
REMARK    1  A    between atoms: O_2  and  C_3 
REMARK    2  A    between atoms: C_6  and  O_7 
REMARK    3  A    between atoms: O_7  and  C_8 
REMARK    4  A    between atoms: C_8  and  C_9 
REMARK    5  A    between atoms: C_9  and  N_10 
REMARK       I    between atoms: N_13  and  C_14 
REMARK    6  A    between atoms: C_14  and  C_16 
REMARK    7  A    between atoms: C_20  and  O_21 
ROOT
ATOM      1  N   UNL d   1       8.992   5.079 -13.065  0.00  0.00     0.144 N 
ATOM      2  C   UNL d   1      10.066   4.480 -13.875  0.00  0.00     0.274 C 
ATOM      3  C   UNL d   1       9.473   3.834 -15.151  0.00  0.00     0.140 C 
ATOM      4  N   UNL d   1       8.400   2.871 -14.819  0.00  0.00    -0.312 N 
ATOM      5  C   UNL d   1       8.409   1.593 -15.302  0.00  0.00     0.257 C 
ATOM      6  O   UNL d   1       9.404   1.077 -15.813  0.00  0.00    -0.267 OA
ATOM      7  C   UNL d   1       7.374   3.493 -13.952  0.00  0.00     0.140 C 
ATOM      8  C   UNL d   1       8.061   4.023 -12.700  0.00  0.00     0.274 C 
ENDROOT
BRANCH   1   9
ATOM      9  C   UNL d   1       9.571   5.653 -11.856  0.00  0.00     0.283 C 
BRANCH   9  10
ATOM     10  C   UNL d   1       8.569   6.340 -10.914  0.00  0.00     0.184 C 
BRANCH  10  11
ATOM     11  O   UNL d   1       8.893   5.987  -9.576  0.00  0.00    -0.329 OA
BRANCH  11  12
ATOM     12  C   UNL d   1       9.671   6.849  -8.848  0.00  0.00     0.094 A 
ATOM     13  C   UNL d   1       9.549   6.770  -7.453  0.00  0.00     0.026 A 
ATOM     14  C   UNL d   1      10.287   7.625  -6.627  0.00  0.00     0.026 A 
ATOM     15  C   UNL d   1      11.171   8.584  -7.180  0.00  0.00     0.094 A 
ATOM     16  C   UNL d   1      11.299   8.657  -8.586  0.00  0.00     0.026 A 
ATOM     17  C   UNL d   1      10.557   7.796  -9.414  0.00  0.00     0.026 A 
BRANCH  15  18
ATOM     18  O   UNL d   1      11.910   9.449  -6.400  0.00  0.00    -0.328 OA
ATOM     19  C   UNL d   1      11.759   9.315  -4.991  0.00  0.00     0.181 C 
ENDBRANCH  15  18
ENDBRANCH  11  12
ENDBRANCH  10  11
ENDBRANCH   9  10
ENDBRANCH   1   9
BRANCH   5  20
ATOM     20  C   UNL d   1       7.109   0.815 -15.331  0.00  0.00     0.058 A 
ATOM     21  C   UNL d   1       6.609   0.283 -16.544  0.00  0.00     0.029 A 
ATOM     22  C   UNL d   1       5.363  -0.428 -16.579  0.00  0.00     0.094 A 
ATOM     23  C   UNL d   1       4.635  -0.563 -15.379  0.00  0.00     0.024 A 
ATOM     24  C   UNL d   1       5.131  -0.045 -14.174  0.00  0.00     0.002 A 
ATOM     25  C   UNL d   1       6.382   0.580 -14.142  0.00  0.00     0.005 A 
BRANCH  22  26
ATOM     26  O   UNL d   1       4.929  -0.960 -17.774  0.00  0.00    -0.328 OA
ATOM     27  C   UNL d   1       3.759  -1.780 -17.709  0.00  0.00     0.181 C 
ENDBRANCH  22  26
ENDBRANCH   5  20
TORSDOF 7
