REMARK  8 active torsions:
REMARK  status: ('A' for Active; 'I' for Inactive)
REMARK    1  A    between atoms: C_2  and  C_4 
REMARK    2  A    between atoms: C_9  and  O_10 
REMARK    3  A    between atoms: O_10  and  C_11 
REMARK    4  A    between atoms: C_11  and  C_12 
REMARK    5  A    between atoms: C_12  and  N_13 
REMARK    6  A    between atoms: C_16  and  N_17 
REMARK    7  A    between atoms: N_17  and  S_18 
REMARK    8  A    between atoms: S_18  and  C_21 
ROOT
ATOM      1  N   UNL d   1       9.125   5.526 -12.054  0.00  0.00     0.142 N 
ATOM      2  C   UNL d   1       8.123   5.704 -13.096  0.00  0.00     0.253 C 
ATOM      3  C   UNL d   1       8.669   4.847 -14.236  0.00  0.00     0.063 C 
ATOM      4  C   UNL d   1       9.528   3.785 -13.562  0.00  0.00     0.151 C 
ATOM      5  C   UNL d   1       9.352   4.090 -12.078  0.00  0.00     0.275 C 
ENDROOT
BRANCH   1   6
ATOM      6  C   UNL d   1       8.573   5.968 -10.781  0.00  0.00     0.283 C 
BRANCH   6   7
ATOM      7  C   UNL d   1       9.464   5.670  -9.560  0.00  0.00     0.184 C 
BRANCH   7   8
ATOM      8  O   UNL d   1      10.300   6.798  -9.346  0.00  0.00    -0.329 OA
BRANCH   8   9
ATOM      9  C   UNL d   1      10.563   7.225  -8.071  0.00  0.00     0.090 A 
ATOM     10  C   UNL d   1      11.571   8.202  -7.872  0.00  0.00    -0.000 A 
ATOM     11  C   UNL d   1      11.849   8.707  -6.581  0.00  0.00    -0.002 A 
ATOM     12  C   UNL d   1      11.164   8.200  -5.465  0.00  0.00    -0.000 A 
ATOM     13  C   UNL d   1      10.188   7.205  -5.661  0.00  0.00     0.002 A 
ATOM     14  C   UNL d   1       9.865   6.746  -6.948  0.00  0.00     0.024 A 
BRANCH  10  15
ATOM     15  C   UNL d   1      12.375   8.722  -9.050  0.00  0.00     0.024 C 
ATOM     16  C   UNL d   1      11.508   9.538 -10.030  0.00  0.00     0.005 C 
ATOM     17  C   UNL d   1      13.216   7.696  -9.799  0.00  0.00     0.005 C 
ENDBRANCH  10  15
ENDBRANCH   8   9
ENDBRANCH   7   8
ENDBRANCH   6   7
ENDBRANCH   1   6
BRANCH   4  18
ATOM     18  N   UNL d   1       9.075   2.430 -13.861  0.00  0.00    -0.184 NA
BRANCH  18  19
ATOM     19  S   UNL d   1       9.205   1.775 -15.446  0.00  0.00     0.287 S 
ATOM     20  O   UNL d   1       9.160   2.880 -16.420  0.00  0.00    -0.198 OA
ATOM     21  O   UNL d   1      10.304   0.802 -15.440  0.00  0.00    -0.198 OA
BRANCH  19  22
ATOM     22  C   UNL d   1       7.698   0.866 -15.671  0.00  0.00     0.135 A 
ATOM     23  S   UNL d   1       6.466   0.790 -14.436  0.00  0.00    -0.062 SA
ATOM     24  C   UNL d   1       5.503  -0.247 -15.447  0.00  0.00     0.088 A 
ATOM     25  C   UNL d   1       6.095  -0.507 -16.656  0.00  0.00     0.019 A 
ATOM     26 CL   UNL d   1       3.999  -0.813 -14.839  0.00  0.00    -0.075 Cl
ATOM     27  C   UNL d   1       7.358   0.145 -16.785  0.00  0.00     0.021 A 
ENDBRANCH  19  22
ENDBRANCH  18  19
ENDBRANCH   4  18
TORSDOF 8
