REMARK  6 active torsions:
REMARK  status: ('A' for Active; 'I' for Inactive)
REMARK    1  A    between atoms: C_2  and  C_3 
REMARK       I    between atoms: C_3  and  N_5 
REMARK    2  A    between atoms: N_5  and  C_6 
REMARK    3  A    between atoms: N_5  and  C_12 
REMARK    4  A    between atoms: N_15  and  C_16 
REMARK    5  A    between atoms: C_16  and  C_17 
REMARK    6  A    between atoms: C_17  and  C_18 
ROOT
ATOM      1  C   UNL d   1       8.935   3.926 -13.925  0.00  0.00     0.092 C 
ATOM      2  C   UNL d   1       8.938   5.450 -14.013  0.00  0.00     0.058 C 
ATOM      3  C   UNL d   1       8.538   6.130 -12.699  0.00  0.00     0.252 C 
ATOM      4  N   UNL d   1       9.445   5.678 -11.650  0.00  0.00     0.137 N 
ATOM      5  C   UNL d   1       9.281   4.248 -11.441  0.00  0.00     0.252 C 
ATOM      6  C   UNL d   1       9.723   3.485 -12.695  0.00  0.00     0.058 C 
ENDROOT
BRANCH   1   7
ATOM      7  N   UNL d   1       9.416   3.274 -15.164  0.00  0.00    -0.301 N 
ATOM      8  C   UNL d   1      10.690   3.472 -15.645  0.00  0.00     0.237 C 
ATOM      9  O   UNL d   1      11.509   4.172 -15.049  0.00  0.00    -0.272 OA
BRANCH   8  10
ATOM     10  C   UNL d   1      11.143   2.807 -16.967  0.00  0.00     0.088 C 
ATOM     11  C   UNL d   1      12.605   2.349 -16.933  0.00  0.00     0.010 C 
ENDBRANCH   8  10
BRANCH   7  12
ATOM     12  C   UNL d   1       8.516   2.351 -15.809  0.00  0.00     0.062 A 
ATOM     13  C   UNL d   1       7.832   1.371 -15.053  0.00  0.00     0.017 A 
ATOM     14  C   UNL d   1       6.954   0.458 -15.680  0.00  0.00     0.002 A 
ATOM     15  C   UNL d   1       6.756   0.515 -17.072  0.00  0.00     0.000 A 
ATOM     16  C   UNL d   1       7.411   1.490 -17.836  0.00  0.00     0.002 A 
ATOM     17  C   UNL d   1       8.271   2.430 -17.195  0.00  0.00     0.017 A 
ENDBRANCH   7  12
ENDBRANCH   1   7
BRANCH   4  18
ATOM     18  C   UNL d   1       9.141   6.348 -10.392  0.00  0.00     0.255 C 
BRANCH  18  19
ATOM     19  C   UNL d   1       9.766   7.761 -10.326  0.00  0.00     0.062 C 
BRANCH  19  20
ATOM     20  C   UNL d   1      10.189   8.138  -8.912  0.00  0.00    -0.020 A 
ATOM     21  C   UNL d   1       9.336   7.883  -7.820  0.00  0.00    -0.004 A 
ATOM     22  C   UNL d   1       9.746   8.188  -6.509  0.00  0.00    -0.000 A 
ATOM     23  C   UNL d   1      11.008   8.765  -6.279  0.00  0.00    -0.000 A 
ATOM     24  C   UNL d   1      11.865   9.022  -7.365  0.00  0.00    -0.000 A 
ATOM     25  C   UNL d   1      11.460   8.712  -8.678  0.00  0.00    -0.004 A 
ENDBRANCH  19  20
ENDBRANCH  18  19
ENDBRANCH   4  18
TORSDOF 6
