REMARK  7 active torsions:
REMARK  status: ('A' for Active; 'I' for Inactive)
REMARK    1  A    between atoms: C_2  and  O_4 
REMARK    2  A    between atoms: O_4  and  C_5 
REMARK    3  A    between atoms: C_10  and  N_11 
REMARK    4  A    between atoms: N_14  and  C_15 
REMARK    5  A    between atoms: C_18  and  N_19 
REMARK    6  A    between atoms: N_19  and  S_20 
REMARK    7  A    between atoms: S_20  and  C_23 
ROOT
ATOM      1  C   UNL d   1       8.216   5.053 -11.994  0.00  0.00     0.220 C 
ATOM      2  C   UNL d   1       8.512   4.652 -10.546  0.00  0.00     0.035 C 
ATOM      3  C   UNL d   1       8.694   5.827  -9.604  0.00  0.00     0.027 C 
ATOM      4  C   UNL d   1       9.762   6.751 -10.154  0.00  0.00     0.116 C 
ATOM      5  C   UNL d   1       9.438   7.230 -11.584  0.00  0.00     0.027 C 
ATOM      6  C   UNL d   1       9.287   6.026 -12.512  0.00  0.00     0.035 C 
ENDROOT
BRANCH   1   7
ATOM      7  N   UNL d   1       8.091   3.848 -12.831  0.00  0.00     0.139 N 
ATOM      8  C   UNL d   1       7.186   4.041 -13.961  0.00  0.00     0.274 C 
ATOM      9  C   UNL d   1       6.905   2.706 -14.694  0.00  0.00     0.137 C 
ATOM     10  N   UNL d   1       8.160   2.095 -15.105  0.00  0.00    -0.343 N 
ATOM     11  C   UNL d   1       9.147   1.942 -14.053  0.00  0.00     0.137 C 
ATOM     12  C   UNL d   1       9.365   3.286 -13.328  0.00  0.00     0.274 C 
BRANCH  10  13
ATOM     13  C   UNL d   1       8.447   1.730 -16.444  0.00  0.00     0.079 A 
ATOM     14  C   UNL d   1       9.646   2.152 -17.062  0.00  0.00     0.109 A 
ATOM     15  C   UNL d   1       9.938   1.705 -18.380  0.00  0.00     0.026 A 
ATOM     16  C   UNL d   1       9.001   0.913 -19.076  0.00  0.00     0.002 A 
ATOM     17  C   UNL d   1       7.804   0.511 -18.461  0.00  0.00     0.002 A 
ATOM     18  C   UNL d   1       7.528   0.912 -17.133  0.00  0.00     0.019 A 
BRANCH  14  19
ATOM     19  O   UNL d   1      10.459   3.037 -16.378  0.00  0.00    -0.332 OA
BRANCH  19  20
ATOM     20  C   UNL d   1      11.696   3.495 -16.907  0.00  0.00     0.122 C 
ATOM     21  C   UNL d   1      12.381   4.267 -15.766  0.00  0.00     0.033 C 
ATOM     22  C   UNL d   1      11.484   4.418 -18.118  0.00  0.00     0.033 C 
ENDBRANCH  19  20
ENDBRANCH  14  19
ENDBRANCH  10  13
ENDBRANCH   1   7
BRANCH   4  23
ATOM     23  N   UNL d   1       9.889   7.879  -9.260  0.00  0.00    -0.187 NA
BRANCH  23  24
ATOM     24  S   UNL d   1      11.385   8.684  -9.017  0.00  0.00     0.283 S 
ATOM     25  O   UNL d   1      12.463   7.754  -9.438  0.00  0.00    -0.199 OA
ATOM     26  O   UNL d   1      11.233   9.971  -9.630  0.00  0.00    -0.199 OA
BRANCH  24  27
ATOM     27  C   UNL d   1      11.431   8.793  -7.224  0.00  0.00     0.133 A 
ATOM     28  C   UNL d   1      11.432   7.640  -6.413  0.00  0.00     0.163 A 
ATOM     29  C   UNL d   1      11.473   7.790  -5.008  0.00  0.00     0.086 A 
ATOM     30  F   UNL d   1      11.416   6.403  -6.967  0.00  0.00    -0.203 F 
ATOM     31  C   UNL d   1      11.460   9.063  -4.417  0.00  0.00     0.014 A 
ATOM     32 CL   UNL d   1      11.557   6.422  -3.974  0.00  0.00    -0.080 Cl
ATOM     33  C   UNL d   1      11.420  10.200  -5.237  0.00  0.00     0.002 A 
ATOM     34  C   UNL d   1      11.450  10.069  -6.635  0.00  0.00     0.015 A 
ENDBRANCH  24  27
ENDBRANCH  23  24
ENDBRANCH   4  23
TORSDOF 7
