REMARK  8 active torsions:
REMARK  status: ('A' for Active; 'I' for Inactive)
REMARK    1  A    between atoms: S_2  and  N_5 
REMARK    2  A    between atoms: N_5  and  C_6 
REMARK    3  A    between atoms: C_8  and  O_9 
REMARK    4  A    between atoms: O_9  and  C_10 
REMARK    5  A    between atoms: C_10  and  C_11 
REMARK    6  A    between atoms: C_11  and  N_12 
REMARK    7  A    between atoms: C_15  and  C_16 
REMARK    8  A    between atoms: C_16  and  C_17 
ROOT
ATOM      1  N   UNL d   1       8.684   5.243 -10.847  0.00  0.00     0.140 N 
ATOM      2  C   UNL d   1       8.527   5.373  -9.400  0.00  0.00     0.250 C 
ATOM      3  C   UNL d   1       9.767   6.022  -8.768  0.00  0.00     0.036 C 
ATOM      4  C   UNL d   1      10.082   7.418  -9.364  0.00  0.00     0.008 C 
ATOM      5  C   UNL d   1      10.066   7.244 -10.867  0.00  0.00     0.036 C 
ATOM      6  C   UNL d   1       8.816   6.582 -11.422  0.00  0.00     0.250 C 
ENDROOT
BRANCH   1   7
ATOM      7  C   UNL d   1       7.466   4.616 -11.338  0.00  0.00     0.283 C 
BRANCH   7   8
ATOM      8  C   UNL d   1       7.496   4.308 -12.841  0.00  0.00     0.184 C 
BRANCH   8   9
ATOM      9  O   UNL d   1       6.218   3.823 -13.164  0.00  0.00    -0.329 OA
BRANCH   9  10
ATOM     10  C   UNL d   1       6.169   2.528 -13.589  0.00  0.00     0.096 A 
ATOM     11  C   UNL d   1       7.088   1.952 -14.504  0.00  0.00     0.046 A 
ATOM     12  C   UNL d   1       7.014   0.595 -14.791  0.00  0.00     0.123 A 
ATOM     13  C   UNL d   1       5.971  -0.193 -14.264  0.00  0.00     0.159 A 
ATOM     14  C   UNL d   1       5.006   0.402 -13.425  0.00  0.00     0.033 A 
ATOM     15  F   UNL d   1       5.862  -1.496 -14.570  0.00  0.00    -0.203 F 
ATOM     16  C   UNL d   1       5.125   1.771 -13.080  0.00  0.00     0.027 A 
BRANCH  12  17
ATOM     17  N   UNL d   1       7.977  -0.012 -15.619  0.00  0.00    -0.160 NA
BRANCH  17  18
ATOM     18  S   UNL d   1       9.376   0.709 -16.326  0.00  0.00     0.266 S 
ATOM     19  C   UNL d   1      10.405   1.228 -14.881  0.00  0.00     0.165 C 
ATOM     20  O   UNL d   1       8.923   1.887 -17.073  0.00  0.00    -0.203 OA
ATOM     21  O   UNL d   1      10.051  -0.406 -17.012  0.00  0.00    -0.203 OA
ENDBRANCH  17  18
ENDBRANCH  12  17
ENDBRANCH   9  10
ENDBRANCH   8   9
ENDBRANCH   7   8
ENDBRANCH   1   7
BRANCH   4  22
ATOM     22  C   UNL d   1      11.446   7.984  -8.918  0.00  0.00     0.026 C 
BRANCH  22  23
ATOM     23  C   UNL d   1      11.418   8.358  -7.465  0.00  0.00    -0.021 A 
ATOM     24  C   UNL d   1      11.432   7.376  -6.443  0.00  0.00     0.015 A 
ATOM     25  C   UNL d   1      11.468   7.793  -5.107  0.00  0.00     0.080 A 
ATOM     26  C   UNL d   1      11.485   9.174  -4.766  0.00  0.00    -0.004 A 
ATOM     27  N   UNL d   1      11.543   6.827  -4.091  0.00  0.00    -0.212 NA
ATOM     28  C   UNL d   1      11.431  10.131  -5.791  0.00  0.00    -0.003 A 
ATOM     29  C   UNL d   1      11.523   9.576  -3.313  0.00  0.00     0.038 C 
ATOM     30  C   UNL d   1      11.385   9.707  -7.120  0.00  0.00    -0.004 A 
ATOM     31  C   UNL d   1      12.244   8.549  -2.449  0.00  0.00     0.095 C 
ATOM     32  C   UNL d   1      11.891   7.113  -2.836  0.00  0.00     0.256 C 
ATOM     33  O   UNL d   1      11.991   6.233  -2.014  0.00  0.00    -0.270 OA
ENDBRANCH  22  23
ENDBRANCH   4  22
TORSDOF 8
