REMARK  0 active torsions:
REMARK  status: ('A' for Active; 'I' for Inactive)
ROOT
ATOM      1  C   UNL d   1      10.880   8.581 -10.334  0.00  0.00     0.003 A 
ATOM      2  C   UNL d   1      11.508   8.844  -9.110  0.00  0.00     0.017 A 
ATOM      3  C   UNL d   1      11.139   8.182  -7.929  0.00  0.00     0.057 A 
ATOM      4  C   UNL d   1      10.142   7.213  -8.076  0.00  0.00     0.031 A 
ATOM      5  C   UNL d   1       9.525   6.418  -7.114  0.00  0.00     0.002 C 
ATOM      6  C   UNL d   1       8.515   5.700  -7.714  0.00  0.00     0.095 C 
ATOM      7  N   UNL d   1       8.619   5.944  -9.062  0.00  0.00    -0.244 NA
ATOM      8  C   UNL d   1       9.542   6.908  -9.280  0.00  0.00     0.083 A 
ATOM      9  C   UNL d   1       9.890   7.603 -10.412  0.00  0.00     0.019 A 
ATOM     10  C   UNL d   1      10.159   6.655  -5.749  0.00  0.00     0.052 C 
ATOM     11  C   UNL d   1      10.818   8.005  -5.501  0.00  0.00     0.122 C 
ATOM     12  C   UNL d   1      11.665   7.958  -4.192  0.00  0.00     0.312 C 
ATOM     13  N   UNL d   1      12.146   9.302  -3.905  0.00  0.00     0.343 N 
ATOM     14  C   UNL d   1      13.053   9.585  -4.988  0.00  0.00     0.314 C 
ATOM     15  C   UNL d   1      12.308   9.648  -6.372  0.00  0.00     0.140 C 
ATOM     16  N   UNL d   1      11.635   8.409  -6.637  0.00  0.00    -0.345 N 
ENDROOT
TORSDOF 0
