REMARK  8 active torsions:
REMARK  status: ('A' for Active; 'I' for Inactive)
REMARK    1  A    between atoms: S_2  and  C_4 
REMARK    2  A    between atoms: S_2  and  N_9 
REMARK    3  A    between atoms: C_4  and  C_5 
REMARK    4  A    between atoms: N_9  and  C_10 
REMARK    5  A    between atoms: C_13  and  C_14 
REMARK    6  A    between atoms: C_14  and  C_15 
REMARK    7  A    between atoms: C_15  and  N_16 
REMARK    8  A    between atoms: N_19  and  C_20 
ROOT
ATOM      1  C   UNL d   1       8.385   4.084 -14.386  0.00  0.00     0.035 C 
ENDROOT
BRANCH   1   2
ATOM      2  C   UNL d   1       9.321   3.059 -15.058  0.00  0.00     0.002 C 
ATOM      3  C   UNL d   1       8.842   2.785 -16.492  0.00  0.00     0.002 C 
ATOM      4  C   UNL d   1       9.769   1.825 -17.238  0.00  0.00     0.025 C 
ATOM      5  C   UNL d   1      11.216   2.349 -17.244  0.00  0.00     0.116 C 
ATOM      6  C   UNL d   1      11.719   2.589 -15.815  0.00  0.00     0.025 C 
ATOM      7  C   UNL d   1      10.793   3.547 -15.061  0.00  0.00     0.002 C 
BRANCH   5   8
ATOM      8  N   UNL d   1      12.096   1.394 -17.916  0.00  0.00    -0.190 NA
BRANCH   8   9
ATOM      9  S   UNL d   1      11.890   1.103 -19.599  0.00  0.00     0.269 S 
ATOM     10  O   UNL d   1      11.444   2.371 -20.200  0.00  0.00    -0.203 OA
ATOM     11  O   UNL d   1      11.075  -0.114 -19.728  0.00  0.00    -0.203 OA
BRANCH   9  12
ATOM     12  C   UNL d   1      13.616   0.805 -20.151  0.00  0.00     0.249 C 
BRANCH  12  13
ATOM     13  C   UNL d   1      13.914  -0.675 -20.384  0.00  0.00     0.415 C 
ATOM     14  F   UNL d   1      15.190  -0.802 -20.748  0.00  0.00    -0.169 F 
ATOM     15  F   UNL d   1      13.713  -1.358 -19.257  0.00  0.00    -0.169 F 
ATOM     16  F   UNL d   1      13.145  -1.167 -21.357  0.00  0.00    -0.169 F 
ENDBRANCH  12  13
ENDBRANCH   9  12
ENDBRANCH   8   9
ENDBRANCH   5   8
ENDBRANCH   1   2
BRANCH   1  17
ATOM     17  C   UNL d   1       8.602   4.125 -12.881  0.00  0.00     0.250 C 
BRANCH  17  18
ATOM     18  N   UNL d   1       7.830   5.184 -12.236  0.00  0.00     0.141 N 
ATOM     19  C   UNL d   1       7.775   4.949 -10.787  0.00  0.00     0.274 C 
ATOM     20  C   UNL d   1       9.185   4.966 -10.150  0.00  0.00     0.137 C 
ATOM     21  N   UNL d   1       9.845   6.236 -10.463  0.00  0.00    -0.343 N 
ATOM     22  C   UNL d   1       9.801   6.653 -11.867  0.00  0.00     0.137 C 
ATOM     23  C   UNL d   1       8.383   6.529 -12.442  0.00  0.00     0.274 C 
BRANCH  21  24
ATOM     24  C   UNL d   1      10.364   7.077  -9.470  0.00  0.00     0.081 A 
ATOM     25  C   UNL d   1       9.795   7.161  -8.199  0.00  0.00     0.135 A 
ATOM     26  C   UNL d   1      10.330   7.963  -7.195  0.00  0.00     0.121 A 
ATOM     27  O   UNL d   1       8.695   6.536  -7.733  0.00  0.00    -0.298 OA
ATOM     28  C   UNL d   1      11.492   8.711  -7.384  0.00  0.00     0.026 A 
ATOM     29  O   UNL d   1       9.563   7.856  -6.093  0.00  0.00    -0.299 OA
ATOM     30  C   UNL d   1      12.099   8.640  -8.644  0.00  0.00     0.004 A 
ATOM     31  C   UNL d   1      11.524   7.859  -9.677  0.00  0.00     0.019 A 
ATOM     32  C   UNL d   1       8.521   6.992  -6.441  0.00  0.00     0.304 A 
ENDBRANCH  21  24
ENDBRANCH  17  18
ENDBRANCH   1  17
TORSDOF 8
