REMARK  8 active torsions:
REMARK  status: ('A' for Active; 'I' for Inactive)
REMARK       I    between atoms: C_2  and  N_3 
REMARK    1  A    between atoms: C_2  and  C_23 
REMARK    2  A    between atoms: N_3  and  C_4 
REMARK    3  A    between atoms: C_4  and  C_5 
REMARK    4  A    between atoms: C_5  and  C_6 
REMARK    5  A    between atoms: C_6  and  C_8 
REMARK    6  A    between atoms: C_8  and  N_9 
REMARK    7  A    between atoms: N_12  and  C_13 
REMARK    8  A    between atoms: C_26  and  C_27 
ROOT
ATOM      1  C   UNL d   1      10.031   5.103 -13.049  0.00  0.00     0.064 C 
ENDROOT
BRANCH   1   2
ATOM      2  C   UNL d   1       9.418   6.455 -12.639  0.00  0.00     0.132 C 
BRANCH   2   3
ATOM      3  N   UNL d   1       9.678   6.765 -11.239  0.00  0.00    -0.234 NA
ATOM      4  C   UNL d   1       9.265   6.077 -10.162  0.00  0.00     0.275 C 
ATOM      5  O   UNL d   1       8.503   5.112 -10.216  0.00  0.00    -0.266 OA
BRANCH   4   6
ATOM      6  C   UNL d   1       9.768   6.609  -8.849  0.00  0.00     0.058 A 
ATOM      7  C   UNL d   1       9.042   6.367  -7.668  0.00  0.00     0.005 A 
ATOM      8  C   UNL d   1       9.544   6.795  -6.430  0.00  0.00     0.002 A 
ATOM      9  C   UNL d   1      10.770   7.479  -6.322  0.00  0.00     0.018 A 
ATOM     10  C   UNL d   1      11.489   7.730  -7.501  0.00  0.00     0.002 A 
ATOM     11  C   UNL d   1      11.010   7.286  -8.750  0.00  0.00     0.005 A 
BRANCH   9  12
ATOM     12  C   UNL d   1      11.280   7.919  -5.015  0.00  0.00     0.081 A 
ATOM     13  N   UNL d   1      11.145   9.240  -4.758  0.00  0.00    -0.244 NA
ATOM     14  C   UNL d   1      11.589   9.704  -3.576  0.00  0.00     0.099 A 
ATOM     15  C   UNL d   1      12.197   8.899  -2.598  0.00  0.00     0.021 A 
ATOM     16  C   UNL d   1      12.322   7.524  -2.853  0.00  0.00     0.003 A 
ATOM     17  C   UNL d   1      11.857   7.026  -4.084  0.00  0.00     0.019 A 
ENDBRANCH   9  12
ENDBRANCH   4   6
ENDBRANCH   2   3
ENDBRANCH   1   2
BRANCH   1  18
ATOM     18  C   UNL d   1      10.073   4.846 -14.555  0.00  0.00     0.196 C 
ATOM     19  F   UNL d   1      11.107   5.526 -15.063  0.00  0.00    -0.235 F 
BRANCH  18  20
ATOM     20  C   UNL d   1      10.274   3.346 -14.871  0.00  0.00     0.285 C 
BRANCH  20  21
ATOM     21  N   UNL d   1       9.182   2.482 -14.405  0.00  0.00     0.144 N 
ATOM     22  C   UNL d   1       7.862   2.957 -14.826  0.00  0.00     0.274 C 
ATOM     23  C   UNL d   1       6.723   2.086 -14.314  0.00  0.00     0.137 C 
ATOM     24  N   UNL d   1       6.943   0.709 -14.701  0.00  0.00    -0.344 N 
ATOM     25  C   UNL d   1       8.265   0.169 -14.426  0.00  0.00     0.137 C 
ATOM     26  C   UNL d   1       9.370   1.125 -14.935  0.00  0.00     0.274 C 
BRANCH  24  27
ATOM     27  C   UNL d   1       5.994  -0.001 -15.433  0.00  0.00     0.068 A 
ATOM     28  C   UNL d   1       6.002  -0.056 -16.858  0.00  0.00     0.084 A 
ATOM     29  C   UNL d   1       5.031  -0.819 -17.537  0.00  0.00     0.070 A 
ATOM     30 CL   UNL d   1       7.191   0.822 -17.759  0.00  0.00    -0.080 Cl
ATOM     31  C   UNL d   1       4.048  -1.519 -16.815  0.00  0.00     0.012 A 
ATOM     32 CL   UNL d   1       5.020  -0.912 -19.263  0.00  0.00    -0.081 Cl
ATOM     33  C   UNL d   1       4.016  -1.441 -15.412  0.00  0.00     0.002 A 
ATOM     34  C   UNL d   1       4.983  -0.691 -14.725  0.00  0.00     0.018 A 
ENDBRANCH  24  27
ENDBRANCH  20  21
ENDBRANCH  18  20
ENDBRANCH   1  18
TORSDOF 8
