REMARK  3 active torsions:
REMARK  status: ('A' for Active; 'I' for Inactive)
REMARK    1  A    between atoms: C_8  and  N_9 
REMARK    2  A    between atoms: N_12  and  C_13 
REMARK    3  A    between atoms: C_13  and  C_14 
ROOT
ATOM      1  C   UNL d   1      14.864   5.662 -17.336  0.00  0.00     0.031 C 
ATOM      2  C   UNL d   1      13.449   5.388 -17.803  0.00  0.00    -0.022 A 
ATOM      3  C   UNL d   1      12.968   5.941 -19.005  0.00  0.00    -0.003 A 
ATOM      4  C   UNL d   1      11.650   5.678 -19.419  0.00  0.00     0.019 A 
ATOM      5  C   UNL d   1      10.796   4.870 -18.638  0.00  0.00     0.086 A 
ATOM      6  C   UNL d   1      11.255   4.340 -17.407  0.00  0.00     0.051 A 
ATOM      7  C   UNL d   1      12.597   4.587 -17.018  0.00  0.00     0.000 A 
ATOM      8  C   UNL d   1      10.354   3.596 -16.447  0.00  0.00     0.142 C 
ATOM      9  N   UNL d   1       9.455   2.727 -16.787  0.00  0.00    -0.226 NA
ATOM     10  C   UNL d   1       9.107   2.385 -18.092  0.00  0.00     0.119 A 
ATOM     11  C   UNL d   1       8.646   1.070 -18.294  0.00  0.00     0.024 A 
ATOM     12  C   UNL d   1       8.173   0.689 -19.560  0.00  0.00     0.022 A 
ATOM     13  C   UNL d   1       8.164   1.651 -20.584  0.00  0.00     0.101 A 
ATOM     14  N   UNL d   1       8.590   2.917 -20.407  0.00  0.00    -0.224 NA
ATOM     15  C   UNL d   1       9.064   3.271 -19.201  0.00  0.00     0.180 A 
ATOM     16  N   UNL d   1       9.527   4.580 -19.135  0.00  0.00    -0.225 NA
ENDROOT
BRANCH   8  17
ATOM     17  N   UNL d   1      10.513   3.941 -15.113  0.00  0.00    -0.330 N 
ATOM     18  C   UNL d   1      10.437   2.993 -14.015  0.00  0.00     0.138 C 
ATOM     19  C   UNL d   1       9.443   3.480 -12.934  0.00  0.00     0.275 C 
ATOM     20  N   UNL d   1       9.816   4.805 -12.437  0.00  0.00     0.145 N 
ATOM     21  C   UNL d   1       9.767   5.713 -13.574  0.00  0.00     0.275 C 
ATOM     22  C   UNL d   1      10.775   5.294 -14.652  0.00  0.00     0.138 C 
BRANCH  20  23
ATOM     23  C   UNL d   1       8.882   5.256 -11.396  0.00  0.00     0.277 C 
BRANCH  23  24
ATOM     24  C   UNL d   1       9.487   6.231 -10.392  0.00  0.00     0.011 A 
ATOM     25  C   UNL d   1       9.843   7.557 -10.745  0.00  0.00    -0.002 A 
ATOM     26  C   UNL d   1      10.431   8.413  -9.796  0.00  0.00    -0.000 A 
ATOM     27  C   UNL d   1      10.640   7.973  -8.476  0.00  0.00    -0.000 A 
ATOM     28  C   UNL d   1      10.262   6.665  -8.107  0.00  0.00    -0.000 A 
ATOM     29  C   UNL d   1       9.696   5.796  -9.063  0.00  0.00    -0.002 A 
ENDBRANCH  23  24
ENDBRANCH  20  23
ENDBRANCH   8  17
TORSDOF 3
