REMARK  3 active torsions:
REMARK  status: ('A' for Active; 'I' for Inactive)
REMARK    1  A    between atoms: C_9  and  C_10 
REMARK    2  A    between atoms: C_10  and  N_11 
REMARK    3  A    between atoms: N_14  and  C_15 
ROOT
ATOM      1  N   UNL d   1       9.399   6.783 -10.214  0.00  0.00     0.146 N 
ATOM      2  C   UNL d   1      10.610   7.572  -9.966  0.00  0.00     0.275 C 
ATOM      3  C   UNL d   1      10.362   8.603  -8.839  0.00  0.00     0.137 C 
ATOM      4  N   UNL d   1       9.916   7.915  -7.640  0.00  0.00    -0.344 N 
ATOM      5  C   UNL d   1       8.790   7.015  -7.803  0.00  0.00     0.137 C 
ATOM      6  C   UNL d   1       9.023   6.047  -8.990  0.00  0.00     0.275 C 
ENDROOT
BRANCH   1   7
ATOM      7  C   UNL d   1       9.549   5.880 -11.351  0.00  0.00     0.280 C 
BRANCH   7   8
ATOM      8  C   UNL d   1       8.361   5.211 -11.981  0.00  0.00     0.049 A 
ATOM      9  C   UNL d   1       6.995   5.438 -11.660  0.00  0.00     0.120 A 
ATOM     10  N   UNL d   1       6.143   4.719 -12.346  0.00  0.00    -0.164 NA
ATOM     11  N   UNL d   1       6.940   3.965 -13.154  0.00  0.00    -0.229 N 
ATOM     12  C   UNL d   1       6.478   3.045 -14.030  0.00  0.00     0.100 A 
ATOM     13  C   UNL d   1       8.304   4.263 -12.977  0.00  0.00     0.078 A 
ATOM     14  C   UNL d   1       7.372   2.379 -14.837  0.00  0.00     0.020 A 
ATOM     15  C   UNL d   1       8.758   2.634 -14.718  0.00  0.00    -0.001 A 
ATOM     16  C   UNL d   1       9.226   3.558 -13.808  0.00  0.00    -0.004 A 
ATOM     17  C   UNL d   1      10.708   3.821 -13.708  0.00  0.00     0.033 C 
ENDBRANCH   7   8
ENDBRANCH   1   7
BRANCH   4  18
ATOM     18  C   UNL d   1      10.562   8.053  -6.410  0.00  0.00     0.056 A 
ATOM     19  C   UNL d   1      10.830   6.908  -5.641  0.00  0.00     0.018 A 
ATOM     20  C   UNL d   1      11.483   7.003  -4.398  0.00  0.00     0.013 A 
ATOM     21  C   UNL d   1      11.861   8.262  -3.912  0.00  0.00     0.058 A 
ATOM     22  C   UNL d   1      11.585   9.415  -4.668  0.00  0.00     0.013 A 
ATOM     23 CL   UNL d   1      12.644   8.389  -2.378  0.00  0.00    -0.082 Cl
ATOM     24  C   UNL d   1      10.945   9.319  -5.924  0.00  0.00     0.018 A 
ENDBRANCH   4  18
TORSDOF 3
