REMARK  4 active torsions:
REMARK  status: ('A' for Active; 'I' for Inactive)
REMARK       I    between atoms: N_10  and  C_11 
REMARK    1  A    between atoms: C_11  and  C_13 
REMARK    2  A    between atoms: C_13  and  N_14 
REMARK    3  A    between atoms: N_17  and  C_18 
REMARK    4  A    between atoms: C_18  and  C_19 
ROOT
ATOM      1  N   UNL d   1       9.831   4.295 -13.289  0.00  0.00     0.151 N 
ATOM      2  C   UNL d   1      10.019   2.868 -13.606  0.00  0.00     0.286 C 
ATOM      3  C   UNL d   1      10.660   2.645 -14.995  0.00  0.00     0.286 C 
ATOM      4  N   UNL d   1       9.879   3.278 -16.062  0.00  0.00     0.146 N 
ATOM      5  C   UNL d   1       9.697   4.684 -15.693  0.00  0.00     0.286 C 
ATOM      6  C   UNL d   1       9.026   4.872 -14.354  0.00  0.00     0.286 C 
ENDROOT
BRANCH   1   7
ATOM      7  C   UNL d   1       9.218   4.506 -11.971  0.00  0.00     0.337 C 
BRANCH   7   8
ATOM      8  C   UNL d   1       9.378   5.943 -11.401  0.00  0.00     0.271 C 
ATOM      9  N   UNL d   1       9.732   6.086 -10.102  0.00  0.00    -0.299 N 
ATOM     10  C   UNL d   1       9.727   5.022  -9.075  0.00  0.00     0.093 A 
ATOM     11  C   UNL d   1      10.246   7.276  -9.514  0.00  0.00     0.058 A 
ATOM     12  C   UNL d   1       8.272   4.636  -8.780  0.00  0.00     0.025 C 
ATOM     13  C   UNL d   1      10.407   5.616  -7.829  0.00  0.00     0.051 A 
ATOM     14  C   UNL d   1      10.660   7.011  -8.217  0.00  0.00    -0.004 A 
ATOM     15  C   UNL d   1      11.260   7.964  -7.396  0.00  0.00    -0.003 A 
ATOM     16  C   UNL d   1      11.418   9.243  -7.919  0.00  0.00    -0.000 A 
ATOM     17  C   UNL d   1      11.000   9.541  -9.244  0.00  0.00     0.002 A 
ATOM     18  C   UNL d   1      10.392   8.569 -10.050  0.00  0.00     0.017 A 
ATOM     19  O   UNL d   1       9.156   6.908 -12.137  0.00  0.00    -0.270 OA
ENDBRANCH   7   8
ENDBRANCH   1   7
BRANCH   4  20
ATOM     20  C   UNL d   1      10.527   3.087 -17.367  0.00  0.00     0.278 C 
BRANCH  20  21
ATOM     21  C   UNL d   1       9.895   3.856 -18.543  0.00  0.00     0.021 A 
ATOM     22  C   UNL d   1       9.219   3.200 -19.602  0.00  0.00     0.056 A 
ATOM     23  C   UNL d   1       8.627   3.956 -20.641  0.00  0.00     0.011 A 
ATOM     24 CL   UNL d   1       9.056   1.474 -19.660  0.00  0.00    -0.083 Cl
ATOM     25  C   UNL d   1       8.661   5.361 -20.611  0.00  0.00     0.001 A 
ATOM     26  C   UNL d   1       9.344   6.021 -19.575  0.00  0.00    -0.000 A 
ATOM     27  C   UNL d   1      10.005   5.270 -18.591  0.00  0.00    -0.002 A 
ENDBRANCH  20  21
ENDBRANCH   4  20
TORSDOF 4
