REMARK  8 active torsions:
REMARK  status: ('A' for Active; 'I' for Inactive)
REMARK    1  A    between atoms: C_2  and  C_3 
REMARK       I    between atoms: C_2  and  N_10 
REMARK    2  A    between atoms: C_3  and  C_4 
REMARK    3  A    between atoms: C_4  and  C_6 
REMARK    4  A    between atoms: N_10  and  C_11 
REMARK    5  A    between atoms: C_14  and  C_15 
REMARK    6  A    between atoms: C_15  and  C_16 
REMARK    7  A    between atoms: C_16  and  N_17 
REMARK    8  A    between atoms: N_20  and  C_21 
ROOT
ATOM      1  C   UNL d   1       8.522   5.182 -12.369  0.00  0.00     0.035 C 
ENDROOT
BRANCH   1   2
ATOM      2  C   UNL d   1       8.583   5.850 -10.980  0.00  0.00     0.002 C 
ATOM      3  C   UNL d   1       8.720   4.822  -9.839  0.00  0.00     0.002 C 
ATOM      4  C   UNL d   1       8.809   5.505  -8.472  0.00  0.00     0.024 C 
ATOM      5  C   UNL d   1       9.965   6.517  -8.412  0.00  0.00     0.106 C 
ATOM      6  C   UNL d   1       9.819   7.577  -9.520  0.00  0.00     0.024 C 
ATOM      7  C   UNL d   1       9.683   6.933 -10.893  0.00  0.00     0.002 C 
BRANCH   5   8
ATOM      8  N   UNL d   1       9.971   7.152  -7.102  0.00  0.00    -0.240 NA
ATOM      9  C   UNL d   1      10.901   8.033  -6.694  0.00  0.00     0.254 C 
ATOM     10  O   UNL d   1      11.887   8.329  -7.354  0.00  0.00    -0.270 OA
BRANCH   9  11
ATOM     11  C   UNL d   1      10.664   8.691  -5.342  0.00  0.00     0.131 C 
BRANCH  11  12
ATOM     12  C   UNL d   1      11.911   8.734  -4.444  0.00  0.00     0.256 C 
ATOM     13  O   UNL d   1      11.732   9.743  -3.471  0.00  0.00    -0.214 OA
BRANCH  12  14
ATOM     14  C   UNL d   1      12.197   7.400  -3.732  0.00  0.00     0.426 C 
ATOM     15  F   UNL d   1      11.367   7.115  -2.740  0.00  0.00    -0.167 F 
ATOM     16  F   UNL d   1      12.157   6.390  -4.587  0.00  0.00    -0.167 F 
ATOM     17  F   UNL d   1      13.410   7.488  -3.244  0.00  0.00    -0.167 F 
ENDBRANCH  12  14
ENDBRANCH  11  12
ENDBRANCH   9  11
ENDBRANCH   5   8
ENDBRANCH   1   2
BRANCH   1  18
ATOM     18  C   UNL d   1       9.771   4.337 -12.670  0.00  0.00     0.250 C 
BRANCH  18  19
ATOM     19  N   UNL d   1       9.967   4.171 -14.094  0.00  0.00     0.141 N 
ATOM     20  C   UNL d   1      11.346   3.717 -14.289  0.00  0.00     0.274 C 
ATOM     21  C   UNL d   1      11.636   3.565 -15.774  0.00  0.00     0.138 C 
ATOM     22  N   UNL d   1      10.669   2.670 -16.378  0.00  0.00    -0.330 N 
ATOM     23  C   UNL d   1       9.270   2.970 -16.119  0.00  0.00     0.138 C 
ATOM     24  C   UNL d   1       9.049   3.152 -14.607  0.00  0.00     0.274 C 
BRANCH  22  25
ATOM     25  C   UNL d   1      11.055   1.561 -17.160  0.00  0.00     0.138 A 
ATOM     26  C   UNL d   1      12.144   1.612 -18.063  0.00  0.00     0.036 A 
ATOM     27  C   UNL d   1      12.459   0.502 -18.823  0.00  0.00     0.095 A 
ATOM     28  C   UNL d   1      13.044   2.741 -18.461  0.00  0.00     0.064 C 
ATOM     29  C   UNL d   1      11.720  -0.680 -18.686  0.00  0.00     0.045 A 
ATOM     30  O   UNL d   1      13.513   0.711 -19.668  0.00  0.00    -0.331 OA
ATOM     31  C   UNL d   1      10.648  -0.657 -17.766  0.00  0.00     0.103 A 
ATOM     32  N   UNL d   1      10.325   0.431 -17.025  0.00  0.00    -0.228 NA
ATOM     33  C   UNL d   1      14.029   2.025 -19.396  0.00  0.00     0.154 C 
ENDBRANCH  22  25
ENDBRANCH  18  19
ENDBRANCH   1  18
TORSDOF 8
