REMARK  10 active torsions:
REMARK  status: ('A' for Active; 'I' for Inactive)
REMARK    1  A    between atoms: O_2  and  C_3 
REMARK    2  A    between atoms: C_7  and  C_8 
REMARK       I    between atoms: C_8  and  N_10 
REMARK    3  A    between atoms: N_10  and  C_11 
REMARK    4  A    between atoms: C_11  and  C_12 
REMARK    5  A    between atoms: C_13  and  C_14 
REMARK    6  A    between atoms: C_14  and  N_15 
REMARK    7  A    between atoms: N_18  and  C_19 
REMARK    8  A    between atoms: C_24  and  O_25 
REMARK    9  A    between atoms: O_25  and  C_26 
REMARK   10  A    between atoms: C_26  and  C_27 
ROOT
ATOM      1  C   UNL d   1       8.196   4.958 -12.566  0.00  0.00    -0.003 C 
ATOM      2  C   UNL d   1       8.699   3.965 -13.313  0.00  0.00     0.006 C 
ENDROOT
BRANCH   2   3
ATOM      3  C   UNL d   1       8.771   4.020 -14.827  0.00  0.00     0.276 C 
BRANCH   3   4
ATOM      4  N   UNL d   1      10.128   3.870 -15.361  0.00  0.00     0.145 N 
ATOM      5  C   UNL d   1      11.043   4.836 -14.745  0.00  0.00     0.275 C 
ATOM      6  C   UNL d   1      12.467   4.665 -15.284  0.00  0.00     0.137 C 
ATOM      7  N   UNL d   1      12.485   4.763 -16.737  0.00  0.00    -0.343 N 
ATOM      8  C   UNL d   1      11.510   3.920 -17.420  0.00  0.00     0.137 C 
ATOM      9  C   UNL d   1      10.102   4.110 -16.812  0.00  0.00     0.275 C 
BRANCH   7  10
ATOM     10  C   UNL d   1      13.284   5.708 -17.394  0.00  0.00     0.079 A 
ATOM     11  C   UNL d   1      12.744   6.621 -18.338  0.00  0.00     0.110 A 
ATOM     12  C   UNL d   1      13.615   7.552 -18.974  0.00  0.00     0.026 A 
ATOM     13  C   UNL d   1      14.990   7.563 -18.689  0.00  0.00     0.002 A 
ATOM     14  C   UNL d   1      15.518   6.663 -17.755  0.00  0.00     0.002 A 
ATOM     15  C   UNL d   1      14.667   5.745 -17.105  0.00  0.00     0.019 A 
BRANCH  11  16
ATOM     16  O   UNL d   1      11.388   6.568 -18.583  0.00  0.00    -0.326 OA
BRANCH  16  17
ATOM     17  C   UNL d   1      10.827   7.388 -19.598  0.00  0.00     0.187 C 
BRANCH  17  18
ATOM     18  C   UNL d   1       9.458   6.814 -19.966  0.00  0.00     0.226 C 
ATOM     19  F   UNL d   1       8.624   6.843 -18.927  0.00  0.00    -0.232 F 
ENDBRANCH  17  18
ENDBRANCH  16  17
ENDBRANCH  11  16
ENDBRANCH   7  10
ENDBRANCH   3   4
ENDBRANCH   2   3
BRANCH   1  20
ATOM     20  C   UNL d   1       8.117   4.949 -11.063  0.00  0.00     0.155 C 
BRANCH  20  21
ATOM     21  N   UNL d   1       8.883   6.025 -10.474  0.00  0.00    -0.229 NA
ATOM     22  C   UNL d   1       9.518   5.967  -9.294  0.00  0.00     0.277 C 
ATOM     23  O   UNL d   1       9.499   4.976  -8.567  0.00  0.00    -0.266 OA
BRANCH  22  24
ATOM     24  C   UNL d   1      10.221   7.230  -8.924  0.00  0.00     0.078 A 
ATOM     25  C   UNL d   1      10.637   7.557  -7.585  0.00  0.00     0.024 A 
ATOM     26  C   UNL d   1      10.528   6.933  -6.335  0.00  0.00     0.004 A 
ATOM     27  C   UNL d   1      11.309   8.812  -7.626  0.00  0.00     0.084 A 
ATOM     28  C   UNL d   1      11.055   7.507  -5.172  0.00  0.00     0.024 A 
ATOM     29  C   UNL d   1      11.705   8.769  -5.206  0.00  0.00     0.096 A 
ATOM     30  C   UNL d   1      11.836   9.417  -6.455  0.00  0.00     0.043 A 
ATOM     31  N   UNL d   1      11.301   9.185  -8.967  0.00  0.00    -0.244 NA
ATOM     32  C   UNL d   1      10.649   8.238  -9.742  0.00  0.00     0.104 A 
BRANCH  29  33
ATOM     33  O   UNL d   1      12.226   9.396  -4.087  0.00  0.00    -0.328 OA
ATOM     34  C   UNL d   1      12.153   8.696  -2.853  0.00  0.00     0.181 C 
ENDBRANCH  29  33
ENDBRANCH  22  24
ENDBRANCH  20  21
ENDBRANCH   1  20
TORSDOF 10
