REMARK  4 active torsions:
REMARK  status: ('A' for Active; 'I' for Inactive)
REMARK    1  A    between atoms: O_2  and  C_3 
REMARK    2  A    between atoms: C_6  and  N_7 
REMARK       I    between atoms: N_7  and  C_8 
REMARK       I    between atoms: C_8  and  N_10 
REMARK    3  A    between atoms: N_13  and  C_14 
REMARK    4  A    between atoms: C_24  and  N_25 
ROOT
ATOM      1  N   UNL d   1       9.818   5.184 -12.560  0.00  0.00    -0.193 NA
ATOM      2  C   UNL d   1       8.763   5.685 -11.910  0.00  0.00     0.346 C 
ATOM      3  O   UNL d   1       7.594   5.566 -12.264  0.00  0.00    -0.245 OA
ATOM      4  N   UNL d   1       9.132   6.247 -10.744  0.00  0.00    -0.297 N 
ATOM      5  C   UNL d   1       8.691   5.719  -9.459  0.00  0.00     0.130 C 
ATOM      6  C   UNL d   1       9.929   5.588  -8.557  0.00  0.00     0.126 C 
ATOM      7  N   UNL d   1      10.659   6.866  -8.505  0.00  0.00    -0.344 N 
ATOM      8  C   UNL d   1      11.011   7.463  -9.802  0.00  0.00     0.126 C 
ATOM      9  C   UNL d   1       9.757   7.567 -10.678  0.00  0.00     0.130 C 
ENDROOT
BRANCH   1  10
ATOM     10  C   UNL d   1       9.816   4.355 -13.719  0.00  0.00     0.088 A 
ATOM     11  C   UNL d   1       8.786   3.417 -13.963  0.00  0.00     0.021 A 
ATOM     12  C   UNL d   1       8.810   2.638 -15.130  0.00  0.00     0.027 A 
ATOM     13  C   UNL d   1       9.858   2.773 -16.077  0.00  0.00     0.110 A 
ATOM     14  C   UNL d   1      10.902   3.707 -15.829  0.00  0.00     0.080 A 
ATOM     15  C   UNL d   1      10.893   4.449 -14.620  0.00  0.00     0.038 A 
BRANCH  13  16
ATOM     16  O   UNL d   1       9.909   2.021 -17.236  0.00  0.00    -0.327 OA
ATOM     17  C   UNL d   1       8.904   1.044 -17.463  0.00  0.00     0.181 C 
ENDBRANCH  13  16
BRANCH  14  18
ATOM     18  N   UNL d   1      11.919   3.885 -16.799  0.00  0.00    -0.343 N 
ATOM     19  C   UNL d   1      13.232   4.374 -16.387  0.00  0.00     0.137 C 
ATOM     20  C   UNL d   1      13.310   5.918 -16.398  0.00  0.00     0.274 C 
ATOM     21  N   UNL d   1      12.925   6.437 -17.709  0.00  0.00     0.143 N 
ATOM     22  C   UNL d   1      11.559   5.995 -18.019  0.00  0.00     0.274 C 
ATOM     23  C   UNL d   1      12.958   7.889 -17.654  0.00  0.00     0.286 C 
ATOM     24  C   UNL d   1      11.497   4.458 -18.076  0.00  0.00     0.137 C 
ENDBRANCH  14  18
ENDBRANCH   1  10
BRANCH   7  25
ATOM     25  C   UNL d   1      10.916   7.524  -7.296  0.00  0.00     0.056 A 
ATOM     26  C   UNL d   1      11.174   6.784  -6.116  0.00  0.00     0.018 A 
ATOM     27  C   UNL d   1      11.455   7.419  -4.894  0.00  0.00     0.013 A 
ATOM     28  C   UNL d   1      11.500   8.818  -4.827  0.00  0.00     0.058 A 
ATOM     29  C   UNL d   1      11.257   9.577  -5.985  0.00  0.00     0.013 A 
ATOM     30 CL   UNL d   1      11.862   9.583  -3.331  0.00  0.00    -0.082 Cl
ATOM     31  C   UNL d   1      10.967   8.940  -7.208  0.00  0.00     0.018 A 
ENDBRANCH   7  25
TORSDOF 4
