REMARK  7 active torsions:
REMARK  status: ('A' for Active; 'I' for Inactive)
REMARK    1  A    between atoms: C_7  and  O_8 
REMARK    2  A    between atoms: O_8  and  C_9 
REMARK    3  A    between atoms: C_9  and  C_10 
REMARK    4  A    between atoms: C_10  and  C_11 
REMARK    5  A    between atoms: C_11  and  C_12 
REMARK    6  A    between atoms: C_12  and  N_13 
REMARK    7  A    between atoms: N_16  and  C_17 
ROOT
ATOM      1  N   UNL d   1       5.332   1.646 -23.744  0.00  0.00    -0.190 NA
ATOM      2  C   UNL d   1       5.457   1.342 -22.636  0.00  0.00     0.122 C 
ATOM      3  C   UNL d   1       5.620   0.996 -21.266  0.00  0.00     0.171 A 
ATOM      4  C   UNL d   1       6.877   1.182 -20.634  0.00  0.00     0.051 A 
ATOM      5  C   UNL d   1       6.681   0.734 -19.359  0.00  0.00     0.087 A 
ATOM      6  C   UNL d   1       7.491   0.611 -18.208  0.00  0.00     0.043 A 
ATOM      7  C   UNL d   1       6.938   0.122 -17.033  0.00  0.00     0.097 A 
ATOM      8  C   UNL d   1       5.575  -0.275 -17.014  0.00  0.00     0.045 A 
ATOM      9  C   UNL d   1       4.790  -0.178 -18.142  0.00  0.00     0.102 A 
ATOM     10  N   UNL d   1       5.336   0.330 -19.275  0.00  0.00    -0.228 N 
ATOM     11  N   UNL d   1       4.691   0.519 -20.467  0.00  0.00    -0.155 NA
ENDROOT
BRANCH   7  12
ATOM     12  O   UNL d   1       7.633  -0.005 -15.849  0.00  0.00    -0.331 OA
BRANCH  12  13
ATOM     13  C   UNL d   1       9.039   0.233 -15.847  0.00  0.00     0.149 C 
BRANCH  13  14
ATOM     14  C   UNL d   1       9.339   1.744 -15.814  0.00  0.00     0.035 C 
BRANCH  14  15
ATOM     15  C   UNL d   1       8.921   2.380 -14.491  0.00  0.00     0.038 C 
BRANCH  15  16
ATOM     16  C   UNL d   1       9.238   3.883 -14.471  0.00  0.00     0.251 C 
BRANCH  16  17
ATOM     17  N   UNL d   1       8.757   4.508 -13.244  0.00  0.00     0.141 N 
ATOM     18  C   UNL d   1       9.615   4.100 -12.135  0.00  0.00     0.274 C 
ATOM     19  C   UNL d   1       9.149   4.758 -10.834  0.00  0.00     0.137 C 
ATOM     20  N   UNL d   1       9.132   6.204 -10.976  0.00  0.00    -0.344 N 
ATOM     21  C   UNL d   1       8.362   6.685 -12.110  0.00  0.00     0.137 C 
ATOM     22  C   UNL d   1       8.851   5.963 -13.377  0.00  0.00     0.274 C 
BRANCH  20  23
ATOM     23  C   UNL d   1       9.702   7.090 -10.040  0.00  0.00     0.068 A 
ATOM     24  C   UNL d   1       9.584   6.904  -8.642  0.00  0.00     0.084 A 
ATOM     25  C   UNL d   1      10.216   7.799  -7.746  0.00  0.00     0.070 A 
ATOM     26 CL   UNL d   1       8.631   5.602  -8.025  0.00  0.00    -0.080 Cl
ATOM     27  C   UNL d   1      10.957   8.886  -8.237  0.00  0.00     0.012 A 
ATOM     28 CL   UNL d   1      10.110   7.584  -6.040  0.00  0.00    -0.081 Cl
ATOM     29  C   UNL d   1      11.060   9.092  -9.624  0.00  0.00     0.002 A 
ATOM     30  C   UNL d   1      10.419   8.210 -10.508  0.00  0.00     0.018 A 
ENDBRANCH  20  23
ENDBRANCH  16  17
ENDBRANCH  15  16
ENDBRANCH  14  15
ENDBRANCH  13  14
ENDBRANCH  12  13
ENDBRANCH   7  12
TORSDOF 7
