REMARK  1 active torsions:
REMARK  status: ('A' for Active; 'I' for Inactive)
REMARK    1  A    between atoms: C_22  and  C_23 
ROOT
ATOM      1  C   UNL d   1       6.433  -0.871 -13.979  0.00  0.00     0.285 C 
ATOM      2  N   UNL d   1       6.841   0.310 -14.724  0.00  0.00     0.141 N 
ATOM      3  C   UNL d   1       6.830   0.001 -16.173  0.00  0.00     0.255 C 
ATOM      4  C   UNL d   1       8.210  -0.323 -16.767  0.00  0.00     0.061 C 
ATOM      5  C   UNL d   1       8.933   0.889 -17.319  0.00  0.00    -0.024 A 
ATOM      6  C   UNL d   1       8.905   1.094 -18.716  0.00  0.00    -0.004 A 
ATOM      7  C   UNL d   1       9.583   2.185 -19.285  0.00  0.00    -0.000 A 
ATOM      8  C   UNL d   1      10.293   3.073 -18.459  0.00  0.00    -0.000 A 
ATOM      9  C   UNL d   1      10.342   2.864 -17.070  0.00  0.00    -0.004 A 
ATOM     10  C   UNL d   1       9.670   1.773 -16.485  0.00  0.00    -0.020 A 
ATOM     11  C   UNL d   1       9.774   1.619 -14.971  0.00  0.00     0.071 C 
ATOM     12  C   UNL d   1       9.178   2.769 -14.242  0.00  0.00     0.059 A 
ATOM     13  N   UNL d   1       9.937   3.535 -13.393  0.00  0.00    -0.250 NA
ATOM     14  C   UNL d   1       9.211   4.550 -12.813  0.00  0.00     0.081 A 
ATOM     15  C   UNL d   1       9.524   5.556 -11.903  0.00  0.00     0.019 A 
ATOM     16  C   UNL d   1       8.527   6.468 -11.502  0.00  0.00     0.002 A 
ATOM     17  C   UNL d   1       7.244   6.371 -12.031  0.00  0.00     0.000 A 
ATOM     18  C   UNL d   1       6.912   5.314 -12.924  0.00  0.00     0.001 A 
ATOM     19  C   UNL d   1       7.881   4.386 -13.335  0.00  0.00     0.015 A 
ATOM     20  C   UNL d   1       7.865   3.253 -14.217  0.00  0.00    -0.005 A 
ATOM     21  C   UNL d   1       6.654   2.779 -14.966  0.00  0.00     0.064 C 
ATOM     22  C   UNL d   1       6.029   1.492 -14.404  0.00  0.00     0.256 C 
ENDROOT
BRANCH  22  23
ATOM     23  C   UNL d   1       5.594   1.668 -12.924  0.00  0.00     0.216 C 
ATOM     24  O   UNL d   1       5.377   2.964 -12.465  0.00  0.00    -0.218 OA
ENDBRANCH  22  23
TORSDOF 1
