REMARK  4 active torsions:
REMARK  status: ('A' for Active; 'I' for Inactive)
REMARK    1  A    between atoms: C_11  and  C_12 
REMARK    2  A    between atoms: C_12  and  C_13 
REMARK    3  A    between atoms: C_13  and  N_14 
REMARK    4  A    between atoms: N_17  and  C_18 
ROOT
ATOM      1  C   UNL d   1       6.586   1.992 -14.381  0.00  0.00     0.251 C 
ENDROOT
BRANCH   1   2
ATOM      2  C   UNL d   1       7.027   1.606 -15.809  0.00  0.00     0.043 C 
BRANCH   2   3
ATOM      3  C   UNL d   1       7.185   0.090 -15.976  0.00  0.00     0.068 A 
ATOM      4  C   UNL d   1       5.824  -0.630 -16.002  0.00  0.00     0.173 A 
ATOM      5  O   UNL d   1       5.005  -0.610 -15.083  0.00  0.00    -0.291 OA
ATOM      6  C   UNL d   1       5.709  -1.315 -17.285  0.00  0.00     0.032 A 
ATOM      7  C   UNL d   1       6.865  -1.124 -18.037  0.00  0.00    -0.019 A 
ATOM      8  C   UNL d   1       4.638  -2.084 -17.761  0.00  0.00     0.014 A 
ATOM      9  C   UNL d   1       7.008  -1.694 -19.311  0.00  0.00    -0.003 A 
ATOM     10  C   UNL d   1       7.873  -0.269 -17.320  0.00  0.00     0.034 A 
ATOM     11  C   UNL d   1       5.938  -2.470 -19.809  0.00  0.00     0.011 A 
ATOM     12  C   UNL d   1       4.761  -2.663 -19.041  0.00  0.00     0.058 A 
ATOM     13 CL   UNL d   1       3.473  -3.621 -19.661  0.00  0.00    -0.082 Cl
ENDBRANCH   2   3
ENDBRANCH   1   2
BRANCH   1  14
ATOM     14  N   UNL d   1       6.932   3.365 -14.029  0.00  0.00     0.141 N 
ATOM     15  C   UNL d   1       6.266   3.706 -12.757  0.00  0.00     0.274 C 
ATOM     16  C   UNL d   1       6.561   5.162 -12.355  0.00  0.00     0.138 C 
ATOM     17  N   UNL d   1       7.999   5.384 -12.337  0.00  0.00    -0.330 N 
ATOM     18  C   UNL d   1       8.733   4.979 -13.518  0.00  0.00     0.138 C 
ATOM     19  C   UNL d   1       8.389   3.522 -13.862  0.00  0.00     0.274 C 
BRANCH  17  20
ATOM     20  C   UNL d   1       8.658   5.923 -11.228  0.00  0.00     0.140 A 
ATOM     21  N   UNL d   1       9.461   6.983 -11.458  0.00  0.00    -0.227 NA
ATOM     22  C   UNL d   1      10.083   7.548 -10.402  0.00  0.00     0.101 A 
ATOM     23  C   UNL d   1       9.966   7.070  -9.084  0.00  0.00     0.021 A 
ATOM     24  C   UNL d   1       9.139   5.960  -8.853  0.00  0.00     0.005 A 
ATOM     25  C   UNL d   1       8.487   5.362  -9.948  0.00  0.00     0.037 A 
ENDBRANCH  17  20
ENDBRANCH   1  14
TORSDOF 4
