REMARK  6 active torsions:
REMARK  status: ('A' for Active; 'I' for Inactive)
REMARK    1  A    between atoms: C_2  and  C_3 
REMARK    2  A    between atoms: C_2  and  C_19 
REMARK    3  A    between atoms: C_3  and  C_4 
REMARK    4  A    between atoms: C_4  and  C_5 
REMARK    5  A    between atoms: C_5  and  N_6 
REMARK    6  A    between atoms: N_9  and  C_10 
ROOT
ATOM      1  N   UNL d   1       9.465   6.709  -9.758  0.00  0.00     0.141 N 
ATOM      2  C   UNL d   1      10.684   7.489  -9.543  0.00  0.00     0.274 C 
ATOM      3  C   UNL d   1      10.466   8.542  -8.439  0.00  0.00     0.138 C 
ATOM      4  N   UNL d   1      10.008   7.883  -7.232  0.00  0.00    -0.330 N 
ATOM      5  C   UNL d   1       8.865   6.994  -7.375  0.00  0.00     0.138 C 
ATOM      6  C   UNL d   1       9.105   5.997  -8.527  0.00  0.00     0.274 C 
ENDROOT
BRANCH   1   7
ATOM      7  C   UNL d   1       9.662   5.744 -10.826  0.00  0.00     0.251 C 
BRANCH   7   8
ATOM      8  C   UNL d   1       8.450   5.728 -11.766  0.00  0.00     0.043 C 
BRANCH   8   9
ATOM      9  C   UNL d   1       8.421   4.502 -12.693  0.00  0.00     0.071 C 
BRANCH   9  10
ATOM     10  C   UNL d   1       9.649   4.306 -13.600  0.00  0.00     0.173 C 
ATOM     11  O   UNL d   1      10.511   5.180 -13.686  0.00  0.00    -0.291 OA
BRANCH  10  12
ATOM     12  C   UNL d   1       9.731   3.012 -14.337  0.00  0.00     0.035 A 
ATOM     13  C   UNL d   1      10.944   2.655 -14.971  0.00  0.00     0.005 A 
ATOM     14  C   UNL d   1      11.041   1.455 -15.701  0.00  0.00     0.030 A 
ATOM     15  C   UNL d   1       9.929   0.598 -15.800  0.00  0.00     0.140 A 
ATOM     16  C   UNL d   1       8.716   0.943 -15.169  0.00  0.00     0.030 A 
ATOM     17  F   UNL d   1      10.026  -0.555 -16.500  0.00  0.00    -0.204 F 
ATOM     18  C   UNL d   1       8.616   2.146 -14.447  0.00  0.00     0.005 A 
ENDBRANCH  10  12
ENDBRANCH   9  10
ENDBRANCH   8   9
ENDBRANCH   7   8
ENDBRANCH   1   7
BRANCH   4  19
ATOM     19  C   UNL d   1      10.654   8.068  -6.008  0.00  0.00     0.140 A 
ATOM     20  N   UNL d   1      10.807   9.336  -5.566  0.00  0.00    -0.226 NA
ATOM     21  C   UNL d   1      11.407   9.521  -4.373  0.00  0.00     0.112 A 
ATOM     22  C   UNL d   1      11.903   8.468  -3.580  0.00  0.00     0.077 A 
ATOM     23  C   UNL d   1      11.765   7.154  -4.055  0.00  0.00     0.016 A 
ATOM     24 CL   UNL d   1      12.646   8.774  -2.059  0.00  0.00    -0.081 Cl
ATOM     25  C   UNL d   1      11.115   6.950  -5.285  0.00  0.00     0.038 A 
ENDBRANCH   4  19
TORSDOF 6
