REMARK  8 active torsions:
REMARK  status: ('A' for Active; 'I' for Inactive)
REMARK    1  A    between atoms: O_2  and  C_3 
REMARK    2  A    between atoms: C_8  and  N_9 
REMARK    3  A    between atoms: N_13  and  C_14 
REMARK    4  A    between atoms: C_14  and  C_15 
REMARK    5  A    between atoms: C_15  and  C_16 
REMARK    6  A    between atoms: C_16  and  C_17 
REMARK    7  A    between atoms: C_17  and  N_18 
REMARK       I    between atoms: N_18  and  C_19 
REMARK    8  A    between atoms: C_19  and  C_21 
ROOT
ATOM      1  C   UNL d   1       8.503   2.388 -15.564  0.00  0.00     0.250 C 
ENDROOT
BRANCH   1   2
ATOM      2  N   UNL d   1       9.958   2.529 -15.584  0.00  0.00     0.139 N 
ATOM      3  C   UNL d   1      10.439   1.996 -16.868  0.00  0.00     0.252 C 
ATOM      4  C   UNL d   1      11.956   1.776 -16.857  0.00  0.00     0.059 C 
ATOM      5  C   UNL d   1      12.788   2.988 -17.344  0.00  0.00     0.104 C 
ATOM      6  N   UNL d   1      12.436   4.228 -16.679  0.00  0.00    -0.345 N 
ATOM      7  C   UNL d   1      11.810   4.241 -15.367  0.00  0.00     0.137 C 
ATOM      8  C   UNL d   1      10.293   3.964 -15.437  0.00  0.00     0.274 C 
BRANCH   6   9
ATOM      9  C   UNL d   1      12.667   5.435 -17.372  0.00  0.00     0.079 A 
ATOM     10  C   UNL d   1      11.627   6.093 -18.093  0.00  0.00     0.110 A 
ATOM     11  C   UNL d   1      11.909   7.287 -18.756  0.00  0.00     0.026 A 
ATOM     12  C   UNL d   1      13.212   7.849 -18.756  0.00  0.00     0.002 A 
ATOM     13  C   UNL d   1      14.241   7.178 -18.055  0.00  0.00     0.002 A 
ATOM     14  C   UNL d   1      13.970   5.994 -17.370  0.00  0.00     0.019 A 
BRANCH  10  15
ATOM     15  O   UNL d   1      10.372   5.498 -18.105  0.00  0.00    -0.327 OA
ATOM     16  C   UNL d   1       9.307   6.191 -18.729  0.00  0.00     0.181 C 
ENDBRANCH  10  15
ENDBRANCH   6   9
ENDBRANCH   1   2
BRANCH   1  17
ATOM     17  C   UNL d   1       7.974   2.468 -14.106  0.00  0.00     0.037 C 
BRANCH  17  18
ATOM     18  C   UNL d   1       6.549   3.061 -14.049  0.00  0.00     0.029 C 
BRANCH  18  19
ATOM     19  C   UNL d   1       6.013   3.322 -12.629  0.00  0.00     0.129 C 
BRANCH  19  20
ATOM     20  N   UNL d   1       6.908   4.066 -11.749  0.00  0.00    -0.233 NA
ATOM     21  C   UNL d   1       7.779   5.040 -12.085  0.00  0.00     0.298 C 
ATOM     22  O   UNL d   1       7.919   5.434 -13.244  0.00  0.00    -0.263 OA
BRANCH  21  23
ATOM     23  C   UNL d   1       8.583   5.582 -10.979  0.00  0.00     0.157 A 
ATOM     24  O   UNL d   1       9.436   6.613 -11.291  0.00  0.00    -0.302 OA
ATOM     25  C   UNL d   1      10.013   7.038 -10.124  0.00  0.00     0.100 A 
ATOM     26  C   UNL d   1       9.570   6.224  -9.056  0.00  0.00     0.025 A 
ATOM     27  C   UNL d   1      10.905   8.113  -9.979  0.00  0.00     0.025 A 
ATOM     28  C   UNL d   1       8.670   5.264  -9.638  0.00  0.00     0.032 A 
ATOM     29  C   UNL d   1      10.078   6.530  -7.778  0.00  0.00     0.002 A 
ATOM     30  C   UNL d   1      10.983   7.600  -7.602  0.00  0.00     0.000 A 
ATOM     31  C   UNL d   1      11.397   8.390  -8.696  0.00  0.00     0.002 A 
ENDBRANCH  21  23
ENDBRANCH  19  20
ENDBRANCH  18  19
ENDBRANCH  17  18
ENDBRANCH   1  17
TORSDOF 8
