REMARK  7 active torsions:
REMARK  status: ('A' for Active; 'I' for Inactive)
REMARK    1  A    between atoms: O_2  and  C_3 
REMARK    2  A    between atoms: C_8  and  N_9 
REMARK    3  A    between atoms: N_12  and  C_13 
REMARK    4  A    between atoms: C_13  and  C_14 
REMARK    5  A    between atoms: C_14  and  C_16 
REMARK    6  A    between atoms: C_16  and  N_17 
REMARK    7  A    between atoms: C_21  and  C_23 
ROOT
ATOM      1  C   UNL d   1      11.951   0.579 -18.826  0.00  0.00     0.208 C 
ATOM      2  O   UNL d   1      11.969  -0.815 -18.980  0.00  0.00    -0.219 OA
ENDROOT
BRANCH   1   3
ATOM      3  C   UNL d   1      11.778   0.907 -17.335  0.00  0.00     0.285 C 
BRANCH   3   4
ATOM      4  N   UNL d   1      10.627   1.750 -17.041  0.00  0.00     0.144 N 
ATOM      5  C   UNL d   1       9.362   1.002 -17.164  0.00  0.00     0.274 C 
ATOM      6  C   UNL d   1       8.137   1.882 -16.860  0.00  0.00     0.137 C 
ATOM      7  N   UNL d   1       8.296   2.463 -15.526  0.00  0.00    -0.343 N 
ATOM      8  C   UNL d   1       9.544   3.194 -15.329  0.00  0.00     0.137 C 
ATOM      9  C   UNL d   1      10.730   2.288 -15.684  0.00  0.00     0.274 C 
BRANCH   7  10
ATOM     10  C   UNL d   1       7.306   2.429 -14.522  0.00  0.00     0.079 A 
ATOM     11  C   UNL d   1       6.508   1.272 -14.300  0.00  0.00     0.110 A 
ATOM     12  C   UNL d   1       5.532   1.303 -13.271  0.00  0.00     0.026 A 
ATOM     13  C   UNL d   1       5.370   2.441 -12.464  0.00  0.00     0.002 A 
ATOM     14  C   UNL d   1       6.153   3.584 -12.681  0.00  0.00     0.002 A 
ATOM     15  C   UNL d   1       7.112   3.576 -13.709  0.00  0.00     0.019 A 
BRANCH  11  16
ATOM     16  O   UNL d   1       6.740   0.143 -15.063  0.00  0.00    -0.327 OA
ATOM     17  C   UNL d   1       5.803  -0.922 -15.013  0.00  0.00     0.181 C 
ENDBRANCH  11  16
ENDBRANCH   7  10
ENDBRANCH   3   4
ENDBRANCH   1   3
BRANCH   1  18
ATOM     18  C   UNL d   1      13.258   1.140 -19.433  0.00  0.00     0.148 C 
BRANCH  18  19
ATOM     19  N   UNL d   1      13.140   2.559 -19.795  0.00  0.00    -0.247 N 
ATOM     20  C   UNL d   1      12.293   3.030 -20.725  0.00  0.00     0.265 A 
ATOM     21  C   UNL d   1      12.413   4.550 -20.782  0.00  0.00     0.181 A 
ATOM     22  O   UNL d   1      11.545   2.368 -21.443  0.00  0.00    -0.269 OA
ATOM     23  N   UNL d   1      13.503   4.704 -19.831  0.00  0.00    -0.209 NA
ATOM     24  C   UNL d   1      12.896   5.028 -22.169  0.00  0.00     0.039 C 
ATOM     25  C   UNL d   1      13.880   3.550 -19.274  0.00  0.00     0.348 A 
ATOM     26  O   UNL d   1      14.773   3.440 -18.435  0.00  0.00    -0.245 OA
BRANCH  21  27
ATOM     27  C   UNL d   1      11.094   5.199 -20.312  0.00  0.00     0.034 A 
ATOM     28  C   UNL d   1       9.952   5.248 -21.157  0.00  0.00     0.138 A 
ATOM     29  C   UNL d   1       8.753   5.839 -20.713  0.00  0.00     0.029 A 
ATOM     30  F   UNL d   1       9.984   4.715 -22.401  0.00  0.00    -0.204 F 
ATOM     31  C   UNL d   1       8.663   6.379 -19.419  0.00  0.00     0.002 A 
ATOM     32  C   UNL d   1       9.778   6.331 -18.568  0.00  0.00    -0.000 A 
ATOM     33  C   UNL d   1      10.980   5.747 -19.008  0.00  0.00     0.000 A 
ENDBRANCH  21  27
ENDBRANCH  18  19
ENDBRANCH   1  18
TORSDOF 7
