REMARK  9 active torsions:
REMARK  status: ('A' for Active; 'I' for Inactive)
REMARK    1  A    between atoms: C_4  and  C_5 
REMARK    2  A    between atoms: C_10  and  C_11 
REMARK    3  A    between atoms: C_14  and  S_15 
REMARK    4  A    between atoms: S_15  and  C_16 
REMARK    5  A    between atoms: C_16  and  C_17 
REMARK    6  A    between atoms: C_17  and  C_18 
REMARK    7  A    between atoms: C_18  and  N_19 
REMARK    8  A    between atoms: C_24  and  C_25 
REMARK    9  A    between atoms: C_28  and  C_29 
ROOT
ATOM      1  C   UNL d   1       8.342   6.300 -11.780  0.00  0.00     0.047 C 
ENDROOT
BRANCH   1   2
ATOM      2  C   UNL d   1       9.246   7.401 -12.253  0.00  0.00     0.067 C 
BRANCH   2   3
ATOM      3  S   UNL d   1       9.082   8.803 -11.229  0.00  0.00    -0.075 SA
BRANCH   3   4
ATOM      4  C   UNL d   1      10.196   8.391  -9.899  0.00  0.00     0.193 A 
ATOM      5  N   UNL d   1      11.457   8.011 -10.095  0.00  0.00    -0.122 NA
ATOM      6  N   UNL d   1      11.965   7.738  -8.907  0.00  0.00    -0.128 NA
ATOM      7  C   UNL d   1      11.029   8.029  -8.025  0.00  0.00     0.168 A 
ATOM      8  N   UNL d   1       9.907   8.474  -8.584  0.00  0.00    -0.289 N 
ATOM      9  C   UNL d   1       8.710   8.878  -7.885  0.00  0.00     0.134 C 
BRANCH   7  10
ATOM     10  C   UNL d   1      11.282   7.857  -6.615  0.00  0.00     0.050 A 
ATOM     11  C   UNL d   1      11.462   8.971  -5.745  0.00  0.00     0.062 A 
ATOM     12  C   UNL d   1      11.398  10.404  -6.204  0.00  0.00     0.052 C 
ATOM     13  N   UNL d   1      11.741   8.855  -4.436  0.00  0.00    -0.245 NA
ATOM     14  C   UNL d   1      11.886   7.615  -3.948  0.00  0.00     0.140 A 
ATOM     15  C   UNL d   1      11.778   6.469  -4.748  0.00  0.00     0.024 A 
ATOM     16  C   UNL d   1      11.459   6.559  -6.107  0.00  0.00     0.006 A 
BRANCH  14  17
ATOM     17  C   UNL d   1      12.213   7.478  -2.505  0.00  0.00     0.314 C 
ATOM     18  N   UNL d   1      12.296   8.604  -1.807  0.00  0.00    -0.101 N 
ATOM     19  O   UNL d   1      12.386   6.380  -2.008  0.00  0.00    -0.262 OA
ENDBRANCH  14  17
ENDBRANCH   7  10
ENDBRANCH   3   4
ENDBRANCH   2   3
ENDBRANCH   1   2
BRANCH   1  20
ATOM     20  C   UNL d   1       8.376   5.160 -12.776  0.00  0.00     0.251 C 
BRANCH  20  21
ATOM     21  N   UNL d   1       7.475   4.078 -12.382  0.00  0.00     0.137 N 
ATOM     22  C   UNL d   1       7.501   3.095 -13.437  0.00  0.00     0.251 C 
ATOM     23  C   UNL d   1       6.256   2.257 -13.240  0.00  0.00     0.037 A 
ATOM     24  C   UNL d   1       5.348   3.188 -12.477  0.00  0.00     0.038 C 
ATOM     25  C   UNL d   1       5.727   1.198 -14.235  0.00  0.00     0.024 A 
ATOM     26  C   UNL d   1       6.251   0.743 -12.912  0.00  0.00     0.007 A 
ATOM     27  C   UNL d   1       6.067   4.488 -12.362  0.00  0.00     0.250 C 
BRANCH  25  28
ATOM     28  C   UNL d   1       6.490   0.956 -15.503  0.00  0.00    -0.022 C 
ATOM     29  C   UNL d   1       6.776   2.042 -16.301  0.00  0.00    -0.004 C 
ATOM     30  C   UNL d   1       7.604   1.992 -17.433  0.00  0.00     0.004 C 
ATOM     31  C   UNL d   1       8.020   0.741 -17.881  0.00  0.00     0.071 C 
ATOM     32  C   UNL d   1       7.638  -0.400 -17.141  0.00  0.00     0.004 C 
ATOM     33  C   UNL d   1       6.892  -0.293 -15.941  0.00  0.00    -0.004 C 
BRANCH  31  34
ATOM     34  C   UNL d   1       8.819   0.605 -19.159  0.00  0.00     0.419 C 
ATOM     35  F   UNL d   1       8.235  -0.317 -19.930  0.00  0.00    -0.166 F 
ATOM     36  F   UNL d   1       8.884   1.750 -19.848  0.00  0.00    -0.166 F 
ATOM     37  F   UNL d   1      10.056   0.218 -18.839  0.00  0.00    -0.166 F 
ENDBRANCH  31  34
ENDBRANCH  25  28
ENDBRANCH  20  21
ENDBRANCH   1  20
TORSDOF 9
