REMARK  2 active torsions:
REMARK  status: ('A' for Active; 'I' for Inactive)
REMARK    1  A    between atoms: C_2  and  C_3 
REMARK    2  A    between atoms: C_14  and  O_15 
ROOT
ATOM      1  C   UNL d   1      11.518   8.188  -5.247  0.00  0.00     0.007 A 
ATOM      2  C   UNL d   1      11.891   8.936  -6.340  0.00  0.00    -0.000 A 
ATOM      3  C   UNL d   1      11.450   8.379  -7.576  0.00  0.00     0.013 A 
ATOM      4  C   UNL d   1      10.710   7.247  -7.406  0.00  0.00     0.007 A 
ATOM      5  S   UNL d   1      10.575   6.806  -5.732  0.00  0.00    -0.096 SA
ATOM      6  C   UNL d   1      10.075   6.501  -8.534  0.00  0.00     0.070 C 
ATOM      7  C   UNL d   1      10.630   6.911  -9.933  0.00  0.00     0.246 C 
ATOM      8  C   UNL d   1       9.727   6.369 -11.041  0.00  0.00     0.007 C 
ATOM      9  C   UNL d   1       9.662   4.983 -11.309  0.00  0.00     0.027 C 
ATOM     10  C   UNL d   1       8.983   4.501 -12.421  0.00  0.00     0.153 C 
ATOM     11  O   UNL d   1       9.223   3.219 -12.860  0.00  0.00    -0.188 OA
ATOM     12  C   UNL d   1       8.076   5.342 -13.081  0.00  0.00     0.119 C 
ATOM     13  C   UNL d   1       8.025   6.719 -12.745  0.00  0.00     0.022 C 
ATOM     14  C   UNL d   1       8.895   7.252 -11.776  0.00  0.00    -0.020 C 
ATOM     15  C   UNL d   1       8.933   8.756 -11.466  0.00  0.00     0.061 C 
ATOM     16  C   UNL d   1       9.578   9.040 -10.079  0.00  0.00     0.256 C 
ATOM     17  N   UNL d   1      10.861   8.361 -10.039  0.00  0.00     0.144 N 
ATOM     18  C   UNL d   1      11.735   8.843  -8.971  0.00  0.00     0.277 C 
ENDROOT
BRANCH   1  19
ATOM     19  C   UNL d   1      11.868   8.420  -3.811  0.00  0.00     0.033 C 
ATOM     20  C   UNL d   1      11.327   9.743  -3.294  0.00  0.00     0.006 C 
ENDBRANCH   1  19
BRANCH  12  21
ATOM     21  O   UNL d   1       7.310   4.790 -14.047  0.00  0.00    -0.326 OA
ATOM     22  C   UNL d   1       6.240   3.956 -13.611  0.00  0.00     0.181 C 
ENDBRANCH  12  21
TORSDOF 2
