REMARK  4 active torsions:
REMARK  status: ('A' for Active; 'I' for Inactive)
REMARK    1  A    between atoms: C_5  and  C_6 
REMARK    2  A    between atoms: C_10  and  C_11 
REMARK    3  A    between atoms: C_11  and  N_12 
REMARK    4  A    between atoms: N_15  and  C_16 
ROOT
ATOM      1  C   UNL d   1       8.433   5.282 -11.425  0.00  0.00     0.019 A 
ATOM      2  C   UNL d   1       7.054   5.355 -11.718  0.00  0.00     0.099 A 
ATOM      3  N   UNL d   1       6.471   4.727 -12.764  0.00  0.00    -0.243 NA
ATOM      4  C   UNL d   1       7.255   3.988 -13.577  0.00  0.00     0.097 A 
ATOM      5  C   UNL d   1       8.646   3.862 -13.396  0.00  0.00     0.030 A 
ATOM      6  C   UNL d   1       9.232   4.515 -12.295  0.00  0.00     0.001 A 
ENDROOT
BRANCH   5   7
ATOM      7  C   UNL d   1       9.491   3.021 -14.336  0.00  0.00     0.278 C 
BRANCH   7   8
ATOM      8  N   UNL d   1      10.598   3.764 -14.932  0.00  0.00     0.145 N 
ATOM      9  C   UNL d   1      10.079   4.773 -15.860  0.00  0.00     0.275 C 
ATOM     10  C   UNL d   1      11.233   5.586 -16.463  0.00  0.00     0.155 C 
ATOM     11  N   UNL d   1      12.166   4.699 -17.159  0.00  0.00    -0.179 N 
ATOM     12  C   UNL d   1      12.638   3.603 -16.311  0.00  0.00     0.155 C 
ATOM     13  C   UNL d   1      11.447   2.844 -15.694  0.00  0.00     0.275 C 
BRANCH  11  14
ATOM     14  C   UNL d   1      12.571   4.888 -18.482  0.00  0.00     0.727 A 
ATOM     15  N   UNL d   1      12.038   5.919 -19.143  0.00  0.00    -0.060 NA
ATOM     16  C   UNL d   1      12.415   6.108 -20.422  0.00  0.00     0.120 A 
ATOM     17  C   UNL d   1      13.335   5.256 -21.055  0.00  0.00     0.043 A 
ATOM     18  C   UNL d   1      13.839   4.203 -20.274  0.00  0.00     0.120 A 
ATOM     19  N   UNL d   1      13.456   4.024 -18.993  0.00  0.00    -0.060 NA
ENDBRANCH  11  14
ENDBRANCH   7   8
ENDBRANCH   5   7
BRANCH   1  20
ATOM     20  C   UNL d   1       9.016   5.972 -10.263  0.00  0.00     0.002 A 
ATOM     21  C   UNL d   1       8.664   5.596  -8.947  0.00  0.00     0.002 A 
ATOM     22  C   UNL d   1       9.201   6.282  -7.839  0.00  0.00     0.030 A 
ATOM     23  C   UNL d   1      10.106   7.342  -8.030  0.00  0.00     0.140 A 
ATOM     24  F   UNL d   1      10.627   7.995  -6.964  0.00  0.00    -0.204 F 
ATOM     25  C   UNL d   1      10.468   7.723  -9.335  0.00  0.00     0.030 A 
ATOM     26  C   UNL d   1       9.919   7.043 -10.441  0.00  0.00     0.002 A 
ENDBRANCH   1  20
TORSDOF 4
