REMARK  6 active torsions:
REMARK  status: ('A' for Active; 'I' for Inactive)
REMARK       I    between atoms: C_2  and  N_3 
REMARK    1  A    between atoms: C_2  and  C_27 
REMARK    2  A    between atoms: N_3  and  C_4 
REMARK    3  A    between atoms: C_7  and  C_8 
REMARK    4  A    between atoms: C_8  and  C_9 
REMARK    5  A    between atoms: C_9  and  N_10 
REMARK    6  A    between atoms: C_13  and  C_14 
ROOT
ATOM      1  C   UNL d   1       8.195   4.796 -12.966  0.00  0.00     0.035 C 
ENDROOT
BRANCH   1   2
ATOM      2  C   UNL d   1       8.543   5.574 -11.674  0.00  0.00     0.002 C 
ATOM      3  C   UNL d   1       7.676   5.087 -10.523  0.00  0.00     0.002 C 
ATOM      4  C   UNL d   1       8.056   5.693  -9.163  0.00  0.00     0.024 C 
ATOM      5  C   UNL d   1       9.530   5.575  -8.829  0.00  0.00     0.107 C 
ATOM      6  C   UNL d   1      10.341   6.162  -9.994  0.00  0.00     0.024 C 
ATOM      7  C   UNL d   1       9.995   5.394 -11.266  0.00  0.00     0.002 C 
BRANCH   5   8
ATOM      8  N   UNL d   1       9.859   6.300  -7.602  0.00  0.00    -0.236 NA
ATOM      9  C   UNL d   1       9.911   7.633  -7.439  0.00  0.00     0.275 C 
ATOM     10  O   UNL d   1       9.499   8.470  -8.246  0.00  0.00    -0.266 OA
BRANCH   9  11
ATOM     11  C   UNL d   1      10.594   8.103  -6.195  0.00  0.00     0.058 A 
ATOM     12  C   UNL d   1      11.195   7.195  -5.292  0.00  0.00     0.007 A 
ATOM     13  C   UNL d   1      11.858   7.693  -4.152  0.00  0.00     0.030 A 
ATOM     14  C   UNL d   1      11.883   9.081  -3.922  0.00  0.00     0.140 A 
ATOM     15  C   UNL d   1      11.292   9.975  -4.825  0.00  0.00     0.030 A 
ATOM     16  F   UNL d   1      12.480   9.555  -2.805  0.00  0.00    -0.204 F 
ATOM     17  C   UNL d   1      10.684   9.489  -5.990  0.00  0.00     0.007 A 
ENDBRANCH   9  11
ENDBRANCH   5   8
ENDBRANCH   1   2
BRANCH   1  18
ATOM     18  C   UNL d   1       9.415   4.493 -13.861  0.00  0.00     0.250 C 
BRANCH  18  19
ATOM     19  N   UNL d   1       9.062   3.789 -15.078  0.00  0.00     0.137 N 
ATOM     20  C   UNL d   1      10.247   3.760 -15.924  0.00  0.00     0.251 C 
ATOM     21  C   UNL d   1       9.888   3.123 -17.265  0.00  0.00     0.040 C 
ATOM     22  C   UNL d   1       9.352   1.683 -17.080  0.00  0.00     0.028 C 
ATOM     23  C   UNL d   1       8.255   1.707 -16.002  0.00  0.00     0.040 C 
ATOM     24  C   UNL d   1       8.690   2.418 -14.734  0.00  0.00     0.251 C 
BRANCH  22  25
ATOM     25  C   UNL d   1       8.867   1.060 -18.407  0.00  0.00     0.002 A 
ATOM     26  C   UNL d   1       7.712   0.250 -18.493  0.00  0.00     0.115 A 
ATOM     27  C   UNL d   1       7.275  -0.283 -19.690  0.00  0.00     0.119 A 
ATOM     28  O   UNL d   1       6.863  -0.124 -17.500  0.00  0.00    -0.300 OA
ATOM     29  C   UNL d   1       7.962  -0.055 -20.893  0.00  0.00     0.026 A 
ATOM     30  O   UNL d   1       6.140  -1.002 -19.476  0.00  0.00    -0.300 OA
ATOM     31  C   UNL d   1       9.129   0.738 -20.843  0.00  0.00     0.002 A 
ATOM     32  C   UNL d   1       9.581   1.281 -19.613  0.00  0.00    -0.002 A 
ATOM     33  C   UNL d   1       5.867  -0.916 -18.110  0.00  0.00     0.304 A 
ENDBRANCH  22  25
ENDBRANCH  18  19
ENDBRANCH   1  18
TORSDOF 6
