REMARK  2 active torsions:
REMARK  status: ('A' for Active; 'I' for Inactive)
REMARK    1  A    between atoms: N_2  and  C_4 
REMARK    2  A    between atoms: C_4  and  C_5 
ROOT
ATOM      1  C   UNL d   1       9.413   2.648 -17.025  0.00  0.00     0.180 C 
ATOM      2  C   UNL d   1       9.853   1.966 -15.733  0.00  0.00     0.064 C 
ATOM      3  C   UNL d   1       8.609   1.147 -15.386  0.00  0.00     0.134 C 
ATOM      4  C   UNL d   1       7.562   1.846 -14.501  0.00  0.00    -0.003 A 
ATOM      5  C   UNL d   1       7.687   3.189 -14.057  0.00  0.00    -0.003 A 
ATOM      6  C   UNL d   1       6.706   3.764 -13.228  0.00  0.00    -0.000 A 
ATOM      7  C   UNL d   1       5.599   3.003 -12.811  0.00  0.00    -0.000 A 
ATOM      8  C   UNL d   1       5.471   1.669 -13.237  0.00  0.00    -0.004 A 
ATOM      9  C   UNL d   1       6.436   1.099 -14.086  0.00  0.00    -0.020 A 
ATOM     10  C   UNL d   1       6.243  -0.311 -14.604  0.00  0.00     0.054 C 
ATOM     11  C   UNL d   1       5.939  -0.294 -16.091  0.00  0.00     0.000 A 
ATOM     12  C   UNL d   1       4.701  -0.822 -16.519  0.00  0.00    -0.000 A 
ATOM     13  C   UNL d   1       4.350  -0.818 -17.880  0.00  0.00     0.029 A 
ATOM     14  C   UNL d   1       5.240  -0.285 -18.825  0.00  0.00     0.142 A 
ATOM     15  F   UNL d   1       4.913  -0.276 -20.140  0.00  0.00    -0.204 F 
ATOM     16  C   UNL d   1       6.480   0.235 -18.407  0.00  0.00     0.049 A 
ATOM     17  C   UNL d   1       6.856   0.244 -17.041  0.00  0.00     0.081 A 
ATOM     18  N   UNL d   1       8.141   0.738 -16.708  0.00  0.00    -0.237 N 
ATOM     19  O   UNL d   1       8.757   1.581 -17.696  0.00  0.00    -0.258 OA
ENDROOT
BRANCH   1  20
ATOM     20  C   UNL d   1      10.544   3.217 -17.907  0.00  0.00     0.282 C 
BRANCH  20  21
ATOM     21  N   UNL d   1      11.050   4.511 -17.438  0.00  0.00     0.144 N 
ATOM     22  C   UNL d   1      12.209   4.893 -18.232  0.00  0.00     0.286 C 
ATOM     23  C   UNL d   1      10.046   5.561 -17.585  0.00  0.00     0.286 C 
ENDBRANCH  20  21
ENDBRANCH   1  20
TORSDOF 2
