REMARK  6 active torsions:
REMARK  status: ('A' for Active; 'I' for Inactive)
REMARK    1  A    between atoms: C_2  and  O_3 
REMARK    2  A    between atoms: O_3  and  C_4 
REMARK    3  A    between atoms: C_9  and  C_10 
REMARK    4  A    between atoms: C_10  and  N_11 
REMARK    5  A    between atoms: N_14  and  C_15 
REMARK    6  A    between atoms: C_15  and  C_16 
ROOT
ATOM      1  N   UNL d   1       9.244   3.230 -14.906  0.00  0.00     0.146 N 
ATOM      2  C   UNL d   1       7.969   2.814 -14.309  0.00  0.00     0.286 C 
ATOM      3  C   UNL d   1       7.354   3.941 -13.443  0.00  0.00     0.286 C 
ATOM      4  N   UNL d   1       8.276   4.381 -12.396  0.00  0.00     0.148 N 
ATOM      5  C   UNL d   1       9.540   4.775 -13.018  0.00  0.00     0.286 C 
ATOM      6  C   UNL d   1      10.146   3.626 -13.829  0.00  0.00     0.286 C 
ENDROOT
BRANCH   1   7
ATOM      7  C   UNL d   1       9.829   2.200 -15.773  0.00  0.00     0.279 C 
BRANCH   7   8
ATOM      8  C   UNL d   1      11.010   2.676 -16.625  0.00  0.00     0.033 A 
ATOM      9  C   UNL d   1      11.757   1.734 -17.380  0.00  0.00     0.092 A 
ATOM     10  C   UNL d   1      12.867   2.187 -18.138  0.00  0.00     0.024 A 
ATOM     11  C   UNL d   1      13.216   3.550 -18.161  0.00  0.00     0.002 A 
ATOM     12  C   UNL d   1      12.463   4.481 -17.424  0.00  0.00    -0.000 A 
ATOM     13  C   UNL d   1      11.345   4.051 -16.679  0.00  0.00    -0.000 A 
BRANCH   9  14
ATOM     14  O   UNL d   1      11.361   0.411 -17.363  0.00  0.00    -0.331 OA
BRANCH  14  15
ATOM     15  C   UNL d   1      11.953  -0.508 -18.279  0.00  0.00     0.149 C 
ATOM     16  C   UNL d   1      11.552  -0.212 -19.739  0.00  0.00     0.035 C 
ENDBRANCH  14  15
ENDBRANCH   9  14
ENDBRANCH   7   8
ENDBRANCH   1   7
BRANCH   4  17
ATOM     17  C   UNL d   1       7.701   5.461 -11.582  0.00  0.00     0.301 C 
BRANCH  17  18
ATOM     18  C   UNL d   1       8.604   5.927 -10.484  0.00  0.00     0.111 A 
ATOM     19  O   UNL d   1       9.519   6.890 -10.817  0.00  0.00    -0.309 OA
ATOM     20  C   UNL d   1      10.222   7.182  -9.670  0.00  0.00     0.100 A 
ATOM     21  C   UNL d   1       9.731   6.393  -8.601  0.00  0.00     0.025 A 
ATOM     22  C   UNL d   1      11.280   8.098  -9.529  0.00  0.00     0.025 A 
ATOM     23  C   UNL d   1       8.685   5.580  -9.158  0.00  0.00     0.024 A 
ATOM     24  C   UNL d   1      10.337   6.574  -7.339  0.00  0.00     0.002 A 
ATOM     25  C   UNL d   1      11.399   7.492  -7.170  0.00  0.00     0.000 A 
ATOM     26  C   UNL d   1      11.873   8.250  -8.263  0.00  0.00     0.002 A 
ENDBRANCH  17  18
ENDBRANCH   4  17
TORSDOF 6
