REMARK  5 active torsions:
REMARK  status: ('A' for Active; 'I' for Inactive)
REMARK    1  A    between atoms: C_7  and  C_8 
REMARK    2  A    between atoms: C_8  and  C_9 
REMARK    3  A    between atoms: C_9  and  C_10 
REMARK    4  A    between atoms: C_10  and  N_11 
REMARK    5  A    between atoms: N_14  and  C_15 
ROOT
ATOM      1  C   UNL d   1       8.423   6.460 -11.424  0.00  0.00     0.251 C 
ENDROOT
BRANCH   1   2
ATOM      2  C   UNL d   1       8.787   5.696 -12.700  0.00  0.00     0.040 C 
BRANCH   2   3
ATOM      3  C   UNL d   1       8.905   4.175 -12.479  0.00  0.00     0.029 C 
BRANCH   3   4
ATOM      4  C   UNL d   1       9.569   3.458 -13.639  0.00  0.00    -0.021 A 
ATOM      5  C   UNL d   1      10.861   3.871 -14.072  0.00  0.00    -0.003 A 
ATOM      6  C   UNL d   1      11.516   3.228 -15.146  0.00  0.00     0.020 A 
ATOM      7  C   UNL d   1      10.848   2.147 -15.732  0.00  0.00     0.102 A 
ATOM      8  N   UNL d   1      11.216   1.300 -16.779  0.00  0.00    -0.216 NA
ATOM      9  C   UNL d   1       9.609   1.726 -15.304  0.00  0.00     0.101 A 
ATOM     10  C   UNL d   1      10.249   0.373 -17.007  0.00  0.00     0.221 A 
ATOM     11  S   UNL d   1      10.258  -0.810 -18.158  0.00  0.00    -0.037 SA
ATOM     12  N   UNL d   1       9.270   0.629 -16.101  0.00  0.00    -0.216 NA
ATOM     13  C   UNL d   1       8.922   2.359 -14.261  0.00  0.00     0.017 A 
ENDBRANCH   3   4
ENDBRANCH   2   3
ENDBRANCH   1   2
BRANCH   1  14
ATOM     14  N   UNL d   1       9.553   6.443 -10.489  0.00  0.00     0.141 N 
ATOM     15  C   UNL d   1       9.071   6.022  -9.170  0.00  0.00     0.274 C 
ATOM     16  C   UNL d   1      10.224   5.971  -8.155  0.00  0.00     0.137 C 
ATOM     17  N   UNL d   1      10.904   7.260  -8.091  0.00  0.00    -0.344 N 
ATOM     18  C   UNL d   1      11.315   7.804  -9.385  0.00  0.00     0.137 C 
ATOM     19  C   UNL d   1      10.122   7.792 -10.363  0.00  0.00     0.274 C 
BRANCH  17  20
ATOM     20  C   UNL d   1      11.103   7.925  -6.864  0.00  0.00     0.056 A 
ATOM     21  C   UNL d   1      11.256   7.190  -5.662  0.00  0.00     0.017 A 
ATOM     22  C   UNL d   1      11.466   7.846  -4.436  0.00  0.00     0.002 A 
ATOM     23  C   UNL d   1      11.516   9.249  -4.382  0.00  0.00     0.000 A 
ATOM     24  C   UNL d   1      11.367   9.992  -5.565  0.00  0.00     0.002 A 
ATOM     25  C   UNL d   1      11.163   9.338  -6.796  0.00  0.00     0.017 A 
ENDBRANCH  17  20
ENDBRANCH   1  14
TORSDOF 5
