REMARK  3 active torsions:
REMARK  status: ('A' for Active; 'I' for Inactive)
REMARK    1  A    between atoms: C_2  and  C_4 
REMARK    2  A    between atoms: C_4  and  N_5 
REMARK    3  A    between atoms: N_8  and  C_9 
ROOT
ATOM      1  N   UNL d   1      11.178   8.231  -5.916  0.00  0.00     0.144 N 
ATOM      2  C   UNL d   1      11.744   8.789  -7.143  0.00  0.00     0.274 C 
ATOM      3  C   UNL d   1      11.753   7.756  -8.280  0.00  0.00     0.137 C 
ATOM      4  N   UNL d   1      10.425   7.178  -8.470  0.00  0.00    -0.344 N 
ATOM      5  C   UNL d   1       9.773   6.682  -7.265  0.00  0.00     0.137 C 
ATOM      6  C   UNL d   1       9.825   7.745  -6.166  0.00  0.00     0.274 C 
ENDROOT
BRANCH   4   7
ATOM      7  C   UNL d   1       9.810   7.125  -9.729  0.00  0.00     0.068 A 
ATOM      8  C   UNL d   1       9.127   5.963 -10.198  0.00  0.00     0.084 A 
ATOM      9  C   UNL d   1       8.513   5.979 -11.471  0.00  0.00     0.070 A 
ATOM     10 CL   UNL d   1       9.078   4.511  -9.246  0.00  0.00    -0.080 Cl
ATOM     11  C   UNL d   1       8.577   7.127 -12.276  0.00  0.00     0.012 A 
ATOM     12 CL   UNL d   1       7.665   4.606 -12.082  0.00  0.00    -0.081 Cl
ATOM     13  C   UNL d   1       9.247   8.274 -11.818  0.00  0.00     0.002 A 
ATOM     14  C   UNL d   1       9.863   8.266 -10.557  0.00  0.00     0.018 A 
ENDBRANCH   4   7
BRANCH   1  15
ATOM     15  C   UNL d   1      11.200   9.188  -4.812  0.00  0.00     0.283 C 
BRANCH  15  16
ATOM     16  C   UNL d   1      12.383   9.014  -3.846  0.00  0.00     0.186 C 
ATOM     17  C   UNL d   1      12.057   9.682  -2.514  0.00  0.00     0.038 C 
ATOM     18  O   UNL d   1      12.605   7.651  -3.538  0.00  0.00    -0.221 OA
ENDBRANCH  15  16
ENDBRANCH   1  15
TORSDOF 3
