REMARK  4 active torsions:
REMARK  status: ('A' for Active; 'I' for Inactive)
REMARK    1  A    between atoms: C_2  and  C_3 
REMARK    2  A    between atoms: C_3  and  C_4 
REMARK    3  A    between atoms: C_4  and  N_5 
REMARK    4  A    between atoms: C_9  and  C_10 
ROOT
ATOM      1  C   UNL d   1      10.505   8.112  -6.870  0.00  0.00    -0.020 A 
ATOM      2  C   UNL d   1      11.060   9.356  -7.231  0.00  0.00    -0.004 A 
ATOM      3  C   UNL d   1      11.916  10.047  -6.355  0.00  0.00     0.000 A 
ATOM      4  C   UNL d   1      12.253   9.490  -5.107  0.00  0.00     0.010 A 
ATOM      5  C   UNL d   1      11.700   8.254  -4.726  0.00  0.00     0.068 A 
ATOM      6  C   UNL d   1      12.024   7.663  -3.438  0.00  0.00     0.101 C 
ATOM      7  N   UNL d   1      12.272   7.189  -2.416  0.00  0.00    -0.191 NA
ATOM      8  C   UNL d   1      10.837   7.569  -5.599  0.00  0.00     0.006 A 
ENDROOT
BRANCH   1   9
ATOM      9  C   UNL d   1       9.575   7.391  -7.852  0.00  0.00     0.056 C 
ATOM     10  C   UNL d   1       9.268   5.969  -7.383  0.00  0.00     0.008 C 
ATOM     11  C   UNL d   1       8.455   5.175  -8.390  0.00  0.00     0.036 C 
ATOM     12  C   UNL d   1       9.112   5.210  -9.769  0.00  0.00     0.250 C 
ATOM     13  N   UNL d   1       9.277   6.600 -10.192  0.00  0.00     0.137 N 
ATOM     14  C   UNL d   1      10.167   7.323  -9.283  0.00  0.00     0.255 C 
BRANCH  13  15
ATOM     15  C   UNL d   1       9.813   6.665 -11.535  0.00  0.00     0.250 C 
BRANCH  15  16
ATOM     16  C   UNL d   1       8.743   6.335 -12.597  0.00  0.00     0.035 C 
BRANCH  16  17
ATOM     17  C   UNL d   1       9.263   5.332 -13.640  0.00  0.00     0.002 C 
ATOM     18  C   UNL d   1       9.429   3.917 -13.072  0.00  0.00     0.000 C 
ENDBRANCH  16  17
ENDBRANCH  15  16
ENDBRANCH  13  15
ENDBRANCH   1   9
TORSDOF 4
