REMARK  9 active torsions:
REMARK  status: ('A' for Active; 'I' for Inactive)
REMARK    1  A    between atoms: C_2  and  C_4 
REMARK    2  A    between atoms: C_9  and  O_10 
REMARK    3  A    between atoms: O_10  and  C_11 
REMARK    4  A    between atoms: C_11  and  C_12 
REMARK    5  A    between atoms: C_12  and  N_13 
REMARK    6  A    between atoms: C_16  and  C_17 
REMARK    7  A    between atoms: C_17  and  N_18 
REMARK    8  A    between atoms: N_18  and  S_19 
REMARK    9  A    between atoms: S_19  and  C_22 
ROOT
ATOM      1  N   UNL d   1       9.550   5.958 -11.947  0.00  0.00     0.140 N 
ATOM      2  C   UNL d   1       9.536   5.453 -10.578  0.00  0.00     0.250 C 
ATOM      3  C   UNL d   1      10.343   6.362  -9.692  0.00  0.00     0.037 C 
ATOM      4  C   UNL d   1       9.807   7.798  -9.676  0.00  0.00     0.029 C 
ATOM      5  C   UNL d   1       9.629   8.268 -11.130  0.00  0.00     0.037 C 
ATOM      6  C   UNL d   1       8.847   7.242 -11.959  0.00  0.00     0.250 C 
ENDROOT
BRANCH   1   7
ATOM      7  C   UNL d   1       8.777   5.023 -12.716  0.00  0.00     0.283 C 
BRANCH   7   8
ATOM      8  C   UNL d   1       9.616   3.992 -13.475  0.00  0.00     0.184 C 
BRANCH   8   9
ATOM      9  O   UNL d   1       8.842   3.439 -14.540  0.00  0.00    -0.329 OA
BRANCH   9  10
ATOM     10  C   UNL d   1       7.716   2.683 -14.262  0.00  0.00     0.090 A 
ATOM     11  C   UNL d   1       7.636   1.366 -14.783  0.00  0.00    -0.000 A 
ATOM     12  C   UNL d   1       6.491   0.565 -14.507  0.00  0.00    -0.002 A 
ATOM     13  C   UNL d   1       5.459   1.058 -13.682  0.00  0.00    -0.000 A 
ATOM     14  C   UNL d   1       5.533   2.370 -13.192  0.00  0.00     0.002 A 
ATOM     15  C   UNL d   1       6.612   3.192 -13.529  0.00  0.00     0.024 A 
BRANCH  11  16
ATOM     16  C   UNL d   1       8.738   0.773 -15.673  0.00  0.00     0.024 C 
ATOM     17  C   UNL d   1      10.074   0.601 -14.924  0.00  0.00     0.005 C 
ATOM     18  C   UNL d   1       8.923   1.563 -16.985  0.00  0.00     0.005 C 
ENDBRANCH  11  16
ENDBRANCH   9  10
ENDBRANCH   8   9
ENDBRANCH   7   8
ENDBRANCH   1   7
BRANCH   4  19
ATOM     19  C   UNL d   1      10.730   8.758  -8.902  0.00  0.00     0.139 C 
BRANCH  19  20
ATOM     20  N   UNL d   1      10.459   8.753  -7.463  0.00  0.00    -0.185 NA
BRANCH  20  21
ATOM     21  S   UNL d   1      10.546   7.286  -6.566  0.00  0.00     0.281 S 
ATOM     22  O   UNL d   1       9.176   6.766  -6.438  0.00  0.00    -0.199 OA
ATOM     23  O   UNL d   1      11.633   6.440  -7.103  0.00  0.00    -0.199 OA
BRANCH  21  24
ATOM     24  C   UNL d   1      11.120   7.777  -4.981  0.00  0.00     0.105 A 
ATOM     25  C   UNL d   1      11.511   6.755  -4.095  0.00  0.00     0.015 A 
ATOM     26  C   UNL d   1      12.094   7.083  -2.861  0.00  0.00     0.030 A 
ATOM     27  C   UNL d   1      12.265   8.441  -2.535  0.00  0.00     0.140 A 
ATOM     28  C   UNL d   1      11.866   9.457  -3.426  0.00  0.00     0.030 A 
ATOM     29  F   UNL d   1      12.820   8.779  -1.352  0.00  0.00    -0.204 F 
ATOM     30  C   UNL d   1      11.296   9.134  -4.667  0.00  0.00     0.015 A 
ENDBRANCH  21  24
ENDBRANCH  20  21
ENDBRANCH  19  20
ENDBRANCH   4  19
TORSDOF 9
