REMARK  7 active torsions:
REMARK  status: ('A' for Active; 'I' for Inactive)
REMARK       I    between atoms: C_2  and  N_4 
REMARK    1  A    between atoms: N_7  and  C_8 
REMARK    2  A    between atoms: C_11  and  O_12 
REMARK    3  A    between atoms: O_12  and  C_13 
REMARK    4  A    between atoms: C_13  and  C_14 
REMARK    5  A    between atoms: C_17  and  C_18 
REMARK    6  A    between atoms: C_17  and  C_24 
REMARK    7  A    between atoms: C_18  and  N_19 
ROOT
ATOM      1  C   UNL d   1      10.089   3.995 -14.227  0.00  0.00     0.178 C 
ATOM      2  C   UNL d   1      10.125   2.502 -14.523  0.00  0.00     0.177 C 
ATOM      3  O   UNL d   1      10.948   2.411 -15.668  0.00  0.00    -0.327 OA
ATOM      4  C   UNL d   1      10.782   3.618 -16.349  0.00  0.00     0.230 C 
ATOM      5  O   UNL d   1      10.101   4.513 -15.525  0.00  0.00    -0.327 OA
ENDROOT
BRANCH   1   6
ATOM      6  C   UNL d   1       8.796   4.405 -13.508  0.00  0.00     0.181 C 
BRANCH   6   7
ATOM      7  O   UNL d   1       8.820   5.816 -13.227  0.00  0.00    -0.328 OA
BRANCH   7   8
ATOM      8  C   UNL d   1       9.172   6.272 -11.976  0.00  0.00     0.094 A 
ATOM      9  C   UNL d   1       9.267   5.394 -10.878  0.00  0.00     0.026 A 
ATOM     10  C   UNL d   1       9.641   5.856  -9.641  0.00  0.00     0.019 A 
ATOM     11  C   UNL d   1       9.934   7.225  -9.386  0.00  0.00     0.056 A 
ATOM     12  C   UNL d   1       9.855   8.131 -10.483  0.00  0.00     0.019 A 
ATOM     13  C   UNL d   1       9.448   7.655 -11.757  0.00  0.00     0.026 A 
BRANCH  11  14
ATOM     14  N   UNL d   1      10.229   7.648  -8.085  0.00  0.00    -0.344 N 
ATOM     15  C   UNL d   1      11.310   8.614  -7.880  0.00  0.00     0.126 C 
ATOM     16  C   UNL d   1      11.173   9.269  -6.490  0.00  0.00     0.128 C 
ATOM     17  N   UNL d   1      11.056   8.236  -5.444  0.00  0.00    -0.316 N 
ATOM     18  C   UNL d   1      11.881   8.163  -4.381  0.00  0.00     0.234 C 
ATOM     19  C   UNL d   1       9.942   7.311  -5.674  0.00  0.00     0.128 C 
ATOM     20  C   UNL d   1      11.903   6.878  -3.541  0.00  0.00     0.098 C 
ATOM     21  O   UNL d   1      12.658   9.072  -4.090  0.00  0.00    -0.272 OA
ATOM     22  C   UNL d   1      10.108   6.650  -7.022  0.00  0.00     0.126 C 
ENDBRANCH  11  14
ENDBRANCH   7   8
ENDBRANCH   6   7
ENDBRANCH   1   6
BRANCH   4  23
ATOM     23  C   UNL d   1       9.896   3.407 -17.609  0.00  0.00     0.169 C 
BRANCH  23  24
ATOM     24  N   UNL d   1       9.625   4.642 -18.355  0.00  0.00    -0.303 N 
ATOM     25  C   UNL d   1       9.867   5.931 -18.028  0.00  0.00     0.179 A 
ATOM     26  N   UNL d   1       9.534   6.807 -18.962  0.00  0.00    -0.223 NA
ATOM     27  C   UNL d   1       8.993   6.031 -19.976  0.00  0.00     0.119 A 
ATOM     28  C   UNL d   1       9.059   4.701 -19.622  0.00  0.00     0.098 A 
ENDBRANCH  23  24
ENDBRANCH   4  23
BRANCH   4  29
ATOM     29  C   UNL d   1      12.175   4.197 -16.665  0.00  0.00     0.041 A 
ATOM     30  C   UNL d   1      13.096   3.523 -17.511  0.00  0.00     0.059 A 
ATOM     31  C   UNL d   1      14.297   4.143 -17.903  0.00  0.00     0.023 A 
ATOM     32 CL   UNL d   1      12.782   1.955 -18.157  0.00  0.00    -0.083 Cl
ATOM     33  C   UNL d   1      14.627   5.426 -17.431  0.00  0.00     0.059 A 
ATOM     34  C   UNL d   1      13.740   6.103 -16.577  0.00  0.00     0.011 A 
ATOM     35 CL   UNL d   1      16.140   6.135 -17.872  0.00  0.00    -0.082 Cl
ATOM     36  C   UNL d   1      12.534   5.487 -16.194  0.00  0.00     0.002 A 
ENDBRANCH   4  29
TORSDOF 7
