REMARK  10 active torsions:
REMARK  status: ('A' for Active; 'I' for Inactive)
REMARK    1  A    between atoms: O_2  and  C_3 
REMARK    2  A    between atoms: C_9  and  C_10 
REMARK    3  A    between atoms: C_12  and  C_13 
REMARK    4  A    between atoms: C_13  and  N_14 
REMARK    5  A    between atoms: N_14  and  C_15 
REMARK    6  A    between atoms: C_15  and  C_16 
REMARK    7  A    between atoms: C_16  and  C_17 
REMARK    8  A    between atoms: C_17  and  C_18 
REMARK    9  A    between atoms: C_18  and  O_19 
REMARK   10  A    between atoms: O_19  and  C_20 
ROOT
ATOM      1  C   UNL d   1       9.342   5.750 -11.673  0.00  0.00     0.290 C 
ENDROOT
BRANCH   1   2
ATOM      2  N   UNL d   1       8.206   5.519 -12.522  0.00  0.00     0.339 N 
BRANCH   2   3
ATOM      3  C   UNL d   1       7.225   4.670 -11.868  0.00  0.00     0.290 C 
BRANCH   3   4
ATOM      4  C   UNL d   1       6.037   4.569 -12.795  0.00  0.00     0.041 A 
ATOM      5  C   UNL d   1       6.035   3.627 -13.988  0.00  0.00     0.026 A 
ATOM      6  C   UNL d   1       5.171   3.334 -12.785  0.00  0.00     0.007 A 
BRANCH   5   7
ATOM      7  C   UNL d   1       7.236   2.778 -14.358  0.00  0.00     0.002 C 
ATOM      8  C   UNL d   1       7.112   1.377 -14.472  0.00  0.00     0.090 C 
ATOM      9  C   UNL d   1       8.278   0.599 -14.717  0.00  0.00     0.026 C 
ATOM     10  C   UNL d   1       9.558   1.206 -14.803  0.00  0.00     0.032 C 
ATOM     11  C   UNL d   1       9.659   2.598 -14.706  0.00  0.00     0.140 C 
ATOM     12  F   UNL d   1      10.871   3.205 -14.726  0.00  0.00    -0.204 F 
ATOM     13  C   UNL d   1       8.505   3.372 -14.577  0.00  0.00     0.027 C 
BRANCH   8  14
ATOM     14  O   UNL d   1       5.846   0.836 -14.327  0.00  0.00    -0.328 OA
ATOM     15  C   UNL d   1       5.699  -0.559 -14.494  0.00  0.00     0.181 C 
ENDBRANCH   8  14
ENDBRANCH   5   7
ENDBRANCH   3   4
ENDBRANCH   2   3
ENDBRANCH   1   2
BRANCH   1  16
ATOM     16  C   UNL d   1       9.387   7.278 -11.486  0.00  0.00     0.041 C 
BRANCH  16  17
ATOM     17  C   UNL d   1      10.263   7.618 -10.281  0.00  0.00     0.035 C 
BRANCH  17  18
ATOM     18  C   UNL d   1       9.832   8.847  -9.449  0.00  0.00     0.149 C 
BRANCH  18  19
ATOM     19  O   UNL d   1      10.859   9.400  -8.618  0.00  0.00    -0.331 OA
BRANCH  19  20
ATOM     20  C   UNL d   1      11.151   8.734  -7.449  0.00  0.00     0.096 A 
ATOM     21  C   UNL d   1      11.390   9.511  -6.268  0.00  0.00     0.043 A 
ATOM     22  C   UNL d   1      11.613   8.821  -5.054  0.00  0.00     0.087 A 
ATOM     23  C   UNL d   1      11.590   7.406  -5.006  0.00  0.00     0.018 A 
ATOM     24  N   UNL d   1      11.880   9.496  -3.848  0.00  0.00    -0.208 NA
ATOM     25  C   UNL d   1      11.426   6.677  -6.196  0.00  0.00     0.004 A 
ATOM     26  C   UNL d   1      11.881   6.738  -3.766  0.00  0.00     0.006 A 
ATOM     27  C   UNL d   1      11.244   7.330  -7.388  0.00  0.00     0.024 A 
ATOM     28  C   UNL d   1      12.127   7.437  -2.641  0.00  0.00     0.063 A 
ATOM     29  C   UNL d   1      12.113   8.885  -2.661  0.00  0.00     0.279 A 
ATOM     30  O   UNL d   1      12.199   9.542  -1.631  0.00  0.00    -0.265 OA
ENDBRANCH  19  20
ENDBRANCH  18  19
ENDBRANCH  17  18
ENDBRANCH  16  17
ENDBRANCH   1  16
TORSDOF 10
