REMARK  5 active torsions:
REMARK  status: ('A' for Active; 'I' for Inactive)
REMARK    1  A    between atoms: N_11  and  C_12 
REMARK    2  A    between atoms: C_12  and  C_13 
REMARK    3  A    between atoms: C_13  and  N_14 
REMARK    4  A    between atoms: N_17  and  C_18 
REMARK    5  A    between atoms: C_18  and  C_19 
ROOT
ATOM      1  N   UNL d   1       8.374   5.217 -11.267  0.00  0.00     0.143 N 
ATOM      2  C   UNL d   1       8.520   6.608 -11.671  0.00  0.00     0.286 C 
ATOM      3  C   UNL d   1       9.840   7.216 -11.143  0.00  0.00     0.286 C 
ATOM      4  N   UNL d   1       9.922   7.158  -9.677  0.00  0.00     0.146 N 
ATOM      5  C   UNL d   1       9.771   5.758  -9.280  0.00  0.00     0.286 C 
ATOM      6  C   UNL d   1       8.461   5.146  -9.803  0.00  0.00     0.286 C 
ENDROOT
BRANCH   1   7
ATOM      7  C   UNL d   1       7.111   4.610 -11.730  0.00  0.00     0.276 C 
BRANCH   7   8
ATOM      8  C   UNL d   1       6.897   4.627 -13.239  0.00  0.00     0.153 C 
BRANCH   8   9
ATOM      9  N   UNL d   1       7.691   3.630 -13.941  0.00  0.00    -0.255 N 
ATOM     10  S   UNL d   1       9.367   3.803 -14.353  0.00  0.00     0.251 S 
ATOM     11  O   UNL d   1      10.163   4.088 -13.131  0.00  0.00    -0.204 OA
ATOM     12  O   UNL d   1       9.452   4.636 -15.556  0.00  0.00    -0.204 OA
ATOM     13  C   UNL d   1       9.530   2.029 -14.756  0.00  0.00     0.172 A 
ATOM     14  C   UNL d   1       8.156   1.441 -14.474  0.00  0.00     0.012 A 
ATOM     15  C   UNL d   1       7.172   2.342 -14.041  0.00  0.00     0.067 A 
ATOM     16  C   UNL d   1       7.852   0.076 -14.574  0.00  0.00    -0.002 A 
ATOM     17  C   UNL d   1       5.895   1.891 -13.694  0.00  0.00     0.018 A 
ATOM     18  C   UNL d   1       5.571   0.525 -13.819  0.00  0.00     0.002 A 
ATOM     19  C   UNL d   1       6.558  -0.386 -14.252  0.00  0.00    -0.000 A 
ENDBRANCH   8   9
ENDBRANCH   7   8
ENDBRANCH   1   7
BRANCH   4  20
ATOM     20  C   UNL d   1      11.197   7.759  -9.223  0.00  0.00     0.277 C 
BRANCH  20  21
ATOM     21  C   UNL d   1      11.321   7.900  -7.710  0.00  0.00     0.011 A 
ATOM     22  C   UNL d   1      11.450   6.758  -6.890  0.00  0.00    -0.002 A 
ATOM     23  C   UNL d   1      11.471   6.904  -5.470  0.00  0.00     0.011 A 
ATOM     24  C   UNL d   1      11.483   8.185  -4.890  0.00  0.00     0.058 A 
ATOM     25  C   UNL d   1      11.366   9.323  -5.716  0.00  0.00     0.011 A 
ATOM     26 CL   UNL d   1      11.803   8.373  -3.197  0.00  0.00    -0.082 Cl
ATOM     27  C   UNL d   1      11.277   9.177  -7.117  0.00  0.00    -0.002 A 
ENDBRANCH  20  21
ENDBRANCH   4  20
TORSDOF 5
