REMARK  10 active torsions:
REMARK  status: ('A' for Active; 'I' for Inactive)
REMARK    1  A    between atoms: O_2  and  C_3 
REMARK    2  A    between atoms: C_8  and  N_9 
REMARK    3  A    between atoms: N_12  and  C_13 
REMARK    4  A    between atoms: C_13  and  C_14 
REMARK    5  A    between atoms: C_14  and  C_15 
REMARK    6  A    between atoms: C_15  and  C_16 
REMARK    7  A    between atoms: C_16  and  N_17 
REMARK       I    between atoms: N_17  and  C_18 
REMARK    8  A    between atoms: C_18  and  C_20 
REMARK    9  A    between atoms: C_21  and  C_22 
REMARK   10  A    between atoms: C_25  and  C_26 
ROOT
ATOM      1  C   UNL d   1       7.754   3.857 -13.489  0.00  0.00     0.129 C 
ENDROOT
BRANCH   1   2
ATOM      2  C   UNL d   1       8.958   2.987 -13.907  0.00  0.00     0.029 C 
BRANCH   2   3
ATOM      3  C   UNL d   1       8.774   2.411 -15.308  0.00  0.00     0.037 C 
BRANCH   3   4
ATOM      4  C   UNL d   1       9.953   1.501 -15.746  0.00  0.00     0.251 C 
BRANCH   4   5
ATOM      5  N   UNL d   1       9.830   0.994 -17.117  0.00  0.00     0.141 N 
ATOM      6  C   UNL d   1       9.693   2.080 -18.099  0.00  0.00     0.274 C 
ATOM      7  C   UNL d   1       9.634   1.531 -19.540  0.00  0.00     0.137 C 
ATOM      8  N   UNL d   1       8.572   0.535 -19.638  0.00  0.00    -0.343 N 
ATOM      9  C   UNL d   1       8.643  -0.542 -18.655  0.00  0.00     0.137 C 
ATOM     10  C   UNL d   1       8.713   0.046 -17.232  0.00  0.00     0.274 C 
BRANCH   8  11
ATOM     11  C   UNL d   1       7.512   0.672 -20.551  0.00  0.00     0.079 A 
ATOM     12  C   UNL d   1       6.157   0.464 -20.173  0.00  0.00     0.110 A 
ATOM     13  C   UNL d   1       5.142   0.572 -21.162  0.00  0.00     0.026 A 
ATOM     14  C   UNL d   1       5.458   0.899 -22.490  0.00  0.00     0.002 A 
ATOM     15  C   UNL d   1       6.795   1.126 -22.856  0.00  0.00     0.002 A 
ATOM     16  C   UNL d   1       7.812   1.010 -21.891  0.00  0.00     0.019 A 
BRANCH  12  17
ATOM     17  O   UNL d   1       5.876   0.196 -18.848  0.00  0.00    -0.327 OA
ATOM     18  C   UNL d   1       4.599  -0.331 -18.516  0.00  0.00     0.181 C 
ENDBRANCH  12  17
ENDBRANCH   8  11
ENDBRANCH   4   5
ENDBRANCH   3   4
ENDBRANCH   2   3
ENDBRANCH   1   2
BRANCH   1  19
ATOM     19  N   UNL d   1       7.978   4.458 -12.181  0.00  0.00    -0.234 NA
ATOM     20  C   UNL d   1       8.417   5.708 -11.968  0.00  0.00     0.275 C 
ATOM     21  O   UNL d   1       8.488   6.560 -12.849  0.00  0.00    -0.266 OA
BRANCH  20  22
ATOM     22  C   UNL d   1       8.834   5.889 -10.592  0.00  0.00     0.062 C 
ATOM     23  C   UNL d   1       9.630   6.918 -10.239  0.00  0.00     0.005 C 
BRANCH  23  24
ATOM     24  C   UNL d   1      10.078   7.212  -8.867  0.00  0.00     0.000 A 
ATOM     25  C   UNL d   1       9.454   6.612  -7.753  0.00  0.00     0.000 A 
ATOM     26  C   UNL d   1       9.909   6.873  -6.449  0.00  0.00     0.000 A 
ATOM     27  C   UNL d   1      10.996   7.737  -6.221  0.00  0.00     0.000 A 
ATOM     28  C   UNL d   1      11.617   8.344  -7.334  0.00  0.00     0.000 A 
ATOM     29  C   UNL d   1      11.172   8.078  -8.645  0.00  0.00     0.000 A 
BRANCH  27  30
ATOM     30  C   UNL d   1      11.453   8.008  -4.850  0.00  0.00     0.000 A 
ATOM     31  C   UNL d   1      11.854   6.953  -4.002  0.00  0.00     0.000 A 
ATOM     32  C   UNL d   1      12.264   7.208  -2.681  0.00  0.00     0.000 A 
ATOM     33  C   UNL d   1      12.284   8.528  -2.201  0.00  0.00     0.000 A 
ATOM     34  C   UNL d   1      11.868   9.591  -3.031  0.00  0.00     0.000 A 
ATOM     35  C   UNL d   1      11.461   9.328  -4.353  0.00  0.00     0.000 A 
ENDBRANCH  27  30
ENDBRANCH  23  24
ENDBRANCH  20  22
ENDBRANCH   1  19
TORSDOF 10
