REMARK  8 active torsions:
REMARK  status: ('A' for Active; 'I' for Inactive)
REMARK    1  A    between atoms: O_2  and  C_3 
REMARK    2  A    between atoms: C_7  and  N_8 
REMARK    3  A    between atoms: N_11  and  C_12 
REMARK    4  A    between atoms: C_12  and  C_13 
REMARK    5  A    between atoms: C_13  and  C_14 
REMARK    6  A    between atoms: C_14  and  C_15 
REMARK    7  A    between atoms: C_15  and  N_16 
REMARK       I    between atoms: N_16  and  C_17 
REMARK    8  A    between atoms: C_17  and  C_19 
ROOT
ATOM      1  N   UNL d   1       7.428   3.293 -14.041  0.00  0.00    -0.330 N 
ATOM      2  C   UNL d   1       8.737   3.819 -14.428  0.00  0.00     0.138 C 
ATOM      3  C   UNL d   1       9.562   4.173 -13.181  0.00  0.00     0.274 C 
ATOM      4  N   UNL d   1       8.836   5.125 -12.322  0.00  0.00     0.141 N 
ATOM      5  C   UNL d   1       7.572   4.495 -11.905  0.00  0.00     0.274 C 
ATOM      6  C   UNL d   1       6.695   4.150 -13.101  0.00  0.00     0.138 C 
ENDROOT
BRANCH   4   7
ATOM      7  C   UNL d   1       9.679   5.454 -11.172  0.00  0.00     0.251 C 
BRANCH   7   8
ATOM      8  C   UNL d   1       9.040   6.413 -10.161  0.00  0.00     0.037 C 
BRANCH   8   9
ATOM      9  C   UNL d   1       9.900   6.669  -8.917  0.00  0.00     0.029 C 
BRANCH   9  10
ATOM     10  C   UNL d   1       9.082   7.362  -7.809  0.00  0.00     0.129 C 
BRANCH  10  11
ATOM     11  N   UNL d   1       9.836   7.468  -6.569  0.00  0.00    -0.233 NA
ATOM     12  C   UNL d   1      10.686   8.460  -6.275  0.00  0.00     0.293 C 
ATOM     13  O   UNL d   1      10.927   9.396  -7.040  0.00  0.00    -0.264 OA
BRANCH  12  14
ATOM     14  C   UNL d   1      11.275   8.407  -4.899  0.00  0.00     0.139 A 
ATOM     15  N   UNL d   1      11.354   9.576  -4.224  0.00  0.00    -0.239 NA
ATOM     16  C   UNL d   1      11.853   9.563  -2.981  0.00  0.00     0.099 A 
ATOM     17  C   UNL d   1      12.330   8.395  -2.346  0.00  0.00     0.021 A 
ATOM     18  C   UNL d   1      12.258   7.181  -3.048  0.00  0.00     0.003 A 
ATOM     19  C   UNL d   1      11.715   7.179  -4.345  0.00  0.00     0.024 A 
ENDBRANCH  12  14
ENDBRANCH  10  11
ENDBRANCH   9  10
ENDBRANCH   8   9
ENDBRANCH   7   8
ENDBRANCH   4   7
BRANCH   1  20
ATOM     20  C   UNL d   1       6.912   2.058 -14.480  0.00  0.00     0.142 A 
ATOM     21  C   UNL d   1       7.418   1.434 -15.653  0.00  0.00     0.037 A 
ATOM     22  C   UNL d   1       6.861   0.225 -16.090  0.00  0.00     0.007 A 
ATOM     23  C   UNL d   1       5.799  -0.339 -15.375  0.00  0.00     0.044 A 
ATOM     24  C   UNL d   1       5.316   0.359 -14.239  0.00  0.00     0.179 A 
ATOM     25  N   UNL d   1       5.877   1.500 -13.791  0.00  0.00    -0.205 NA
BRANCH  24  26
ATOM     26  O   UNL d   1       4.245  -0.060 -13.485  0.00  0.00    -0.312 OA
ATOM     27  C   UNL d   1       3.221  -0.790 -14.161  0.00  0.00     0.183 C 
ENDBRANCH  24  26
ENDBRANCH   1  20
TORSDOF 8
