REMARK  9 active torsions:
REMARK  status: ('A' for Active; 'I' for Inactive)
REMARK    1  A    between atoms: C_2  and  C_4 
REMARK    2  A    between atoms: C_7  and  C_8 
REMARK    3  A    between atoms: C_11  and  S_12 
REMARK    4  A    between atoms: S_12  and  C_13 
REMARK    5  A    between atoms: C_13  and  C_14 
REMARK    6  A    between atoms: C_14  and  C_15 
REMARK    7  A    between atoms: C_15  and  N_16 
REMARK    8  A    between atoms: C_20  and  C_21 
REMARK    9  A    between atoms: C_24  and  C_25 
ROOT
ATOM      1  C   UNL d   1       7.096   2.140 -15.700  0.00  0.00     0.047 C 
ENDROOT
BRANCH   1   2
ATOM      2  C   UNL d   1       6.554   0.703 -15.709  0.00  0.00     0.067 C 
BRANCH   2   3
ATOM      3  S   UNL d   1       7.018  -0.168 -17.242  0.00  0.00    -0.075 SA
BRANCH   3   4
ATOM      4  C   UNL d   1       8.789  -0.070 -17.140  0.00  0.00     0.193 A 
ATOM      5  N   UNL d   1       9.492   0.049 -16.011  0.00  0.00    -0.122 NA
ATOM      6  N   UNL d   1      10.780   0.357 -16.409  0.00  0.00    -0.128 NA
ATOM      7  C   UNL d   1      10.770   0.265 -17.741  0.00  0.00     0.167 A 
ATOM      8  N   UNL d   1       9.549  -0.013 -18.249  0.00  0.00    -0.289 N 
ATOM      9  C   UNL d   1       9.131  -0.158 -19.636  0.00  0.00     0.134 C 
BRANCH   7  10
ATOM     10  C   UNL d   1      11.977   0.433 -18.527  0.00  0.00     0.036 A 
ATOM     11  C   UNL d   1      12.665   1.661 -18.543  0.00  0.00     0.003 A 
ATOM     12  C   UNL d   1      13.849   1.793 -19.295  0.00  0.00     0.003 A 
ATOM     13  C   UNL d   1      14.360   0.700 -20.038  0.00  0.00     0.035 A 
ATOM     14  C   UNL d   1      13.666  -0.534 -20.006  0.00  0.00     0.003 A 
ATOM     15  C   UNL d   1      12.486  -0.660 -19.254  0.00  0.00     0.003 A 
BRANCH  13  16
ATOM     16  C   UNL d   1      15.611   0.868 -20.821  0.00  0.00     0.173 C 
ATOM     17  C   UNL d   1      16.099  -0.313 -21.656  0.00  0.00     0.077 C 
ATOM     18  O   UNL d   1      16.260   1.913 -20.831  0.00  0.00    -0.291 OA
ENDBRANCH  13  16
ENDBRANCH   7  10
ENDBRANCH   3   4
ENDBRANCH   2   3
ENDBRANCH   1   2
BRANCH   1  19
ATOM     19  C   UNL d   1       7.394   2.679 -14.295  0.00  0.00     0.251 C 
BRANCH  19  20
ATOM     20  N   UNL d   1       8.295   3.838 -14.262  0.00  0.00     0.143 N 
ATOM     21  C   UNL d   1       8.373   4.339 -12.899  0.00  0.00     0.284 C 
ATOM     22  C   UNL d   1       9.335   5.535 -12.726  0.00  0.00     0.171 C 
ATOM     23  O   UNL d   1      10.623   5.188 -13.238  0.00  0.00    -0.348 OA
ATOM     24  C   UNL d   1      10.599   4.716 -14.581  0.00  0.00     0.178 C 
ATOM     25  C   UNL d   1       9.660   3.513 -14.690  0.00  0.00     0.282 C 
BRANCH  22  26
ATOM     26  C   UNL d   1       9.432   6.037 -11.276  0.00  0.00     0.007 A 
ATOM     27  C   UNL d   1       9.199   5.177 -10.178  0.00  0.00    -0.002 A 
ATOM     28  C   UNL d   1       9.280   5.651  -8.863  0.00  0.00     0.004 A 
ATOM     29  C   UNL d   1       9.603   6.997  -8.617  0.00  0.00     0.071 A 
ATOM     30  C   UNL d   1       9.873   7.858  -9.698  0.00  0.00     0.004 A 
ATOM     31  C   UNL d   1       9.776   7.381 -11.020  0.00  0.00    -0.002 A 
BRANCH  29  32
ATOM     32  C   UNL d   1       9.674   7.499  -7.194  0.00  0.00     0.419 C 
ATOM     33  F   UNL d   1       8.813   6.813  -6.442  0.00  0.00    -0.166 F 
ATOM     34  F   UNL d   1      10.906   7.297  -6.727  0.00  0.00    -0.166 F 
ATOM     35  F   UNL d   1       9.376   8.794  -7.104  0.00  0.00    -0.166 F 
ENDBRANCH  29  32
ENDBRANCH  22  26
ENDBRANCH  19  20
ENDBRANCH   1  19
TORSDOF 9
