REMARK  6 active torsions:
REMARK  status: ('A' for Active; 'I' for Inactive)
REMARK    1  A    between atoms: O_2  and  C_3 
REMARK    2  A    between atoms: C_6  and  O_7 
REMARK    3  A    between atoms: O_7  and  C_8 
REMARK    4  A    between atoms: C_8  and  C_9 
REMARK    5  A    between atoms: C_9  and  C_10 
REMARK       I    between atoms: N_13  and  C_14 
REMARK    6  A    between atoms: C_14  and  C_16 
ROOT
ATOM      1  C   UNL d   1       8.792   5.437 -10.562  0.00  0.00     0.006 C 
ATOM      2  C   UNL d   1       8.624   5.437  -9.038  0.00  0.00     0.024 C 
ATOM      3  C   UNL d   1       9.914   5.807  -8.303  0.00  0.00     0.104 C 
ATOM      4  N   UNL d   1      10.441   7.084  -8.797  0.00  0.00    -0.315 N 
ATOM      5  C   UNL d   1      10.793   8.156  -8.019  0.00  0.00     0.275 C 
ATOM      6  O   UNL d   1      10.911   9.278  -8.508  0.00  0.00    -0.266 OA
ATOM      7  C   UNL d   1      10.668   7.129 -10.230  0.00  0.00     0.104 C 
ATOM      8  C   UNL d   1       9.389   6.789 -10.998  0.00  0.00     0.024 C 
ENDROOT
BRANCH   1   9
ATOM      9  C   UNL d   1       7.433   5.171 -11.235  0.00  0.00     0.033 C 
BRANCH   9  10
ATOM     10  C   UNL d   1       7.451   5.105 -12.770  0.00  0.00     0.149 C 
BRANCH  10  11
ATOM     11  O   UNL d   1       7.945   3.832 -13.175  0.00  0.00    -0.331 OA
BRANCH  11  12
ATOM     12  C   UNL d   1       9.074   3.719 -13.955  0.00  0.00     0.094 A 
ATOM     13  C   UNL d   1       9.326   2.459 -14.536  0.00  0.00     0.026 A 
ATOM     14  C   UNL d   1      10.428   2.260 -15.392  0.00  0.00     0.026 A 
ATOM     15  C   UNL d   1      11.316   3.332 -15.662  0.00  0.00     0.094 A 
ATOM     16  C   UNL d   1      11.081   4.580 -15.057  0.00  0.00     0.026 A 
ATOM     17  C   UNL d   1       9.972   4.776 -14.210  0.00  0.00     0.026 A 
BRANCH  15  18
ATOM     18  O   UNL d   1      12.412   3.250 -16.491  0.00  0.00    -0.328 OA
ATOM     19  C   UNL d   1      12.577   2.065 -17.250  0.00  0.00     0.181 C 
ENDBRANCH  15  18
ENDBRANCH  11  12
ENDBRANCH  10  11
ENDBRANCH   9  10
ENDBRANCH   1   9
BRANCH   5  20
ATOM     20  C   UNL d   1      11.111   7.952  -6.591  0.00  0.00     0.137 A 
ATOM     21  N   UNL d   1      11.245   9.081  -5.795  0.00  0.00    -0.241 NA
ATOM     22  C   UNL d   1      11.621   8.736  -4.506  0.00  0.00     0.082 A 
ATOM     23  C   UNL d   1      11.735   7.320  -4.518  0.00  0.00     0.019 A 
ATOM     24  C   UNL d   1      11.874   9.481  -3.341  0.00  0.00     0.019 A 
ATOM     25  C   UNL d   1      11.463   6.857  -5.847  0.00  0.00     0.025 A 
ATOM     26  C   UNL d   1      12.106   6.680  -3.311  0.00  0.00     0.002 A 
ATOM     27  C   UNL d   1      12.354   7.416  -2.145  0.00  0.00     0.000 A 
ATOM     28  C   UNL d   1      12.257   8.820  -2.159  0.00  0.00     0.002 A 
ENDBRANCH   5  20
TORSDOF 6
