REMARK  4 active torsions:
REMARK  status: ('A' for Active; 'I' for Inactive)
REMARK    1  A    between atoms: S_2  and  C_4 
REMARK    2  A    between atoms: S_2  and  C_10 
REMARK    3  A    between atoms: C_13  and  C_14 
REMARK    4  A    between atoms: C_15  and  C_16 
ROOT
ATOM      1  C   UNL d   1       8.661   5.798 -10.980  0.00  0.00     0.107 A 
ATOM      2  C   UNL d   1       8.447   4.858  -9.968  0.00  0.00     0.015 A 
ATOM      3  C   UNL d   1       9.065   5.073  -8.730  0.00  0.00     0.020 A 
ATOM      4  C   UNL d   1       9.849   6.231  -8.538  0.00  0.00     0.082 A 
ATOM      5  N   UNL d   1      10.044   7.146  -9.511  0.00  0.00    -0.243 NA
ATOM      6  C   UNL d   1       9.463   6.926 -10.713  0.00  0.00     0.110 A 
ENDROOT
BRANCH   4   7
ATOM      7  C   UNL d   1      10.435   6.473  -7.213  0.00  0.00     0.019 C 
ATOM      8  C   UNL d   1      10.545   7.675  -6.616  0.00  0.00     0.004 C 
BRANCH   8   9
ATOM      9  C   UNL d   1      11.154   7.940  -5.293  0.00  0.00     0.028 A 
ATOM     10  C   UNL d   1      11.232   9.269  -4.814  0.00  0.00     0.142 A 
ATOM     11  C   UNL d   1      11.808   9.544  -3.558  0.00  0.00     0.059 A 
ATOM     12  F   UNL d   1      10.745  10.297  -5.549  0.00  0.00    -0.204 F 
ATOM     13  C   UNL d   1      12.318   8.505  -2.766  0.00  0.00     0.142 A 
ATOM     14  C   UNL d   1      12.251   7.180  -3.225  0.00  0.00     0.030 A 
ATOM     15  F   UNL d   1      12.878   8.782  -1.568  0.00  0.00    -0.204 F 
ATOM     16  C   UNL d   1      11.666   6.899  -4.476  0.00  0.00     0.004 A 
ENDBRANCH   8   9
ENDBRANCH   4   7
BRANCH   1  17
ATOM     17  S   UNL d   1       7.905   5.552 -12.564  0.00  0.00     0.211 S 
ATOM     18  O   UNL d   1       7.857   6.855 -13.226  0.00  0.00    -0.217 OA
ATOM     19  O   UNL d   1       6.675   4.765 -12.400  0.00  0.00    -0.217 OA
BRANCH  17  20
ATOM     20  C   UNL d   1       9.090   4.564 -13.456  0.00  0.00     0.088 A 
ATOM     21  C   UNL d   1       8.844   3.203 -13.679  0.00  0.00     0.011 A 
ATOM     22  C   UNL d   1       9.802   2.422 -14.354  0.00  0.00     0.001 A 
ATOM     23  C   UNL d   1      11.003   3.010 -14.804  0.00  0.00     0.000 A 
ATOM     24  C   UNL d   1      11.236   4.385 -14.595  0.00  0.00     0.001 A 
ATOM     25  C   UNL d   1      10.269   5.163 -13.926  0.00  0.00     0.011 A 
ENDBRANCH  17  20
ENDBRANCH   1  17
TORSDOF 4
