REMARK  7 active torsions:
REMARK  status: ('A' for Active; 'I' for Inactive)
REMARK    1  A    between atoms: C_3  and  S_4 
REMARK    2  A    between atoms: S_4  and  C_5 
REMARK    3  A    between atoms: C_5  and  C_6 
REMARK    4  A    between atoms: C_6  and  C_7 
REMARK    5  A    between atoms: C_7  and  N_8 
REMARK    6  A    between atoms: N_13  and  C_14 
REMARK    7  A    between atoms: C_24  and  C_25 
ROOT
ATOM      1  C   UNL d   1      11.923   4.927 -15.102  0.00  0.00     0.047 C 
ENDROOT
BRANCH   1   2
ATOM      2  C   UNL d   1      12.882   4.283 -16.115  0.00  0.00     0.067 C 
BRANCH   2   3
ATOM      3  S   UNL d   1      13.319   5.435 -17.446  0.00  0.00    -0.075 SA
BRANCH   3   4
ATOM      4  C   UNL d   1      11.745   5.601 -18.233  0.00  0.00     0.193 A 
ATOM      5  N   UNL d   1      11.425   6.674 -18.984  0.00  0.00    -0.289 N 
ATOM      6  C   UNL d   1      12.269   7.826 -19.280  0.00  0.00     0.134 C 
ATOM      7  C   UNL d   1      10.157   6.383 -19.374  0.00  0.00     0.167 A 
ATOM      8  N   UNL d   1       9.720   5.221 -18.870  0.00  0.00    -0.128 NA
ATOM      9  N   UNL d   1      10.770   4.696 -18.149  0.00  0.00    -0.122 NA
BRANCH   7  10
ATOM     10  C   UNL d   1       9.298   7.194 -20.245  0.00  0.00     0.036 A 
ATOM     11  C   UNL d   1       9.838   7.972 -21.296  0.00  0.00     0.003 A 
ATOM     12  C   UNL d   1       8.997   8.784 -22.084  0.00  0.00     0.000 A 
ATOM     13  C   UNL d   1       7.606   8.793 -21.870  0.00  0.00     0.000 A 
ATOM     14  C   UNL d   1       7.053   7.989 -20.852  0.00  0.00     0.000 A 
ATOM     15  C   UNL d   1       7.898   7.198 -20.041  0.00  0.00     0.003 A 
ENDBRANCH   7  10
ENDBRANCH   3   4
ENDBRANCH   2   3
ENDBRANCH   1   2
BRANCH   1  16
ATOM     16  C   UNL d   1      11.331   3.907 -14.123  0.00  0.00     0.251 C 
BRANCH  16  17
ATOM     17  N   UNL d   1      10.343   4.522 -13.242  0.00  0.00     0.140 N 
ATOM     18  C   UNL d   1       9.118   4.917 -13.932  0.00  0.00     0.267 C 
ATOM     19  C   UNL d   1       8.373   4.426 -12.703  0.00  0.00     0.114 C 
ATOM     20  C   UNL d   1       9.602   3.545 -12.449  0.00  0.00     0.267 C 
ATOM     21  N   UNL d   1       7.806   5.306 -11.684  0.00  0.00    -0.251 NA
ATOM     22  C   UNL d   1       6.952   3.875 -12.848  0.00  0.00     0.037 C 
ATOM     23  C   UNL d   1       6.718   4.374 -11.426  0.00  0.00     0.078 C 
BRANCH  21  24
ATOM     24  C   UNL d   1       8.634   5.729 -10.590  0.00  0.00     0.037 A 
ATOM     25  C   UNL d   1       9.527   6.815 -10.775  0.00  0.00     0.013 A 
ATOM     26  C   UNL d   1      10.340   7.317  -9.733  0.00  0.00     0.031 A 
ATOM     27  C   UNL d   1      10.274   6.739  -8.456  0.00  0.00     0.140 A 
ATOM     28  C   UNL d   1       9.392   5.671  -8.229  0.00  0.00     0.031 A 
ATOM     29  F   UNL d   1      11.058   7.199  -7.448  0.00  0.00    -0.204 F 
ATOM     30  C   UNL d   1       8.593   5.183  -9.279  0.00  0.00     0.013 A 
ENDBRANCH  21  24
ENDBRANCH  16  17
ENDBRANCH   1  16
TORSDOF 7
