REMARK  11 active torsions:
REMARK  status: ('A' for Active; 'I' for Inactive)
REMARK    1  A    between atoms: O_2  and  C_3 
REMARK    2  A    between atoms: C_9  and  C_10 
REMARK    3  A    between atoms: C_12  and  C_13 
REMARK    4  A    between atoms: C_13  and  N_14 
REMARK    5  A    between atoms: N_14  and  C_15 
REMARK    6  A    between atoms: N_14  and  C_31 
REMARK    7  A    between atoms: C_15  and  C_16 
REMARK    8  A    between atoms: C_16  and  C_17 
REMARK    9  A    between atoms: C_17  and  S_18 
REMARK   10  A    between atoms: S_18  and  C_19 
REMARK   11  A    between atoms: C_22  and  C_23 
ROOT
ATOM      1  N   UNL d   1      10.373   4.369 -15.788  0.00  0.00     0.135 N 
ENDROOT
BRANCH   1   2
ATOM      2  C   UNL d   1      10.496   4.814 -17.177  0.00  0.00     0.251 C 
BRANCH   2   3
ATOM      3  C   UNL d   1       9.420   5.788 -17.699  0.00  0.00     0.038 A 
ATOM      4  C   UNL d   1       8.933   5.689 -19.135  0.00  0.00     0.026 A 
ATOM      5  C   UNL d   1       9.785   6.860 -18.713  0.00  0.00     0.007 A 
BRANCH   4   6
ATOM      6  C   UNL d   1       9.460   4.658 -20.081  0.00  0.00     0.002 A 
ATOM      7  C   UNL d   1       9.207   3.278 -19.892  0.00  0.00     0.090 A 
ATOM      8  C   UNL d   1       9.839   2.363 -20.757  0.00  0.00     0.026 A 
ATOM      9  C   UNL d   1      10.685   2.817 -21.789  0.00  0.00     0.032 A 
ATOM     10  C   UNL d   1      10.909   4.196 -21.967  0.00  0.00     0.140 A 
ATOM     11  F   UNL d   1      11.728   4.650 -22.949  0.00  0.00    -0.204 F 
ATOM     12  C   UNL d   1      10.289   5.111 -21.117  0.00  0.00     0.027 A 
BRANCH   7  13
ATOM     13  O   UNL d   1       8.419   2.884 -18.822  0.00  0.00    -0.328 OA
ATOM     14  C   UNL d   1       8.157   1.492 -18.632  0.00  0.00     0.181 C 
ENDBRANCH   7  13
ENDBRANCH   4   6
ENDBRANCH   2   3
ENDBRANCH   1   2
BRANCH   1  15
ATOM     15  C   UNL d   1       8.991   4.332 -15.292  0.00  0.00     0.251 C 
BRANCH  15  16
ATOM     16  C   UNL d   1       8.920   4.132 -13.778  0.00  0.00     0.047 C 
BRANCH  16  17
ATOM     17  C   UNL d   1       7.503   4.540 -13.361  0.00  0.00     0.067 C 
BRANCH  17  18
ATOM     18  S   UNL d   1       7.320   4.445 -11.576  0.00  0.00    -0.075 SA
BRANCH  18  19
ATOM     19  C   UNL d   1       8.435   5.687 -11.016  0.00  0.00     0.193 A 
ATOM     20  N   UNL d   1       8.808   5.801  -9.727  0.00  0.00    -0.289 N 
ATOM     21  C   UNL d   1       9.627   6.844  -9.747  0.00  0.00     0.167 A 
ATOM     22  C   UNL d   1       8.342   5.032  -8.581  0.00  0.00     0.134 C 
ATOM     23  N   UNL d   1       9.838   7.323 -10.992  0.00  0.00    -0.128 NA
ATOM     24  N   UNL d   1       9.012   6.601 -11.825  0.00  0.00    -0.122 NA
BRANCH  21  25
ATOM     25  C   UNL d   1      10.275   7.521  -8.620  0.00  0.00     0.036 A 
ATOM     26  C   UNL d   1       9.612   7.607  -7.358  0.00  0.00     0.003 A 
ATOM     27  C   UNL d   1      10.268   8.204  -6.271  0.00  0.00     0.000 A 
ATOM     28  C   UNL d   1      11.525   8.792  -6.431  0.00  0.00     0.000 A 
ATOM     29  C   UNL d   1      12.168   8.751  -7.685  0.00  0.00     0.000 A 
ATOM     30  C   UNL d   1      11.536   8.111  -8.775  0.00  0.00     0.003 A 
ENDBRANCH  21  25
ENDBRANCH  18  19
ENDBRANCH  17  18
ENDBRANCH  16  17
ENDBRANCH  15  16
ENDBRANCH   1  15
BRANCH   1  31
ATOM     31  C   UNL d   1      11.058   3.078 -15.546  0.00  0.00     0.219 C 
ATOM     32  C   UNL d   1      12.536   3.256 -15.874  0.00  0.00     0.035 C 
ATOM     33  C   UNL d   1      10.468   1.853 -16.283  0.00  0.00     0.035 C 
ENDBRANCH   1  31
TORSDOF 11
