REMARK  7 active torsions:
REMARK  status: ('A' for Active; 'I' for Inactive)
REMARK    1  A    between atoms: O_2  and  C_3 
REMARK    2  A    between atoms: C_8  and  N_9 
REMARK    3  A    between atoms: N_12  and  C_13 
REMARK    4  A    between atoms: C_13  and  C_14 
REMARK    5  A    between atoms: C_14  and  C_15 
REMARK    6  A    between atoms: C_15  and  C_16 
REMARK    7  A    between atoms: C_16  and  N_17 
ROOT
ATOM      1  C   UNL d   1       9.342   5.059 -10.684  0.00  0.00     0.251 C 
ENDROOT
BRANCH   1   2
ATOM      2  N   UNL d   1       8.847   4.817 -12.036  0.00  0.00     0.141 N 
ATOM      3  C   UNL d   1       7.414   4.485 -11.984  0.00  0.00     0.274 C 
ATOM      4  C   UNL d   1       6.874   4.207 -13.398  0.00  0.00     0.137 C 
ATOM      5  N   UNL d   1       7.667   3.185 -14.051  0.00  0.00    -0.343 N 
ATOM      6  C   UNL d   1       9.098   3.430 -14.072  0.00  0.00     0.137 C 
ATOM      7  C   UNL d   1       9.591   3.706 -12.644  0.00  0.00     0.274 C 
BRANCH   5   8
ATOM      8  C   UNL d   1       7.083   2.058 -14.687  0.00  0.00     0.079 A 
ATOM      9  C   UNL d   1       7.503   1.629 -15.970  0.00  0.00     0.110 A 
ATOM     10  C   UNL d   1       6.885   0.494 -16.552  0.00  0.00     0.026 A 
ATOM     11  C   UNL d   1       5.859  -0.196 -15.876  0.00  0.00     0.002 A 
ATOM     12  C   UNL d   1       5.444   0.242 -14.608  0.00  0.00     0.002 A 
ATOM     13  C   UNL d   1       6.053   1.364 -14.019  0.00  0.00     0.019 A 
BRANCH   9  14
ATOM     14  O   UNL d   1       8.482   2.365 -16.618  0.00  0.00    -0.327 OA
ATOM     15  C   UNL d   1       8.979   1.896 -17.858  0.00  0.00     0.181 C 
ENDBRANCH   9  14
ENDBRANCH   5   8
ENDBRANCH   1   2
BRANCH   1  16
ATOM     16  C   UNL d   1       9.613   6.557 -10.468  0.00  0.00     0.037 C 
BRANCH  16  17
ATOM     17  C   UNL d   1      10.378   6.785  -9.163  0.00  0.00     0.026 C 
BRANCH  17  18
ATOM     18  C   UNL d   1      10.185   8.183  -8.541  0.00  0.00     0.104 C 
BRANCH  18  19
ATOM     19  N   UNL d   1      10.863   8.320  -7.233  0.00  0.00    -0.317 N 
ATOM     20  C   UNL d   1      10.458   7.613  -6.149  0.00  0.00     0.257 C 
ATOM     21  C   UNL d   1      11.206   7.798  -4.850  0.00  0.00     0.052 A 
ATOM     22  O   UNL d   1       9.511   6.822  -6.174  0.00  0.00    -0.267 OA
ATOM     23  C   UNL d   1      11.450   9.085  -4.312  0.00  0.00    -0.018 A 
ATOM     24  C   UNL d   1      11.573   6.669  -4.088  0.00  0.00     0.004 A 
ATOM     25  C   UNL d   1      10.957  10.308  -5.044  0.00  0.00     0.029 C 
ATOM     26  C   UNL d   1      12.082   9.229  -3.064  0.00  0.00    -0.004 A 
ATOM     27  C   UNL d   1      11.697  10.533  -6.363  0.00  0.00     0.029 C 
ATOM     28  C   UNL d   1      11.991   9.264  -7.192  0.00  0.00     0.105 C 
ATOM     29  C   UNL d   1      12.461   8.093  -2.329  0.00  0.00    -0.000 A 
ATOM     30  C   UNL d   1      12.201   6.810  -2.840  0.00  0.00     0.000 A 
ENDBRANCH  18  19
ENDBRANCH  17  18
ENDBRANCH  16  17
ENDBRANCH   1  16
TORSDOF 7
