REMARK  6 active torsions:
REMARK  status: ('A' for Active; 'I' for Inactive)
REMARK    1  A    between atoms: C_2  and  C_3 
REMARK    2  A    between atoms: N_13  and  C_14 
REMARK    3  A    between atoms: C_14  and  C_15 
REMARK    4  A    between atoms: C_15  and  C_17 
REMARK    5  A    between atoms: C_17  and  N_18 
REMARK       I    between atoms: N_21  and  C_22 
REMARK    6  A    between atoms: C_22  and  C_24 
ROOT
ATOM      1  C   UNL d   1       8.539   3.727 -12.961  0.00  0.00     0.208 C 
ATOM      2  O   UNL d   1       9.249   4.666 -13.742  0.00  0.00    -0.219 OA
ENDROOT
BRANCH   1   3
ATOM      3  C   UNL d   1       7.381   3.188 -13.816  0.00  0.00     0.148 C 
BRANCH   3   4
ATOM      4  N   UNL d   1       7.795   2.030 -14.639  0.00  0.00    -0.247 N 
ATOM      5  C   UNL d   1       7.370   0.781 -14.454  0.00  0.00     0.348 A 
ATOM      6  N   UNL d   1       8.008  -0.009 -15.328  0.00  0.00    -0.209 NA
ATOM      7  O   UNL d   1       6.550   0.379 -13.633  0.00  0.00    -0.245 OA
ATOM      8  C   UNL d   1       8.886   0.706 -16.216  0.00  0.00     0.179 A 
ATOM      9  C   UNL d   1      10.336   0.213 -16.017  0.00  0.00     0.039 C 
ATOM     10  C   UNL d   1       8.692   2.106 -15.635  0.00  0.00     0.265 A 
ATOM     11  O   UNL d   1       9.293   3.099 -16.031  0.00  0.00    -0.269 OA
BRANCH   8  12
ATOM     12  C   UNL d   1       8.444   0.675 -17.690  0.00  0.00     0.006 A 
ATOM     13  C   UNL d   1       9.257   1.273 -18.685  0.00  0.00     0.000 A 
ATOM     14  C   UNL d   1       8.876   1.242 -20.038  0.00  0.00     0.029 A 
ATOM     15  C   UNL d   1       7.676   0.619 -20.419  0.00  0.00     0.140 A 
ATOM     16  C   UNL d   1       6.854   0.027 -19.443  0.00  0.00     0.029 A 
ATOM     17  F   UNL d   1       7.312   0.590 -21.722  0.00  0.00    -0.204 F 
ATOM     18  C   UNL d   1       7.236   0.054 -18.087  0.00  0.00     0.000 A 
ENDBRANCH   8  12
ENDBRANCH   3   4
ENDBRANCH   1   3
BRANCH   1  19
ATOM     19  C   UNL d   1       7.976   4.429 -11.711  0.00  0.00     0.285 C 
BRANCH  19  20
ATOM     20  N   UNL d   1       9.012   5.072 -10.891  0.00  0.00     0.144 N 
ATOM     21  C   UNL d   1       9.194   6.476 -11.272  0.00  0.00     0.274 C 
ATOM     22  C   UNL d   1      10.247   7.199 -10.399  0.00  0.00     0.140 C 
ATOM     23  N   UNL d   1       9.959   7.032  -8.973  0.00  0.00    -0.312 N 
ATOM     24  C   UNL d   1       9.688   5.655  -8.584  0.00  0.00     0.140 C 
ATOM     25  C   UNL d   1       9.889   8.107  -8.133  0.00  0.00     0.257 C 
ATOM     26  C   UNL d   1       8.634   5.051  -9.496  0.00  0.00     0.274 C 
ATOM     27  O   UNL d   1       9.449   9.180  -8.531  0.00  0.00    -0.267 OA
BRANCH  25  28
ATOM     28  C   UNL d   1      10.581   8.042  -6.789  0.00  0.00     0.056 A 
ATOM     29  C   UNL d   1      11.383   9.144  -6.368  0.00  0.00     0.005 A 
ATOM     30  C   UNL d   1      12.024   9.109  -5.102  0.00  0.00     0.000 A 
ATOM     31  C   UNL d   1      11.911   7.975  -4.257  0.00  0.00     0.000 A 
ATOM     32  C   UNL d   1      11.132   6.884  -4.696  0.00  0.00     0.000 A 
ATOM     33  C   UNL d   1      10.444   6.923  -5.931  0.00  0.00     0.005 A 
ENDBRANCH  25  28
ENDBRANCH  19  20
ENDBRANCH   1  19
TORSDOF 6
