REMARK  10 active torsions:
REMARK  status: ('A' for Active; 'I' for Inactive)
REMARK    1  A    between atoms: C_2  and  C_3 
REMARK       I    between atoms: C_2  and  N_26 
REMARK    2  A    between atoms: C_3  and  C_4 
REMARK    3  A    between atoms: C_4  and  O_5 
REMARK    4  A    between atoms: O_5  and  C_6 
REMARK    5  A    between atoms: C_6  and  C_7 
REMARK    6  A    between atoms: C_7  and  N_8 
REMARK    7  A    between atoms: N_11  and  C_12 
REMARK    8  A    between atoms: C_17  and  C_18 
REMARK    9  A    between atoms: N_26  and  C_27 
REMARK   10  A    between atoms: C_27  and  C_28 
ROOT
ATOM      1  N   UNL d   1       8.302   4.005 -12.331  0.00  0.00     0.144 N 
ATOM      2  C   UNL d   1       7.406   4.485 -13.372  0.00  0.00     0.274 C 
ATOM      3  C   UNL d   1       6.890   3.358 -14.290  0.00  0.00     0.137 C 
ATOM      4  N   UNL d   1       8.047   2.653 -14.836  0.00  0.00    -0.344 N 
ATOM      5  C   UNL d   1       9.011   2.149 -13.863  0.00  0.00     0.137 C 
ATOM      6  C   UNL d   1       9.433   3.287 -12.939  0.00  0.00     0.274 C 
ENDROOT
BRANCH   1   7
ATOM      7  C   UNL d   1       8.727   5.028 -11.412  0.00  0.00     0.282 C 
BRANCH   7   8
ATOM      8  C   UNL d   1       9.410   4.540 -10.124  0.00  0.00     0.178 C 
BRANCH   8   9
ATOM      9  O   UNL d   1       9.850   5.638  -9.353  0.00  0.00    -0.352 OA
BRANCH   9  10
ATOM     10  C   UNL d   1      10.232   5.213  -8.050  0.00  0.00     0.152 C 
BRANCH  10  11
ATOM     11  C   UNL d   1      10.051   6.270  -6.998  0.00  0.00     0.122 C 
BRANCH  11  12
ATOM     12  C   UNL d   1       8.686   6.846  -6.851  0.00  0.00     0.258 C 
ATOM     13  O   UNL d   1       7.849   6.015  -6.687  0.00  0.00    -0.270 OA
ATOM     14  N   UNL d   1       8.484   8.174  -6.865  0.00  0.00    -0.210 NA
BRANCH  14  15
ATOM     15  C   UNL d   1       9.435   9.249  -7.218  0.00  0.00     0.102 C 
BRANCH  15  16
ATOM     16  C   UNL d   1      10.548   9.057  -8.223  0.00  0.00     0.022 C 
ATOM     17  C   UNL d   1      10.223   8.885  -9.575  0.00  0.00     0.022 C 
ATOM     18  C   UNL d   1      11.219   8.405 -10.436  0.00  0.00     0.099 C 
ATOM     19  N   UNL d   1      12.433   7.987 -10.021  0.00  0.00    -0.242 NA
ATOM     20  C   UNL d   1      12.705   8.090  -8.705  0.00  0.00     0.099 C 
ATOM     21  C   UNL d   1      11.852   8.702  -7.773  0.00  0.00     0.022 C 
ENDBRANCH  15  16
ENDBRANCH  14  15
ENDBRANCH  11  12
ENDBRANCH  10  11
ENDBRANCH   9  10
ENDBRANCH   8   9
ENDBRANCH   7   8
ENDBRANCH   1   7
BRANCH   4  22
ATOM     22  C   UNL d   1       8.210   2.374 -16.205  0.00  0.00     0.056 A 
ATOM     23  C   UNL d   1       7.513   1.317 -16.858  0.00  0.00     0.015 A 
ATOM     24  C   UNL d   1       7.753   1.100 -18.238  0.00  0.00     0.001 A 
ATOM     25  C   UNL d   1       8.640   1.913 -18.965  0.00  0.00     0.000 A 
ATOM     26  C   UNL d   1       9.306   2.966 -18.321  0.00  0.00     0.002 A 
ATOM     27  C   UNL d   1       9.097   3.187 -16.947  0.00  0.00     0.017 A 
BRANCH  23  28
ATOM     28  C   UNL d   1       6.548   0.436 -16.169  0.00  0.00     0.001 A 
ATOM     29  C   UNL d   1       5.376   0.004 -16.811  0.00  0.00     0.000 A 
ATOM     30  C   UNL d   1       4.453  -0.825 -16.151  0.00  0.00     0.000 A 
ATOM     31  C   UNL d   1       4.694  -1.235 -14.831  0.00  0.00     0.000 A 
ATOM     32  C   UNL d   1       5.854  -0.829 -14.170  0.00  0.00     0.000 A 
ATOM     33  C   UNL d   1       6.758  -0.024 -14.860  0.00  0.00     0.000 A 
ENDBRANCH  23  28
ENDBRANCH   4  22
TORSDOF 10
