REMARK  12 active torsions:
REMARK  status: ('A' for Active; 'I' for Inactive)
REMARK    1  A    between atoms: C_2  and  C_3 
REMARK    2  A    between atoms: C_3  and  N_4 
REMARK    3  A    between atoms: N_4  and  C_5 
REMARK    4  A    between atoms: N_4  and  C_22 
REMARK    5  A    between atoms: C_5  and  C_6 
REMARK    6  A    between atoms: C_6  and  C_7 
REMARK    7  A    between atoms: C_7  and  C_8 
REMARK    8  A    between atoms: C_8  and  N_9 
REMARK       I    between atoms: N_9  and  C_10 
REMARK    9  A    between atoms: C_10  and  C_12 
REMARK   10  A    between atoms: C_22  and  C_23 
REMARK   11  A    between atoms: C_25  and  C_26 
REMARK   12  A    between atoms: C_32  and  O_33 
ROOT
ATOM      1  N   UNL d   1       7.157   1.948 -15.949  0.00  0.00     0.137 N 
ENDROOT
BRANCH   1   2
ATOM      2  C   UNL d   1       6.270   0.921 -15.389  0.00  0.00     0.250 C 
BRANCH   2   3
ATOM      3  C   UNL d   1       7.012  -0.123 -14.529  0.00  0.00     0.035 C 
ATOM      4  C   UNL d   1       6.082  -1.188 -13.961  0.00  0.00     0.002 C 
ENDBRANCH   2   3
ENDBRANCH   1   2
BRANCH   1   5
ATOM      5  C   UNL d   1       8.046   2.557 -14.964  0.00  0.00     0.250 C 
BRANCH   5   6
ATOM      6  C   UNL d   1       7.245   3.225 -13.835  0.00  0.00     0.037 C 
BRANCH   6   7
ATOM      7  C   UNL d   1       8.187   3.896 -12.851  0.00  0.00     0.029 C 
BRANCH   7   8
ATOM      8  C   UNL d   1       7.440   4.483 -11.643  0.00  0.00     0.129 C 
BRANCH   8   9
ATOM      9  N   UNL d   1       8.295   5.262 -10.768  0.00  0.00    -0.234 NA
ATOM     10  C   UNL d   1       9.080   6.287 -11.135  0.00  0.00     0.275 C 
ATOM     11  O   UNL d   1       9.222   6.644 -12.306  0.00  0.00    -0.266 OA
BRANCH  10  12
ATOM     12  C   UNL d   1       9.788   7.003 -10.014  0.00  0.00     0.058 A 
ATOM     13  C   UNL d   1       9.688   6.583  -8.666  0.00  0.00     0.005 A 
ATOM     14  C   UNL d   1      10.347   7.299  -7.649  0.00  0.00     0.000 A 
ATOM     15  C   UNL d   1      11.126   8.440  -7.960  0.00  0.00     0.000 A 
ATOM     16  C   UNL d   1      10.238   6.871  -6.316  0.00  0.00     0.000 A 
ATOM     17  C   UNL d   1      11.241   8.856  -9.298  0.00  0.00     0.000 A 
ATOM     18  C   UNL d   1      11.779   9.143  -6.927  0.00  0.00     0.000 A 
ATOM     19  C   UNL d   1      10.562   8.149 -10.304  0.00  0.00     0.005 A 
ATOM     20  C   UNL d   1      11.660   8.714  -5.592  0.00  0.00     0.000 A 
ATOM     21  C   UNL d   1      10.912   7.561  -5.292  0.00  0.00     0.000 A 
ENDBRANCH  10  12
ENDBRANCH   8   9
ENDBRANCH   7   8
ENDBRANCH   6   7
ENDBRANCH   5   6
ENDBRANCH   1   5
BRANCH   1  22
ATOM     22  C   UNL d   1       7.918   1.412 -17.076  0.00  0.00     0.251 C 
BRANCH  22  23
ATOM     23  C   UNL d   1       8.438   2.520 -17.965  0.00  0.00     0.038 A 
ATOM     24  C   UNL d   1       9.911   2.599 -18.255  0.00  0.00     0.026 A 
ATOM     25  C   UNL d   1       8.967   2.165 -19.348  0.00  0.00     0.007 A 
BRANCH  24  26
ATOM     26  C   UNL d   1      10.634   3.920 -18.344  0.00  0.00     0.002 A 
ATOM     27  C   UNL d   1      12.013   4.040 -18.020  0.00  0.00     0.090 A 
ATOM     28  C   UNL d   1      12.645   5.301 -18.090  0.00  0.00     0.026 A 
ATOM     29  C   UNL d   1      11.933   6.436 -18.519  0.00  0.00     0.032 A 
ATOM     30  C   UNL d   1      10.572   6.317 -18.863  0.00  0.00     0.140 A 
ATOM     31  C   UNL d   1       9.935   5.071 -18.773  0.00  0.00     0.027 A 
ATOM     32  F   UNL d   1       9.873   7.400 -19.280  0.00  0.00    -0.204 F 
BRANCH  27  33
ATOM     33  O   UNL d   1      12.762   2.979 -17.570  0.00  0.00    -0.328 OA
ATOM     34  C   UNL d   1      13.072   1.988 -18.546  0.00  0.00     0.181 C 
ENDBRANCH  27  33
ENDBRANCH  24  26
ENDBRANCH  22  23
ENDBRANCH   1  22
TORSDOF 12
