REMARK  11 active torsions:
REMARK  status: ('A' for Active; 'I' for Inactive)
REMARK    1  A    between atoms: O_2  and  C_3 
REMARK    2  A    between atoms: C_9  and  C_10 
REMARK       I    between atoms: C_10  and  N_12 
REMARK    3  A    between atoms: N_12  and  C_13 
REMARK    4  A    between atoms: C_13  and  C_14 
REMARK    5  A    between atoms: C_14  and  C_15 
REMARK    6  A    between atoms: C_15  and  C_16 
REMARK    7  A    between atoms: C_16  and  N_17 
REMARK    8  A    between atoms: N_20  and  C_21 
REMARK    9  A    between atoms: C_26  and  O_27 
REMARK   10  A    between atoms: O_27  and  C_28 
REMARK   11  A    between atoms: C_28  and  C_29 
ROOT
ATOM      1  C   UNL d   1       6.948   3.961 -12.525  0.00  0.00     0.037 C 
ENDROOT
BRANCH   1   2
ATOM      2  C   UNL d   1       7.448   5.197 -11.759  0.00  0.00     0.029 C 
BRANCH   2   3
ATOM      3  C   UNL d   1       8.409   4.878 -10.616  0.00  0.00     0.129 C 
BRANCH   3   4
ATOM      4  N   UNL d   1       8.917   6.106 -10.047  0.00  0.00    -0.234 NA
ATOM      5  C   UNL d   1       9.656   6.151  -8.937  0.00  0.00     0.276 C 
ATOM      6  O   UNL d   1       9.870   5.177  -8.245  0.00  0.00    -0.266 OA
BRANCH   5   7
ATOM      7  C   UNL d   1      10.229   7.481  -8.637  0.00  0.00     0.078 A 
ATOM      8  C   UNL d   1      10.426   8.510  -9.527  0.00  0.00     0.104 A 
ATOM      9  N   UNL d   1      11.062   9.532  -8.868  0.00  0.00    -0.244 NA
ATOM     10  C   UNL d   1      11.227   9.241  -7.522  0.00  0.00     0.082 A 
ATOM     11  C   UNL d   1      11.791   9.986  -6.464  0.00  0.00     0.021 A 
ATOM     12  C   UNL d   1      10.730   7.917  -7.346  0.00  0.00     0.026 A 
ATOM     13  C   UNL d   1      11.891   9.411  -5.194  0.00  0.00     0.026 A 
ATOM     14  C   UNL d   1      11.457   8.105  -4.980  0.00  0.00     0.094 A 
ATOM     15  C   UNL d   1      10.861   7.363  -6.045  0.00  0.00     0.026 A 
BRANCH  14  16
ATOM     16  O   UNL d   1      11.654   7.648  -3.703  0.00  0.00    -0.328 OA
ATOM     17  C   UNL d   1      11.364   6.291  -3.476  0.00  0.00     0.181 C 
ENDBRANCH  14  16
ENDBRANCH   5   7
ENDBRANCH   3   4
ENDBRANCH   2   3
ENDBRANCH   1   2
BRANCH   1  18
ATOM     18  C   UNL d   1       8.008   3.442 -13.533  0.00  0.00     0.251 C 
BRANCH  18  19
ATOM     19  N   UNL d   1       7.389   2.713 -14.637  0.00  0.00     0.141 N 
ATOM     20  C   UNL d   1       6.936   1.365 -14.274  0.00  0.00     0.274 C 
ATOM     21  C   UNL d   1       6.218   0.676 -15.449  0.00  0.00     0.137 C 
ATOM     22  N   UNL d   1       7.016   0.754 -16.665  0.00  0.00    -0.343 N 
ATOM     23  C   UNL d   1       7.572   2.061 -16.969  0.00  0.00     0.137 C 
ATOM     24  C   UNL d   1       8.345   2.598 -15.744  0.00  0.00     0.274 C 
BRANCH  22  25
ATOM     25  C   UNL d   1       7.355  -0.379 -17.400  0.00  0.00     0.079 A 
ATOM     26  C   UNL d   1       8.695  -0.633 -17.796  0.00  0.00     0.110 A 
ATOM     27  C   UNL d   1       8.969  -1.800 -18.548  0.00  0.00     0.026 A 
ATOM     28  C   UNL d   1       7.953  -2.724 -18.844  0.00  0.00     0.002 A 
ATOM     29  C   UNL d   1       6.639  -2.482 -18.444  0.00  0.00     0.002 A 
ATOM     30  C   UNL d   1       6.335  -1.296 -17.734  0.00  0.00     0.019 A 
BRANCH  26  31
ATOM     31  O   UNL d   1       9.712   0.191 -17.348  0.00  0.00    -0.326 OA
BRANCH  31  32
ATOM     32  C   UNL d   1      11.019   0.082 -17.908  0.00  0.00     0.187 C 
BRANCH  32  33
ATOM     33  C   UNL d   1      11.871   1.202 -17.319  0.00  0.00     0.226 C 
ATOM     34  F   UNL d   1      11.452   2.400 -17.728  0.00  0.00    -0.232 F 
ENDBRANCH  32  33
ENDBRANCH  31  32
ENDBRANCH  26  31
ENDBRANCH  22  25
ENDBRANCH  18  19
ENDBRANCH   1  18
TORSDOF 11
