REMARK  7 active torsions:
REMARK  status: ('A' for Active; 'I' for Inactive)
REMARK    1  A    between atoms: S_2  and  N_4 
REMARK    2  A    between atoms: S_2  and  C_23 
REMARK    3  A    between atoms: N_4  and  C_5 
REMARK    4  A    between atoms: C_5  and  C_6 
REMARK    5  A    between atoms: C_6  and  C_7 
REMARK    6  A    between atoms: C_7  and  N_8 
REMARK    7  A    between atoms: N_11  and  C_12 
ROOT
ATOM      1  C   UNL d   1       9.113   8.194 -10.821  0.00  0.00     0.062 C 
ENDROOT
BRANCH   1   2
ATOM      2  C   UNL d   1       9.961   9.144  -9.938  0.00  0.00     0.141 C 
BRANCH   2   3
ATOM      3  N   UNL d   1      10.643   8.485  -8.846  0.00  0.00    -0.185 NA
BRANCH   3   4
ATOM      4  S   UNL d   1       9.784   7.636  -7.662  0.00  0.00     0.281 S 
ATOM      5  O   UNL d   1       8.485   8.298  -7.491  0.00  0.00    -0.199 OA
ATOM      6  O   UNL d   1       9.949   6.202  -7.928  0.00  0.00    -0.199 OA
BRANCH   4   7
ATOM      7  C   UNL d   1      10.590   8.104  -6.215  0.00  0.00     0.105 A 
ATOM      8  C   UNL d   1      10.997   7.117  -5.321  0.00  0.00     0.013 A 
ATOM      9  C   UNL d   1      11.572   7.538  -4.131  0.00  0.00     0.001 A 
ATOM     10  C   UNL d   1      11.686   8.899  -3.819  0.00  0.00     0.000 A 
ATOM     11  C   UNL d   1      12.010   6.600  -3.213  0.00  0.00     0.000 A 
ATOM     12  C   UNL d   1      11.258   9.875  -4.718  0.00  0.00     0.001 A 
ATOM     13  C   UNL d   1      12.201   9.271  -2.587  0.00  0.00     0.000 A 
ATOM     14  C   UNL d   1      10.688   9.478  -5.927  0.00  0.00     0.013 A 
ATOM     15  C   UNL d   1      12.684   8.308  -1.694  0.00  0.00     0.000 A 
ATOM     16  C   UNL d   1      12.591   6.951  -2.010  0.00  0.00     0.000 A 
ENDBRANCH   4   7
ENDBRANCH   3   4
ENDBRANCH   2   3
ENDBRANCH   1   2
BRANCH   1  17
ATOM     17  C   UNL d   1       9.927   7.327 -11.707  0.00  0.00     0.253 C 
BRANCH  17  18
ATOM     18  N   UNL d   1       9.156   6.495 -12.627  0.00  0.00     0.141 N 
ATOM     19  C   UNL d   1       8.453   5.445 -11.898  0.00  0.00     0.274 C 
ATOM     20  C   UNL d   1       7.616   4.651 -12.894  0.00  0.00     0.138 C 
ATOM     21  N   UNL d   1       8.418   4.074 -13.966  0.00  0.00    -0.329 N 
ATOM     22  C   UNL d   1       9.265   5.036 -14.633  0.00  0.00     0.138 C 
ATOM     23  C   UNL d   1      10.063   5.797 -13.547  0.00  0.00     0.274 C 
BRANCH  21  24
ATOM     24  C   UNL d   1       8.432   2.718 -14.311  0.00  0.00     0.148 A 
ATOM     25  C   UNL d   1       7.265   1.882 -14.125  0.00  0.00     0.042 A 
ATOM     26  C   UNL d   1       7.586   0.544 -14.496  0.00  0.00     0.050 A 
ATOM     27  C   UNL d   1       5.944   2.086 -13.652  0.00  0.00     0.004 A 
ATOM     28  S   UNL d   1       9.254   0.515 -15.038  0.00  0.00     0.015 SA
ATOM     29  C   UNL d   1       6.643  -0.492 -14.402  0.00  0.00     0.008 A 
ATOM     30  N   UNL d   1       9.519   2.152 -14.803  0.00  0.00    -0.192 NA
ATOM     31  C   UNL d   1       5.352  -0.257 -13.942  0.00  0.00     0.001 A 
ATOM     32  C   UNL d   1       5.034   1.032 -13.523  0.00  0.00     0.000 A 
ENDBRANCH  21  24
ENDBRANCH  17  18
ENDBRANCH   1  17
TORSDOF 7
