REMARK  5 active torsions:
REMARK  status: ('A' for Active; 'I' for Inactive)
REMARK    1  A    between atoms: C_2  and  N_3 
REMARK    2  A    between atoms: N_3  and  C_5 
REMARK    3  A    between atoms: C_5  and  C_6 
REMARK    4  A    between atoms: C_6  and  C_7 
REMARK    5  A    between atoms: C_8  and  C_9 
ROOT
ATOM      1  C   UNL d   1       9.767   3.330 -15.082  0.00  0.00     0.017 A 
ATOM      2  C   UNL d   1      10.010   3.725 -16.410  0.00  0.00     0.002 A 
ATOM      3  C   UNL d   1      11.161   4.454 -16.742  0.00  0.00     0.010 A 
ATOM      4  C   UNL d   1      12.100   4.786 -15.750  0.00  0.00     0.068 A 
ATOM      5  C   UNL d   1      13.272   5.541 -16.159  0.00  0.00     0.101 C 
ATOM      6  N   UNL d   1      14.203   6.141 -16.493  0.00  0.00    -0.191 NA
ATOM      7  C   UNL d   1      11.879   4.379 -14.414  0.00  0.00     0.010 A 
ATOM      8  C   UNL d   1      10.711   3.662 -14.084  0.00  0.00     0.002 A 
ENDROOT
BRANCH   1   9
ATOM      9  C   UNL d   1       8.548   2.584 -14.788  0.00  0.00     0.077 A 
ATOM     10  C   UNL d   1       7.561   2.811 -13.858  0.00  0.00    -0.001 A 
ATOM     11  C   UNL d   1       6.612   1.729 -14.011  0.00  0.00     0.015 A 
ATOM     12  C   UNL d   1       7.072   0.875 -15.042  0.00  0.00     0.081 A 
ATOM     13  C   UNL d   1       5.443   1.362 -13.319  0.00  0.00     0.001 A 
ATOM     14  N   UNL d   1       8.249   1.441 -15.496  0.00  0.00    -0.246 NA
ATOM     15  C   UNL d   1       6.372  -0.295 -15.390  0.00  0.00     0.019 A 
ATOM     16  C   UNL d   1       5.197  -0.633 -14.710  0.00  0.00     0.002 A 
ATOM     17  C   UNL d   1       4.720   0.206 -13.679  0.00  0.00     0.000 A 
BRANCH  10  18
ATOM     18  C   UNL d   1       7.486   3.907 -12.819  0.00  0.00     0.063 C 
BRANCH  18  19
ATOM     19  C   UNL d   1       7.006   5.196 -13.423  0.00  0.00     0.255 C 
BRANCH  19  20
ATOM     20  N   UNL d   1       6.853   6.356 -12.505  0.00  0.00     0.139 N 
ATOM     21  C   UNL d   1       8.195   6.888 -12.283  0.00  0.00     0.285 C 
BRANCH  20  22
ATOM     22  C   UNL d   1       5.987   7.425 -13.062  0.00  0.00     0.250 C 
ATOM     23  C   UNL d   1       5.415   8.463 -12.101  0.00  0.00     0.037 C 
ENDBRANCH  20  22
ENDBRANCH  19  20
ENDBRANCH  18  19
ENDBRANCH  10  18
ENDBRANCH   1   9
TORSDOF 5
