REMARK  7 active torsions:
REMARK  status: ('A' for Active; 'I' for Inactive)
REMARK    1  A    between atoms: C_2  and  C_3 
REMARK    2  A    between atoms: N_13  and  C_14 
REMARK    3  A    between atoms: C_14  and  C_15 
REMARK    4  A    between atoms: C_15  and  C_17 
REMARK    5  A    between atoms: C_17  and  N_18 
REMARK    6  A    between atoms: N_21  and  C_22 
REMARK    7  A    between atoms: C_22  and  C_23 
ROOT
ATOM      1  C   UNL d   1      11.030   2.058 -16.190  0.00  0.00     0.208 C 
ATOM      2  O   UNL d   1      12.378   2.008 -16.475  0.00  0.00    -0.219 OA
ENDROOT
BRANCH   1   3
ATOM      3  C   UNL d   1      10.407   1.424 -17.437  0.00  0.00     0.148 C 
BRANCH   3   4
ATOM      4  N   UNL d   1       8.978   1.221 -17.285  0.00  0.00    -0.247 N 
ATOM      5  C   UNL d   1       8.047   1.869 -17.984  0.00  0.00     0.348 A 
ATOM      6  N   UNL d   1       6.846   1.473 -17.546  0.00  0.00    -0.209 NA
ATOM      7  O   UNL d   1       8.257   2.689 -18.879  0.00  0.00    -0.245 OA
ATOM      8  C   UNL d   1       6.941   0.454 -16.503  0.00  0.00     0.179 A 
ATOM      9  C   UNL d   1       6.264  -0.836 -16.998  0.00  0.00     0.039 C 
ATOM     10  C   UNL d   1       8.454   0.373 -16.401  0.00  0.00     0.265 A 
ATOM     11  O   UNL d   1       9.073  -0.301 -15.578  0.00  0.00    -0.269 OA
BRANCH   8  12
ATOM     12  C   UNL d   1       6.409   0.969 -15.148  0.00  0.00     0.006 A 
ATOM     13  C   UNL d   1       5.622   0.115 -14.337  0.00  0.00     0.000 A 
ATOM     14  C   UNL d   1       5.064   0.623 -13.172  0.00  0.00     0.029 A 
ATOM     15  C   UNL d   1       5.274   1.956 -12.774  0.00  0.00     0.140 A 
ATOM     16  C   UNL d   1       6.036   2.815 -13.578  0.00  0.00     0.029 A 
ATOM     17  F   UNL d   1       4.751   2.402 -11.651  0.00  0.00    -0.204 F 
ATOM     18  C   UNL d   1       6.661   2.321 -14.741  0.00  0.00     0.000 A 
ENDBRANCH   8  12
ENDBRANCH   3   4
ENDBRANCH   1   3
BRANCH   1  19
ATOM     19  C   UNL d   1      10.755   3.539 -16.027  0.00  0.00     0.285 C 
BRANCH  19  20
ATOM     20  N   UNL d   1       9.867   3.826 -14.916  0.00  0.00     0.144 N 
ATOM     21  C   UNL d   1      10.552   3.744 -13.620  0.00  0.00     0.286 C 
ATOM     22  C   UNL d   1       9.618   4.171 -12.470  0.00  0.00     0.286 C 
ATOM     23  N   UNL d   1       9.154   5.558 -12.640  0.00  0.00     0.146 N 
ATOM     24  C   UNL d   1       8.484   5.624 -13.915  0.00  0.00     0.286 C 
ATOM     25  C   UNL d   1       9.416   5.180 -15.057  0.00  0.00     0.286 C 
BRANCH  23  26
ATOM     26  C   UNL d   1       8.242   6.046 -11.600  0.00  0.00     0.277 C 
BRANCH  26  27
ATOM     27  C   UNL d   1       8.854   5.992 -10.242  0.00  0.00     0.011 A 
ATOM     28  C   UNL d   1       9.629   7.024  -9.636  0.00  0.00    -0.002 A 
ATOM     29  C   UNL d   1      10.174   6.855  -8.324  0.00  0.00    -0.000 A 
ATOM     30  C   UNL d   1       9.830   8.276 -10.255  0.00  0.00    -0.000 A 
ATOM     31  C   UNL d   1       9.973   5.608  -7.681  0.00  0.00    -0.000 A 
ATOM     32  C   UNL d   1      10.845   7.861  -7.622  0.00  0.00    -0.000 A 
ATOM     33  C   UNL d   1       9.179   4.654  -8.349  0.00  0.00    -0.000 A 
ATOM     34  C   UNL d   1       8.578   4.824  -9.567  0.00  0.00    -0.002 A 
ATOM     35  C   UNL d   1      10.993   9.090  -8.239  0.00  0.00    -0.000 A 
ATOM     36  C   UNL d   1      10.525   9.262  -9.549  0.00  0.00    -0.000 A 
ENDBRANCH  26  27
ENDBRANCH  23  26
ENDBRANCH  19  20
ENDBRANCH   1  19
TORSDOF 7
