REMARK  6 active torsions:
REMARK  status: ('A' for Active; 'I' for Inactive)
REMARK    1  A    between atoms: C_2  and  O_3 
REMARK    2  A    between atoms: O_3  and  C_4 
REMARK    3  A    between atoms: C_4  and  C_6 
REMARK    4  A    between atoms: C_12  and  C_13 
REMARK    5  A    between atoms: C_13  and  O_15 
REMARK    6  A    between atoms: C_17  and  C_18 
ROOT
ATOM      1  C   UNL d   1       6.195   0.542 -15.728  0.00  0.00     0.062 A 
ATOM      2  C   UNL d   1       5.298   0.217 -14.754  0.00  0.00     0.061 A 
ATOM      3  C   UNL d   1       4.314  -0.957 -14.726  0.00  0.00     0.052 C 
ATOM      4  N   UNL d   1       5.180   0.981 -13.607  0.00  0.00    -0.254 NA
ATOM      5  C   UNL d   1       5.858   2.181 -13.393  0.00  0.00     0.061 A 
ATOM      6  C   UNL d   1       5.435   2.802 -12.056  0.00  0.00     0.052 C 
ATOM      7  C   UNL d   1       6.790   2.625 -14.263  0.00  0.00     0.062 A 
ATOM      8  C   UNL d   1       7.062   1.827 -15.577  0.00  0.00     0.080 A 
ENDROOT
BRANCH   8   9
ATOM      9  C   UNL d   1       8.542   1.582 -15.820  0.00  0.00    -0.003 A 
ATOM     10  C   UNL d   1       9.190   1.843 -17.057  0.00  0.00     0.065 A 
ATOM     11  C   UNL d   1      10.557   1.540 -17.193  0.00  0.00     0.068 A 
ATOM     12 CL   UNL d   1       8.357   2.481 -18.433  0.00  0.00    -0.082 Cl
ATOM     13  C   UNL d   1      11.259   1.033 -16.084  0.00  0.00     0.012 A 
ATOM     14 CL   UNL d   1      11.398   1.718 -18.689  0.00  0.00    -0.082 Cl
ATOM     15  C   UNL d   1      10.631   0.816 -14.846  0.00  0.00     0.001 A 
ATOM     16  C   UNL d   1       9.264   1.071 -14.722  0.00  0.00    -0.003 A 
ENDBRANCH   8   9
BRANCH   1  17
ATOM     17  C   UNL d   1       6.301  -0.233 -17.012  0.00  0.00     0.293 C 
ATOM     18  O   UNL d   1       7.348  -0.338 -17.683  0.00  0.00    -0.259 OA
BRANCH  17  19
ATOM     19  O   UNL d   1       5.156  -0.817 -17.400  0.00  0.00    -0.299 OA
BRANCH  19  20
ATOM     20  C   UNL d   1       5.173  -1.692 -18.532  0.00  0.00     0.152 C 
ATOM     21  C   UNL d   1       3.754  -2.209 -18.746  0.00  0.00     0.035 C 
ENDBRANCH  19  20
ENDBRANCH  17  19
ENDBRANCH   1  17
BRANCH   7  22
ATOM     22  C   UNL d   1       7.566   3.890 -14.003  0.00  0.00     0.294 C 
ATOM     23  O   UNL d   1       8.716   4.128 -14.438  0.00  0.00    -0.259 OA
BRANCH  22  24
ATOM     24  O   UNL d   1       6.900   4.771 -13.233  0.00  0.00    -0.296 OA
ATOM     25  C   UNL d   1       7.567   5.905 -12.688  0.00  0.00     0.185 C 
ENDBRANCH  22  24
ENDBRANCH   7  22
TORSDOF 6
