REMARK  4 active torsions:
REMARK  status: ('A' for Active; 'I' for Inactive)
REMARK    1  A    between atoms: C_8  and  C_9 
REMARK    2  A    between atoms: C_9  and  C_10 
REMARK    3  A    between atoms: N_16  and  C_17 
REMARK    4  A    between atoms: C_17  and  C_18 
ROOT
ATOM      1  C   UNL d   1       9.286   3.335 -14.490  0.00  0.00     0.008 C 
ATOM      2  C   UNL d   1      10.236   4.076 -13.604  0.00  0.00     0.022 C 
ATOM      3  C   UNL d   1      10.005   5.534 -14.036  0.00  0.00     0.002 C 
ATOM      4  C   UNL d   1       8.507   5.546 -14.447  0.00  0.00     0.002 C 
ATOM      5  C   UNL d   1       7.996   4.142 -14.178  0.00  0.00     0.022 C 
ATOM      6  C   UNL d   1       7.444   4.105 -12.729  0.00  0.00     0.097 C 
ATOM      7  N   UNL d   1       8.488   4.385 -11.742  0.00  0.00    -0.366 N 
ATOM      8  C   UNL d   1       9.825   3.879 -12.140  0.00  0.00     0.097 C 
ENDROOT
BRANCH   7   9
ATOM      9  C   UNL d   1       8.339   5.725 -11.123  0.00  0.00     0.130 C 
BRANCH   9  10
ATOM     10  C   UNL d   1       9.299   6.018  -9.948  0.00  0.00     0.173 C 
ATOM     11  O   UNL d   1       9.472   7.441  -9.792  0.00  0.00    -0.327 OA
ATOM     12  C   UNL d   1      10.064   7.798  -8.620  0.00  0.00     0.116 A 
ATOM     13  C   UNL d   1      10.191   6.847  -7.567  0.00  0.00     0.114 A 
ATOM     14  C   UNL d   1      10.547   9.115  -8.416  0.00  0.00     0.028 A 
ATOM     15  O   UNL d   1       9.733   5.583  -7.665  0.00  0.00    -0.326 OA
ATOM     16  C   UNL d   1      10.802   7.265  -6.389  0.00  0.00     0.029 A 
ATOM     17  C   UNL d   1       8.768   5.389  -8.648  0.00  0.00     0.181 C 
ATOM     18  C   UNL d   1      11.237   8.549  -6.223  0.00  0.00     0.083 A 
ATOM     19  C   UNL d   1      11.073   6.441  -5.174  0.00  0.00     0.120 A 
ATOM     20  C   UNL d   1      11.130   9.523  -7.197  0.00  0.00     0.021 A 
ATOM     21  N   UNL d   1      11.800   8.691  -4.973  0.00  0.00    -0.212 NA
ATOM     22  C   UNL d   1      11.747   7.503  -4.335  0.00  0.00     0.260 A 
ATOM     23  O   UNL d   1      12.196   7.308  -3.220  0.00  0.00    -0.270 OA
ENDBRANCH   9  10
ENDBRANCH   7   9
BRANCH   1  24
ATOM     24  C   UNL d   1       9.273   1.818 -14.272  0.00  0.00     0.026 C 
BRANCH  24  25
ATOM     25  C   UNL d   1       8.152   1.128 -14.998  0.00  0.00    -0.021 A 
ATOM     26  C   UNL d   1       8.384   0.693 -16.307  0.00  0.00    -0.004 A 
ATOM     27  C   UNL d   1       7.367   0.073 -17.043  0.00  0.00    -0.003 A 
ATOM     28  C   UNL d   1       6.114  -0.134 -16.453  0.00  0.00    -0.004 A 
ATOM     29  C   UNL d   1       4.974  -0.776 -17.226  0.00  0.00     0.038 C 
ATOM     30  C   UNL d   1       5.905   0.259 -15.114  0.00  0.00     0.080 A 
ATOM     31  C   UNL d   1       4.021  -1.547 -16.299  0.00  0.00     0.095 C 
ATOM     32  C   UNL d   1       3.738  -0.801 -14.978  0.00  0.00     0.256 C 
ATOM     33  O   UNL d   1       2.674  -0.871 -14.396  0.00  0.00    -0.270 OA
ATOM     34  N   UNL d   1       4.693   0.008 -14.490  0.00  0.00    -0.212 NA
ATOM     35  C   UNL d   1       6.900   0.908 -14.378  0.00  0.00     0.015 A 
ENDBRANCH  24  25
ENDBRANCH   1  24
TORSDOF 4
