REMARK  7 active torsions:
REMARK  status: ('A' for Active; 'I' for Inactive)
REMARK    1  A    between atoms: O_2  and  C_3 
REMARK    2  A    between atoms: C_6  and  O_7 
REMARK    3  A    between atoms: O_7  and  C_8 
REMARK    4  A    between atoms: C_8  and  C_9 
REMARK    5  A    between atoms: C_9  and  C_10 
REMARK       I    between atoms: N_13  and  C_14 
REMARK    6  A    between atoms: C_14  and  C_16 
REMARK    7  A    between atoms: C_19  and  O_20 
ROOT
ATOM      1  C   UNL d   1      10.093   3.275 -13.995  0.00  0.00     0.006 C 
ATOM      2  C   UNL d   1      11.363   3.002 -14.807  0.00  0.00     0.024 C 
ATOM      3  C   UNL d   1      11.320   1.614 -15.475  0.00  0.00     0.104 C 
ATOM      4  N   UNL d   1      10.115   1.502 -16.303  0.00  0.00    -0.317 N 
ATOM      5  C   UNL d   1      10.089   1.159 -17.652  0.00  0.00     0.257 C 
ATOM      6  O   UNL d   1       9.039   0.992 -18.251  0.00  0.00    -0.267 OA
ATOM      7  C   UNL d   1       8.878   1.657 -15.545  0.00  0.00     0.104 C 
ATOM      8  C   UNL d   1       8.847   3.034 -14.861  0.00  0.00     0.024 C 
ENDROOT
BRANCH   1   9
ATOM      9  C   UNL d   1      10.115   4.697 -13.418  0.00  0.00     0.033 C 
BRANCH   9  10
ATOM     10  C   UNL d   1       8.956   4.980 -12.463  0.00  0.00     0.149 C 
BRANCH  10  11
ATOM     11  O   UNL d   1       9.066   6.321 -12.003  0.00  0.00    -0.331 OA
BRANCH  11  12
ATOM     12  C   UNL d   1       9.459   6.588 -10.717  0.00  0.00     0.094 A 
ATOM     13  C   UNL d   1       9.861   7.912 -10.434  0.00  0.00     0.026 A 
ATOM     14  C   UNL d   1      10.262   8.287  -9.137  0.00  0.00     0.026 A 
ATOM     15  C   UNL d   1      10.269   7.343  -8.092  0.00  0.00     0.094 A 
ATOM     16  C   UNL d   1       9.862   6.018  -8.373  0.00  0.00     0.026 A 
ATOM     17  C   UNL d   1       9.459   5.647  -9.669  0.00  0.00     0.026 A 
BRANCH  15  18
ATOM     18  O   UNL d   1      10.677   7.768  -6.848  0.00  0.00    -0.328 OA
ATOM     19  C   UNL d   1      10.676   6.821  -5.791  0.00  0.00     0.181 C 
ENDBRANCH  15  18
ENDBRANCH  11  12
ENDBRANCH  10  11
ENDBRANCH   9  10
ENDBRANCH   1   9
BRANCH   5  20
ATOM     20  C   UNL d   1      11.388   0.967 -18.351  0.00  0.00     0.056 A 
ATOM     21  C   UNL d   1      11.659  -0.267 -18.996  0.00  0.00     0.007 A 
ATOM     22  C   UNL d   1      12.877  -0.468 -19.668  0.00  0.00     0.024 A 
ATOM     23  C   UNL d   1      13.853   0.563 -19.715  0.00  0.00     0.094 A 
ATOM     24  C   UNL d   1      13.566   1.796 -19.093  0.00  0.00     0.024 A 
ATOM     25  C   UNL d   1      12.328   2.007 -18.434  0.00  0.00     0.007 A 
BRANCH  23  26
ATOM     26  O   UNL d   1      15.084   0.453 -20.321  0.00  0.00    -0.328 OA
ATOM     27  C   UNL d   1      15.351  -0.724 -21.069  0.00  0.00     0.181 C 
ENDBRANCH  23  26
ENDBRANCH   5  20
TORSDOF 7
