REMARK  4 active torsions:
REMARK  status: ('A' for Active; 'I' for Inactive)
REMARK    1  A    between atoms: C_10  and  C_11 
REMARK    2  A    between atoms: C_11  and  C_12 
REMARK    3  A    between atoms: C_12  and  N_13 
REMARK    4  A    between atoms: C_16  and  C_17 
ROOT
ATOM      1  N   UNL d   1       9.646   6.944 -10.313  0.00  0.00     0.137 N 
ATOM      2  C   UNL d   1      10.934   7.646 -10.361  0.00  0.00     0.251 C 
ATOM      3  C   UNL d   1      11.145   8.540  -9.148  0.00  0.00     0.041 C 
ATOM      4  C   UNL d   1      10.997   7.754  -7.831  0.00  0.00     0.047 C 
ATOM      5  C   UNL d   1       9.692   6.954  -7.857  0.00  0.00     0.041 C 
ATOM      6  C   UNL d   1       9.591   6.099  -9.116  0.00  0.00     0.251 C 
ENDROOT
BRANCH   1   7
ATOM      7  C   UNL d   1       9.457   6.159 -11.524  0.00  0.00     0.250 C 
BRANCH   7   8
ATOM      8  C   UNL d   1       8.011   5.635 -11.711  0.00  0.00     0.038 C 
BRANCH   8   9
ATOM      9  C   UNL d   1       7.942   4.342 -12.553  0.00  0.00     0.037 C 
ATOM     10  C   UNL d   1       6.512   3.743 -12.557  0.00  0.00     0.174 C 
ATOM     11  C   UNL d   1       6.359   2.537 -13.508  0.00  0.00     0.005 A 
ATOM     12  O   UNL d   1       5.559   4.745 -12.860  0.00  0.00    -0.219 OA
ATOM     13  C   UNL d   1       7.290   2.276 -14.533  0.00  0.00    -0.024 A 
ATOM     14  C   UNL d   1       5.332   1.619 -13.240  0.00  0.00     0.012 A 
ATOM     15  C   UNL d   1       7.086   1.153 -15.367  0.00  0.00    -0.003 A 
ATOM     16  C   UNL d   1       8.521   3.152 -14.727  0.00  0.00     0.026 C 
ATOM     17  C   UNL d   1       6.002   0.279 -15.148  0.00  0.00     0.014 A 
ATOM     18  C   UNL d   1       5.125   0.486 -14.065  0.00  0.00     0.070 A 
ATOM     19  N   UNL d   1       4.031  -0.367 -13.840  0.00  0.00    -0.101 NA
ATOM     20  C   UNL d   1       8.468   4.498 -13.979  0.00  0.00     0.008 C 
ENDBRANCH   8   9
ENDBRANCH   7   8
ENDBRANCH   1   7
BRANCH   4  21
ATOM     21  C   UNL d   1      11.075   8.647  -6.628  0.00  0.00     0.087 A 
ATOM     22  C   UNL d   1      11.421   8.352  -5.296  0.00  0.00     0.041 A 
ATOM     23  C   UNL d   1      11.305   9.513  -4.534  0.00  0.00     0.129 A 
ATOM     24  C   UNL d   1      11.817   7.146  -4.678  0.00  0.00     0.006 A 
ATOM     25  O   UNL d   1      10.862  10.488  -5.397  0.00  0.00    -0.211 OA
ATOM     26  C   UNL d   1      11.615   9.568  -3.177  0.00  0.00     0.057 A 
ATOM     27  N   UNL d   1      10.722   9.929  -6.692  0.00  0.00    -0.131 NA
ATOM     28  C   UNL d   1      12.053   8.380  -2.558  0.00  0.00     0.142 A 
ATOM     29  F   UNL d   1      12.398   8.393  -1.252  0.00  0.00    -0.204 F 
ATOM     30  C   UNL d   1      12.154   7.179  -3.302  0.00  0.00     0.030 A 
ENDBRANCH   4  21
TORSDOF 4
