REMARK  3 active torsions:
REMARK  status: ('A' for Active; 'I' for Inactive)
REMARK    1  A    between atoms: C_5  and  C_6 
REMARK    2  A    between atoms: N_8  and  S_9 
REMARK    3  A    between atoms: S_9  and  C_12 
ROOT
ATOM      1  C   UNL d   1       8.033   3.243 -14.038  0.00  0.00     0.039 A 
ATOM      2  C   UNL d   1       9.049   2.911 -14.903  0.00  0.00     0.093 A 
ATOM      3  N   UNL d   1       8.792   1.678 -15.492  0.00  0.00    -0.231 N 
ATOM      4  C   UNL d   1       7.595   1.177 -15.008  0.00  0.00     0.075 A 
ATOM      5  C   UNL d   1       6.893  -0.021 -15.258  0.00  0.00     0.018 A 
ATOM      6  C   UNL d   1       5.664  -0.278 -14.637  0.00  0.00     0.002 A 
ATOM      7  C   UNL d   1       5.150   0.651 -13.726  0.00  0.00     0.000 A 
ATOM      8  C   UNL d   1       5.854   1.847 -13.467  0.00  0.00     0.002 A 
ATOM      9  C   UNL d   1       7.083   2.155 -14.104  0.00  0.00     0.020 A 
ENDROOT
BRANCH   3  10
ATOM     10  S   UNL d   1       9.827   0.929 -16.652  0.00  0.00     0.271 S 
ATOM     11  O   UNL d   1      11.053   1.738 -16.675  0.00  0.00    -0.200 OA
ATOM     12  O   UNL d   1       9.879  -0.500 -16.292  0.00  0.00    -0.200 OA
BRANCH  10  13
ATOM     13  C   UNL d   1       8.953   1.133 -18.210  0.00  0.00     0.104 A 
ATOM     14  C   UNL d   1       7.897   0.264 -18.556  0.00  0.00     0.013 A 
ATOM     15  C   UNL d   1       7.193   0.446 -19.760  0.00  0.00     0.001 A 
ATOM     16  C   UNL d   1       7.574   1.470 -20.649  0.00  0.00     0.000 A 
ATOM     17  C   UNL d   1       8.648   2.324 -20.318  0.00  0.00     0.001 A 
ATOM     18  C   UNL d   1       9.333   2.169 -19.093  0.00  0.00     0.013 A 
ENDBRANCH  10  13
ENDBRANCH   3  10
BRANCH   1  19
ATOM     19  C   UNL d   1       7.904   4.423 -13.182  0.00  0.00     0.105 A 
ATOM     20  C   UNL d   1       6.938   4.772 -12.252  0.00  0.00     0.121 A 
ATOM     21  N   UNL d   1       7.328   5.994 -11.735  0.00  0.00    -0.211 NA
ATOM     22  C   UNL d   1       8.455   6.336 -12.352  0.00  0.00     0.238 A 
ATOM     23  N   UNL d   1       9.047   7.543 -12.039  0.00  0.00    -0.060 NA
ATOM     24  N   UNL d   1       8.875   5.435 -13.225  0.00  0.00    -0.213 NA
ENDBRANCH   1  19
TORSDOF 3
