REMARK  8 active torsions:
REMARK  status: ('A' for Active; 'I' for Inactive)
REMARK    1  A    between atoms: C_6  and  C_7 
REMARK    2  A    between atoms: N_10  and  C_11 
REMARK    3  A    between atoms: C_11  and  C_12 
REMARK    4  A    between atoms: C_12  and  C_13 
REMARK    5  A    between atoms: C_13  and  O_14 
REMARK    6  A    between atoms: O_14  and  C_15 
REMARK    7  A    between atoms: C_18  and  C_19 
REMARK    8  A    between atoms: C_19  and  N_20 
ROOT
ATOM      1  C   UNL d   1       9.016   5.060 -13.910  0.00  0.00     0.253 C 
ENDROOT
BRANCH   1   2
ATOM      2  N   UNL d   1       8.987   3.865 -14.753  0.00  0.00     0.137 N 
ATOM      3  C   UNL d   1       9.636   2.738 -14.080  0.00  0.00     0.251 C 
ATOM      4  C   UNL d   1       9.486   1.466 -14.925  0.00  0.00     0.041 C 
ATOM      5  C   UNL d   1      10.075   1.661 -16.331  0.00  0.00     0.047 C 
ATOM      6  C   UNL d   1       9.521   2.946 -16.974  0.00  0.00     0.041 C 
ATOM      7  C   UNL d   1       9.661   4.147 -16.024  0.00  0.00     0.251 C 
BRANCH   5   8
ATOM      8  C   UNL d   1       9.803   0.456 -17.196  0.00  0.00     0.087 A 
ATOM      9  C   UNL d   1       8.581  -0.076 -17.669  0.00  0.00     0.041 A 
ATOM     10  C   UNL d   1       7.245   0.343 -17.475  0.00  0.00     0.006 A 
ATOM     11  C   UNL d   1       8.838  -1.210 -18.441  0.00  0.00     0.129 A 
ATOM     12  C   UNL d   1       6.206  -0.397 -18.081  0.00  0.00     0.030 A 
ATOM     13  C   UNL d   1       6.492  -1.545 -18.862  0.00  0.00     0.142 A 
ATOM     14  F   UNL d   1       5.479  -2.243 -19.430  0.00  0.00    -0.204 F 
ATOM     15  C   UNL d   1       7.831  -1.967 -19.047  0.00  0.00     0.057 A 
ATOM     16  O   UNL d   1      10.219  -1.352 -18.417  0.00  0.00    -0.211 OA
ATOM     17  N   UNL d   1      10.800  -0.313 -17.637  0.00  0.00    -0.131 NA
ENDBRANCH   5   8
ENDBRANCH   1   2
BRANCH   1  18
ATOM     18  C   UNL d   1       8.056   4.996 -12.717  0.00  0.00     0.068 C 
BRANCH  18  19
ATOM     19  C   UNL d   1       7.799   6.397 -12.129  0.00  0.00     0.151 C 
BRANCH  19  20
ATOM     20  O   UNL d   1       9.031   6.976 -11.713  0.00  0.00    -0.331 OA
BRANCH  20  21
ATOM     21  C   UNL d   1       9.467   6.794 -10.421  0.00  0.00     0.096 A 
ATOM     22  C   UNL d   1      10.594   7.540 -10.029  0.00  0.00     0.053 A 
ATOM     23  C   UNL d   1      11.104   7.461  -8.721  0.00  0.00     0.140 A 
ATOM     24  C   UNL d   1      10.457   6.643  -7.767  0.00  0.00     0.038 A 
ATOM     25  F   UNL d   1      12.216   8.171  -8.408  0.00  0.00    -0.204 F 
ATOM     26  C   UNL d   1       9.325   5.896  -8.158  0.00  0.00     0.002 A 
ATOM     27  C   UNL d   1       8.843   5.947  -9.477  0.00  0.00     0.024 A 
BRANCH  24  28
ATOM     28  C   UNL d   1      10.940   6.543  -6.325  0.00  0.00     0.279 C 
BRANCH  28  29
ATOM     29  N   UNL d   1      11.453   7.785  -5.759  0.00  0.00     0.147 N 
ATOM     30  C   UNL d   1      11.892   7.606  -4.376  0.00  0.00     0.283 C 
ATOM     31  C   UNL d   1      12.440   8.918  -3.787  0.00  0.00     0.178 C 
ATOM     32  O   UNL d   1      11.448   9.934  -3.879  0.00  0.00    -0.350 OA
ATOM     33  C   UNL d   1      11.026  10.166  -5.218  0.00  0.00     0.178 C 
ATOM     34  C   UNL d   1      10.479   8.868  -5.827  0.00  0.00     0.283 C 
ENDBRANCH  28  29
ENDBRANCH  24  28
ENDBRANCH  20  21
ENDBRANCH  19  20
ENDBRANCH  18  19
ENDBRANCH   1  18
TORSDOF 8
