REMARK  3 active torsions:
REMARK  status: ('A' for Active; 'I' for Inactive)
REMARK    1  A    between atoms: S_2  and  C_4 
REMARK    2  A    between atoms: S_2  and  N_11 
REMARK    3  A    between atoms: C_15  and  N_16 
ROOT
ATOM      1  N   UNL d   1       7.535   2.307 -14.602  0.00  0.00    -0.231 N 
ATOM      2  C   UNL d   1       6.417   2.790 -13.931  0.00  0.00     0.092 C 
ATOM      3  C   UNL d   1       6.709   3.886 -13.210  0.00  0.00     0.024 C 
ATOM      4  C   UNL d   1       8.037   4.181 -13.607  0.00  0.00     0.052 A 
ATOM      5  C   UNL d   1       8.790   5.339 -13.250  0.00  0.00     0.141 A 
ATOM      6  N   UNL d   1      10.098   5.391 -13.629  0.00  0.00    -0.229 NA
ATOM      7  C   UNL d   1      10.675   4.443 -14.397  0.00  0.00     0.084 A 
ATOM      8  C   UNL d   1      11.999   4.623 -14.836  0.00  0.00     0.019 A 
ATOM      9  C   UNL d   1      12.623   3.655 -15.625  0.00  0.00     0.002 A 
ATOM     10  C   UNL d   1      11.953   2.477 -15.978  0.00  0.00     0.000 A 
ATOM     11  C   UNL d   1      10.631   2.277 -15.557  0.00  0.00     0.003 A 
ATOM     12  C   UNL d   1       9.975   3.271 -14.800  0.00  0.00     0.035 A 
ATOM     13  C   UNL d   1       8.620   3.182 -14.414  0.00  0.00     0.079 A 
ENDROOT
BRANCH   1  14
ATOM     14  S   UNL d   1       7.614   0.776 -15.353  0.00  0.00     0.271 S 
ATOM     15  O   UNL d   1       8.514   0.032 -14.439  0.00  0.00    -0.200 OA
ATOM     16  O   UNL d   1       7.946   1.040 -16.760  0.00  0.00    -0.200 OA
BRANCH  14  17
ATOM     17  C   UNL d   1       5.960   0.036 -15.268  0.00  0.00     0.106 A 
ATOM     18  C   UNL d   1       5.376  -0.404 -16.472  0.00  0.00     0.043 A 
ATOM     19  C   UNL d   1       4.063  -0.908 -16.452  0.00  0.00     0.141 A 
ATOM     20  C   UNL d   1       3.318  -0.910 -15.254  0.00  0.00     0.030 A 
ATOM     21  F   UNL d   1       3.477  -1.290 -17.610  0.00  0.00    -0.204 F 
ATOM     22  C   UNL d   1       3.899  -0.480 -14.051  0.00  0.00     0.003 A 
ATOM     23  C   UNL d   1       5.250  -0.075 -14.047  0.00  0.00     0.013 A 
ENDBRANCH  14  17
ENDBRANCH   1  14
BRANCH   5  24
ATOM     24  N   UNL d   1       8.265   6.447 -12.559  0.00  0.00    -0.330 N 
ATOM     25  C   UNL d   1       9.132   7.347 -11.803  0.00  0.00     0.141 C 
ATOM     26  C   UNL d   1       8.891   8.814 -12.213  0.00  0.00     0.314 C 
ATOM     27  N   UNL d   1       7.473   9.178 -12.108  0.00  0.00     0.343 N 
ATOM     28  C   UNL d   1       6.588   8.194 -12.736  0.00  0.00     0.314 C 
ATOM     29  C   UNL d   1       6.860   6.763 -12.369  0.00  0.00     0.141 C 
ENDBRANCH   5  24
TORSDOF 3
