REMARK  3 active torsions:
REMARK  status: ('A' for Active; 'I' for Inactive)
REMARK    1  A    between atoms: C_4  and  C_5 
REMARK    2  A    between atoms: N_16  and  C_17 
REMARK    3  A    between atoms: C_17  and  C_18 
ROOT
ATOM      1  O   UNL d   1      12.667   4.040 -14.017  0.00  0.00    -0.289 OA
ATOM      2  C   UNL d   1      11.865   4.390 -14.882  0.00  0.00     0.202 A 
ATOM      3  C   UNL d   1      12.157   4.961 -16.175  0.00  0.00     0.064 A 
ATOM      4  C   UNL d   1      10.971   5.208 -16.764  0.00  0.00     0.097 A 
ATOM      5  O   UNL d   1       9.883   4.820 -15.966  0.00  0.00    -0.326 OA
ATOM      6  C   UNL d   1      10.367   4.351 -14.712  0.00  0.00     0.184 A 
ATOM      7  C   UNL d   1       9.882   2.925 -14.406  0.00  0.00     0.039 C 
ATOM      8  C   UNL d   1       8.379   2.937 -14.131  0.00  0.00     0.038 C 
ATOM      9  C   UNL d   1       8.043   3.978 -13.054  0.00  0.00     0.251 C 
ATOM     10  N   UNL d   1       8.496   5.310 -13.405  0.00  0.00     0.144 N 
ATOM     11  C   UNL d   1       9.939   5.312 -13.582  0.00  0.00     0.285 C 
ENDROOT
BRANCH   4  12
ATOM     12  C   UNL d   1      10.734   5.838 -18.051  0.00  0.00     0.022 A 
ATOM     13  C   UNL d   1       9.409   5.986 -18.526  0.00  0.00     0.002 A 
ATOM     14  C   UNL d   1       9.166   6.570 -19.785  0.00  0.00     0.000 A 
ATOM     15  C   UNL d   1      10.244   7.014 -20.572  0.00  0.00     0.000 A 
ATOM     16  C   UNL d   1      11.565   6.888 -20.101  0.00  0.00     0.000 A 
ATOM     17  C   UNL d   1      11.807   6.302 -18.835  0.00  0.00     0.002 A 
ENDBRANCH   4  12
BRANCH  10  18
ATOM     18  C   UNL d   1       8.103   6.313 -12.401  0.00  0.00     0.277 C 
BRANCH  18  19
ATOM     19  C   UNL d   1       8.714   6.103 -11.018  0.00  0.00     0.011 A 
ATOM     20  C   UNL d   1       9.748   6.945 -10.560  0.00  0.00    -0.002 A 
ATOM     21  C   UNL d   1      10.311   6.734  -9.286  0.00  0.00    -0.000 A 
ATOM     22  C   UNL d   1       9.868   5.671  -8.476  0.00  0.00    -0.000 A 
ATOM     23  C   UNL d   1       8.848   4.817  -8.931  0.00  0.00    -0.000 A 
ATOM     24  C   UNL d   1       8.260   5.071 -10.176  0.00  0.00    -0.002 A 
ENDBRANCH  18  19
ENDBRANCH  10  18
TORSDOF 3
