REMARK  6 active torsions:
REMARK  status: ('A' for Active; 'I' for Inactive)
REMARK    1  A    between atoms: C_3  and  C_4 
REMARK    2  A    between atoms: C_12  and  C_13 
REMARK    3  A    between atoms: C_13  and  O_15 
REMARK    4  A    between atoms: O_15  and  C_16 
REMARK    5  A    between atoms: C_16  and  C_17 
REMARK    6  A    between atoms: C_17  and  N_18 
ROOT
ATOM      1  C   UNL d   1      11.563   2.505 -18.651  0.00  0.00     0.036 C 
ATOM      2  C   UNL d   1      10.731   2.898 -17.424  0.00  0.00     0.040 A 
ATOM      3  C   UNL d   1      11.020   3.898 -16.547  0.00  0.00     0.099 A 
ATOM      4  O   UNL d   1      10.204   4.182 -15.474  0.00  0.00    -0.307 OA
ATOM      5  C   UNL d   1       9.075   3.447 -15.190  0.00  0.00     0.108 A 
ATOM      6  C   UNL d   1       8.299   3.743 -14.035  0.00  0.00     0.086 A 
ATOM      7  C   UNL d   1       7.123   2.992 -13.779  0.00  0.00     0.007 A 
ATOM      8  C   UNL d   1       6.733   1.952 -14.639  0.00  0.00     0.000 A 
ATOM      9  C   UNL d   1       7.500   1.665 -15.780  0.00  0.00     0.005 A 
ATOM     10  C   UNL d   1       8.669   2.407 -16.055  0.00  0.00     0.062 A 
ATOM     11  C   UNL d   1       9.478   2.123 -17.257  0.00  0.00     0.195 A 
ATOM     12  O   UNL d   1       9.102   1.291 -18.086  0.00  0.00    -0.287 OA
ENDROOT
BRANCH   6  13
ATOM     13  C   UNL d   1       8.714   4.810 -13.072  0.00  0.00     0.298 C 
ATOM     14  O   UNL d   1       9.674   5.567 -13.241  0.00  0.00    -0.259 OA
BRANCH  13  15
ATOM     15  O   UNL d   1       7.924   4.837 -11.976  0.00  0.00    -0.296 OA
BRANCH  15  16
ATOM     16  C   UNL d   1       8.181   5.754 -10.923  0.00  0.00     0.188 C 
BRANCH  16  17
ATOM     17  C   UNL d   1       9.371   5.250 -10.081  0.00  0.00     0.283 C 
BRANCH  17  18
ATOM     18  N   UNL d   1       9.828   6.192  -9.058  0.00  0.00     0.140 N 
ATOM     19  C   UNL d   1      10.232   7.474  -9.653  0.00  0.00     0.250 C 
ATOM     20  C   UNL d   1      10.743   8.449  -8.582  0.00  0.00     0.035 C 
ATOM     21  C   UNL d   1       9.665   8.675  -7.513  0.00  0.00     0.004 C 
ATOM     22  C   UNL d   1       9.214   7.326  -6.943  0.00  0.00     0.035 C 
ATOM     23  C   UNL d   1       8.770   6.377  -8.066  0.00  0.00     0.250 C 
ENDBRANCH  17  18
ENDBRANCH  16  17
ENDBRANCH  15  16
ENDBRANCH  13  15
ENDBRANCH   6  13
BRANCH   3  24
ATOM     24  C   UNL d   1      12.201   4.785 -16.606  0.00  0.00     0.023 A 
ATOM     25  C   UNL d   1      13.479   4.300 -16.947  0.00  0.00     0.002 A 
ATOM     26  C   UNL d   1      14.561   5.194 -17.092  0.00  0.00     0.000 A 
ATOM     27  C   UNL d   1      14.385   6.567 -16.830  0.00  0.00     0.000 A 
ATOM     28  C   UNL d   1      13.126   7.051 -16.427  0.00  0.00     0.000 A 
ATOM     29  C   UNL d   1      12.035   6.162 -16.329  0.00  0.00     0.002 A 
ENDBRANCH   3  24
TORSDOF 6
