REMARK  7 active torsions:
REMARK  status: ('A' for Active; 'I' for Inactive)
REMARK    1  A    between atoms: C_3  and  O_4 
REMARK    2  A    between atoms: O_4  and  C_5 
REMARK    3  A    between atoms: C_5  and  C_6 
REMARK    4  A    between atoms: C_6  and  C_7 
REMARK    5  A    between atoms: C_7  and  C_8 
REMARK    6  A    between atoms: C_8  and  N_9 
REMARK    7  A    between atoms: N_12  and  C_13 
ROOT
ATOM      1  N   UNL d   1       7.842   5.381 -12.467  0.00  0.00     0.141 N 
ATOM      2  C   UNL d   1       6.397   5.092 -12.534  0.00  0.00     0.274 C 
ATOM      3  C   UNL d   1       6.081   4.212 -13.726  0.00  0.00     0.137 C 
ATOM      4  N   UNL d   1       6.931   3.049 -13.784  0.00  0.00    -0.344 N 
ATOM      5  C   UNL d   1       8.360   3.268 -13.614  0.00  0.00     0.137 C 
ATOM      6  C   UNL d   1       8.577   4.123 -12.362  0.00  0.00     0.274 C 
ENDROOT
BRANCH   1   7
ATOM      7  C   UNL d   1       8.098   6.140 -11.261  0.00  0.00     0.251 C 
BRANCH   7   8
ATOM      8  C   UNL d   1       9.458   6.861 -11.267  0.00  0.00     0.038 C 
BRANCH   8   9
ATOM      9  C   UNL d   1       9.681   7.728 -10.020  0.00  0.00     0.035 C 
BRANCH   9  10
ATOM     10  C   UNL d   1      11.091   8.339  -9.944  0.00  0.00     0.149 C 
BRANCH  10  11
ATOM     11  O   UNL d   1      11.235   9.133  -8.762  0.00  0.00    -0.331 OA
BRANCH  11  12
ATOM     12  C   UNL d   1      11.330   8.484  -7.543  0.00  0.00     0.090 A 
ATOM     13  C   UNL d   1      11.449   9.230  -6.332  0.00  0.00     0.005 A 
ATOM     14  C   UNL d   1      11.506  10.731  -6.356  0.00  0.00     0.033 C 
ATOM     15  C   UNL d   1      11.521   8.541  -5.097  0.00  0.00     0.053 A 
ATOM     16  C   UNL d   1      11.503   7.172  -5.048  0.00  0.00     0.007 A 
ATOM     17  C   UNL d   1      11.699   9.035  -3.706  0.00  0.00     0.275 A 
ATOM     18  C   UNL d   1      11.477   6.446  -6.222  0.00  0.00    -0.000 A 
ATOM     19  C   UNL d   1      11.677   6.698  -3.632  0.00  0.00     0.155 A 
ATOM     20  C   UNL d   1      11.338   7.075  -7.452  0.00  0.00     0.024 A 
ATOM     21  N   UNL d   1      11.871   7.967  -2.923  0.00  0.00    -0.229 NA
ATOM     22  O   UNL d   1      11.633  10.192  -3.311  0.00  0.00    -0.266 OA
ENDBRANCH  11  12
ENDBRANCH  10  11
ENDBRANCH   9  10
ENDBRANCH   8   9
ENDBRANCH   7   8
ENDBRANCH   1   7
BRANCH   4  23
ATOM     23  C   UNL d   1       6.375   1.822 -14.033  0.00  0.00     0.056 A 
ATOM     24  C   UNL d   1       6.651   1.051 -15.207  0.00  0.00     0.016 A 
ATOM     25  C   UNL d   1       6.018  -0.195 -15.385  0.00  0.00     0.004 A 
ATOM     26  C   UNL d   1       7.524   1.534 -16.201  0.00  0.00     0.004 A 
ATOM     27  C   UNL d   1       5.178  -0.730 -14.398  0.00  0.00     0.000 A 
ATOM     28  C   UNL d   1       6.255  -0.954 -16.552  0.00  0.00     0.030 A 
ATOM     29  C   UNL d   1       4.895   0.053 -13.265  0.00  0.00     0.002 A 
ATOM     30  C   UNL d   1       5.469   1.306 -13.086  0.00  0.00     0.017 A 
ATOM     31  C   UNL d   1       7.144  -0.479 -17.521  0.00  0.00     0.140 A 
ATOM     32  F   UNL d   1       7.468  -1.269 -18.567  0.00  0.00    -0.204 F 
ATOM     33  C   UNL d   1       7.777   0.758 -17.350  0.00  0.00     0.030 A 
ENDBRANCH   4  23
TORSDOF 7
