REMARK  6 active torsions:
REMARK  status: ('A' for Active; 'I' for Inactive)
REMARK    1  A    between atoms: O_2  and  C_3 
REMARK    2  A    between atoms: C_8  and  N_9 
REMARK    3  A    between atoms: N_12  and  C_13 
REMARK    4  A    between atoms: C_13  and  C_14 
REMARK    5  A    between atoms: C_14  and  O_15 
REMARK    6  A    between atoms: O_15  and  C_16 
ROOT
ATOM      1  N   UNL d   1      11.059   6.886  -7.915  0.00  0.00    -0.343 N 
ATOM      2  C   UNL d   1      10.331   5.649  -8.074  0.00  0.00     0.137 C 
ATOM      3  C   UNL d   1       9.216   5.778  -9.129  0.00  0.00     0.274 C 
ATOM      4  N   UNL d   1       9.775   6.249 -10.410  0.00  0.00     0.144 N 
ATOM      5  C   UNL d   1      10.380   7.582 -10.288  0.00  0.00     0.274 C 
ATOM      6  C   UNL d   1      11.460   7.591  -9.160  0.00  0.00     0.137 C 
ENDROOT
BRANCH   4   7
ATOM      7  C   UNL d   1       8.683   6.360 -11.356  0.00  0.00     0.283 C 
BRANCH   7   8
ATOM      8  C   UNL d   1       9.181   6.066 -12.764  0.00  0.00     0.184 C 
BRANCH   8   9
ATOM      9  O   UNL d   1       8.093   5.839 -13.650  0.00  0.00    -0.329 OA
BRANCH   9  10
ATOM     10  C   UNL d   1       7.436   4.646 -13.479  0.00  0.00     0.096 A 
ATOM     11  C   UNL d   1       7.843   3.502 -14.209  0.00  0.00     0.045 A 
ATOM     12  C   UNL d   1       7.051   2.351 -14.078  0.00  0.00     0.106 A 
ATOM     13  C   UNL d   1       5.936   2.314 -13.268  0.00  0.00     0.104 A 
ATOM     14  N   UNL d   1       7.187   1.067 -14.613  0.00  0.00    -0.189 NA
ATOM     15  C   UNL d   1       5.508   3.429 -12.546  0.00  0.00     0.023 A 
ATOM     16  N   UNL d   1       5.458   1.005 -13.300  0.00  0.00    -0.189 NA
ATOM     17  C   UNL d   1       6.257   4.614 -12.684  0.00  0.00     0.026 A 
ATOM     18  C   UNL d   1       6.214   0.270 -14.131  0.00  0.00     0.369 A 
ATOM     19  O   UNL d   1       6.029  -0.908 -14.401  0.00  0.00    -0.242 OA
ENDBRANCH   9  10
ENDBRANCH   8   9
ENDBRANCH   7   8
ENDBRANCH   4   7
BRANCH   1  20
ATOM     20  C   UNL d   1      11.108   7.521  -6.632  0.00  0.00     0.079 A 
ATOM     21  C   UNL d   1      10.786   8.842  -6.410  0.00  0.00     0.110 A 
ATOM     22  C   UNL d   1      10.953   9.482  -5.175  0.00  0.00     0.026 A 
ATOM     23  C   UNL d   1      11.487   8.741  -4.089  0.00  0.00     0.002 A 
ATOM     24  C   UNL d   1      11.782   7.385  -4.258  0.00  0.00     0.002 A 
ATOM     25  C   UNL d   1      11.574   6.765  -5.510  0.00  0.00     0.019 A 
BRANCH  21  26
ATOM     26  O   UNL d   1      10.286   9.581  -7.407  0.00  0.00    -0.327 OA
ATOM     27  C   UNL d   1       9.048   9.269  -7.956  0.00  0.00     0.181 C 
ENDBRANCH  21  26
ENDBRANCH   1  20
TORSDOF 6
