REMARK  8 active torsions:
REMARK  status: ('A' for Active; 'I' for Inactive)
REMARK    1  A    between atoms: O_2  and  C_3 
REMARK    2  A    between atoms: C_3  and  C_4 
REMARK    3  A    between atoms: C_4  and  C_5 
REMARK       I    between atoms: C_5  and  N_7 
REMARK    4  A    between atoms: N_7  and  C_8 
REMARK    5  A    between atoms: C_11  and  C_12 
REMARK    6  A    between atoms: C_12  and  C_13 
REMARK    7  A    between atoms: C_13  and  N_14 
REMARK    8  A    between atoms: C_17  and  C_18 
ROOT
ATOM      1  N   UNL d   1       9.140   6.274  -9.134  0.00  0.00     0.137 N 
ATOM      2  C   UNL d   1      10.599   6.387  -9.097  0.00  0.00     0.251 C 
ATOM      3  C   UNL d   1      11.042   7.381  -8.049  0.00  0.00     0.040 C 
ATOM      4  C   UNL d   1      10.562   6.972  -6.658  0.00  0.00     0.026 C 
ATOM      5  C   UNL d   1       9.042   6.711  -6.704  0.00  0.00     0.040 C 
ATOM      6  C   UNL d   1       8.668   5.752  -7.848  0.00  0.00     0.251 C 
ENDROOT
BRANCH   1   7
ATOM      7  C   UNL d   1       8.666   5.376 -10.180  0.00  0.00     0.250 C 
BRANCH   7   8
ATOM      8  C   UNL d   1       9.149   5.765 -11.591  0.00  0.00     0.035 C 
BRANCH   8   9
ATOM      9  C   UNL d   1       9.335   4.546 -12.508  0.00  0.00     0.002 C 
ATOM     10  C   UNL d   1       8.003   4.190 -13.161  0.00  0.00     0.002 C 
ATOM     11  C   UNL d   1       8.154   3.041 -14.151  0.00  0.00     0.024 C 
ATOM     12  C   UNL d   1       9.227   3.331 -15.221  0.00  0.00     0.106 C 
ATOM     13  C   UNL d   1      10.575   3.666 -14.564  0.00  0.00     0.024 C 
ATOM     14  C   UNL d   1      10.415   4.816 -13.571  0.00  0.00     0.002 C 
BRANCH  12  15
ATOM     15  N   UNL d   1       9.404   2.197 -16.117  0.00  0.00    -0.240 NA
ATOM     16  C   UNL d   1       8.459   1.689 -16.916  0.00  0.00     0.254 C 
ATOM     17  O   UNL d   1       7.296   2.084 -16.931  0.00  0.00    -0.271 OA
BRANCH  16  18
ATOM     18  C   UNL d   1       8.911   0.593 -17.869  0.00  0.00     0.122 C 
BRANCH  18  19
ATOM     19  C   UNL d   1       7.840   0.297 -18.947  0.00  0.00     0.152 C 
BRANCH  19  20
ATOM     20  O   UNL d   1       7.513   1.442 -19.743  0.00  0.00    -0.351 OA
ATOM     21  C   UNL d   1       8.545   1.860 -20.620  0.00  0.00     0.174 C 
ENDBRANCH  19  20
ENDBRANCH  18  19
ENDBRANCH  16  18
ENDBRANCH  12  15
ENDBRANCH   8   9
ENDBRANCH   7   8
ENDBRANCH   1   7
BRANCH   4  22
ATOM     22  C   UNL d   1      10.925   8.023  -5.616  0.00  0.00    -0.020 A 
ATOM     23  C   UNL d   1      11.566   7.659  -4.408  0.00  0.00     0.021 A 
ATOM     24  C   UNL d   1      11.858   8.674  -3.464  0.00  0.00     0.100 A 
ATOM     25  C   UNL d   1      12.027   6.486  -3.812  0.00  0.00     0.028 A 
ATOM     26  C   UNL d   1      11.522   9.991  -3.676  0.00  0.00     0.025 A 
ATOM     27  O   UNL d   1      12.474   8.134  -2.351  0.00  0.00    -0.305 OA
ATOM     28  C   UNL d   1      10.919  10.353  -4.899  0.00  0.00     0.002 A 
ATOM     29  C   UNL d   1      10.617   9.378  -5.855  0.00  0.00    -0.004 A 
ATOM     30  C   UNL d   1      12.541   6.795  -2.588  0.00  0.00     0.123 A 
ENDBRANCH   4  22
TORSDOF 8
