REMARK  9 active torsions:
REMARK  status: ('A' for Active; 'I' for Inactive)
REMARK    1  A    between atoms: O_2  and  C_3 
REMARK    2  A    between atoms: C_8  and  C_9 
REMARK    3  A    between atoms: C_11  and  C_12 
REMARK    4  A    between atoms: C_12  and  N_13 
REMARK    5  A    between atoms: N_13  and  C_14 
REMARK    6  A    between atoms: C_14  and  C_15 
REMARK    7  A    between atoms: C_15  and  C_16 
REMARK    8  A    between atoms: C_19  and  N_20 
REMARK       I    between atoms: N_20  and  C_21 
REMARK    9  A    between atoms: C_21  and  C_23 
ROOT
ATOM      1  C   UNL d   1       9.681   6.527 -11.014  0.00  0.00     0.002 C 
ATOM      2  C   UNL d   1       9.977   7.980 -10.643  0.00  0.00     0.002 C 
ATOM      3  C   UNL d   1      10.649   8.089  -9.280  0.00  0.00     0.024 C 
ATOM      4  C   UNL d   1       9.797   7.419  -8.184  0.00  0.00     0.107 C 
ATOM      5  C   UNL d   1       9.509   5.954  -8.547  0.00  0.00     0.024 C 
ATOM      6  C   UNL d   1       8.851   5.832  -9.922  0.00  0.00     0.002 C 
ENDROOT
BRANCH   1   7
ATOM      7  C   UNL d   1       8.994   6.462 -12.385  0.00  0.00     0.038 C 
BRANCH   7   8
ATOM      8  C   UNL d   1       8.878   5.046 -12.962  0.00  0.00     0.290 C 
BRANCH   8   9
ATOM      9  N   UNL d   1      10.187   4.564 -13.357  0.00  0.00     0.339 N 
BRANCH   9  10
ATOM     10  C   UNL d   1      10.028   3.494 -14.324  0.00  0.00     0.290 C 
BRANCH  10  11
ATOM     11  C   UNL d   1      11.389   2.988 -14.766  0.00  0.00     0.041 A 
ATOM     12  C   UNL d   1      12.071   3.453 -16.047  0.00  0.00     0.026 A 
ATOM     13  C   UNL d   1      11.534   2.041 -15.934  0.00  0.00     0.007 A 
BRANCH  12  14
ATOM     14  C   UNL d   1      11.427   4.484 -16.967  0.00  0.00    -0.000 A 
ATOM     15  C   UNL d   1      12.146   5.649 -17.364  0.00  0.00     0.090 A 
ATOM     16  C   UNL d   1      11.498   6.607 -18.193  0.00  0.00     0.024 A 
ATOM     17  C   UNL d   1      10.162   6.423 -18.597  0.00  0.00     0.002 A 
ATOM     18  C   UNL d   1       9.465   5.266 -18.204  0.00  0.00    -0.000 A 
ATOM     19  C   UNL d   1      10.109   4.291 -17.415  0.00  0.00    -0.002 A 
BRANCH  15  20
ATOM     20  O   UNL d   1      13.444   5.812 -16.909  0.00  0.00    -0.328 OA
ATOM     21  C   UNL d   1      14.157   6.987 -17.287  0.00  0.00     0.181 C 
ENDBRANCH  15  20
ENDBRANCH  12  14
ENDBRANCH  10  11
ENDBRANCH   9  10
ENDBRANCH   8   9
ENDBRANCH   7   8
ENDBRANCH   1   7
BRANCH   4  22
ATOM     22  N   UNL d   1      10.469   7.451  -6.897  0.00  0.00    -0.236 NA
ATOM     23  C   UNL d   1      10.852   8.543  -6.213  0.00  0.00     0.275 C 
ATOM     24  O   UNL d   1      10.734   9.690  -6.639  0.00  0.00    -0.266 OA
BRANCH  23  25
ATOM     25  C   UNL d   1      11.406   8.289  -4.840  0.00  0.00     0.058 A 
ATOM     26  C   UNL d   1      11.687   6.981  -4.384  0.00  0.00     0.005 A 
ATOM     27  C   UNL d   1      12.164   6.773  -3.079  0.00  0.00     0.000 A 
ATOM     28  C   UNL d   1      12.371   7.867  -2.222  0.00  0.00     0.000 A 
ATOM     29  C   UNL d   1      12.108   9.172  -2.670  0.00  0.00     0.000 A 
ATOM     30  C   UNL d   1      11.622   9.384  -3.972  0.00  0.00     0.005 A 
ENDBRANCH  23  25
ENDBRANCH   4  22
TORSDOF 9
