REMARK  8 active torsions:
REMARK  status: ('A' for Active; 'I' for Inactive)
REMARK    1  A    between atoms: O_2  and  C_3 
REMARK    2  A    between atoms: C_8  and  N_9 
REMARK    3  A    between atoms: N_12  and  C_13 
REMARK    4  A    between atoms: C_13  and  C_14 
REMARK    5  A    between atoms: C_14  and  C_15 
REMARK    6  A    between atoms: C_15  and  C_16 
REMARK    7  A    between atoms: C_16  and  N_17 
REMARK       I    between atoms: N_17  and  C_18 
REMARK    8  A    between atoms: C_18  and  C_20 
ROOT
ATOM      1  C   UNL d   1       7.962   4.464 -12.451  0.00  0.00     0.037 C 
ENDROOT
BRANCH   1   2
ATOM      2  C   UNL d   1       7.598   5.228 -11.168  0.00  0.00     0.251 C 
BRANCH   2   3
ATOM      3  N   UNL d   1       8.705   5.271 -10.199  0.00  0.00     0.141 N 
ATOM      4  C   UNL d   1       8.159   5.423  -8.834  0.00  0.00     0.274 C 
ATOM      5  C   UNL d   1       9.263   5.498  -7.783  0.00  0.00     0.137 C 
ATOM      6  N   UNL d   1      10.254   6.505  -8.081  0.00  0.00    -0.343 N 
ATOM      7  C   UNL d   1      10.649   6.526  -9.475  0.00  0.00     0.137 C 
ATOM      8  C   UNL d   1       9.480   6.498 -10.445  0.00  0.00     0.274 C 
BRANCH   6   9
ATOM      9  C   UNL d   1      10.620   7.511  -7.193  0.00  0.00     0.079 A 
ATOM     10  C   UNL d   1      10.768   8.849  -7.619  0.00  0.00     0.110 A 
ATOM     11  C   UNL d   1      11.161   9.831  -6.699  0.00  0.00     0.026 A 
ATOM     12  C   UNL d   1      11.389   9.497  -5.358  0.00  0.00     0.002 A 
ATOM     13  C   UNL d   1      11.263   8.163  -4.944  0.00  0.00     0.002 A 
ATOM     14  C   UNL d   1      10.868   7.179  -5.854  0.00  0.00     0.019 A 
BRANCH  10  15
ATOM     15  O   UNL d   1      10.396   9.202  -8.896  0.00  0.00    -0.327 OA
ATOM     16  C   UNL d   1      11.393   9.904  -9.651  0.00  0.00     0.181 C 
ENDBRANCH  10  15
ENDBRANCH   6   9
ENDBRANCH   2   3
ENDBRANCH   1   2
BRANCH   1  17
ATOM     17  C   UNL d   1       9.116   5.069 -13.258  0.00  0.00     0.029 C 
BRANCH  17  18
ATOM     18  C   UNL d   1       9.743   4.100 -14.263  0.00  0.00     0.129 C 
BRANCH  18  19
ATOM     19  N   UNL d   1      10.847   4.777 -14.943  0.00  0.00    -0.234 NA
ATOM     20  C   UNL d   1      10.787   5.194 -16.209  0.00  0.00     0.275 C 
ATOM     21  O   UNL d   1       9.742   5.224 -16.854  0.00  0.00    -0.266 OA
BRANCH  20  22
ATOM     22  C   UNL d   1      12.083   5.653 -16.807  0.00  0.00     0.058 A 
ATOM     23  C   UNL d   1      12.084   6.670 -17.787  0.00  0.00     0.005 A 
ATOM     24  C   UNL d   1      13.288   7.076 -18.398  0.00  0.00     0.000 A 
ATOM     25  C   UNL d   1      14.508   6.455 -18.035  0.00  0.00     0.000 A 
ATOM     26  C   UNL d   1      13.287   8.098 -19.370  0.00  0.00     0.000 A 
ATOM     27  C   UNL d   1      14.507   5.427 -17.072  0.00  0.00     0.000 A 
ATOM     28  C   UNL d   1      15.714   6.860 -18.644  0.00  0.00     0.000 A 
ATOM     29  C   UNL d   1      13.303   5.026 -16.463  0.00  0.00     0.005 A 
ATOM     30  C   UNL d   1      15.705   7.886 -19.610  0.00  0.00     0.000 A 
ATOM     31  C   UNL d   1      14.493   8.505 -19.971  0.00  0.00     0.000 A 
ENDBRANCH  20  22
ENDBRANCH  18  19
ENDBRANCH  17  18
ENDBRANCH   1  17
TORSDOF 8
