REMARK  2 active torsions:
REMARK  status: ('A' for Active; 'I' for Inactive)
REMARK       I    between atoms: C_2  and  N_4 
REMARK    1  A    between atoms: N_4  and  N_5 
REMARK    2  A    between atoms: C_6  and  C_7 
ROOT
ATOM      1  C   UNL d   1      11.157   8.323  -5.810  0.00  0.00     0.042 A 
ATOM      2  C   UNL d   1      11.187   9.191  -4.725  0.00  0.00     0.060 A 
ATOM      3 CL   UNL d   1      10.677  10.795  -4.988  0.00  0.00    -0.082 Cl
ATOM      4  C   UNL d   1      11.533   8.771  -3.423  0.00  0.00     0.011 A 
ATOM      5  C   UNL d   1      11.886   7.442  -3.150  0.00  0.00     0.002 A 
ATOM      6  C   UNL d   1      11.864   6.551  -4.217  0.00  0.00     0.011 A 
ATOM      7  C   UNL d   1      11.497   6.997  -5.520  0.00  0.00     0.060 A 
ATOM      8 CL   UNL d   1      11.857   5.985  -6.845  0.00  0.00    -0.082 Cl
ENDROOT
BRANCH   1   9
ATOM      9  C   UNL d   1      10.874   8.792  -7.211  0.00  0.00     0.124 C 
ATOM     10  N   UNL d   1      10.383   8.011  -8.126  0.00  0.00    -0.131 NA
BRANCH  10  11
ATOM     11  N   UNL d   1      10.286   8.441  -9.365  0.00  0.00     0.049 NA
ATOM     12  C   UNL d   1       9.866   7.642 -10.426  0.00  0.00     0.804 C 
ATOM     13  N   UNL d   1       9.824   6.356 -10.421  0.00  0.00     0.065 N 
ATOM     14  N   UNL d   1       9.477   8.372 -11.525  0.00  0.00     0.065 N 
ENDBRANCH  10  11
ENDBRANCH   1   9
TORSDOF 2
