REMARK  9 active torsions:
REMARK  status: ('A' for Active; 'I' for Inactive)
REMARK    1  A    between atoms: C_8  and  O_9 
REMARK    2  A    between atoms: O_9  and  C_10 
REMARK    3  A    between atoms: C_10  and  C_11 
REMARK    4  A    between atoms: C_11  and  C_12 
REMARK    5  A    between atoms: C_12  and  C_13 
REMARK    6  A    between atoms: C_13  and  N_14 
REMARK    7  A    between atoms: N_14  and  C_15 
REMARK    8  A    between atoms: C_15  and  C_16 
REMARK    9  A    between atoms: C_18  and  C_19 
ROOT
ATOM      1  C   UNL d   1       7.841   5.142 -12.946  0.00  0.00     0.290 C 
ENDROOT
BRANCH   1   2
ATOM      2  C   UNL d   1       8.962   5.283 -11.911  0.00  0.00     0.041 C 
BRANCH   2   3
ATOM      3  C   UNL d   1       8.803   6.499 -11.013  0.00  0.00     0.035 C 
BRANCH   3   4
ATOM      4  C   UNL d   1      10.019   6.625 -10.089  0.00  0.00     0.149 C 
BRANCH   4   5
ATOM      5  O   UNL d   1       9.689   7.505  -9.025  0.00  0.00    -0.331 OA
BRANCH   5   6
ATOM      6  C   UNL d   1      10.361   7.386  -7.842  0.00  0.00     0.096 A 
ATOM      7  C   UNL d   1      11.043   6.216  -7.461  0.00  0.00     0.024 A 
ATOM      8  C   UNL d   1      11.762   6.151  -6.269  0.00  0.00    -0.001 A 
ATOM      9  C   UNL d   1      11.708   7.199  -5.354  0.00  0.00    -0.004 A 
ATOM     10  C   UNL d   1      12.493   7.151  -4.046  0.00  0.00     0.038 C 
ATOM     11  C   UNL d   1      11.006   8.368  -5.727  0.00  0.00     0.082 A 
ATOM     12  C   UNL d   1      11.906   8.039  -2.990  0.00  0.00     0.095 C 
ATOM     13  C   UNL d   1      11.492   9.393  -3.609  0.00  0.00     0.256 C 
ATOM     14  O   UNL d   1      11.574  10.377  -2.933  0.00  0.00    -0.270 OA
ATOM     15  N   UNL d   1      11.039   9.457  -4.870  0.00  0.00    -0.212 NA
ATOM     16  C   UNL d   1      10.340   8.473  -6.955  0.00  0.00     0.043 A 
ENDBRANCH   5   6
ENDBRANCH   4   5
ENDBRANCH   3   4
ENDBRANCH   2   3
ENDBRANCH   1   2
BRANCH   1  17
ATOM     17  N   UNL d   1       7.977   3.907 -13.710  0.00  0.00     0.339 N 
BRANCH  17  18
ATOM     18  C   UNL d   1       8.994   4.022 -14.748  0.00  0.00     0.290 C 
BRANCH  18  19
ATOM     19  C   UNL d   1      10.380   3.645 -14.215  0.00  0.00     0.041 A 
ATOM     20  C   UNL d   1      11.092   2.399 -14.638  0.00  0.00     0.026 A 
ATOM     21  C   UNL d   1      11.578   3.750 -15.134  0.00  0.00     0.007 A 
BRANCH  20  22
ATOM     22  C   UNL d   1      10.439   1.420 -15.550  0.00  0.00     0.002 A 
ATOM     23  C   UNL d   1      11.056   1.056 -16.762  0.00  0.00     0.112 A 
ATOM     24  C   UNL d   1      10.417   0.147 -17.641  0.00  0.00     0.116 A 
ATOM     25  O   UNL d   1      12.269   1.621 -17.077  0.00  0.00    -0.326 OA
ATOM     26  C   UNL d   1       9.139  -0.343 -17.319  0.00  0.00     0.026 A 
ATOM     27  O   UNL d   1      11.014  -0.243 -18.819  0.00  0.00    -0.326 OA
ATOM     28  C   UNL d   1       8.518   0.025 -16.109  0.00  0.00     0.002 A 
ATOM     29  C   UNL d   1       9.181   0.881 -15.215  0.00  0.00    -0.002 A 
ATOM     30  C   UNL d   1      12.408   0.042 -18.885  0.00  0.00     0.181 C 
ATOM     31  C   UNL d   1      12.669   1.484 -18.430  0.00  0.00     0.181 C 
ENDBRANCH  20  22
ENDBRANCH  18  19
ENDBRANCH  17  18
ENDBRANCH   1  17
TORSDOF 9
