REMARK  8 active torsions:
REMARK  status: ('A' for Active; 'I' for Inactive)
REMARK    1  A    between atoms: C_2  and  C_3 
REMARK    2  A    between atoms: C_4  and  O_5 
REMARK    3  A    between atoms: O_5  and  C_6 
REMARK    4  A    between atoms: C_6  and  C_7 
REMARK    5  A    between atoms: C_7  and  C_8 
REMARK    6  A    between atoms: C_8  and  C_9 
REMARK    7  A    between atoms: C_9  and  N_10 
REMARK    8  A    between atoms: N_13  and  C_14 
ROOT
ATOM      1  C   UNL d   1      10.158   4.317 -15.232  0.00  0.00     0.038 C 
ENDROOT
BRANCH   1   2
ATOM      2  C   UNL d   1      10.760   3.451 -16.344  0.00  0.00     0.035 C 
BRANCH   2   3
ATOM      3  C   UNL d   1       9.971   2.175 -16.759  0.00  0.00     0.151 C 
BRANCH   3   4
ATOM      4  O   UNL d   1       8.662   2.552 -17.204  0.00  0.00    -0.314 OA
BRANCH   4   5
ATOM      5  C   UNL d   1       7.694   1.618 -17.185  0.00  0.00     0.202 A 
ATOM      6  C   UNL d   1       7.215   0.775 -16.127  0.00  0.00     0.102 A 
ATOM      7  C   UNL d   1       6.199   0.074 -16.701  0.00  0.00     0.090 A 
ATOM      8  N   UNL d   1       6.078   0.521 -18.026  0.00  0.00    -0.226 N 
ATOM      9  C   UNL d   1       5.305  -0.949 -16.285  0.00  0.00     0.019 A 
ATOM     10  N   UNL d   1       7.000   1.505 -18.295  0.00  0.00    -0.140 NA
ATOM     11  C   UNL d   1       5.185   0.030 -18.918  0.00  0.00     0.101 A 
ATOM     12  C   UNL d   1       4.339  -0.974 -18.503  0.00  0.00     0.021 A 
ATOM     13  C   UNL d   1       4.401  -1.469 -17.173  0.00  0.00     0.003 A 
BRANCH   6  14
ATOM     14  C   UNL d   1       7.585   0.576 -14.732  0.00  0.00     0.239 C 
ATOM     15  O   UNL d   1       7.000  -0.143 -13.909  0.00  0.00    -0.283 OA
ENDBRANCH   6  14
ENDBRANCH   4   5
ENDBRANCH   3   4
ENDBRANCH   2   3
ENDBRANCH   1   2
BRANCH   1  16
ATOM     16  C   UNL d   1       9.108   3.609 -14.348  0.00  0.00     0.251 C 
BRANCH  16  17
ATOM     17  N   UNL d   1       8.622   4.263 -13.177  0.00  0.00     0.141 N 
ATOM     18  C   UNL d   1       9.525   3.908 -12.084  0.00  0.00     0.274 C 
ATOM     19  C   UNL d   1       9.071   4.578 -10.798  0.00  0.00     0.137 C 
ATOM     20  N   UNL d   1       8.966   6.013 -11.009  0.00  0.00    -0.344 N 
ATOM     21  C   UNL d   1       8.084   6.420 -12.091  0.00  0.00     0.137 C 
ATOM     22  C   UNL d   1       8.549   5.719 -13.353  0.00  0.00     0.274 C 
BRANCH  20  23
ATOM     23  C   UNL d   1       9.569   6.953 -10.167  0.00  0.00     0.068 A 
ATOM     24  C   UNL d   1       9.504   6.844  -8.750  0.00  0.00     0.084 A 
ATOM     25  C   UNL d   1      10.145   7.808  -7.950  0.00  0.00     0.070 A 
ATOM     26 CL   UNL d   1       8.596   5.580  -8.014  0.00  0.00    -0.080 Cl
ATOM     27  C   UNL d   1      10.835   8.878  -8.531  0.00  0.00     0.012 A 
ATOM     28 CL   UNL d   1      10.082   7.700  -6.226  0.00  0.00    -0.081 Cl
ATOM     29  C   UNL d   1      10.881   8.995  -9.925  0.00  0.00     0.002 A 
ATOM     30  C   UNL d   1      10.226   8.062 -10.740  0.00  0.00     0.018 A 
ENDBRANCH  20  23
ENDBRANCH  16  17
ENDBRANCH   1  16
TORSDOF 8
