REMARK  7 active torsions:
REMARK  status: ('A' for Active; 'I' for Inactive)
REMARK    1  A    between atoms: C_2  and  C_3 
REMARK    2  A    between atoms: C_3  and  N_4 
REMARK    3  A    between atoms: C_8  and  C_9 
REMARK    4  A    between atoms: C_12  and  N_13 
REMARK    5  A    between atoms: N_13  and  S_14 
REMARK    6  A    between atoms: S_14  and  C_17 
REMARK    7  A    between atoms: C_20  and  C_21 
ROOT
ATOM      1  C   UNL d   1      10.721   7.306  -8.325  0.00  0.00    -0.021 A 
ATOM      2  C   UNL d   1       9.948   6.207  -7.894  0.00  0.00    -0.003 A 
ATOM      3  C   UNL d   1       9.120   5.501  -8.794  0.00  0.00     0.020 A 
ATOM      4  C   UNL d   1       9.062   5.880 -10.144  0.00  0.00     0.094 A 
ATOM      5  C   UNL d   1       9.813   6.989 -10.584  0.00  0.00     0.020 A 
ATOM      6  C   UNL d   1      10.622   7.692  -9.684  0.00  0.00    -0.003 A 
ENDROOT
BRANCH   4   7
ATOM      7  N   UNL d   1       8.277   5.137 -11.024  0.00  0.00    -0.158 NA
BRANCH   7   8
ATOM      8  S   UNL d   1       8.015   5.416 -12.705  0.00  0.00     0.285 S 
ATOM      9  O   UNL d   1       7.019   6.490 -12.791  0.00  0.00    -0.198 OA
ATOM     10  O   UNL d   1       9.351   5.552 -13.311  0.00  0.00    -0.198 OA
BRANCH   8  11
ATOM     11  C   UNL d   1       7.288   3.882 -13.245  0.00  0.00     0.105 A 
ATOM     12  C   UNL d   1       8.033   3.024 -14.076  0.00  0.00     0.013 A 
ATOM     13  C   UNL d   1       7.486   1.791 -14.476  0.00  0.00    -0.004 A 
ATOM     14  C   UNL d   1       6.197   1.408 -14.042  0.00  0.00    -0.022 A 
ATOM     15  C   UNL d   1       5.465   2.270 -13.191  0.00  0.00    -0.004 A 
ATOM     16  C   UNL d   1       6.002   3.515 -12.801  0.00  0.00     0.013 A 
BRANCH  14  17
ATOM     17  C   UNL d   1       5.593   0.083 -14.495  0.00  0.00     0.022 C 
ATOM     18  C   UNL d   1       6.304  -1.098 -13.828  0.00  0.00     0.005 C 
ATOM     19  C   UNL d   1       5.596  -0.063 -16.028  0.00  0.00     0.005 C 
ENDBRANCH  14  17
ENDBRANCH   8  11
ENDBRANCH   7   8
ENDBRANCH   4   7
BRANCH   1  20
ATOM     20  C   UNL d   1      11.617   8.088  -7.397  0.00  0.00     0.052 A 
ATOM     21  C   UNL d   1      11.670   9.559  -7.495  0.00  0.00     0.039 A 
ATOM     22  C   UNL d   1      11.545  10.133  -6.104  0.00  0.00     0.251 C 
ATOM     23  C   UNL d   1      12.875   8.756  -7.943  0.00  0.00     0.008 A 
ATOM     24  N   UNL d   1      11.900   9.019  -5.230  0.00  0.00     0.142 N 
ATOM     25  C   UNL d   1      11.442   7.797  -5.909  0.00  0.00     0.255 C 
BRANCH  24  26
ATOM     26  C   UNL d   1      11.386   9.186  -3.880  0.00  0.00     0.277 C 
BRANCH  26  27
ATOM     27  C   UNL d   1      11.748   8.013  -2.987  0.00  0.00     0.009 C 
ATOM     28  C   UNL d   1      12.431   8.131  -1.842  0.00  0.00    -0.003 C 
ENDBRANCH  26  27
ENDBRANCH  24  26
ENDBRANCH   1  20
TORSDOF 7
