REMARK  4 active torsions:
REMARK  status: ('A' for Active; 'I' for Inactive)
REMARK    1  A    between atoms: C_8  and  N_9 
REMARK    2  A    between atoms: N_9  and  C_10 
REMARK    3  A    between atoms: N_17  and  C_18 
REMARK    4  A    between atoms: C_18  and  C_19 
ROOT
ATOM      1  C   UNL d   1       6.571  -2.288 -18.621  0.00  0.00     0.031 C 
ATOM      2  C   UNL d   1       7.705  -1.744 -19.466  0.00  0.00    -0.022 A 
ATOM      3  C   UNL d   1       7.816  -2.097 -20.823  0.00  0.00    -0.003 A 
ATOM      4  C   UNL d   1       8.882  -1.596 -21.592  0.00  0.00     0.019 A 
ATOM      5  C   UNL d   1       9.838  -0.733 -21.019  0.00  0.00     0.086 A 
ATOM      6  C   UNL d   1       9.718  -0.338 -19.660  0.00  0.00     0.053 A 
ATOM      7  C   UNL d   1       8.650  -0.871 -18.894  0.00  0.00     0.000 A 
ATOM      8  C   UNL d   1      10.620   0.685 -19.019  0.00  0.00     0.159 C 
ATOM      9  N   UNL d   1      11.891   0.809 -19.232  0.00  0.00    -0.224 NA
ATOM     10  C   UNL d   1      12.654   0.048 -20.126  0.00  0.00     0.119 A 
ATOM     11  C   UNL d   1      14.006  -0.148 -19.791  0.00  0.00     0.024 A 
ATOM     12  C   UNL d   1      14.861  -0.808 -20.692  0.00  0.00     0.022 A 
ATOM     13  C   UNL d   1      14.333  -1.234 -21.921  0.00  0.00     0.101 A 
ATOM     14  N   UNL d   1      13.045  -1.049 -22.269  0.00  0.00    -0.224 NA
ATOM     15  C   UNL d   1      12.224  -0.433 -21.392  0.00  0.00     0.180 A 
ATOM     16  N   UNL d   1      10.907  -0.336 -21.822  0.00  0.00    -0.225 NA
ENDROOT
BRANCH   8  17
ATOM     17  N   UNL d   1       9.941   1.550 -18.171  0.00  0.00    -0.255 NA
BRANCH  17  18
ATOM     18  C   UNL d   1      10.532   2.659 -17.436  0.00  0.00     0.109 C 
ATOM     19  C   UNL d   1       9.442   3.626 -16.932  0.00  0.00     0.058 C 
ATOM     20  C   UNL d   1       9.988   4.626 -15.882  0.00  0.00     0.222 C 
ATOM     21  C   UNL d   1      11.220   5.390 -16.390  0.00  0.00     0.035 C 
ATOM     22  N   UNL d   1      10.553   3.918 -14.736  0.00  0.00     0.138 N 
ATOM     23  C   UNL d   1      12.407   4.501 -15.993  0.00  0.00     0.035 C 
ATOM     24  C   UNL d   1      11.760   3.303 -15.283  0.00  0.00     0.222 C 
ATOM     25  C   UNL d   1      11.417   2.164 -16.270  0.00  0.00     0.058 C 
BRANCH  22  26
ATOM     26  C   UNL d   1       9.658   3.032 -13.989  0.00  0.00     0.277 C 
BRANCH  26  27
ATOM     27  C   UNL d   1       8.498   3.767 -13.346  0.00  0.00     0.011 A 
ATOM     28  C   UNL d   1       8.728   4.630 -12.254  0.00  0.00    -0.002 A 
ATOM     29  C   UNL d   1       7.651   5.313 -11.653  0.00  0.00    -0.000 A 
ATOM     30  C   UNL d   1       6.342   5.133 -12.140  0.00  0.00    -0.000 A 
ATOM     31  C   UNL d   1       6.106   4.269 -13.226  0.00  0.00    -0.000 A 
ATOM     32  C   UNL d   1       7.184   3.583 -13.823  0.00  0.00    -0.002 A 
ENDBRANCH  26  27
ENDBRANCH  22  26
ENDBRANCH  17  18
ENDBRANCH   8  17
TORSDOF 4
