REMARK  7 active torsions:
REMARK  status: ('A' for Active; 'I' for Inactive)
REMARK    1  A    between atoms: C_7  and  C_8 
REMARK    2  A    between atoms: C_8  and  N_9 
REMARK    3  A    between atoms: N_9  and  C_10 
REMARK    4  A    between atoms: C_10  and  C_11 
REMARK    5  A    between atoms: C_11  and  C_12 
REMARK    6  A    between atoms: C_12  and  O_13 
REMARK    7  A    between atoms: O_13  and  C_14 
ROOT
ATOM      1  C   UNL d   1       7.034   0.520 -14.978  0.00  0.00     0.031 C 
ATOM      2  C   UNL d   1       7.608   1.873 -14.613  0.00  0.00    -0.022 A 
ATOM      3  C   UNL d   1       8.894   2.250 -15.057  0.00  0.00    -0.003 A 
ATOM      4  C   UNL d   1       9.438   3.488 -14.669  0.00  0.00     0.019 A 
ATOM      5  C   UNL d   1       8.731   4.364 -13.827  0.00  0.00     0.083 A 
ATOM      6  N   UNL d   1       9.297   5.528 -13.446  0.00  0.00    -0.248 NA
ATOM      7  C   UNL d   1       8.590   6.383 -12.679  0.00  0.00     0.097 A 
ATOM      8  C   UNL d   1       7.300   6.083 -12.199  0.00  0.00     0.044 A 
ATOM      9  C   UNL d   1       6.720   4.852 -12.548  0.00  0.00     0.134 A 
ATOM     10  O   UNL d   1       5.502   4.509 -12.037  0.00  0.00    -0.190 OA
ATOM     11  C   UNL d   1       7.428   3.987 -13.398  0.00  0.00     0.043 A 
ATOM     12  C   UNL d   1       6.869   2.757 -13.802  0.00  0.00    -0.001 A 
ENDROOT
BRANCH   7  13
ATOM     13  C   UNL d   1       9.279   7.707 -12.361  0.00  0.00     0.336 C 
BRANCH  13  14
ATOM     14  N   UNL d   1       9.427   7.979 -10.938  0.00  0.00     0.346 N 
BRANCH  14  15
ATOM     15  C   UNL d   1      10.110   6.935 -10.206  0.00  0.00     0.293 C 
BRANCH  15  16
ATOM     16  C   UNL d   1       9.796   7.146  -8.721  0.00  0.00     0.071 C 
BRANCH  16  17
ATOM     17  C   UNL d   1      10.845   6.425  -7.863  0.00  0.00     0.151 C 
BRANCH  17  18
ATOM     18  O   UNL d   1      10.514   6.408  -6.482  0.00  0.00    -0.331 OA
BRANCH  18  19
ATOM     19  C   UNL d   1      11.061   7.378  -5.689  0.00  0.00     0.094 A 
ATOM     20  C   UNL d   1      11.243   8.720  -6.100  0.00  0.00     0.024 A 
ATOM     21  C   UNL d   1      11.797   9.653  -5.214  0.00  0.00     0.002 A 
ATOM     22  C   UNL d   1      12.200   9.262  -3.917  0.00  0.00     0.000 A 
ATOM     23  C   UNL d   1      12.036   7.923  -3.509  0.00  0.00     0.002 A 
ATOM     24  C   UNL d   1      11.466   6.990  -4.392  0.00  0.00     0.024 A 
ENDBRANCH  18  19
ENDBRANCH  17  18
ENDBRANCH  16  17
ENDBRANCH  15  16
ENDBRANCH  14  15
ENDBRANCH  13  14
ENDBRANCH   7  13
TORSDOF 7
