REMARK  7 active torsions:
REMARK  status: ('A' for Active; 'I' for Inactive)
REMARK    1  A    between atoms: C_2  and  C_3 
REMARK    2  A    between atoms: C_3  and  N_4 
REMARK    3  A    between atoms: N_4  and  C_5 
REMARK    4  A    between atoms: N_4  and  C_24 
REMARK    5  A    between atoms: C_5  and  C_6 
REMARK    6  A    between atoms: C_6  and  N_7 
REMARK    7  A    between atoms: N_10  and  C_11 
ROOT
ATOM      1  N   UNL d   1       9.268   5.624  -9.830  0.00  0.00     0.143 N 
ATOM      2  C   UNL d   1       9.866   6.931 -10.153  0.00  0.00     0.274 C 
ATOM      3  C   UNL d   1      10.990   7.315  -9.201  0.00  0.00     0.137 C 
ATOM      4  N   UNL d   1      10.539   7.148  -7.819  0.00  0.00    -0.344 N 
ATOM      5  C   UNL d   1       9.835   5.941  -7.456  0.00  0.00     0.137 C 
ATOM      6  C   UNL d   1       8.735   5.667  -8.469  0.00  0.00     0.274 C 
ENDROOT
BRANCH   1   7
ATOM      7  C   UNL d   1       8.203   5.325 -10.755  0.00  0.00     0.286 C 
BRANCH   7   8
ATOM      8  C   UNL d   1       8.695   4.905 -12.146  0.00  0.00     0.285 C 
BRANCH   8   9
ATOM      9  N   UNL d   1       7.664   4.622 -13.151  0.00  0.00     0.137 N 
BRANCH   9  10
ATOM     10  C   UNL d   1       6.584   3.744 -12.674  0.00  0.00     0.250 C 
BRANCH  10  11
ATOM     11  C   UNL d   1       5.433   3.432 -13.654  0.00  0.00     0.035 C 
ATOM     12  C   UNL d   1       4.297   4.382 -13.440  0.00  0.00     0.002 C 
ENDBRANCH  10  11
ENDBRANCH   9  10
BRANCH   9  13
ATOM     13  C   UNL d   1       8.263   4.080 -14.374  0.00  0.00     0.224 C 
ATOM     14  C   UNL d   1       8.993   5.143 -15.229  0.00  0.00     0.059 C 
ATOM     15  C   UNL d   1       9.579   4.597 -16.533  0.00  0.00    -0.022 A 
ATOM     16  C   UNL d   1       9.738   3.208 -16.728  0.00  0.00    -0.001 A 
ATOM     17  C   UNL d   1       9.968   5.507 -17.539  0.00  0.00    -0.004 A 
ATOM     18  C   UNL d   1       9.286   2.208 -15.674  0.00  0.00     0.030 C 
ATOM     19  C   UNL d   1      10.311   2.744 -17.929  0.00  0.00     0.127 A 
ATOM     20  C   UNL d   1       9.093   2.815 -14.274  0.00  0.00     0.038 C 
ATOM     21  O   UNL d   1      10.479   1.406 -18.146  0.00  0.00    -0.191 OA
ATOM     22  C   UNL d   1      10.723   3.651 -18.924  0.00  0.00     0.027 A 
ATOM     23  C   UNL d   1      10.544   5.034 -18.730  0.00  0.00     0.002 A 
ENDBRANCH   9  13
ENDBRANCH   8   9
ENDBRANCH   7   8
ENDBRANCH   1   7
BRANCH   4  24
ATOM     24  C   UNL d   1      10.771   8.139  -6.847  0.00  0.00     0.059 C 
ATOM     25  C   UNL d   1      11.176   7.915  -5.507  0.00  0.00     0.035 A 
ATOM     26  C   UNL d   1      11.328   9.023  -4.623  0.00  0.00     0.108 A 
ATOM     27  C   UNL d   1      11.474   6.634  -5.038  0.00  0.00     0.003 A 
ATOM     28  N   UNL d   1      11.072  10.273  -5.038  0.00  0.00    -0.242 NA
ATOM     29  C   UNL d   1      11.735   8.807  -3.299  0.00  0.00     0.148 A 
ATOM     30  C   UNL d   1      10.792  10.422  -6.327  0.00  0.00     0.101 C 
ATOM     31  C   UNL d   1      10.569   9.440  -7.248  0.00  0.00     0.038 C 
ATOM     32  O   UNL d   1      11.861   9.847  -2.420  0.00  0.00    -0.189 OA
ATOM     33  C   UNL d   1      12.007   7.524  -2.832  0.00  0.00     0.029 A 
ATOM     34  C   UNL d   1      11.876   6.454  -3.721  0.00  0.00     0.002 A 
ENDBRANCH   4  24
TORSDOF 7
