REMARK  8 active torsions:
REMARK  status: ('A' for Active; 'I' for Inactive)
REMARK    1  A    between atoms: N_14  and  C_15 
REMARK    2  A    between atoms: C_15  and  C_16 
REMARK    3  A    between atoms: C_16  and  C_17 
REMARK    4  A    between atoms: C_17  and  C_18 
REMARK    5  A    between atoms: C_18  and  C_19 
REMARK    6  A    between atoms: C_19  and  C_20 
REMARK    7  A    between atoms: C_20  and  N_21 
REMARK    8  A    between atoms: N_24  and  C_25 
ROOT
ATOM      1  C   UNL d   1       8.239   5.052 -13.087  0.00  0.00     0.002 C 
ENDROOT
BRANCH   1   2
ATOM      2  C   UNL d   1       9.442   4.444 -13.824  0.00  0.00     0.025 C 
BRANCH   2   3
ATOM      3  C   UNL d   1       9.179   4.268 -15.321  0.00  0.00     0.118 C 
BRANCH   3   4
ATOM      4  N   UNL d   1      10.319   3.722 -16.041  0.00  0.00    -0.254 N 
ATOM      5  S   UNL d   1      10.313   2.177 -16.803  0.00  0.00     0.268 S 
ATOM      6  O   UNL d   1       9.238   2.182 -17.811  0.00  0.00    -0.200 OA
ATOM      7  O   UNL d   1      10.449   1.155 -15.757  0.00  0.00    -0.200 OA
ATOM      8  C   UNL d   1      11.882   2.562 -17.544  0.00  0.00     0.105 A 
ATOM      9  C   UNL d   1      12.326   3.848 -17.198  0.00  0.00     0.029 A 
ATOM     10  C   UNL d   1      12.677   1.770 -18.395  0.00  0.00     0.013 A 
ATOM     11  C   UNL d   1      13.532   4.405 -17.656  0.00  0.00     0.002 A 
ATOM     12  C   UNL d   1      11.425   4.513 -16.350  0.00  0.00     0.071 A 
ATOM     13  C   UNL d   1      14.322   3.595 -18.503  0.00  0.00     0.000 A 
ATOM     14  C   UNL d   1      13.836   5.716 -17.231  0.00  0.00     0.000 A 
ATOM     15  C   UNL d   1      13.898   2.296 -18.868  0.00  0.00     0.001 A 
ATOM     16  C   UNL d   1      12.943   6.425 -16.397  0.00  0.00     0.002 A 
ATOM     17  C   UNL d   1      11.741   5.831 -15.962  0.00  0.00     0.018 A 
ENDBRANCH   3   4
ENDBRANCH   2   3
ENDBRANCH   1   2
BRANCH   1  18
ATOM     18  C   UNL d   1       8.345   4.915 -11.554  0.00  0.00     0.002 C 
BRANCH  18  19
ATOM     19  C   UNL d   1       9.055   6.087 -10.863  0.00  0.00     0.035 C 
BRANCH  19  20
ATOM     20  C   UNL d   1       8.852   6.040  -9.345  0.00  0.00     0.250 C 
BRANCH  20  21
ATOM     21  N   UNL d   1       9.869   6.851  -8.684  0.00  0.00     0.141 N 
ATOM     22  C   UNL d   1       9.251   7.904  -7.863  0.00  0.00     0.274 C 
ATOM     23  C   UNL d   1      10.338   8.717  -7.137  0.00  0.00     0.137 C 
ATOM     24  N   UNL d   1      11.163   7.832  -6.327  0.00  0.00    -0.343 N 
ATOM     25  C   UNL d   1      11.737   6.723  -7.065  0.00  0.00     0.137 C 
ATOM     26  C   UNL d   1      10.617   5.977  -7.792  0.00  0.00     0.274 C 
BRANCH  24  27
ATOM     27  C   UNL d   1      11.453   8.066  -4.974  0.00  0.00     0.084 A 
ATOM     28  C   UNL d   1      11.578   9.380  -4.462  0.00  0.00     0.155 A 
ATOM     29  C   UNL d   1      11.865   9.583  -3.106  0.00  0.00     0.031 A 
ATOM     30  F   UNL d   1      11.423  10.465  -5.262  0.00  0.00    -0.203 F 
ATOM     31  C   UNL d   1      12.049   8.489  -2.242  0.00  0.00     0.002 A 
ATOM     32  C   UNL d   1      11.915   7.184  -2.731  0.00  0.00     0.002 A 
ATOM     33  C   UNL d   1      11.630   6.970  -4.091  0.00  0.00     0.019 A 
ENDBRANCH  24  27
ENDBRANCH  20  21
ENDBRANCH  19  20
ENDBRANCH  18  19
ENDBRANCH   1  18
TORSDOF 8
