REMARK  9 active torsions:
REMARK  status: ('A' for Active; 'I' for Inactive)
REMARK    1  A    between atoms: O_2  and  C_3 
REMARK    2  A    between atoms: C_7  and  C_8 
REMARK    3  A    between atoms: C_8  and  C_9 
REMARK    4  A    between atoms: C_9  and  C_10 
REMARK    5  A    between atoms: C_15  and  O_16 
REMARK    6  A    between atoms: O_16  and  C_17 
REMARK    7  A    between atoms: C_17  and  C_18 
REMARK    8  A    between atoms: C_18  and  N_19 
REMARK    9  A    between atoms: N_22  and  C_23 
ROOT
ATOM      1  C   UNL d   1      11.215   6.494 -19.813  0.00  0.00     0.001 A 
ATOM      2  C   UNL d   1      10.767   7.136 -20.987  0.00  0.00    -0.002 A 
ATOM      3  C   UNL d   1       9.400   7.137 -21.328  0.00  0.00    -0.000 A 
ATOM      4  C   UNL d   1       8.472   6.503 -20.484  0.00  0.00     0.002 A 
ATOM      5  C   UNL d   1       8.917   5.863 -19.318  0.00  0.00     0.024 A 
ATOM      6  C   UNL d   1      10.291   5.831 -18.973  0.00  0.00     0.090 A 
ENDROOT
BRANCH   6   7
ATOM      7  O   UNL d   1      10.777   5.165 -17.868  0.00  0.00    -0.329 OA
BRANCH   7   8
ATOM      8  C   UNL d   1       9.842   4.679 -16.918  0.00  0.00     0.184 C 
BRANCH   8   9
ATOM      9  C   UNL d   1      10.605   4.187 -15.671  0.00  0.00     0.283 C 
BRANCH   9  10
ATOM     10  N   UNL d   1       9.782   4.093 -14.461  0.00  0.00     0.144 N 
ATOM     11  C   UNL d   1      10.633   3.680 -13.337  0.00  0.00     0.274 C 
ATOM     12  C   UNL d   1       9.774   3.583 -12.047  0.00  0.00     0.137 C 
ATOM     13  N   UNL d   1       9.089   4.828 -11.766  0.00  0.00    -0.344 N 
ATOM     14  C   UNL d   1       8.346   5.380 -12.860  0.00  0.00     0.137 C 
ATOM     15  C   UNL d   1       9.238   5.403 -14.097  0.00  0.00     0.274 C 
BRANCH  13  16
ATOM     16  C   UNL d   1       9.230   5.521 -10.553  0.00  0.00     0.057 A 
ATOM     17  C   UNL d   1       9.855   6.788 -10.519  0.00  0.00     0.028 A 
ATOM     18  C   UNL d   1       9.973   7.486  -9.301  0.00  0.00     0.059 A 
ATOM     19  C   UNL d   1       9.451   6.936  -8.119  0.00  0.00     0.011 A 
ATOM     20 CL   UNL d   1      10.753   9.023  -9.255  0.00  0.00    -0.082 Cl
ATOM     21  C   UNL d   1       8.802   5.686  -8.159  0.00  0.00     0.002 A 
ATOM     22  C   UNL d   1       8.715   4.968  -9.365  0.00  0.00     0.017 A 
ENDBRANCH  13  16
ENDBRANCH   9  10
ENDBRANCH   8   9
ENDBRANCH   7   8
ENDBRANCH   6   7
BRANCH   1  23
ATOM     23  C   UNL d   1      12.700   6.509 -19.482  0.00  0.00     0.033 C 
BRANCH  23  24
ATOM     24  C   UNL d   1      13.148   7.833 -18.841  0.00  0.00     0.031 C 
BRANCH  24  25
ATOM     25  C   UNL d   1      14.661   7.968 -18.787  0.00  0.00    -0.020 A 
ATOM     26  C   UNL d   1      15.292   9.036 -19.454  0.00  0.00    -0.004 A 
ATOM     27  C   UNL d   1      16.694   9.155 -19.430  0.00  0.00     0.002 A 
ATOM     28  C   UNL d   1      17.470   8.204 -18.739  0.00  0.00     0.024 A 
ATOM     29  C   UNL d   1      16.856   7.133 -18.059  0.00  0.00     0.094 A 
ATOM     30  C   UNL d   1      15.443   7.023 -18.085  0.00  0.00     0.020 A 
BRANCH  29  31
ATOM     31  O   UNL d   1      17.686   6.256 -17.392  0.00  0.00    -0.328 OA
ATOM     32  C   UNL d   1      17.081   5.275 -16.565  0.00  0.00     0.181 C 
ENDBRANCH  29  31
ENDBRANCH  24  25
ENDBRANCH  23  24
ENDBRANCH   1  23
TORSDOF 9
