REMARK  6 active torsions:
REMARK  status: ('A' for Active; 'I' for Inactive)
REMARK    1  A    between atoms: O_2  and  C_3 
REMARK    2  A    between atoms: C_6  and  N_7 
REMARK    3  A    between atoms: N_10  and  C_11 
REMARK    4  A    between atoms: C_11  and  C_12 
REMARK    5  A    between atoms: C_12  and  C_13 
REMARK    6  A    between atoms: C_13  and  N_14 
ROOT
ATOM      1  N   UNL d   1      10.866   7.077  -8.065  0.00  0.00    -0.344 N 
ATOM      2  C   UNL d   1      10.278   5.744  -8.104  0.00  0.00     0.137 C 
ATOM      3  C   UNL d   1       9.081   5.692  -9.063  0.00  0.00     0.274 C 
ATOM      4  N   UNL d   1       9.476   6.153 -10.392  0.00  0.00     0.141 N 
ATOM      5  C   UNL d   1       9.935   7.546 -10.284  0.00  0.00     0.274 C 
ATOM      6  C   UNL d   1      11.173   7.646  -9.375  0.00  0.00     0.137 C 
ENDROOT
BRANCH   4   7
ATOM      7  C   UNL d   1       8.322   6.092 -11.288  0.00  0.00     0.252 C 
BRANCH   7   8
ATOM      8  C   UNL d   1       8.127   4.688 -11.871  0.00  0.00     0.060 C 
BRANCH   8   9
ATOM      9  C   UNL d   1       7.345   4.727 -13.194  0.00  0.00     0.111 C 
BRANCH   9  10
ATOM     10  N   UNL d   1       7.356   3.393 -13.833  0.00  0.00    -0.299 N 
ATOM     11  C   UNL d   1       8.569   2.916 -14.469  0.00  0.00     0.058 A 
ATOM     12  C   UNL d   1       8.705   1.543 -14.818  0.00  0.00    -0.006 A 
ATOM     13  C   UNL d   1       9.652   3.788 -14.750  0.00  0.00     0.017 A 
ATOM     14  C   UNL d   1       7.580   0.576 -14.473  0.00  0.00     0.038 C 
ATOM     15  C   UNL d   1       9.881   1.066 -15.434  0.00  0.00    -0.003 A 
ATOM     16  C   UNL d   1       6.220   1.276 -14.486  0.00  0.00     0.093 C 
ATOM     17  C   UNL d   1       6.249   2.621 -13.738  0.00  0.00     0.238 C 
ATOM     18  O   UNL d   1       5.247   2.947 -13.100  0.00  0.00    -0.272 OA
ATOM     19  C   UNL d   1      10.945   1.951 -15.721  0.00  0.00    -0.000 A 
ATOM     20  C   UNL d   1      10.823   3.307 -15.370  0.00  0.00     0.002 A 
ENDBRANCH   9  10
ENDBRANCH   8   9
ENDBRANCH   7   8
ENDBRANCH   4   7
BRANCH   1  21
ATOM     21  C   UNL d   1      11.058   7.776  -6.851  0.00  0.00     0.056 A 
ATOM     22  C   UNL d   1      11.288   7.079  -5.640  0.00  0.00     0.019 A 
ATOM     23  C   UNL d   1      11.500   7.781  -4.437  0.00  0.00     0.026 A 
ATOM     24  C   UNL d   1      11.477   9.197  -4.412  0.00  0.00     0.094 A 
ATOM     25  C   UNL d   1      11.244   9.888  -5.615  0.00  0.00     0.026 A 
ATOM     26  C   UNL d   1      11.033   9.188  -6.816  0.00  0.00     0.019 A 
BRANCH  24  27
ATOM     27  O   UNL d   1      11.652   9.950  -3.276  0.00  0.00    -0.328 OA
ATOM     28  C   UNL d   1      12.185   9.297  -2.133  0.00  0.00     0.181 C 
ENDBRANCH  24  27
ENDBRANCH   1  21
TORSDOF 6
