REMARK  6 active torsions:
REMARK  status: ('A' for Active; 'I' for Inactive)
REMARK    1  A    between atoms: C_6  and  O_7 
REMARK    2  A    between atoms: O_7  and  C_8 
REMARK    3  A    between atoms: C_8  and  C_9 
REMARK    4  A    between atoms: C_9  and  N_10 
REMARK    5  A    between atoms: C_13  and  C_14 
REMARK    6  A    between atoms: C_14  and  C_15 
ROOT
ATOM      1  N   UNL d   1       8.524   5.262 -11.626  0.00  0.00     0.140 N 
ATOM      2  C   UNL d   1       9.563   6.162 -12.114  0.00  0.00     0.250 C 
ATOM      3  C   UNL d   1       9.686   7.364 -11.175  0.00  0.00     0.036 C 
ATOM      4  C   UNL d   1      10.052   6.907  -9.761  0.00  0.00     0.008 C 
ATOM      5  C   UNL d   1       9.015   5.857  -9.290  0.00  0.00     0.036 C 
ATOM      6  C   UNL d   1       8.899   4.724 -10.307  0.00  0.00     0.250 C 
ENDROOT
BRANCH   1   7
ATOM      7  C   UNL d   1       8.342   4.151 -12.534  0.00  0.00     0.283 C 
BRANCH   7   8
ATOM      8  C   UNL d   1       8.028   4.581 -13.984  0.00  0.00     0.184 C 
BRANCH   8   9
ATOM      9  O   UNL d   1       8.693   3.683 -14.857  0.00  0.00    -0.329 OA
BRANCH   9  10
ATOM     10  C   UNL d   1       8.133   2.454 -15.138  0.00  0.00     0.096 A 
ATOM     11  C   UNL d   1       8.758   1.658 -16.126  0.00  0.00     0.040 A 
ATOM     12  C   UNL d   1       9.928   2.104 -16.790  0.00  0.00     0.005 A 
ATOM     13  C   UNL d   1       8.221   0.392 -16.489  0.00  0.00     0.084 A 
ATOM     14  C   UNL d   1      10.517   1.281 -17.767  0.00  0.00     0.015 A 
ATOM     15  C   UNL d   1       9.916   0.039 -18.042  0.00  0.00     0.059 A 
ATOM     16  C   UNL d   1      10.496  -0.896 -19.076  0.00  0.00     0.052 C 
ATOM     17  N   UNL d   1       8.800  -0.395 -17.424  0.00  0.00    -0.250 NA
ATOM     18  C   UNL d   1       7.048  -0.035 -15.837  0.00  0.00     0.031 A 
ATOM     19  C   UNL d   1       6.427   0.734 -14.848  0.00  0.00     0.061 A 
ATOM     20  C   UNL d   1       6.958   1.981 -14.506  0.00  0.00     0.036 A 
ATOM     21 CL   UNL d   1       5.028   0.144 -14.027  0.00  0.00    -0.082 Cl
ENDBRANCH   9  10
ENDBRANCH   8   9
ENDBRANCH   7   8
ENDBRANCH   1   7
BRANCH   4  22
ATOM     22  C   UNL d   1      10.136   8.106  -8.798  0.00  0.00     0.029 C 
BRANCH  22  23
ATOM     23  C   UNL d   1      10.751   7.774  -7.447  0.00  0.00     0.007 A 
ATOM     24  C   UNL d   1      10.779   8.751  -6.432  0.00  0.00     0.156 A 
ATOM     25  C   UNL d   1      11.334   8.417  -5.173  0.00  0.00     0.134 A 
ATOM     26  F   UNL d   1      10.338   9.991  -6.679  0.00  0.00    -0.203 F 
ATOM     27  C   UNL d   1      11.825   7.133  -4.905  0.00  0.00     0.115 A 
ATOM     28  N   UNL d   1      11.464   9.399  -4.191  0.00  0.00    -0.205 NA
ATOM     29  C   UNL d   1      11.851   6.203  -5.939  0.00  0.00     0.026 A 
ATOM     30  O   UNL d   1      12.386   6.795  -3.693  0.00  0.00    -0.319 OA
ATOM     31  C   UNL d   1      11.307   6.509  -7.182  0.00  0.00     0.000 A 
ATOM     32  C   UNL d   1      11.998   7.593  -2.585  0.00  0.00     0.238 C 
ATOM     33  C   UNL d   1      11.809   9.074  -2.940  0.00  0.00     0.287 C 
ATOM     34  O   UNL d   1      11.866   9.916  -2.071  0.00  0.00    -0.267 OA
ENDBRANCH  22  23
ENDBRANCH   4  22
TORSDOF 6
