REMARK  3 active torsions:
REMARK  status: ('A' for Active; 'I' for Inactive)
REMARK    1  A    between atoms: C_10  and  N_11 
REMARK    2  A    between atoms: N_14  and  C_15 
REMARK    3  A    between atoms: C_15  and  C_16 
ROOT
ATOM      1  N   UNL d   1      10.918   7.668  -6.548  0.00  0.00     0.153 N 
ATOM      2  C   UNL d   1       9.492   7.960  -6.578  0.00  0.00     0.286 C 
ATOM      3  C   UNL d   1       8.699   6.866  -7.238  0.00  0.00     0.286 C 
ATOM      4  N   UNL d   1       9.119   6.675  -8.620  0.00  0.00     0.146 N 
ATOM      5  C   UNL d   1      10.526   6.363  -8.606  0.00  0.00     0.286 C 
ATOM      6  C   UNL d   1      11.358   7.470  -7.917  0.00  0.00     0.286 C 
ENDROOT
BRANCH   1   7
ATOM      7  C   UNL d   1      11.737   8.649  -5.826  0.00  0.00     0.323 A 
ATOM      8  C   UNL d   1      11.156  10.030  -5.538  0.00  0.00     0.291 A 
ATOM      9  O   UNL d   1      11.034  10.799  -6.461  0.00  0.00    -0.268 OA
ATOM     10  N   UNL d   1      11.040  10.328  -4.242  0.00  0.00    -0.210 NA
ATOM     11  C   UNL d   1      11.600   9.294  -3.535  0.00  0.00     0.083 A 
ATOM     12  C   UNL d   1      11.973   8.315  -4.429  0.00  0.00     0.036 A 
ATOM     13  C   UNL d   1      11.874   9.214  -2.170  0.00  0.00     0.019 A 
ATOM     14  C   UNL d   1      12.512   7.140  -3.940  0.00  0.00    -0.000 A 
ATOM     15  C   UNL d   1      12.701   6.981  -2.549  0.00  0.00    -0.000 A 
ATOM     16  C   UNL d   1      12.445   8.046  -1.660  0.00  0.00     0.002 A 
ENDBRANCH   1   7
BRANCH   4  17
ATOM     17  C   UNL d   1       8.310   5.670  -9.294  0.00  0.00     0.277 C 
BRANCH  17  18
ATOM     18  C   UNL d   1       8.637   5.461 -10.760  0.00  0.00     0.011 A 
ATOM     19  C   UNL d   1       8.142   6.303 -11.785  0.00  0.00    -0.002 A 
ATOM     20  C   UNL d   1       8.493   6.064 -13.114  0.00  0.00     0.011 A 
ATOM     21  C   UNL d   1       9.342   5.001 -13.464  0.00  0.00     0.058 A 
ATOM     22  C   UNL d   1       9.825   4.156 -12.454  0.00  0.00     0.011 A 
ATOM     23 CL   UNL d   1       9.839   4.772 -15.100  0.00  0.00    -0.082 Cl
ATOM     24  C   UNL d   1       9.465   4.387 -11.109  0.00  0.00    -0.002 A 
ENDBRANCH  17  18
ENDBRANCH   4  17
TORSDOF 3
