REMARK  12 active torsions:
REMARK  status: ('A' for Active; 'I' for Inactive)
REMARK    1  A    between atoms: O_2  and  C_3 
REMARK    2  A    between atoms: C_8  and  N_9 
REMARK    3  A    between atoms: N_12  and  C_13 
REMARK    4  A    between atoms: C_13  and  C_14 
REMARK    5  A    between atoms: C_14  and  C_15 
REMARK    6  A    between atoms: C_15  and  C_16 
REMARK    7  A    between atoms: C_16  and  C_17 
REMARK    8  A    between atoms: C_17  and  C_18 
REMARK       I    between atoms: C_18  and  N_20 
REMARK    9  A    between atoms: N_20  and  C_21 
REMARK   10  A    between atoms: C_21  and  C_22 
REMARK   11  A    between atoms: C_25  and  O_26 
REMARK   12  A    between atoms: O_26  and  S_27 
ROOT
ATOM      1  C   UNL d   1       6.943   0.578 -14.766  0.00  0.00     0.003 C 
ENDROOT
BRANCH   1   2
ATOM      2  C   UNL d   1       8.426   0.512 -14.405  0.00  0.00     0.035 C 
BRANCH   2   3
ATOM      3  C   UNL d   1       9.187   1.724 -14.980  0.00  0.00     0.250 C 
BRANCH   3   4
ATOM      4  N   UNL d   1       9.694   1.441 -16.320  0.00  0.00     0.141 N 
ATOM      5  C   UNL d   1       9.899   2.701 -17.045  0.00  0.00     0.274 C 
ATOM      6  C   UNL d   1      10.414   2.434 -18.474  0.00  0.00     0.137 C 
ATOM      7  N   UNL d   1      11.622   1.624 -18.416  0.00  0.00    -0.343 N 
ATOM      8  C   UNL d   1      11.511   0.407 -17.624  0.00  0.00     0.137 C 
ATOM      9  C   UNL d   1      10.977   0.734 -16.222  0.00  0.00     0.274 C 
BRANCH   7  10
ATOM     10  C   UNL d   1      12.820   1.975 -19.079  0.00  0.00     0.079 A 
ATOM     11  C   UNL d   1      13.611   0.978 -19.694  0.00  0.00     0.110 A 
ATOM     12  C   UNL d   1      14.837   1.360 -20.323  0.00  0.00     0.026 A 
ATOM     13  C   UNL d   1      15.230   2.706 -20.350  0.00  0.00     0.002 A 
ATOM     14  C   UNL d   1      14.436   3.691 -19.749  0.00  0.00     0.002 A 
ATOM     15  C   UNL d   1      13.226   3.325 -19.114  0.00  0.00     0.019 A 
BRANCH  11  16
ATOM     16  O   UNL d   1      13.155  -0.321 -19.695  0.00  0.00    -0.327 OA
ATOM     17  C   UNL d   1      13.980  -1.351 -20.211  0.00  0.00     0.181 C 
ENDBRANCH  11  16
ENDBRANCH   7  10
ENDBRANCH   3   4
ENDBRANCH   2   3
ENDBRANCH   1   2
BRANCH   1  18
ATOM     18  C   UNL d   1       6.128  -0.596 -14.172  0.00  0.00     0.010 C 
BRANCH  18  19
ATOM     19  C   UNL d   1       4.681  -0.744 -14.699  0.00  0.00     0.090 C 
BRANCH  19  20
ATOM     20  C   UNL d   1       4.582  -0.868 -16.220  0.00  0.00     0.252 C 
ATOM     21  O   UNL d   1       5.055   0.030 -16.907  0.00  0.00    -0.271 OA
ATOM     22  N   UNL d   1       3.934  -1.938 -16.718  0.00  0.00    -0.233 NA
BRANCH  22  23
ATOM     23  C   UNL d   1       3.606  -2.189 -18.118  0.00  0.00     0.155 C 
BRANCH  23  24
ATOM     24  C   UNL d   1       4.622  -1.677 -19.133  0.00  0.00     0.002 C 
ATOM     25  C   UNL d   1       5.780  -2.415 -19.466  0.00  0.00    -0.000 C 
ATOM     26  C   UNL d   1       6.737  -1.860 -20.348  0.00  0.00     0.025 C 
ATOM     27  C   UNL d   1       6.580  -0.525 -20.826  0.00  0.00     0.113 C 
ATOM     28  C   UNL d   1       5.481   0.224 -20.370  0.00  0.00     0.025 C 
ATOM     29  C   UNL d   1       4.463  -0.365 -19.638  0.00  0.00    -0.000 C 
BRANCH  27  30
ATOM     30  O   UNL d   1       7.490  -0.019 -21.719  0.00  0.00    -0.230 OA
BRANCH  30  31
ATOM     31  S   UNL d   1       7.411   1.635 -22.117  0.00  0.00     0.285 S 
ATOM     32  C   UNL d   1       5.713   1.762 -22.923  0.00  0.00     0.172 C 
ATOM     33  O   UNL d   1       7.463   2.391 -20.858  0.00  0.00    -0.197 OA
ATOM     34  O   UNL d   1       8.437   1.886 -23.139  0.00  0.00    -0.197 OA
ENDBRANCH  30  31
ENDBRANCH  27  30
ENDBRANCH  23  24
ENDBRANCH  22  23
ENDBRANCH  19  20
ENDBRANCH  18  19
ENDBRANCH   1  18
TORSDOF 12
