REMARK  3 active torsions:
REMARK  status: ('A' for Active; 'I' for Inactive)
REMARK    1  A    between atoms: C_8  and  C_9 
REMARK    2  A    between atoms: C_9  and  N_10 
REMARK    3  A    between atoms: N_13  and  C_14 
ROOT
ATOM      1  N   UNL d   1       9.936  -0.411 -16.575  0.00  0.00    -0.191 NA
ATOM      2  C   UNL d   1       9.445   0.424 -15.950  0.00  0.00     0.101 C 
ATOM      3  C   UNL d   1       8.828   1.485 -15.163  0.00  0.00     0.068 A 
ATOM      4  C   UNL d   1       7.423   1.592 -15.096  0.00  0.00     0.012 A 
ATOM      5  C   UNL d   1       6.832   2.616 -14.332  0.00  0.00     0.020 A 
ATOM      6  C   UNL d   1       7.652   3.528 -13.645  0.00  0.00     0.081 A 
ATOM      7  N   UNL d   1       7.371   4.601 -12.827  0.00  0.00    -0.248 NA
ATOM      8  C   UNL d   1       8.541   5.177 -12.365  0.00  0.00     0.092 A 
ATOM      9  C   UNL d   1       9.610   4.495 -12.886  0.00  0.00     0.018 A 
ATOM     10  C   UNL d   1       9.074   3.442 -13.695  0.00  0.00     0.019 A 
ATOM     11  C   UNL d   1       9.640   2.406 -14.472  0.00  0.00     0.012 A 
ENDROOT
BRANCH   8  12
ATOM     12  C   UNL d   1       8.519   6.373 -11.482  0.00  0.00     0.296 C 
BRANCH  12  13
ATOM     13  N   UNL d   1       9.618   6.406 -10.520  0.00  0.00     0.147 N 
ATOM     14  C   UNL d   1      10.130   7.776 -10.378  0.00  0.00     0.275 C 
ATOM     15  C   UNL d   1      11.316   7.809  -9.397  0.00  0.00     0.137 C 
ATOM     16  N   UNL d   1      10.901   7.260  -8.110  0.00  0.00    -0.344 N 
ATOM     17  C   UNL d   1      10.250   5.957  -8.175  0.00  0.00     0.137 C 
ATOM     18  C   UNL d   1       9.120   5.963  -9.211  0.00  0.00     0.275 C 
BRANCH  16  19
ATOM     19  C   UNL d   1      11.080   7.926  -6.886  0.00  0.00     0.056 A 
ATOM     20  C   UNL d   1      11.287   7.193  -5.690  0.00  0.00     0.019 A 
ATOM     21  C   UNL d   1      11.470   7.858  -4.466  0.00  0.00     0.031 A 
ATOM     22  C   UNL d   1      11.449   9.260  -4.417  0.00  0.00     0.140 A 
ATOM     23  C   UNL d   1      11.246   9.997  -5.593  0.00  0.00     0.031 A 
ATOM     24  F   UNL d   1      11.592   9.900  -3.237  0.00  0.00    -0.204 F 
ATOM     25  C   UNL d   1      11.066   9.339  -6.821  0.00  0.00     0.019 A 
ENDBRANCH  16  19
ENDBRANCH  12  13
ENDBRANCH   8  12
TORSDOF 3
