REMARK  9 active torsions:
REMARK  status: ('A' for Active; 'I' for Inactive)
REMARK    1  A    between atoms: N_13  and  C_14 
REMARK    2  A    between atoms: C_14  and  C_15 
REMARK    3  A    between atoms: C_15  and  C_16 
REMARK    4  A    between atoms: C_16  and  C_17 
REMARK    5  A    between atoms: C_17  and  C_18 
REMARK    6  A    between atoms: C_18  and  C_19 
REMARK    7  A    between atoms: C_19  and  N_20 
REMARK    8  A    between atoms: N_23  and  C_24 
REMARK    9  A    between atoms: C_29  and  C_30 
ROOT
ATOM      1  C   UNL d   1       8.036   3.577 -13.728  0.00  0.00     0.035 C 
ENDROOT
BRANCH   1   2
ATOM      2  C   UNL d   1       6.967   2.672 -14.388  0.00  0.00     0.002 C 
BRANCH   2   3
ATOM      3  C   UNL d   1       7.550   1.339 -14.878  0.00  0.00     0.002 C 
BRANCH   3   4
ATOM      4  C   UNL d   1       8.556   1.516 -16.031  0.00  0.00     0.025 C 
BRANCH   4   5
ATOM      5  C   UNL d   1       9.813   0.655 -15.833  0.00  0.00     0.109 C 
BRANCH   5   6
ATOM      6  N   UNL d   1      10.842   0.989 -16.812  0.00  0.00    -0.296 N 
ATOM      7  C   UNL d   1      11.250   0.217 -17.849  0.00  0.00     0.261 A 
ATOM      8  O   UNL d   1      10.858  -0.901 -18.183  0.00  0.00    -0.267 OA
ATOM      9  C   UNL d   1      12.300   1.022 -18.532  0.00  0.00     0.058 A 
ATOM     10  C   UNL d   1      12.472   2.218 -17.872  0.00  0.00     0.021 A 
ATOM     11  C   UNL d   1      13.106   0.762 -19.656  0.00  0.00     0.005 A 
ATOM     12  C   UNL d   1      13.371   3.232 -18.208  0.00  0.00     0.002 A 
ATOM     13  C   UNL d   1      11.581   2.208 -16.814  0.00  0.00     0.063 A 
ATOM     14  C   UNL d   1      14.176   2.971 -19.341  0.00  0.00     0.000 A 
ATOM     15  C   UNL d   1      13.342   4.367 -17.366  0.00  0.00     0.000 A 
ATOM     16  C   UNL d   1      14.045   1.748 -20.054  0.00  0.00     0.000 A 
ATOM     17  C   UNL d   1      12.444   4.422 -16.264  0.00  0.00     0.002 A 
ATOM     18  C   UNL d   1      11.563   3.346 -15.978  0.00  0.00     0.017 A 
ENDBRANCH   5   6
ENDBRANCH   4   5
ENDBRANCH   3   4
ENDBRANCH   2   3
ENDBRANCH   1   2
BRANCH   1  19
ATOM     19  C   UNL d   1       7.432   4.637 -12.789  0.00  0.00     0.250 C 
BRANCH  19  20
ATOM     20  N   UNL d   1       8.470   5.551 -12.292  0.00  0.00     0.141 N 
ATOM     21  C   UNL d   1       9.107   4.909 -11.134  0.00  0.00     0.274 C 
ATOM     22  C   UNL d   1      10.159   5.858 -10.541  0.00  0.00     0.137 C 
ATOM     23  N   UNL d   1       9.654   7.162 -10.218  0.00  0.00    -0.344 N 
ATOM     24  C   UNL d   1       8.928   7.794 -11.310  0.00  0.00     0.137 C 
ATOM     25  C   UNL d   1       7.830   6.774 -11.814  0.00  0.00     0.274 C 
BRANCH  23  26
ATOM     26  C   UNL d   1       9.910   7.708  -8.919  0.00  0.00     0.060 A 
ATOM     27  C   UNL d   1      11.121   8.313  -8.579  0.00  0.00     0.087 A 
ATOM     28  C   UNL d   1      11.305   8.875  -7.281  0.00  0.00     0.005 A 
ATOM     29  C   UNL d   1      10.270   8.817  -6.352  0.00  0.00     0.000 A 
ATOM     30  C   UNL d   1       9.065   8.177  -6.706  0.00  0.00     0.002 A 
ATOM     31  C   UNL d   1       8.921   7.589  -7.973  0.00  0.00     0.017 A 
BRANCH  27  32
ATOM     32  C   UNL d   1      12.293   8.360  -9.510  0.00  0.00     0.420 C 
ATOM     33  F   UNL d   1      12.503   7.189 -10.044  0.00  0.00    -0.166 F 
ATOM     34  F   UNL d   1      11.949   9.185 -10.506  0.00  0.00    -0.166 F 
ATOM     35  F   UNL d   1      13.377   8.771  -8.834  0.00  0.00    -0.166 F 
ENDBRANCH  27  32
ENDBRANCH  23  26
ENDBRANCH  19  20
ENDBRANCH   1  19
TORSDOF 9
