REMARK  5 active torsions:
REMARK  status: ('A' for Active; 'I' for Inactive)
REMARK    1  A    between atoms: C_4  and  N_5 
REMARK       I    between atoms: N_5  and  C_6 
REMARK    2  A    between atoms: C_6  and  C_8 
REMARK    3  A    between atoms: C_12  and  S_13 
REMARK    4  A    between atoms: C_21  and  N_22 
REMARK    5  A    between atoms: C_27  and  C_28 
ROOT
ATOM      1  C   UNL d   1       5.115   0.387 -13.133  0.00  0.00     0.031 C 
ATOM      2  C   UNL d   1       5.965   0.638 -14.356  0.00  0.00    -0.019 A 
ATOM      3  C   UNL d   1       5.844  -0.155 -15.512  0.00  0.00     0.015 A 
ATOM      4  C   UNL d   1       6.655   0.130 -16.631  0.00  0.00     0.086 A 
ATOM      5  C   UNL d   1       7.611   1.177 -16.577  0.00  0.00     0.037 A 
ATOM      6  C   UNL d   1       7.736   1.971 -15.409  0.00  0.00     0.066 A 
ATOM      7  C   UNL d   1       6.876   1.697 -14.325  0.00  0.00     0.013 A 
ENDROOT
BRANCH   4   8
ATOM      8  N   UNL d   1       6.503  -0.712 -17.751  0.00  0.00    -0.208 NA
ATOM      9  C   UNL d   1       6.727  -0.431 -19.047  0.00  0.00     0.279 C 
ATOM     10  O   UNL d   1       7.091   0.665 -19.477  0.00  0.00    -0.265 OA
BRANCH   9  11
ATOM     11  C   UNL d   1       6.426  -1.566 -19.980  0.00  0.00     0.059 A 
ATOM     12  C   UNL d   1       6.715  -2.900 -19.613  0.00  0.00     0.020 A 
ATOM     13  C   UNL d   1       6.438  -3.962 -20.501  0.00  0.00     0.123 A 
ATOM     14  C   UNL d   1       5.874  -3.684 -21.765  0.00  0.00     0.015 A 
ATOM     15  C   UNL d   1       5.586  -2.356 -22.132  0.00  0.00     0.001 A 
ATOM     16  C   UNL d   1       5.866  -1.300 -21.247  0.00  0.00     0.005 A 
BRANCH  13  17
ATOM     17  S   UNL d   1       6.816  -5.662 -20.026  0.00  0.00     0.313 SA
ATOM     18  F   UNL d   1       6.131  -5.436 -18.576  0.00  0.00    -0.093 F 
ATOM     19  F   UNL d   1       7.514  -5.940 -21.460  0.00  0.00    -0.093 F 
ATOM     20  F   UNL d   1       7.148  -7.187 -19.602  0.00  0.00    -0.093 F 
ATOM     21  F   UNL d   1       5.392  -6.171 -20.605  0.00  0.00    -0.093 F 
ATOM     22  F   UNL d   1       8.254  -5.221 -19.428  0.00  0.00    -0.093 F 
ENDBRANCH  13  17
ENDBRANCH   9  11
ENDBRANCH   4   8
BRANCH   6  23
ATOM     23  N   UNL d   1       8.700   3.015 -15.335  0.00  0.00    -0.292 N 
ATOM     24  C   UNL d   1       8.999   3.865 -14.310  0.00  0.00     0.132 A 
ATOM     25  N   UNL d   1       9.952   4.740 -14.608  0.00  0.00    -0.214 N 
ATOM     26  C   UNL d   1       8.566   4.108 -12.977  0.00  0.00     0.112 A 
ATOM     27  C   UNL d   1      10.374   4.559 -15.865  0.00  0.00     0.121 A 
ATOM     28  N   UNL d   1      10.264   5.583 -13.635  0.00  0.00    -0.168 NA
ATOM     29  C   UNL d   1       9.565   3.450 -16.325  0.00  0.00     0.102 A 
ATOM     30  C   UNL d   1       9.421   5.214 -12.633  0.00  0.00     0.088 A 
BRANCH  30  31
ATOM     31  C   UNL d   1       9.442   5.894 -11.326  0.00  0.00     0.035 A 
ATOM     32  C   UNL d   1       9.817   7.245 -11.183  0.00  0.00     0.100 A 
ATOM     33  N   UNL d   1       9.877   7.889  -9.998  0.00  0.00    -0.242 NA
ATOM     34  C   UNL d   1       9.495   7.212  -8.897  0.00  0.00     0.099 A 
ATOM     35  C   UNL d   1       9.070   5.870  -8.923  0.00  0.00     0.021 A 
ATOM     36  C   UNL d   1       9.042   5.207 -10.161  0.00  0.00     0.004 A 
ENDBRANCH  30  31
ENDBRANCH   6  23
TORSDOF 5
