REMARK  4 active torsions:
REMARK  status: ('A' for Active; 'I' for Inactive)
REMARK    1  A    between atoms: C_2  and  C_3 
REMARK       I    between atoms: C_2  and  N_18 
REMARK    2  A    between atoms: C_3  and  N_4 
REMARK    3  A    between atoms: N_7  and  C_8 
REMARK    4  A    between atoms: C_8  and  C_9 
ROOT
ATOM      1  N   UNL d   1       8.972   4.077 -13.355  0.00  0.00     0.151 N 
ATOM      2  C   UNL d   1       7.649   4.618 -13.042  0.00  0.00     0.286 C 
ATOM      3  C   UNL d   1       7.396   4.707 -11.524  0.00  0.00     0.286 C 
ATOM      4  N   UNL d   1       8.438   5.486 -10.873  0.00  0.00     0.146 N 
ATOM      5  C   UNL d   1       9.727   4.918 -11.165  0.00  0.00     0.286 C 
ATOM      6  C   UNL d   1       9.990   4.864 -12.672  0.00  0.00     0.286 C 
ENDROOT
BRANCH   1   7
ATOM      7  C   UNL d   1       9.213   3.961 -14.800  0.00  0.00     0.337 C 
BRANCH   7   8
ATOM      8  C   UNL d   1      10.357   3.002 -15.208  0.00  0.00     0.272 C 
ATOM      9  O   UNL d   1      11.524   3.378 -14.992  0.00  0.00    -0.270 OA
ATOM     10  N   UNL d   1      10.078   1.814 -15.809  0.00  0.00    -0.297 N 
ATOM     11  C   UNL d   1       8.771   1.180 -15.806  0.00  0.00     0.068 A 
ATOM     12  C   UNL d   1      11.174   1.183 -16.574  0.00  0.00     0.110 C 
ATOM     13  C   UNL d   1       8.172   0.578 -16.958  0.00  0.00     0.041 A 
ATOM     14  C   UNL d   1       8.053   1.116 -14.583  0.00  0.00     0.018 A 
ATOM     15  S   UNL d   1       8.904   0.579 -18.576  0.00  0.00    -0.112 SA
ATOM     16  C   UNL d   1       6.904  -0.025 -16.853  0.00  0.00     0.008 A 
ATOM     17  C   UNL d   1       9.972   2.031 -18.698  0.00  0.00     0.064 C 
ATOM     18  C   UNL d   1      11.313   1.833 -17.972  0.00  0.00     0.037 C 
ATOM     19  C   UNL d   1       6.189  -0.017 -15.648  0.00  0.00     0.001 A 
ATOM     20  C   UNL d   1       6.754   0.586 -14.516  0.00  0.00     0.002 A 
ENDBRANCH   7   8
ENDBRANCH   1   7
BRANCH   4  21
ATOM     21  C   UNL d   1       8.243   5.638  -9.437  0.00  0.00     0.277 C 
BRANCH  21  22
ATOM     22  C   UNL d   1       9.153   6.650  -8.729  0.00  0.00     0.011 A 
ATOM     23  C   UNL d   1       9.883   7.625  -9.450  0.00  0.00    -0.002 A 
ATOM     24  C   UNL d   1      10.758   8.507  -8.784  0.00  0.00     0.011 A 
ATOM     25  C   UNL d   1      10.818   8.491  -7.378  0.00  0.00     0.058 A 
ATOM     26  C   UNL d   1      10.031   7.585  -6.649  0.00  0.00     0.011 A 
ATOM     27 CL   UNL d   1      11.847   9.588  -6.536  0.00  0.00    -0.082 Cl
ATOM     28  C   UNL d   1       9.193   6.669  -7.319  0.00  0.00    -0.002 A 
ENDBRANCH  21  22
ENDBRANCH   4  21
TORSDOF 4
