REMARK  9 active torsions:
REMARK  status: ('A' for Active; 'I' for Inactive)
REMARK    1  A    between atoms: S_2  and  C_3 
REMARK    2  A    between atoms: C_8  and  N_9 
REMARK    3  A    between atoms: N_12  and  C_13 
REMARK    4  A    between atoms: C_13  and  C_14 
REMARK    5  A    between atoms: C_14  and  C_15 
REMARK    6  A    between atoms: C_15  and  C_16 
REMARK    7  A    between atoms: C_16  and  C_17 
REMARK    8  A    between atoms: C_17  and  C_18 
REMARK       I    between atoms: C_18  and  N_20 
REMARK    9  A    between atoms: N_20  and  C_21 
ROOT
ATOM      1  C   UNL d   1       9.189   6.024 -11.487  0.00  0.00     0.035 C 
ENDROOT
BRANCH   1   2
ATOM      2  C   UNL d   1       9.268   4.483 -11.316  0.00  0.00     0.250 C 
BRANCH   2   3
ATOM      3  N   UNL d   1       9.405   3.754 -12.576  0.00  0.00     0.141 N 
ATOM      4  C   UNL d   1       8.170   3.862 -13.353  0.00  0.00     0.274 C 
ATOM      5  C   UNL d   1       8.302   3.025 -14.634  0.00  0.00     0.137 C 
ATOM      6  N   UNL d   1       9.495   3.404 -15.367  0.00  0.00    -0.344 N 
ATOM      7  C   UNL d   1      10.731   3.349 -14.633  0.00  0.00     0.137 C 
ATOM      8  C   UNL d   1      10.564   4.201 -13.365  0.00  0.00     0.274 C 
BRANCH   6   9
ATOM      9  C   UNL d   1       9.498   3.779 -16.723  0.00  0.00     0.062 A 
ATOM     10  C   UNL d   1       8.989   2.913 -17.708  0.00  0.00     0.041 A 
ATOM     11  C   UNL d   1       9.016   3.314 -19.062  0.00  0.00     0.008 A 
ATOM     12  C   UNL d   1       9.524   4.577 -19.422  0.00  0.00     0.001 A 
ATOM     13  C   UNL d   1      10.032   5.437 -18.430  0.00  0.00     0.002 A 
ATOM     14  C   UNL d   1      10.027   5.028 -17.081  0.00  0.00     0.017 A 
BRANCH  10  15
ATOM     15  S   UNL d   1       8.260   1.347 -17.294  0.00  0.00    -0.111 SA
ATOM     16  C   UNL d   1       8.813   0.138 -18.525  0.00  0.00     0.074 C 
ENDBRANCH  10  15
ENDBRANCH   6   9
ENDBRANCH   2   3
ENDBRANCH   1   2
BRANCH   1  17
ATOM     17  C   UNL d   1       9.354   6.778 -10.168  0.00  0.00     0.003 C 
BRANCH  17  18
ATOM     18  C   UNL d   1       8.590   6.130  -8.983  0.00  0.00     0.010 C 
BRANCH  18  19
ATOM     19  C   UNL d   1       8.660   6.957  -7.705  0.00  0.00     0.090 C 
BRANCH  19  20
ATOM     20  C   UNL d   1      10.082   7.144  -7.197  0.00  0.00     0.252 C 
ATOM     21  O   UNL d   1      11.009   6.392  -7.503  0.00  0.00    -0.271 OA
ATOM     22  N   UNL d   1      10.244   8.223  -6.425  0.00  0.00    -0.235 NA
BRANCH  22  23
ATOM     23  C   UNL d   1      11.533   8.651  -5.938  0.00  0.00     0.128 C 
ATOM     24  C   UNL d   1      11.776   8.071  -4.564  0.00  0.00    -0.004 C 
ATOM     25  C   UNL d   1      11.767   8.802  -3.356  0.00  0.00    -0.024 C 
ATOM     26  C   UNL d   1      12.040   6.718  -4.476  0.00  0.00    -0.003 C 
ATOM     27  C   UNL d   1      11.488  10.231  -3.386  0.00  0.00     0.026 C 
ATOM     28  C   UNL d   1      12.065   8.256  -2.093  0.00  0.00    -0.004 C 
ATOM     29  C   UNL d   1      10.896  10.713  -4.747  0.00  0.00     0.007 C 
ATOM     30  C   UNL d   1      11.628  10.152  -5.944  0.00  0.00     0.029 C 
ATOM     31  C   UNL d   1      12.380   6.896  -2.049  0.00  0.00    -0.000 C 
ATOM     32  C   UNL d   1      12.418   6.197  -3.234  0.00  0.00    -0.000 C 
ENDBRANCH  22  23
ENDBRANCH  19  20
ENDBRANCH  18  19
ENDBRANCH  17  18
ENDBRANCH   1  17
TORSDOF 9
