REMARK  4 active torsions:
REMARK  status: ('A' for Active; 'I' for Inactive)
REMARK    1  A    between atoms: C_8  and  C_9 
REMARK    2  A    between atoms: C_9  and  C_10 
REMARK    3  A    between atoms: C_10  and  N_11 
REMARK    4  A    between atoms: N_14  and  C_15 
ROOT
ATOM      1  N   UNL d   1       9.661   5.993  -9.599  0.00  0.00     0.141 N 
ATOM      2  C   UNL d   1       9.299   5.759  -8.207  0.00  0.00     0.274 C 
ATOM      3  C   UNL d   1      10.490   6.080  -7.307  0.00  0.00     0.138 C 
ATOM      4  N   UNL d   1      10.966   7.434  -7.514  0.00  0.00    -0.329 N 
ATOM      5  C   UNL d   1      11.188   7.792  -8.914  0.00  0.00     0.138 C 
ATOM      6  C   UNL d   1       9.968   7.416  -9.774  0.00  0.00     0.274 C 
ENDROOT
BRANCH   1   7
ATOM      7  C   UNL d   1       8.528   5.583 -10.416  0.00  0.00     0.255 C 
BRANCH   7   8
ATOM      8  C   UNL d   1       8.917   5.552 -11.898  0.00  0.00     0.063 C 
BRANCH   8   9
ATOM      9  C   UNL d   1       8.078   4.558 -12.687  0.00  0.00    -0.001 A 
ATOM     10  C   UNL d   1       8.667   3.703 -13.657  0.00  0.00     0.076 A 
ATOM     11  N   UNL d   1      10.060   3.771 -13.915  0.00  0.00    -0.212 NA
ATOM     12  C   UNL d   1       7.877   2.750 -14.350  0.00  0.00    -0.002 A 
ATOM     13  C   UNL d   1      10.670   3.207 -14.966  0.00  0.00     0.256 C 
ATOM     14  C   UNL d   1       9.792   2.482 -15.990  0.00  0.00     0.094 C 
ATOM     15  O   UNL d   1      11.880   3.299 -15.146  0.00  0.00    -0.270 OA
ATOM     16  C   UNL d   1       8.551   1.815 -15.355  0.00  0.00     0.033 C 
ATOM     17  C   UNL d   1       7.591   1.334 -16.463  0.00  0.00     0.005 C 
ATOM     18  C   UNL d   1       6.502   2.647 -14.043  0.00  0.00     0.027 A 
ATOM     19  C   UNL d   1       5.921   3.504 -13.101  0.00  0.00     0.140 A 
ATOM     20  C   UNL d   1       6.693   4.462 -12.424  0.00  0.00     0.027 A 
ATOM     21  F   UNL d   1       4.604   3.392 -12.834  0.00  0.00    -0.204 F 
ENDBRANCH   8   9
ENDBRANCH   7   8
ENDBRANCH   1   7
BRANCH   4  22
ATOM     22  C   UNL d   1      11.073   8.339  -6.442  0.00  0.00     0.148 A 
ATOM     23  C   UNL d   1      11.463   7.967  -5.089  0.00  0.00     0.042 A 
ATOM     24  C   UNL d   1      11.501   9.124  -4.264  0.00  0.00     0.050 A 
ATOM     25  C   UNL d   1      11.856   6.752  -4.466  0.00  0.00     0.004 A 
ATOM     26  S   UNL d   1      11.057  10.471  -5.259  0.00  0.00     0.015 SA
ATOM     27  C   UNL d   1      11.872   9.088  -2.905  0.00  0.00     0.008 A 
ATOM     28  N   UNL d   1      10.865   9.614  -6.664  0.00  0.00    -0.192 NA
ATOM     29  C   UNL d   1      12.239   7.862  -2.318  0.00  0.00     0.001 A 
ATOM     30  C   UNL d   1      12.228   6.700  -3.110  0.00  0.00     0.000 A 
ENDBRANCH   4  22
TORSDOF 4
