REMARK  3 active torsions:
REMARK  status: ('A' for Active; 'I' for Inactive)
REMARK    1  A    between atoms: C_2  and  C_5 
REMARK    2  A    between atoms: C_9  and  N_10 
REMARK    3  A    between atoms: N_13  and  C_14 
ROOT
ATOM      1  N   UNL d   1       9.648   5.130 -12.077  0.00  0.00    -0.344 N 
ATOM      2  C   UNL d   1       9.977   3.737 -12.376  0.00  0.00     0.126 C 
ATOM      3  C   UNL d   1       9.005   3.123 -13.329  0.00  0.00     0.127 C 
ATOM      4  N   UNL d   1       8.995   3.935 -14.510  0.00  0.00    -0.330 N 
ATOM      5  C   UNL d   1       8.512   5.277 -14.189  0.00  0.00     0.127 C 
ATOM      6  C   UNL d   1       9.445   6.000 -13.210  0.00  0.00     0.126 C 
ENDROOT
BRANCH   4   7
ATOM      7  C   UNL d   1       9.269   3.419 -15.789  0.00  0.00     0.142 C 
ATOM      8  C   UNL d   1      10.060   4.338 -16.699  0.00  0.00     0.052 A 
ATOM      9  C   UNL d   1       9.735   4.591 -18.064  0.00  0.00     0.086 A 
ATOM     10  C   UNL d   1      11.155   5.020 -16.123  0.00  0.00     0.016 A 
ATOM     11  N   UNL d   1       8.791   3.828 -18.747  0.00  0.00    -0.225 NA
ATOM     12  C   UNL d   1      10.418   5.603 -18.782  0.00  0.00     0.020 A 
ATOM     13  C   UNL d   1       8.778   2.442 -18.674  0.00  0.00     0.180 A 
ATOM     14  C   UNL d   1       8.846   1.719 -17.455  0.00  0.00     0.119 A 
ATOM     15  N   UNL d   1       8.701   1.854 -19.878  0.00  0.00    -0.224 NA
ATOM     16  N   UNL d   1       8.778   2.276 -16.170  0.00  0.00    -0.226 NA
ATOM     17  C   UNL d   1       8.848   0.311 -17.530  0.00  0.00     0.024 A 
ATOM     18  C   UNL d   1       8.810  -0.310 -18.792  0.00  0.00     0.022 A 
ATOM     19  C   UNL d   1       8.732   0.509 -19.934  0.00  0.00     0.101 A 
ATOM     20  C   UNL d   1      11.442   6.348 -18.156  0.00  0.00     0.013 A 
ATOM     21  C   UNL d   1      11.809   6.052 -16.826  0.00  0.00     0.058 A 
ATOM     22 CL   UNL d   1      13.044   6.969 -16.063  0.00  0.00    -0.082 Cl
ENDBRANCH   4   7
BRANCH   1  23
ATOM     23  C   UNL d   1       9.449   5.580 -10.773  0.00  0.00     0.056 A 
ATOM     24  C   UNL d   1       8.591   4.862  -9.898  0.00  0.00     0.017 A 
ATOM     25  C   UNL d   1       8.387   5.312  -8.587  0.00  0.00     0.001 A 
ATOM     26  C   UNL d   1       9.003   6.476  -8.119  0.00  0.00     0.004 A 
ATOM     27  C   UNL d   1       9.840   7.221  -8.970  0.00  0.00     0.073 A 
ATOM     28  C   UNL d   1      10.073   6.763 -10.279  0.00  0.00     0.021 A 
BRANCH  27  29
ATOM     29  C   UNL d   1      10.505   8.499  -8.486  0.00  0.00     0.419 C 
ATOM     30  F   UNL d   1       9.738   9.124  -7.597  0.00  0.00    -0.166 F 
ATOM     31  F   UNL d   1      10.770   9.332  -9.490  0.00  0.00    -0.166 F 
ATOM     32  F   UNL d   1      11.646   8.148  -7.904  0.00  0.00    -0.166 F 
ENDBRANCH  27  29
ENDBRANCH   1  23
TORSDOF 3
