REMARK  8 active torsions:
REMARK  status: ('A' for Active; 'I' for Inactive)
REMARK    1  A    between atoms: C_2  and  C_5 
REMARK    2  A    between atoms: C_7  and  N_8 
REMARK    3  A    between atoms: N_11  and  C_12 
REMARK    4  A    between atoms: C_12  and  C_13 
REMARK    5  A    between atoms: C_13  and  C_14 
REMARK    6  A    between atoms: C_14  and  C_15 
REMARK    7  A    between atoms: C_15  and  N_16 
REMARK    8  A    between atoms: C_29  and  C_30 
ROOT
ATOM      1  N   UNL d   1      11.275   7.870  -6.561  0.00  0.00    -0.278 N 
ATOM      2  C   UNL d   1      11.412   7.120  -5.384  0.00  0.00     0.095 A 
ATOM      3  C   UNL d   1      11.688   7.710  -4.204  0.00  0.00     0.143 A 
ATOM      4  C   UNL d   1      11.824   7.009  -3.025  0.00  0.00     0.107 C 
ATOM      5  N   UNL d   1      11.965   6.471  -2.033  0.00  0.00    -0.191 NA
ATOM      6  C   UNL d   1      11.859   9.157  -4.046  0.00  0.00     0.294 A 
ATOM      7  O   UNL d   1      11.985   9.769  -2.990  0.00  0.00    -0.264 OA
ATOM      8  N   UNL d   1      11.775   9.837  -5.261  0.00  0.00    -0.153 NA
ATOM      9  C   UNL d   1      11.476   9.279  -6.484  0.00  0.00     0.353 A 
ATOM     10  O   UNL d   1      11.435  10.005  -7.441  0.00  0.00    -0.244 OA
ENDROOT
BRANCH   1  11
ATOM     11  C   UNL d   1      11.021   7.308  -7.858  0.00  0.00     0.111 C 
BRANCH  11  12
ATOM     12  C   UNL d   1       9.771   7.880  -8.620  0.00  0.00     0.027 C 
BRANCH  12  13
ATOM     13  C   UNL d   1       9.702   7.373 -10.061  0.00  0.00     0.037 C 
BRANCH  13  14
ATOM     14  C   UNL d   1       9.032   6.010 -10.132  0.00  0.00     0.251 C 
BRANCH  14  15
ATOM     15  N   UNL d   1       8.543   5.793 -11.476  0.00  0.00     0.141 N 
ATOM     16  C   UNL d   1       9.581   5.226 -12.322  0.00  0.00     0.274 C 
ATOM     17  C   UNL d   1       9.012   4.961 -13.727  0.00  0.00     0.138 C 
ATOM     18  N   UNL d   1       7.873   4.052 -13.646  0.00  0.00    -0.330 N 
ATOM     19  C   UNL d   1       6.832   4.513 -12.742  0.00  0.00     0.138 C 
ATOM     20  C   UNL d   1       7.458   4.826 -11.391  0.00  0.00     0.274 C 
BRANCH  18  21
ATOM     21  C   UNL d   1       7.798   2.853 -14.396  0.00  0.00     0.143 A 
ATOM     22  N   UNL d   1       8.793   2.629 -15.271  0.00  0.00    -0.214 NA
ATOM     23  C   UNL d   1       8.742   1.520 -16.014  0.00  0.00     0.140 A 
ATOM     24  N   UNL d   1       7.832   0.556 -15.896  0.00  0.00    -0.227 NA
ATOM     25  C   UNL d   1       6.813   0.767 -15.043  0.00  0.00     0.157 A 
ATOM     26  C   UNL d   1       6.747   1.930 -14.242  0.00  0.00     0.060 A 
BRANCH  23  27
ATOM     27  C   UNL d   1       9.943   1.242 -16.938  0.00  0.00     0.052 C 
ATOM     28  C   UNL d   1      10.992   0.441 -16.175  0.00  0.00     0.008 C 
ATOM     29  C   UNL d   1      10.572   2.550 -17.468  0.00  0.00     0.008 C 
ATOM     30  C   UNL d   1       9.474   0.445 -18.190  0.00  0.00     0.008 C 
ENDBRANCH  23  27
BRANCH  25  31
ATOM     31  C   UNL d   1       5.751  -0.315 -14.893  0.00  0.00     0.435 C 
ATOM     32  F   UNL d   1       4.647   0.156 -14.316  0.00  0.00    -0.165 F 
ATOM     33  F   UNL d   1       5.417  -0.825 -16.083  0.00  0.00    -0.165 F 
ATOM     34  F   UNL d   1       6.240  -1.263 -14.104  0.00  0.00    -0.165 F 
ENDBRANCH  25  31
ENDBRANCH  18  21
ENDBRANCH  14  15
ENDBRANCH  13  14
ENDBRANCH  12  13
ENDBRANCH  11  12
ENDBRANCH   1  11
TORSDOF 8
