REMARK  5 active torsions:
REMARK  status: ('A' for Active; 'I' for Inactive)
REMARK    1  A    between atoms: C_4  and  N_5 
REMARK    2  A    between atoms: N_8  and  C_9 
REMARK    3  A    between atoms: C_9  and  C_10 
REMARK    4  A    between atoms: C_10  and  C_11 
REMARK    5  A    between atoms: C_11  and  C_12 
ROOT
ATOM      1  N   UNL d   1      10.959   7.249  -8.048  0.00  0.00    -0.344 N 
ATOM      2  C   UNL d   1      11.403   7.811  -9.322  0.00  0.00     0.137 C 
ATOM      3  C   UNL d   1      10.232   7.856 -10.324  0.00  0.00     0.274 C 
ATOM      4  N   UNL d   1       9.634   6.524 -10.491  0.00  0.00     0.141 N 
ATOM      5  C   UNL d   1       9.108   6.095  -9.191  0.00  0.00     0.274 C 
ATOM      6  C   UNL d   1      10.235   5.986  -8.148  0.00  0.00     0.137 C 
ENDROOT
BRANCH   4   7
ATOM      7  C   UNL d   1       8.540   6.577 -11.462  0.00  0.00     0.251 C 
BRANCH   7   8
ATOM      8  C   UNL d   1       8.902   5.782 -12.723  0.00  0.00     0.042 C 
BRANCH   8   9
ATOM      9  C   UNL d   1       8.982   4.272 -12.452  0.00  0.00     0.055 C 
BRANCH   9  10
ATOM     10  C   UNL d   1       9.415   3.491 -13.648  0.00  0.00     0.088 A 
ATOM     11  S   UNL d   1      11.074   3.584 -14.252  0.00  0.00    -0.071 SA
ATOM     12  C   UNL d   1      10.647   2.405 -15.484  0.00  0.00     0.048 A 
ATOM     13  C   UNL d   1       9.272   2.055 -15.355  0.00  0.00     0.087 A 
ATOM     14  C   UNL d   1      11.460   1.840 -16.482  0.00  0.00     0.008 A 
ATOM     15  N   UNL d   1       8.580   2.701 -14.335  0.00  0.00    -0.243 NA
ATOM     16  C   UNL d   1       8.750   1.105 -16.261  0.00  0.00     0.020 A 
ATOM     17  C   UNL d   1       9.558   0.535 -17.265  0.00  0.00     0.002 A 
ATOM     18  C   UNL d   1      10.912   0.904 -17.378  0.00  0.00     0.001 A 
ENDBRANCH   9  10
ENDBRANCH   8   9
ENDBRANCH   7   8
ENDBRANCH   4   7
BRANCH   1  19
ATOM     19  C   UNL d   1      11.117   7.917  -6.819  0.00  0.00     0.056 A 
ATOM     20  C   UNL d   1      11.259   7.189  -5.614  0.00  0.00     0.017 A 
ATOM     21  C   UNL d   1      11.466   7.857  -4.389  0.00  0.00     0.002 A 
ATOM     22  C   UNL d   1      11.508   9.262  -4.347  0.00  0.00     0.000 A 
ATOM     23  C   UNL d   1      11.359   9.993  -5.537  0.00  0.00     0.002 A 
ATOM     24  C   UNL d   1      11.164   9.329  -6.760  0.00  0.00     0.017 A 
ENDBRANCH   1  19
TORSDOF 5
