REMARK  6 active torsions:
REMARK  status: ('A' for Active; 'I' for Inactive)
REMARK    1  A    between atoms: C_2  and  C_3 
REMARK    2  A    between atoms: C_2  and  C_20 
REMARK    3  A    between atoms: C_3  and  C_4 
REMARK    4  A    between atoms: C_4  and  C_5 
REMARK    5  A    between atoms: C_5  and  N_6 
REMARK    6  A    between atoms: N_13  and  C_14 
ROOT
ATOM      1  N   UNL d   1       9.146   7.258  -8.659  0.00  0.00    -0.366 N 
ATOM      2  C   UNL d   1       9.006   6.485  -7.423  0.00  0.00     0.114 C 
ATOM      3  C   UNL d   1      10.253   6.628  -6.532  0.00  0.00     0.084 C 
ATOM      4  C   UNL d   1      11.540   6.279  -7.283  0.00  0.00     0.020 C 
ATOM      5  C   UNL d   1      11.995   7.606  -7.956  0.00  0.00     0.020 C 
ATOM      6  C   UNL d   1      10.917   8.577  -7.451  0.00  0.00     0.084 C 
ATOM      7  C   UNL d   1       9.733   8.594  -8.462  0.00  0.00     0.114 C 
ATOM      8  N   UNL d   1      10.448   8.017  -6.179  0.00  0.00    -0.251 NA
ENDROOT
BRANCH   1   9
ATOM      9  C   UNL d   1       9.509   6.505  -9.862  0.00  0.00     0.098 C 
BRANCH   9  10
ATOM     10  C   UNL d   1       9.132   7.236 -11.175  0.00  0.00     0.032 C 
BRANCH  10  11
ATOM     11  C   UNL d   1       8.117   6.432 -11.999  0.00  0.00     0.071 C 
BRANCH  11  12
ATOM     12  C   UNL d   1       8.715   5.307 -12.850  0.00  0.00     0.173 C 
ATOM     13  O   UNL d   1       9.884   5.397 -13.237  0.00  0.00    -0.291 OA
BRANCH  12  14
ATOM     14  C   UNL d   1       7.839   4.163 -13.236  0.00  0.00     0.035 A 
ATOM     15  C   UNL d   1       8.347   3.164 -14.095  0.00  0.00     0.005 A 
ATOM     16  C   UNL d   1       7.559   2.048 -14.452  0.00  0.00     0.030 A 
ATOM     17  C   UNL d   1       6.254   1.916 -13.935  0.00  0.00     0.140 A 
ATOM     18  C   UNL d   1       5.740   2.907 -13.081  0.00  0.00     0.030 A 
ATOM     19  F   UNL d   1       5.505   0.829 -14.236  0.00  0.00    -0.204 F 
ATOM     20  C   UNL d   1       6.519   4.027 -12.737  0.00  0.00     0.005 A 
ENDBRANCH  12  14
ENDBRANCH  11  12
ENDBRANCH  10  11
ENDBRANCH   9  10
ENDBRANCH   1   9
BRANCH   8  21
ATOM     21  C   UNL d   1      11.208   8.273  -5.011  0.00  0.00     0.036 A 
ATOM     22  C   UNL d   1      11.855   7.243  -4.276  0.00  0.00     0.011 A 
ATOM     23  C   UNL d   1      12.533   7.507  -3.073  0.00  0.00     0.001 A 
ATOM     24  C   UNL d   1      12.523   8.803  -2.552  0.00  0.00     0.000 A 
ATOM     25  C   UNL d   1      11.853   9.822  -3.242  0.00  0.00     0.001 A 
ATOM     26  C   UNL d   1      11.212   9.573  -4.479  0.00  0.00     0.011 A 
ENDBRANCH   8  21
TORSDOF 6
