REMARK  9 active torsions:
REMARK  status: ('A' for Active; 'I' for Inactive)
REMARK    1  A    between atoms: C_5  and  C_6 
REMARK    2  A    between atoms: C_7  and  C_8 
REMARK    3  A    between atoms: C_8  and  O_9 
REMARK    4  A    between atoms: O_9  and  C_10 
REMARK    5  A    between atoms: C_10  and  C_11 
REMARK    6  A    between atoms: C_11  and  C_12 
REMARK    7  A    between atoms: N_15  and  C_16 
REMARK    8  A    between atoms: C_16  and  C_17 
REMARK    9  A    between atoms: C_17  and  C_18 
ROOT
ATOM      1  C   UNL d   1       8.445   5.752 -10.994  0.00  0.00     0.006 C 
ATOM      2  C   UNL d   1       9.567   6.794 -11.206  0.00  0.00     0.035 C 
ATOM      3  C   UNL d   1       9.899   7.598  -9.955  0.00  0.00     0.250 C 
ATOM      4  N   UNL d   1      10.228   6.682  -8.859  0.00  0.00     0.137 N 
ATOM      5  C   UNL d   1       9.051   5.876  -8.547  0.00  0.00     0.250 C 
ATOM      6  C   UNL d   1       8.719   4.968  -9.706  0.00  0.00     0.035 C 
ENDROOT
BRANCH   1   7
ATOM      7  C   UNL d   1       8.203   4.814 -12.196  0.00  0.00     0.032 C 
BRANCH   7   8
ATOM      8  C   UNL d   1       9.458   4.044 -12.630  0.00  0.00     0.144 C 
BRANCH   8   9
ATOM      9  O   UNL d   1       9.201   3.252 -13.768  0.00  0.00    -0.341 OA
BRANCH   9  10
ATOM     10  C   UNL d   1      10.371   2.609 -14.259  0.00  0.00     0.218 C 
BRANCH  10  11
ATOM     11  C   UNL d   1      11.223   3.551 -15.009  0.00  0.00    -0.054 C 
ATOM     12  C   UNL d   1      11.917   4.389 -15.569  0.00  0.00    -0.062 C 
BRANCH  12  13
ATOM     13  C   UNL d   1      12.742   5.369 -16.246  0.00  0.00     0.042 A 
ATOM     14  C   UNL d   1      12.426   6.742 -16.184  0.00  0.00     0.011 A 
ATOM     15  C   UNL d   1      13.232   7.684 -16.857  0.00  0.00     0.030 A 
ATOM     16  C   UNL d   1      14.356   7.250 -17.589  0.00  0.00     0.140 A 
ATOM     17  F   UNL d   1      15.138   8.151 -18.232  0.00  0.00    -0.204 F 
ATOM     18  C   UNL d   1      14.679   5.880 -17.642  0.00  0.00     0.030 A 
ATOM     19  C   UNL d   1      13.869   4.941 -16.974  0.00  0.00     0.011 A 
ENDBRANCH  12  13
ENDBRANCH  10  11
ENDBRANCH   9  10
ENDBRANCH   8   9
ENDBRANCH   7   8
ENDBRANCH   1   7
BRANCH   4  20
ATOM     20  C   UNL d   1      10.590   7.497  -7.732  0.00  0.00     0.255 C 
BRANCH  20  21
ATOM     21  C   UNL d   1      11.032   6.715  -6.474  0.00  0.00     0.062 C 
BRANCH  21  22
ATOM     22  C   UNL d   1      11.356   7.588  -5.273  0.00  0.00    -0.020 A 
ATOM     23  C   UNL d   1      11.858   6.975  -4.105  0.00  0.00    -0.004 A 
ATOM     24  C   UNL d   1      12.174   7.752  -2.973  0.00  0.00    -0.000 A 
ATOM     25  C   UNL d   1      11.938   9.138  -2.990  0.00  0.00    -0.000 A 
ATOM     26  C   UNL d   1      11.394   9.743  -4.139  0.00  0.00    -0.000 A 
ATOM     27  C   UNL d   1      11.114   8.981  -5.274  0.00  0.00    -0.004 A 
ENDBRANCH  21  22
ENDBRANCH  20  21
ENDBRANCH   4  20
TORSDOF 9
