REMARK  10 active torsions:
REMARK  status: ('A' for Active; 'I' for Inactive)
REMARK    1  A    between atoms: S_2  and  C_3 
REMARK    2  A    between atoms: C_8  and  C_9 
REMARK    3  A    between atoms: C_11  and  C_12 
REMARK    4  A    between atoms: C_12  and  N_13 
REMARK    5  A    between atoms: N_13  and  C_14 
REMARK    6  A    between atoms: C_14  and  C_15 
REMARK    7  A    between atoms: C_15  and  C_16 
REMARK    8  A    between atoms: C_16  and  C_17 
REMARK    9  A    between atoms: C_17  and  O_18 
REMARK   10  A    between atoms: O_18  and  C_19 
ROOT
ATOM      1  C   UNL d   1       5.641   3.329 -13.069  0.00  0.00     0.041 C 
ENDROOT
BRANCH   1   2
ATOM      2  C   UNL d   1       6.883   4.108 -12.674  0.00  0.00     0.290 C 
BRANCH   2   3
ATOM      3  N   UNL d   1       6.497   5.463 -12.331  0.00  0.00     0.339 N 
BRANCH   3   4
ATOM      4  C   UNL d   1       7.690   6.261 -12.093  0.00  0.00     0.290 C 
BRANCH   4   5
ATOM      5  C   UNL d   1       8.255   5.907 -10.732  0.00  0.00     0.041 A 
ATOM      6  C   UNL d   1       9.640   6.386 -10.354  0.00  0.00     0.025 A 
ATOM      7  C   UNL d   1       9.386   4.910 -10.575  0.00  0.00     0.007 A 
BRANCH   6   8
ATOM      8  C   UNL d   1       9.906   6.931  -8.960  0.00  0.00    -0.017 A 
ATOM      9  C   UNL d   1      10.817   7.995  -8.713  0.00  0.00     0.021 A 
ATOM     10  C   UNL d   1      11.044   8.456  -7.395  0.00  0.00     0.006 A 
ATOM     11  C   UNL d   1      10.368   7.870  -6.315  0.00  0.00     0.001 A 
ATOM     12  C   UNL d   1       9.460   6.826  -6.556  0.00  0.00    -0.000 A 
ATOM     13  C   UNL d   1       9.238   6.365  -7.867  0.00  0.00    -0.004 A 
BRANCH   9  14
ATOM     14  S   UNL d   1      11.686   8.789 -10.014  0.00  0.00    -0.113 SA
ATOM     15  C   UNL d   1      13.319   7.995 -10.041  0.00  0.00     0.074 C 
ENDBRANCH   9  14
ENDBRANCH   6   8
ENDBRANCH   4   5
ENDBRANCH   3   4
ENDBRANCH   2   3
ENDBRANCH   1   2
BRANCH   1  16
ATOM     16  C   UNL d   1       6.043   2.009 -13.730  0.00  0.00     0.035 C 
BRANCH  16  17
ATOM     17  C   UNL d   1       5.266   0.780 -13.209  0.00  0.00     0.149 C 
BRANCH  17  18
ATOM     18  O   UNL d   1       5.644  -0.441 -13.852  0.00  0.00    -0.331 OA
BRANCH  18  19
ATOM     19  C   UNL d   1       5.311  -0.560 -15.179  0.00  0.00     0.096 A 
ATOM     20  C   UNL d   1       6.073   0.114 -16.169  0.00  0.00     0.043 A 
ATOM     21  C   UNL d   1       5.677   0.027 -17.526  0.00  0.00     0.082 A 
ATOM     22  C   UNL d   1       4.612  -0.806 -17.910  0.00  0.00    -0.004 A 
ATOM     23  N   UNL d   1       6.367   0.804 -18.471  0.00  0.00    -0.212 NA
ATOM     24  C   UNL d   1       3.908  -1.545 -16.939  0.00  0.00    -0.001 A 
ATOM     25  C   UNL d   1       4.235  -0.858 -19.378  0.00  0.00     0.038 C 
ATOM     26  C   UNL d   1       4.255  -1.415 -15.578  0.00  0.00     0.024 A 
ATOM     27  C   UNL d   1       5.454  -0.581 -20.284  0.00  0.00     0.095 C 
ATOM     28  C   UNL d   1       6.284   0.622 -19.798  0.00  0.00     0.256 C 
ATOM     29  O   UNL d   1       6.870   1.348 -20.590  0.00  0.00    -0.270 OA
ENDBRANCH  18  19
ENDBRANCH  17  18
ENDBRANCH  16  17
ENDBRANCH   1  16
TORSDOF 10
