REMARK  5 active torsions:
REMARK  status: ('A' for Active; 'I' for Inactive)
REMARK    1  A    between atoms: N_11  and  C_12 
REMARK    2  A    between atoms: C_12  and  C_13 
REMARK    3  A    between atoms: C_13  and  C_14 
REMARK    4  A    between atoms: C_17  and  N_18 
REMARK       I    between atoms: N_18  and  C_19 
REMARK    5  A    between atoms: C_19  and  C_21 
ROOT
ATOM      1  N   UNL d   1       4.373  -5.518 -19.748  0.00  0.00    -0.191 NA
ATOM      2  C   UNL d   1       4.883  -4.575 -19.320  0.00  0.00     0.101 C 
ATOM      3  C   UNL d   1       5.522  -3.387 -18.782  0.00  0.00     0.068 A 
ATOM      4  C   UNL d   1       6.578  -2.768 -19.458  0.00  0.00     0.010 A 
ATOM      5  C   UNL d   1       7.164  -1.613 -18.914  0.00  0.00    -0.004 A 
ATOM      6  C   UNL d   1       6.704  -1.044 -17.701  0.00  0.00    -0.024 A 
ATOM      7  C   UNL d   1       5.605  -1.681 -17.005  0.00  0.00    -0.023 A 
ATOM      8  C   UNL d   1       5.056  -2.865 -17.571  0.00  0.00     0.006 A 
ATOM      9  C   UNL d   1       4.975  -1.228 -15.684  0.00  0.00     0.061 C 
ATOM     10  C   UNL d   1       5.990  -0.907 -14.560  0.00  0.00     0.255 C 
ATOM     11  N   UNL d   1       6.796   0.292 -14.772  0.00  0.00     0.138 N 
ATOM     12  C   UNL d   1       7.873   0.148 -15.750  0.00  0.00     0.255 C 
ATOM     13  C   UNL d   1       7.439   0.190 -17.238  0.00  0.00     0.061 C 
ENDROOT
BRANCH  11  14
ATOM     14  C   UNL d   1       5.911   1.413 -15.052  0.00  0.00     0.250 C 
BRANCH  14  15
ATOM     15  C   UNL d   1       6.627   2.768 -15.223  0.00  0.00     0.035 C 
BRANCH  15  16
ATOM     16  C   UNL d   1       7.319   3.222 -13.985  0.00  0.00     0.002 C 
ATOM     17  C   UNL d   1       6.246   3.769 -13.035  0.00  0.00     0.002 C 
ATOM     18  C   UNL d   1       6.886   4.335 -11.799  0.00  0.00     0.024 C 
ATOM     19  C   UNL d   1       7.992   5.345 -12.097  0.00  0.00     0.107 C 
ATOM     20  C   UNL d   1       9.045   4.755 -13.047  0.00  0.00     0.024 C 
ATOM     21  C   UNL d   1       8.379   4.271 -14.313  0.00  0.00     0.002 C 
BRANCH  19  22
ATOM     22  N   UNL d   1       8.661   5.724 -10.869  0.00  0.00    -0.236 NA
ATOM     23  C   UNL d   1       9.351   6.856 -10.717  0.00  0.00     0.275 C 
ATOM     24  O   UNL d   1       9.451   7.714 -11.603  0.00  0.00    -0.266 OA
BRANCH  23  25
ATOM     25  C   UNL d   1       9.889   7.085  -9.343  0.00  0.00     0.059 A 
ATOM     26  C   UNL d   1       9.977   8.375  -8.795  0.00  0.00     0.026 A 
ATOM     27  C   UNL d   1      10.556   8.541  -7.518  0.00  0.00     0.107 A 
ATOM     28  C   UNL d   1      11.057   7.442  -6.790  0.00  0.00     0.112 A 
ATOM     29  N   UNL d   1      10.716   9.793  -6.976  0.00  0.00    -0.208 NA
ATOM     30  C   UNL d   1      11.002   6.190  -7.356  0.00  0.00     0.026 A 
ATOM     31  O   UNL d   1      11.656   7.612  -5.560  0.00  0.00    -0.319 OA
ATOM     32  C   UNL d   1      10.384   5.987  -8.602  0.00  0.00     0.007 A 
ATOM     33  C   UNL d   1      11.345   8.798  -4.838  0.00  0.00     0.238 C 
ATOM     34  C   UNL d   1      11.062  10.005  -5.707  0.00  0.00     0.286 C 
ATOM     35  O   UNL d   1      11.043  11.113  -5.230  0.00  0.00    -0.267 OA
ENDBRANCH  23  25
ENDBRANCH  19  22
ENDBRANCH  15  16
ENDBRANCH  14  15
ENDBRANCH  11  14
TORSDOF 5
