REMARK  5 active torsions:
REMARK  status: ('A' for Active; 'I' for Inactive)
REMARK    1  A    between atoms: C_2  and  C_3 
REMARK    2  A    between atoms: C_3  and  N_4 
REMARK    3  A    between atoms: C_19  and  O_20 
REMARK    4  A    between atoms: O_20  and  C_21 
REMARK       I    between atoms: C_21  and  N_23 
REMARK    5  A    between atoms: N_23  and  C_24 
ROOT
ATOM      1  N   UNL d   1       6.071  -0.717 -18.731  0.00  0.00     0.140 N 
ATOM      2  C   UNL d   1       4.691  -0.521 -18.342  0.00  0.00     0.255 C 
ATOM      3  C   UNL d   1       4.475  -1.152 -16.958  0.00  0.00     0.061 C 
ATOM      4  C   UNL d   1       5.418  -0.626 -15.892  0.00  0.00    -0.022 A 
ATOM      5  C   UNL d   1       5.186  -0.721 -14.512  0.00  0.00    -0.004 A 
ATOM      6  C   UNL d   1       6.174  -0.293 -13.615  0.00  0.00    -0.000 A 
ATOM      7  C   UNL d   1       7.386   0.237 -14.096  0.00  0.00    -0.000 A 
ATOM      8  C   UNL d   1       7.662   0.422 -15.475  0.00  0.00    -0.001 A 
ATOM      9  C   UNL d   1       6.644  -0.057 -16.341  0.00  0.00     0.005 A 
ATOM     10  C   UNL d   1       6.944   0.075 -17.851  0.00  0.00     0.245 C 
ATOM     11  C   UNL d   1       8.441  -0.243 -18.126  0.00  0.00     0.064 C 
ATOM     12  C   UNL d   1       9.363   0.602 -17.274  0.00  0.00    -0.018 A 
ATOM     13  C   UNL d   1      10.582   1.053 -17.817  0.00  0.00    -0.004 A 
ATOM     14  C   UNL d   1      11.416   1.899 -17.076  0.00  0.00     0.002 A 
ATOM     15  C   UNL d   1      11.017   2.309 -15.791  0.00  0.00     0.025 A 
ATOM     16  C   UNL d   1       9.782   1.882 -15.250  0.00  0.00     0.104 A 
ATOM     17  C   UNL d   1       8.954   0.971 -15.968  0.00  0.00     0.019 A 
ENDROOT
BRANCH  16  18
ATOM     18  O   UNL d   1       9.417   2.397 -14.024  0.00  0.00    -0.258 OA
BRANCH  18  19
ATOM     19  C   UNL d   1       9.092   3.709 -13.922  0.00  0.00     0.388 C 
ATOM     20  O   UNL d   1       9.040   4.507 -14.856  0.00  0.00    -0.236 OA
ATOM     21  N   UNL d   1       8.819   3.993 -12.591  0.00  0.00    -0.216 NA
BRANCH  21  22
ATOM     22  C   UNL d   1       8.236   5.237 -12.049  0.00  0.00     0.090 C 
ATOM     23  C   UNL d   1       6.705   5.061 -12.008  0.00  0.00     0.025 C 
ATOM     24  C   UNL d   1       8.577   6.492 -12.888  0.00  0.00     0.025 C 
ATOM     25  C   UNL d   1       8.765   5.452 -10.629  0.00  0.00     0.025 C 
ENDBRANCH  21  22
ENDBRANCH  18  19
ENDBRANCH  16  18
BRANCH   1  26
ATOM     26  C   UNL d   1       6.202  -0.409 -20.166  0.00  0.00     0.251 C 
BRANCH  26  27
ATOM     27  C   UNL d   1       5.583   0.954 -20.560  0.00  0.00     0.035 C 
ATOM     28  C   UNL d   1       5.633   1.220 -22.070  0.00  0.00     0.002 C 
ENDBRANCH  26  27
ENDBRANCH   1  26
TORSDOF 5
