REMARK  6 active torsions:
REMARK  status: ('A' for Active; 'I' for Inactive)
REMARK    1  A    between atoms: C_2  and  C_3 
REMARK    2  A    between atoms: N_13  and  C_14 
REMARK    3  A    between atoms: C_14  and  C_15 
REMARK    4  A    between atoms: C_15  and  C_17 
REMARK    5  A    between atoms: C_17  and  N_18 
REMARK    6  A    between atoms: N_21  and  C_22 
ROOT
ATOM      1  C   UNL d   1       9.594   5.694 -12.009  0.00  0.00     0.148 C 
ENDROOT
BRANCH   1   2
ATOM      2  N   UNL d   1       8.316   5.040 -12.185  0.00  0.00    -0.247 N 
ATOM      3  C   UNL d   1       7.625   4.501 -11.196  0.00  0.00     0.348 A 
ATOM      4  N   UNL d   1       6.498   3.986 -11.662  0.00  0.00    -0.209 NA
ATOM      5  O   UNL d   1       8.022   4.427 -10.028  0.00  0.00    -0.245 OA
ATOM      6  C   UNL d   1       6.415   4.052 -13.130  0.00  0.00     0.179 A 
ATOM      7  C   UNL d   1       5.106   4.791 -13.412  0.00  0.00     0.039 C 
ATOM      8  C   UNL d   1       7.757   4.841 -13.367  0.00  0.00     0.265 A 
ATOM      9  O   UNL d   1       8.321   5.133 -14.432  0.00  0.00    -0.269 OA
BRANCH   6  10
ATOM     10  C   UNL d   1       6.343   2.623 -13.709  0.00  0.00     0.006 A 
ATOM     11  C   UNL d   1       5.459   1.647 -13.141  0.00  0.00     0.000 A 
ATOM     12  C   UNL d   1       5.421   0.341 -13.682  0.00  0.00     0.029 A 
ATOM     13  C   UNL d   1       6.196   0.002 -14.797  0.00  0.00     0.140 A 
ATOM     14  C   UNL d   1       7.074   0.955 -15.355  0.00  0.00     0.029 A 
ATOM     15  F   UNL d   1       6.056  -1.212 -15.367  0.00  0.00    -0.204 F 
ATOM     16  C   UNL d   1       7.117   2.247 -14.828  0.00  0.00     0.000 A 
ENDBRANCH   6  10
ENDBRANCH   1   2
BRANCH   1  17
ATOM     17  C   UNL d   1       9.446   6.922 -11.110  0.00  0.00     0.208 C 
ATOM     18  O   UNL d   1       9.354   8.033 -11.953  0.00  0.00    -0.219 OA
BRANCH  17  19
ATOM     19  C   UNL d   1      10.615   7.017 -10.127  0.00  0.00     0.285 C 
BRANCH  19  20
ATOM     20  N   UNL d   1      10.265   7.649  -8.861  0.00  0.00     0.144 N 
ATOM     21  C   UNL d   1       9.902   6.674  -7.806  0.00  0.00     0.274 C 
ATOM     22  C   UNL d   1       9.517   7.350  -6.469  0.00  0.00     0.137 C 
ATOM     23  N   UNL d   1      10.557   8.297  -6.083  0.00  0.00    -0.344 N 
ATOM     24  C   UNL d   1      10.973   9.254  -7.090  0.00  0.00     0.137 C 
ATOM     25  C   UNL d   1      11.347   8.496  -8.374  0.00  0.00     0.274 C 
BRANCH  23  26
ATOM     26  C   UNL d   1      11.217   8.230  -4.844  0.00  0.00     0.056 A 
ATOM     27  C   UNL d   1      11.537   7.006  -4.218  0.00  0.00     0.017 A 
ATOM     28  C   UNL d   1      12.085   6.985  -2.924  0.00  0.00     0.002 A 
ATOM     29  C   UNL d   1      12.352   8.193  -2.249  0.00  0.00     0.000 A 
ATOM     30  C   UNL d   1      12.055   9.411  -2.889  0.00  0.00     0.002 A 
ATOM     31  C   UNL d   1      11.506   9.438  -4.173  0.00  0.00     0.017 A 
ENDBRANCH  23  26
ENDBRANCH  19  20
ENDBRANCH  17  19
ENDBRANCH   1  17
TORSDOF 6
