REMARK  6 active torsions:
REMARK  status: ('A' for Active; 'I' for Inactive)
REMARK    1  A    between atoms: O_2  and  N_3 
REMARK    2  A    between atoms: C_4  and  C_5 
REMARK    3  A    between atoms: C_4  and  C_19 
REMARK    4  A    between atoms: C_5  and  C_6 
REMARK    5  A    between atoms: C_6  and  N_7 
REMARK    6  A    between atoms: N_10  and  C_11 
ROOT
ATOM      1  C   UNL d   1      11.702   4.565 -17.944  0.00  0.00     0.257 C 
ENDROOT
BRANCH   1   2
ATOM      2  C   UNL d   1      11.599   6.088 -17.708  0.00  0.00     0.084 C 
BRANCH   2   3
ATOM      3  C   UNL d   1      11.704   6.964 -18.955  0.00  0.00     0.088 C 
ATOM      4  N   UNL d   1      10.701   7.163 -19.722  0.00  0.00    -0.136 NA
BRANCH   4   5
ATOM      5  O   UNL d   1       9.516   6.586 -19.226  0.00  0.00    -0.234 OA
ATOM      6  C   UNL d   1       8.437   6.913 -20.079  0.00  0.00     0.211 C 
ENDBRANCH   4   5
BRANCH   3   7
ATOM      7  C   UNL d   1      13.041   7.520 -19.288  0.00  0.00     0.026 A 
ATOM      8  C   UNL d   1      13.892   8.210 -18.369  0.00  0.00     0.059 A 
ATOM      9  C   UNL d   1      15.163   8.661 -18.782  0.00  0.00     0.011 A 
ATOM     10 CL   UNL d   1      13.425   8.573 -16.753  0.00  0.00    -0.082 Cl
ATOM     11  C   UNL d   1      15.589   8.480 -20.108  0.00  0.00     0.001 A 
ATOM     12  C   UNL d   1      14.739   7.847 -21.033  0.00  0.00     0.000 A 
ATOM     13  C   UNL d   1      13.485   7.367 -20.618  0.00  0.00     0.002 A 
ENDBRANCH   3   7
ENDBRANCH   2   3
ENDBRANCH   1   2
BRANCH   1  14
ATOM     14  N   UNL d   1      11.074   3.793 -16.853  0.00  0.00     0.141 N 
ATOM     15  C   UNL d   1       9.652   3.648 -17.157  0.00  0.00     0.274 C 
ATOM     16  C   UNL d   1       8.973   2.774 -16.086  0.00  0.00     0.138 C 
ATOM     17  N   UNL d   1       9.219   3.322 -14.754  0.00  0.00    -0.330 N 
ATOM     18  C   UNL d   1      10.629   3.497 -14.423  0.00  0.00     0.138 C 
ATOM     19  C   UNL d   1      11.285   4.367 -15.507  0.00  0.00     0.274 C 
BRANCH  17  20
ATOM     20  C   UNL d   1       8.153   3.666 -13.886  0.00  0.00     0.140 A 
ATOM     21  N   UNL d   1       7.001   2.978 -14.039  0.00  0.00    -0.227 NA
ATOM     22  C   UNL d   1       5.959   3.247 -13.212  0.00  0.00     0.101 A 
ATOM     23  C   UNL d   1       6.020   4.211 -12.194  0.00  0.00     0.021 A 
ATOM     24  C   UNL d   1       7.212   4.937 -12.032  0.00  0.00     0.005 A 
ATOM     25  C   UNL d   1       8.297   4.667 -12.899  0.00  0.00     0.037 A 
ENDBRANCH  17  20
ENDBRANCH   1  14
TORSDOF 6
