REMARK  6 active torsions:
REMARK  status: ('A' for Active; 'I' for Inactive)
REMARK       I    between atoms: C_2  and  N_3 
REMARK    1  A    between atoms: C_2  and  C_22 
REMARK    2  A    between atoms: N_3  and  C_4 
REMARK    3  A    between atoms: C_4  and  C_5 
REMARK    4  A    between atoms: C_6  and  C_7 
REMARK    5  A    between atoms: C_7  and  N_8 
REMARK    6  A    between atoms: N_11  and  C_12 
ROOT
ATOM      1  N   UNL d   1       6.955   3.742 -12.894  0.00  0.00     0.145 N 
ATOM      2  C   UNL d   1       5.911   2.992 -13.606  0.00  0.00     0.275 C 
ATOM      3  C   UNL d   1       6.410   1.593 -14.050  0.00  0.00     0.137 C 
ATOM      4  N   UNL d   1       7.655   1.705 -14.799  0.00  0.00    -0.344 N 
ATOM      5  C   UNL d   1       8.684   2.519 -14.167  0.00  0.00     0.137 C 
ATOM      6  C   UNL d   1       8.130   3.885 -13.766  0.00  0.00     0.275 C 
ENDROOT
BRANCH   1   7
ATOM      7  C   UNL d   1       6.438   5.046 -12.485  0.00  0.00     0.276 C 
BRANCH   7   8
ATOM      8  C   UNL d   1       7.505   5.935 -11.857  0.00  0.00     0.006 C 
ATOM      9  C   UNL d   1       8.074   6.976 -12.496  0.00  0.00    -0.003 C 
BRANCH   9  10
ATOM     10  C   UNL d   1       9.156   7.912 -11.978  0.00  0.00     0.155 C 
BRANCH  10  11
ATOM     11  N   UNL d   1       9.489   7.678 -10.581  0.00  0.00    -0.229 NA
ATOM     12  C   UNL d   1      10.476   8.264  -9.902  0.00  0.00     0.277 C 
ATOM     13  O   UNL d   1      11.316   8.993 -10.426  0.00  0.00    -0.266 OA
BRANCH  12  14
ATOM     14  C   UNL d   1      10.495   8.013  -8.423  0.00  0.00     0.077 A 
ATOM     15  C   UNL d   1      11.466   8.628  -7.598  0.00  0.00     0.104 A 
ATOM     16  N   UNL d   1      11.518   8.472  -6.260  0.00  0.00    -0.242 NA
ATOM     17  C   UNL d   1      10.617   7.655  -5.683  0.00  0.00     0.099 A 
ATOM     18  C   UNL d   1       9.603   7.006  -6.408  0.00  0.00     0.021 A 
ATOM     19  C   UNL d   1       9.530   7.192  -7.793  0.00  0.00     0.008 A 
ENDBRANCH  12  14
ENDBRANCH  10  11
ENDBRANCH   9  10
ENDBRANCH   7   8
ENDBRANCH   1   7
BRANCH   4  20
ATOM     20  C   UNL d   1       7.861   1.072 -16.045  0.00  0.00     0.068 A 
ATOM     21  C   UNL d   1       9.084   0.426 -16.378  0.00  0.00     0.084 A 
ATOM     22  C   UNL d   1       9.257  -0.140 -17.662  0.00  0.00     0.070 A 
ATOM     23 CL   UNL d   1      10.380   0.272 -15.235  0.00  0.00    -0.080 Cl
ATOM     24  C   UNL d   1       8.220  -0.095 -18.604  0.00  0.00     0.012 A 
ATOM     25 CL   UNL d   1      10.748  -0.898 -18.096  0.00  0.00    -0.081 Cl
ATOM     26  C   UNL d   1       7.004   0.517 -18.276  0.00  0.00     0.002 A 
ATOM     27  C   UNL d   1       6.825   1.098 -17.006  0.00  0.00     0.018 A 
ENDBRANCH   4  20
TORSDOF 6
