REMARK  9 active torsions:
REMARK  status: ('A' for Active; 'I' for Inactive)
REMARK    1  A    between atoms: C_2  and  C_5 
REMARK    2  A    between atoms: C_7  and  N_8 
REMARK    3  A    between atoms: N_11  and  C_12 
REMARK    4  A    between atoms: C_12  and  C_13 
REMARK    5  A    between atoms: C_13  and  C_14 
REMARK    6  A    between atoms: C_14  and  C_15 
REMARK    7  A    between atoms: C_15  and  N_16 
REMARK    8  A    between atoms: C_19  and  N_20 
REMARK    9  A    between atoms: C_32  and  C_33 
ROOT
ATOM      1  N   UNL d   1       8.549  -0.565 -19.448  0.00  0.00    -0.330 N 
ATOM      2  C   UNL d   1       8.885   0.787 -18.984  0.00  0.00     0.138 C 
ATOM      3  C   UNL d   1       8.864   1.763 -20.180  0.00  0.00     0.274 C 
ATOM      4  N   UNL d   1       9.806   1.310 -21.209  0.00  0.00     0.141 N 
ATOM      5  C   UNL d   1       9.329   0.021 -21.721  0.00  0.00     0.274 C 
ATOM      6  C   UNL d   1       9.321  -1.050 -20.603  0.00  0.00     0.138 C 
ENDROOT
BRANCH   4   7
ATOM      7  C   UNL d   1      11.202   1.211 -20.763  0.00  0.00     0.251 C 
BRANCH   7   8
ATOM      8  C   UNL d   1      11.781   2.563 -20.339  0.00  0.00     0.037 C 
BRANCH   8   9
ATOM      9  C   UNL d   1      11.595   2.891 -18.834  0.00  0.00     0.027 C 
BRANCH   9  10
ATOM     10  C   UNL d   1      11.976   4.337 -18.480  0.00  0.00     0.111 C 
BRANCH  10  11
ATOM     11  N   UNL d   1      11.028   5.299 -19.071  0.00  0.00    -0.279 N 
ATOM     12  C   UNL d   1       9.812   5.663 -18.438  0.00  0.00     0.351 A 
ATOM     13  N   UNL d   1       9.000   6.551 -19.096  0.00  0.00    -0.175 NA
ATOM     14  O   UNL d   1       9.489   5.188 -17.353  0.00  0.00    -0.244 OA
ATOM     15  C   UNL d   1       9.280   7.075 -20.282  0.00  0.00     0.146 A 
ATOM     16  C   UNL d   1      10.506   6.695 -20.953  0.00  0.00     0.056 A 
ATOM     17  C   UNL d   1      11.323   5.835 -20.312  0.00  0.00     0.083 A 
BRANCH  15  18
ATOM     18  N   UNL d   1       8.420   7.965 -20.849  0.00  0.00    -0.334 N 
ATOM     19  C   UNL d   1       8.850   9.027 -21.763  0.00  0.00     0.103 C 
ATOM     20  C   UNL d   1       8.093   8.945 -23.095  0.00  0.00     0.024 C 
ATOM     21  C   UNL d   1       6.576   8.995 -22.861  0.00  0.00     0.004 C 
ATOM     22  C   UNL d   1       6.160   7.906 -21.856  0.00  0.00     0.024 C 
ATOM     23  C   UNL d   1       6.984   7.997 -20.560  0.00  0.00     0.103 C 
ENDBRANCH  15  18
ENDBRANCH  10  11
ENDBRANCH   9  10
ENDBRANCH   8   9
ENDBRANCH   7   8
ENDBRANCH   4   7
BRANCH   1  24
ATOM     24  C   UNL d   1       7.557  -1.335 -18.842  0.00  0.00     0.143 A 
ATOM     25  N   UNL d   1       7.458  -2.633 -19.214  0.00  0.00    -0.214 NA
ATOM     26  C   UNL d   1       6.485  -3.378 -18.693  0.00  0.00     0.140 A 
ATOM     27  N   UNL d   1       5.628  -2.967 -17.753  0.00  0.00    -0.227 NA
ATOM     28  C   UNL d   1       5.713  -1.686 -17.353  0.00  0.00     0.157 A 
ATOM     29  C   UNL d   1       6.667  -0.805 -17.892  0.00  0.00     0.060 A 
BRANCH  26  30
ATOM     30  C   UNL d   1       6.481  -4.873 -19.050  0.00  0.00     0.052 C 
ATOM     31  C   UNL d   1       5.091  -5.500 -18.785  0.00  0.00     0.008 C 
ATOM     32  C   UNL d   1       7.521  -5.622 -18.205  0.00  0.00     0.008 C 
ATOM     33  C   UNL d   1       6.794  -5.061 -20.555  0.00  0.00     0.008 C 
ENDBRANCH  26  30
BRANCH  28  34
ATOM     34  C   UNL d   1       4.735  -1.218 -16.294  0.00  0.00     0.435 C 
ATOM     35  F   UNL d   1       4.798  -2.012 -15.233  0.00  0.00    -0.165 F 
ATOM     36  F   UNL d   1       5.018   0.010 -15.880  0.00  0.00    -0.165 F 
ATOM     37  F   UNL d   1       3.502  -1.225 -16.788  0.00  0.00    -0.165 F 
ENDBRANCH  28  34
ENDBRANCH   1  24
TORSDOF 9
