REMARK  4 active torsions:
REMARK  status: ('A' for Active; 'I' for Inactive)
REMARK    1  A    between atoms: C_5  and  N_6 
REMARK    2  A    between atoms: N_9  and  C_10 
REMARK    3  A    between atoms: C_10  and  C_11 
REMARK    4  A    between atoms: C_13  and  C_14 
ROOT
ATOM      1  N   UNL d   1      10.601   6.929  -8.495  0.00  0.00    -0.344 N 
ATOM      2  C   UNL d   1       9.938   5.633  -8.494  0.00  0.00     0.137 C 
ATOM      3  C   UNL d   1       8.778   5.638  -9.504  0.00  0.00     0.274 C 
ATOM      4  N   UNL d   1       9.261   6.009 -10.844  0.00  0.00     0.141 N 
ATOM      5  C   UNL d   1       9.813   7.370 -10.774  0.00  0.00     0.274 C 
ATOM      6  C   UNL d   1      11.003   7.429  -9.802  0.00  0.00     0.137 C 
ENDROOT
BRANCH   4   7
ATOM      7  C   UNL d   1       8.139   5.987 -11.781  0.00  0.00     0.251 C 
BRANCH   7   8
ATOM      8  C   UNL d   1       7.865   4.575 -12.267  0.00  0.00     0.038 A 
ATOM      9  C   UNL d   1       7.774   4.273 -13.747  0.00  0.00     0.024 A 
ATOM     10  C   UNL d   1       6.527   4.231 -12.899  0.00  0.00     0.007 A 
BRANCH   9  11
ATOM     11  C   UNL d   1       8.385   3.032 -14.314  0.00  0.00    -0.022 A 
ATOM     12  C   UNL d   1       9.788   2.882 -14.360  0.00  0.00    -0.004 A 
ATOM     13  C   UNL d   1      10.359   1.691 -14.851  0.00  0.00    -0.000 A 
ATOM     14  C   UNL d   1       9.529   0.642 -15.294  0.00  0.00    -0.000 A 
ATOM     15  C   UNL d   1       8.129   0.792 -15.266  0.00  0.00    -0.000 A 
ATOM     16  C   UNL d   1       7.563   1.988 -14.783  0.00  0.00    -0.004 A 
ENDBRANCH   9  11
ENDBRANCH   7   8
ENDBRANCH   4   7
BRANCH   1  17
ATOM     17  C   UNL d   1      10.833   7.641  -7.308  0.00  0.00     0.057 A 
ATOM     18  C   UNL d   1      10.704   9.047  -7.275  0.00  0.00     0.018 A 
ATOM     19  C   UNL d   1      10.935   9.752  -6.078  0.00  0.00     0.014 A 
ATOM     20  C   UNL d   1      11.282   9.060  -4.903  0.00  0.00     0.068 A 
ATOM     21 CL   UNL d   1      11.461   9.919  -3.425  0.00  0.00    -0.082 Cl
ATOM     22  C   UNL d   1      11.429   7.661  -4.928  0.00  0.00     0.070 A 
ATOM     23  C   UNL d   1      11.196   6.960  -6.124  0.00  0.00     0.029 A 
ATOM     24 CL   UNL d   1      11.861   6.791  -3.498  0.00  0.00    -0.081 Cl
ENDBRANCH   1  17
TORSDOF 4
