REMARK  7 active torsions:
REMARK  status: ('A' for Active; 'I' for Inactive)
REMARK    1  A    between atoms: C_8  and  O_9 
REMARK    2  A    between atoms: O_9  and  C_10 
REMARK    3  A    between atoms: C_10  and  C_11 
REMARK    4  A    between atoms: C_11  and  C_12 
REMARK    5  A    between atoms: C_12  and  C_13 
REMARK    6  A    between atoms: C_13  and  N_14 
REMARK    7  A    between atoms: N_18  and  C_19 
ROOT
ATOM      1  C   UNL d   1       9.329   7.819 -11.784  0.00  0.00     0.250 C 
ENDROOT
BRANCH   1   2
ATOM      2  C   UNL d   1      10.295   7.618 -10.601  0.00  0.00     0.038 C 
BRANCH   2   3
ATOM      3  C   UNL d   1      11.247   8.778 -10.415  0.00  0.00     0.035 C 
BRANCH   3   4
ATOM      4  C   UNL d   1      12.118   8.593  -9.214  0.00  0.00     0.151 C 
BRANCH   4   5
ATOM      5  O   UNL d   1      11.486   9.189  -8.102  0.00  0.00    -0.315 OA
BRANCH   5   6
ATOM      6  C   UNL d   1      11.540   8.488  -6.947  0.00  0.00     0.179 A 
ATOM      7  C   UNL d   1      11.447   7.082  -6.942  0.00  0.00     0.044 A 
ATOM      8  C   UNL d   1      11.636   6.444  -5.726  0.00  0.00     0.002 A 
ATOM      9  C   UNL d   1      11.819   7.195  -4.574  0.00  0.00     0.014 A 
ATOM     10  C   UNL d   1      12.052   6.484  -3.250  0.00  0.00     0.039 C 
ATOM     11  C   UNL d   1      11.861   8.599  -4.683  0.00  0.00     0.163 A 
ATOM     12  C   UNL d   1      11.767   7.339  -2.046  0.00  0.00     0.095 C 
ATOM     13  C   UNL d   1      12.103   8.816  -2.288  0.00  0.00     0.257 C 
ATOM     14  O   UNL d   1      12.251   9.532  -1.312  0.00  0.00    -0.270 OA
ATOM     15  N   UNL d   1      12.151   9.322  -3.523  0.00  0.00    -0.193 NA
ATOM     16  N   UNL d   1      11.730   9.244  -5.853  0.00  0.00    -0.204 NA
ENDBRANCH   5   6
ENDBRANCH   4   5
ENDBRANCH   3   4
ENDBRANCH   2   3
ENDBRANCH   1   2
BRANCH   1  17
ATOM     17  N   UNL d   1       8.267   6.818 -11.733  0.00  0.00     0.139 N 
ATOM     18  C   UNL d   1       8.791   5.485 -11.943  0.00  0.00     0.274 C 
ATOM     19  C   UNL d   1       7.713   4.441 -11.711  0.00  0.00     0.137 C 
ATOM     20  N   UNL d   1       6.900   4.216 -12.900  0.00  0.00    -0.345 N 
ATOM     21  C   UNL d   1       5.714   5.028 -13.120  0.00  0.00     0.104 C 
ATOM     22  C   UNL d   1       5.862   6.431 -12.471  0.00  0.00     0.059 C 
ATOM     23  C   UNL d   1       7.212   7.164 -12.683  0.00  0.00     0.252 C 
BRANCH  20  24
ATOM     24  C   UNL d   1       7.238   3.195 -13.807  0.00  0.00     0.068 A 
ATOM     25  C   UNL d   1       6.452   2.020 -13.924  0.00  0.00     0.084 A 
ATOM     26  C   UNL d   1       6.808   1.008 -14.845  0.00  0.00     0.070 A 
ATOM     27 CL   UNL d   1       5.147   1.764 -12.825  0.00  0.00    -0.080 Cl
ATOM     28  C   UNL d   1       7.958   1.149 -15.648  0.00  0.00     0.012 A 
ATOM     29 CL   UNL d   1       5.868  -0.437 -14.962  0.00  0.00    -0.081 Cl
ATOM     30  C   UNL d   1       8.754   2.303 -15.526  0.00  0.00     0.002 A 
ATOM     31  C   UNL d   1       8.406   3.304 -14.602  0.00  0.00     0.018 A 
ENDBRANCH  20  24
ENDBRANCH   1  17
TORSDOF 7
