REMARK  10 active torsions:
REMARK  status: ('A' for Active; 'I' for Inactive)
REMARK    1  A    between atoms: O_2  and  C_3 
REMARK    2  A    between atoms: C_8  and  N_9 
REMARK    3  A    between atoms: N_12  and  C_13 
REMARK    4  A    between atoms: C_13  and  C_14 
REMARK    5  A    between atoms: C_15  and  C_16 
REMARK    6  A    between atoms: C_16  and  N_17 
REMARK       I    between atoms: N_17  and  C_18 
REMARK    7  A    between atoms: C_18  and  C_20 
REMARK    8  A    between atoms: C_26  and  O_27 
REMARK    9  A    between atoms: O_27  and  C_28 
REMARK   10  A    between atoms: C_28  and  C_29 
ROOT
ATOM      1  C   UNL d   1       7.270   3.597 -13.276  0.00  0.00     0.006 C 
ATOM      2  C   UNL d   1       6.384   2.975 -14.054  0.00  0.00    -0.003 C 
ENDROOT
BRANCH   1   3
ATOM      3  C   UNL d   1       6.927   4.387 -12.057  0.00  0.00     0.276 C 
BRANCH   3   4
ATOM      4  N   UNL d   1       8.154   4.651 -11.318  0.00  0.00     0.145 N 
ATOM      5  C   UNL d   1       8.691   5.937 -11.727  0.00  0.00     0.275 C 
ATOM      6  C   UNL d   1       9.865   6.314 -10.806  0.00  0.00     0.137 C 
ATOM      7  N   UNL d   1       9.568   6.241  -9.365  0.00  0.00    -0.343 N 
ATOM      8  C   UNL d   1       8.882   5.027  -8.948  0.00  0.00     0.137 C 
ATOM      9  C   UNL d   1       7.807   4.814  -9.966  0.00  0.00     0.275 C 
BRANCH   7  10
ATOM     10  C   UNL d   1       9.877   7.285  -8.505  0.00  0.00     0.079 A 
ATOM     11  C   UNL d   1      11.089   7.996  -8.636  0.00  0.00     0.110 A 
ATOM     12  C   UNL d   1      11.383   9.057  -7.749  0.00  0.00     0.026 A 
ATOM     13  C   UNL d   1      10.446   9.457  -6.792  0.00  0.00     0.002 A 
ATOM     14  C   UNL d   1       9.202   8.789  -6.726  0.00  0.00     0.002 A 
ATOM     15  C   UNL d   1       8.949   7.686  -7.524  0.00  0.00     0.019 A 
BRANCH  11  16
ATOM     16  O   UNL d   1      11.952   7.550  -9.596  0.00  0.00    -0.327 OA
ATOM     17  C   UNL d   1      12.973   8.402 -10.030  0.00  0.00     0.181 C 
ENDBRANCH  11  16
ENDBRANCH   7  10
ENDBRANCH   3   4
ENDBRANCH   1   3
BRANCH   2  18
ATOM     18  C   UNL d   1       6.744   2.119 -15.236  0.00  0.00     0.155 C 
BRANCH  18  19
ATOM     19  N   UNL d   1       8.181   1.983 -15.481  0.00  0.00    -0.229 NA
ATOM     20  C   UNL d   1       8.788   1.609 -16.625  0.00  0.00     0.277 C 
ATOM     21  O   UNL d   1      10.013   1.555 -16.690  0.00  0.00    -0.266 OA
BRANCH  20  22
ATOM     22  C   UNL d   1       7.930   1.317 -17.835  0.00  0.00     0.080 A 
ATOM     23  C   UNL d   1       8.211   1.919 -19.098  0.00  0.00     0.099 A 
ATOM     24  C   UNL d   1       7.342   1.641 -20.191  0.00  0.00     0.025 A 
ATOM     25  C   UNL d   1       6.194   0.838 -20.029  0.00  0.00     0.009 A 
ATOM     26  C   UNL d   1       5.942   0.233 -18.793  0.00  0.00     0.035 A 
ATOM     27  C   UNL d   1       6.829   0.435 -17.721  0.00  0.00     0.013 A 
ATOM     28 BR   UNL d   1       4.389  -0.841 -18.537  0.00  0.00    -0.049 Br
BRANCH  23  29
ATOM     29  O   UNL d   1       9.284   2.789 -19.190  0.00  0.00    -0.328 OA
BRANCH  29  30
ATOM     30  C   UNL d   1       9.579   3.413 -20.438  0.00  0.00     0.187 C 
BRANCH  30  31
ATOM     31  C   UNL d   1       8.621   4.589 -20.733  0.00  0.00     0.226 C 
ATOM     32  F   UNL d   1       8.751   5.541 -19.806  0.00  0.00    -0.232 F 
ENDBRANCH  30  31
ENDBRANCH  29  30
ENDBRANCH  23  29
ENDBRANCH  20  22
ENDBRANCH  18  19
ENDBRANCH   2  18
TORSDOF 10
