REMARK  1 active torsions:
REMARK  status: ('A' for Active; 'I' for Inactive)
REMARK    1  A    between atoms: C_4  and  C_5 
ROOT
ATOM      1  C   UNL d   1      10.450   7.326  -9.584  0.00  0.00     0.242 C 
ATOM      2  C   UNL d   1      11.348   8.400 -10.165  0.00  0.00     0.040 C 
ATOM      3  C   UNL d   1      11.338   9.481  -9.113  0.00  0.00     0.042 C 
ATOM      4  C   UNL d   1      10.275   9.174  -8.079  0.00  0.00     0.259 C 
ATOM      5  C   UNL d   1      10.823   8.661  -6.800  0.00  0.00     0.086 A 
ATOM      6  N   UNL d   1      11.723   9.315  -5.988  0.00  0.00    -0.248 NA
ATOM      7  C   UNL d   1      11.877   8.607  -4.815  0.00  0.00     0.081 A 
ATOM      8  C   UNL d   1      12.649   8.826  -3.691  0.00  0.00     0.019 A 
ATOM      9  C   UNL d   1      12.653   7.883  -2.661  0.00  0.00     0.002 A 
ATOM     10  C   UNL d   1      11.925   6.686  -2.777  0.00  0.00     0.000 A 
ATOM     11  C   UNL d   1      11.164   6.471  -3.932  0.00  0.00     0.001 A 
ATOM     12  C   UNL d   1      11.110   7.421  -4.971  0.00  0.00     0.015 A 
ATOM     13  C   UNL d   1      10.436   7.505  -6.200  0.00  0.00    -0.003 A 
ATOM     14  C   UNL d   1       9.420   6.601  -6.796  0.00  0.00     0.063 C 
ATOM     15  C   UNL d   1       8.715   7.359  -7.894  0.00  0.00     0.256 C 
ATOM     16  N   UNL d   1       9.557   8.133  -8.776  0.00  0.00     0.143 N 
ENDROOT
BRANCH   1  17
ATOM     17  C   UNL d   1       9.698   6.519 -10.638  0.00  0.00     0.009 C 
ATOM     18  C   UNL d   1       9.027   7.099 -11.735  0.00  0.00    -0.002 C 
ATOM     19  C   UNL d   1       8.418   6.287 -12.713  0.00  0.00    -0.000 C 
ATOM     20  C   UNL d   1       8.574   4.890 -12.656  0.00  0.00    -0.000 C 
ATOM     21  C   UNL d   1       9.324   4.332 -11.616  0.00  0.00    -0.000 C 
ATOM     22  C   UNL d   1       9.704   5.120 -10.514  0.00  0.00    -0.002 C 
ENDBRANCH   1  17
TORSDOF 1
