REMARK  2 active torsions:
REMARK  status: ('A' for Active; 'I' for Inactive)
REMARK    1  A    between atoms: C_8  and  N_9 
REMARK       I    between atoms: N_9  and  C_10 
REMARK    2  A    between atoms: C_10  and  C_12 
ROOT
ATOM      1  N   UNL d   1       9.963   7.500  -8.674  0.00  0.00    -0.236 NA
ATOM      2  C   UNL d   1       9.821   7.283  -7.354  0.00  0.00     0.278 C 
ATOM      3  O   UNL d   1       9.097   6.415  -6.873  0.00  0.00    -0.265 OA
ENDROOT
BRANCH   2   4
ATOM      4  C   UNL d   1      10.652   8.177  -6.519  0.00  0.00     0.096 A 
ATOM      5  C   UNL d   1      11.170   7.864  -5.293  0.00  0.00     0.089 A 
ATOM      6  N   UNL d   1      11.861   9.016  -4.866  0.00  0.00    -0.228 N 
ATOM      7  C   UNL d   1      11.191   6.738  -4.441  0.00  0.00     0.019 A 
ATOM      8  N   UNL d   1      11.795  10.019  -5.794  0.00  0.00    -0.163 NA
ATOM      9  C   UNL d   1      12.521   9.074  -3.680  0.00  0.00     0.101 A 
ATOM     10  C   UNL d   1      11.084   9.490  -6.763  0.00  0.00     0.127 A 
ATOM     11  C   UNL d   1      12.523   7.981  -2.849  0.00  0.00     0.021 A 
ATOM     12  C   UNL d   1      11.854   6.798  -3.236  0.00  0.00     0.003 A 
ENDBRANCH   2   4
BRANCH   1  13
ATOM     13  C   UNL d   1       9.235   6.779  -9.717  0.00  0.00     0.111 C 
ATOM     14  C   UNL d   1       9.638   5.301  -9.781  0.00  0.00     0.058 C 
ATOM     15  C   UNL d   1       9.270   4.626 -11.133  0.00  0.00     0.221 C 
ATOM     16  N   UNL d   1       9.850   5.396 -12.235  0.00  0.00     0.135 N 
ATOM     17  C   UNL d   1       7.759   4.699 -11.391  0.00  0.00     0.035 C 
ATOM     18  C   UNL d   1       9.872   4.651 -13.489  0.00  0.00     0.285 C 
ATOM     19  C   UNL d   1       8.986   6.576 -12.284  0.00  0.00     0.221 C 
ATOM     20  C   UNL d   1       9.406   7.479 -11.097  0.00  0.00     0.058 C 
ATOM     21  C   UNL d   1       7.565   6.015 -12.154  0.00  0.00     0.035 C 
ENDBRANCH   1  13
TORSDOF 2
