REMARK  7 active torsions:
REMARK  status: ('A' for Active; 'I' for Inactive)
REMARK    1  A    between atoms: C_6  and  C_7 
REMARK    2  A    between atoms: C_10  and  S_11 
REMARK    3  A    between atoms: S_11  and  C_12 
REMARK    4  A    between atoms: C_12  and  C_13 
REMARK    5  A    between atoms: C_13  and  C_14 
REMARK    6  A    between atoms: C_14  and  N_15 
REMARK    7  A    between atoms: C_20  and  C_21 
ROOT
ATOM      1  C   UNL d   1       9.332   3.761 -14.095  0.00  0.00     0.047 C 
ENDROOT
BRANCH   1   2
ATOM      2  C   UNL d   1       8.852   4.072 -12.670  0.00  0.00     0.067 C 
BRANCH   2   3
ATOM      3  S   UNL d   1       8.709   5.859 -12.411  0.00  0.00    -0.075 SA
BRANCH   3   4
ATOM      4  C   UNL d   1       9.129   5.982 -10.695  0.00  0.00     0.193 A 
ATOM      5  N   UNL d   1       8.976   5.009  -9.797  0.00  0.00    -0.122 NA
ATOM      6  N   UNL d   1       9.460   5.520  -8.616  0.00  0.00    -0.126 NA
ATOM      7  C   UNL d   1       9.886   6.756  -8.890  0.00  0.00     0.191 A 
ATOM      8  N   UNL d   1       9.688   7.098 -10.185  0.00  0.00    -0.287 N 
ATOM      9  C   UNL d   1       9.984   8.347 -10.865  0.00  0.00     0.134 C 
BRANCH   7  10
ATOM     10  C   UNL d   1      10.480   7.604  -7.856  0.00  0.00     0.151 A 
ATOM     11  C   UNL d   1      11.618   8.374  -7.790  0.00  0.00     0.087 A 
ATOM     12  C   UNL d   1      12.709   8.604  -8.784  0.00  0.00     0.054 C 
ATOM     13  N   UNL d   1      11.673   8.976  -6.540  0.00  0.00    -0.221 NA
ATOM     14  C   UNL d   1      10.600   8.521  -5.906  0.00  0.00     0.225 A 
ATOM     15  O   UNL d   1       9.828   7.689  -6.652  0.00  0.00    -0.282 OA
ENDBRANCH   7  10
ENDBRANCH   3   4
ENDBRANCH   2   3
ENDBRANCH   1   2
BRANCH   1  16
ATOM     16  C   UNL d   1       9.305   2.255 -14.398  0.00  0.00     0.251 C 
BRANCH  16  17
ATOM     17  N   UNL d   1       9.805   1.958 -15.736  0.00  0.00     0.137 N 
ATOM     18  C   UNL d   1       9.557   0.564 -16.071  0.00  0.00     0.251 C 
ATOM     19  C   UNL d   1      10.423   0.323 -17.291  0.00  0.00     0.037 A 
ATOM     20  C   UNL d   1      11.539   1.334 -17.173  0.00  0.00     0.038 C 
ATOM     21  C   UNL d   1       9.830  -0.101 -18.625  0.00  0.00     0.024 A 
ATOM     22  C   UNL d   1      10.665  -1.070 -17.832  0.00  0.00     0.007 A 
ATOM     23  C   UNL d   1      11.248   2.082 -15.869  0.00  0.00     0.250 C 
BRANCH  21  24
ATOM     24  C   UNL d   1       8.345  -0.282 -18.761  0.00  0.00    -0.022 A 
ATOM     25  C   UNL d   1       7.794  -1.574 -18.870  0.00  0.00    -0.002 A 
ATOM     26  C   UNL d   1       6.398  -1.753 -18.915  0.00  0.00     0.029 A 
ATOM     27  C   UNL d   1       5.546  -0.635 -18.854  0.00  0.00     0.140 A 
ATOM     28  C   UNL d   1       6.088   0.657 -18.747  0.00  0.00     0.029 A 
ATOM     29  F   UNL d   1       4.202  -0.805 -18.895  0.00  0.00    -0.204 F 
ATOM     30  C   UNL d   1       7.485   0.836 -18.704  0.00  0.00    -0.002 A 
ENDBRANCH  21  24
ENDBRANCH  16  17
ENDBRANCH   1  16
TORSDOF 7
