REMARK  7 active torsions:
REMARK  status: ('A' for Active; 'I' for Inactive)
REMARK    1  A    between atoms: C_2  and  C_3 
REMARK       I    between atoms: C_2  and  N_10 
REMARK    2  A    between atoms: C_3  and  C_4 
REMARK    3  A    between atoms: N_10  and  C_11 
REMARK    4  A    between atoms: C_15  and  C_16 
REMARK    5  A    between atoms: C_16  and  C_17 
REMARK    6  A    between atoms: C_17  and  N_18 
REMARK    7  A    between atoms: N_21  and  C_22 
ROOT
ATOM      1  C   UNL d   1       8.236   2.181 -14.407  0.00  0.00     0.084 A 
ATOM      2  C   UNL d   1       9.577   2.225 -14.858  0.00  0.00     0.019 A 
ATOM      3  C   UNL d   1      10.366   3.374 -14.630  0.00  0.00     0.001 A 
ATOM      4  C   UNL d   1       9.813   4.489 -13.968  0.00  0.00    -0.004 A 
ATOM      5  C   UNL d   1       8.467   4.457 -13.548  0.00  0.00    -0.019 A 
ATOM      6  C   UNL d   1       7.687   3.313 -13.775  0.00  0.00     0.015 A 
ENDROOT
BRANCH   5   7
ATOM      7  C   UNL d   1       7.816   5.617 -12.831  0.00  0.00     0.062 C 
BRANCH   7   8
ATOM      8  C   UNL d   1       7.693   5.383 -11.312  0.00  0.00     0.255 C 
BRANCH   8   9
ATOM      9  N   UNL d   1       8.953   5.546 -10.579  0.00  0.00     0.141 N 
ATOM     10  C   UNL d   1       9.447   6.921 -10.705  0.00  0.00     0.274 C 
ATOM     11  C   UNL d   1      10.733   7.136  -9.904  0.00  0.00     0.137 C 
ATOM     12  N   UNL d   1      10.521   6.786  -8.497  0.00  0.00    -0.344 N 
ATOM     13  C   UNL d   1       9.930   5.459  -8.309  0.00  0.00     0.137 C 
ATOM     14  C   UNL d   1       8.659   5.305  -9.162  0.00  0.00     0.274 C 
BRANCH  12  15
ATOM     15  C   UNL d   1      10.867   7.624  -7.434  0.00  0.00     0.056 A 
ATOM     16  C   UNL d   1      11.133   7.097  -6.139  0.00  0.00     0.017 A 
ATOM     17  C   UNL d   1      11.460   7.938  -5.059  0.00  0.00     0.002 A 
ATOM     18  C   UNL d   1      11.550   9.331  -5.247  0.00  0.00     0.000 A 
ATOM     19  C   UNL d   1      11.310   9.873  -6.524  0.00  0.00     0.002 A 
ATOM     20  C   UNL d   1      10.966   9.032  -7.598  0.00  0.00     0.017 A 
ENDBRANCH  12  15
ENDBRANCH   8   9
ENDBRANCH   7   8
ENDBRANCH   5   7
BRANCH   1  21
ATOM     21  N   UNL d   1       7.500   0.980 -14.617  0.00  0.00    -0.211 NA
ATOM     22  C   UNL d   1       6.286   0.601 -14.159  0.00  0.00     0.262 C 
ATOM     23  O   UNL d   1       5.584   1.228 -13.362  0.00  0.00    -0.270 OA
BRANCH  22  24
ATOM     24  C   UNL d   1       5.799  -0.758 -14.667  0.00  0.00     0.136 C 
BRANCH  24  25
ATOM     25  C   UNL d   1       5.385  -0.734 -16.143  0.00  0.00     0.069 A 
ATOM     26  N   UNL d   1       6.179  -0.062 -17.009  0.00  0.00    -0.248 NA
ATOM     27  C   UNL d   1       5.812   0.015 -18.305  0.00  0.00     0.099 A 
ATOM     28  C   UNL d   1       4.658  -0.608 -18.813  0.00  0.00     0.021 A 
ATOM     29  C   UNL d   1       3.854  -1.342 -17.923  0.00  0.00     0.003 A 
ATOM     30  C   UNL d   1       4.214  -1.397 -16.563  0.00  0.00     0.015 A 
ENDBRANCH  24  25
ENDBRANCH  22  24
ENDBRANCH   1  21
TORSDOF 7
