REMARK  6 active torsions:
REMARK  status: ('A' for Active; 'I' for Inactive)
REMARK    1  A    between atoms: O_2  and  C_3 
REMARK    2  A    between atoms: C_8  and  N_9 
REMARK    3  A    between atoms: N_12  and  C_13 
REMARK    4  A    between atoms: C_13  and  C_14 
REMARK    5  A    between atoms: C_18  and  C_19 
REMARK    6  A    between atoms: C_18  and  C_25 
ROOT
ATOM      1  C   UNL d   1      13.797   4.477 -17.635  0.00  0.00     0.179 C 
ATOM      2  C   UNL d   1      14.825   3.615 -18.375  0.00  0.00     0.174 C 
ATOM      3  O   UNL d   1      15.308   4.318 -19.524  0.00  0.00    -0.348 OA
ATOM      4  C   UNL d   1      14.245   4.648 -20.416  0.00  0.00     0.178 C 
ATOM      5  C   UNL d   1      13.236   5.614 -19.715  0.00  0.00     0.158 C 
ATOM      6  O   UNL d   1      12.809   4.857 -18.584  0.00  0.00    -0.346 OA
ENDROOT
BRANCH   1   7
ATOM      7  C   UNL d   1      13.161   3.762 -16.438  0.00  0.00     0.282 C 
BRANCH   7   8
ATOM      8  N   UNL d   1      11.870   4.254 -16.013  0.00  0.00     0.144 N 
ATOM      9  C   UNL d   1      10.794   3.607 -16.768  0.00  0.00     0.274 C 
ATOM     10  C   UNL d   1       9.414   4.131 -16.401  0.00  0.00     0.137 C 
ATOM     11  N   UNL d   1       9.229   3.984 -14.957  0.00  0.00    -0.343 N 
ATOM     12  C   UNL d   1      10.279   4.533 -14.109  0.00  0.00     0.137 C 
ATOM     13  C   UNL d   1      11.635   4.002 -14.590  0.00  0.00     0.274 C 
BRANCH  11  14
ATOM     14  C   UNL d   1       8.106   3.363 -14.412  0.00  0.00     0.079 A 
ATOM     15  C   UNL d   1       7.349   3.995 -13.379  0.00  0.00     0.110 A 
ATOM     16  C   UNL d   1       6.217   3.333 -12.853  0.00  0.00     0.026 A 
ATOM     17  C   UNL d   1       5.850   2.062 -13.324  0.00  0.00     0.002 A 
ATOM     18  C   UNL d   1       6.578   1.445 -14.359  0.00  0.00     0.002 A 
ATOM     19  C   UNL d   1       7.696   2.099 -14.903  0.00  0.00     0.019 A 
BRANCH  15  20
ATOM     20  O   UNL d   1       7.754   5.248 -12.968  0.00  0.00    -0.327 OA
ATOM     21  C   UNL d   1       7.045   5.878 -11.916  0.00  0.00     0.181 C 
ENDBRANCH  15  20
ENDBRANCH  11  14
ENDBRANCH   7   8
ENDBRANCH   1   7
BRANCH   5  22
ATOM     22  C   UNL d   1      13.846   6.947 -19.265  0.00  0.00     0.008 A 
ATOM     23  C   UNL d   1      14.920   7.546 -19.965  0.00  0.00    -0.002 A 
ATOM     24  C   UNL d   1      15.462   8.769 -19.539  0.00  0.00    -0.000 A 
ATOM     25  C   UNL d   1      14.933   9.409 -18.403  0.00  0.00    -0.000 A 
ATOM     26  C   UNL d   1      13.875   8.815 -17.689  0.00  0.00    -0.000 A 
ATOM     27  C   UNL d   1      13.308   7.608 -18.138  0.00  0.00    -0.002 A 
ENDBRANCH   5  22
BRANCH   5  28
ATOM     28  C   UNL d   1      12.035   5.899 -20.629  0.00  0.00     0.008 A 
ATOM     29  C   UNL d   1      10.713   5.583 -20.239  0.00  0.00    -0.002 A 
ATOM     30  C   UNL d   1       9.626   5.871 -21.079  0.00  0.00    -0.000 A 
ATOM     31  C   UNL d   1       9.845   6.508 -22.314  0.00  0.00    -0.000 A 
ATOM     32  C   UNL d   1      11.156   6.848 -22.704  0.00  0.00    -0.000 A 
ATOM     33  C   UNL d   1      12.246   6.545 -21.864  0.00  0.00    -0.002 A 
ENDBRANCH   5  28
TORSDOF 6
