REMARK  3 active torsions:
REMARK  status: ('A' for Active; 'I' for Inactive)
REMARK    1  A    between atoms: C_5  and  C_6 
REMARK    2  A    between atoms: C_6  and  N_7 
REMARK    3  A    between atoms: N_10  and  C_11 
ROOT
ATOM      1  C   UNL d   1      10.255   0.931 -18.869  0.00  0.00     0.297 C 
ATOM      2  C   UNL d   1       9.735   1.334 -20.269  0.00  0.00     0.048 C 
ATOM      3  C   UNL d   1      10.092   2.753 -20.727  0.00  0.00     0.030 C 
ATOM      4  C   UNL d   1      10.078   3.826 -19.646  0.00  0.00    -0.006 A 
ATOM      5  C   UNL d   1       9.259   4.977 -19.596  0.00  0.00    -0.003 A 
ATOM      6  C   UNL d   1       9.521   6.008 -18.662  0.00  0.00    -0.001 A 
ATOM      7  C   UNL d   1      10.635   5.934 -17.793  0.00  0.00    -0.003 A 
ATOM      8  C   UNL d   1      11.454   4.791 -17.836  0.00  0.00    -0.005 A 
ATOM      9  C   UNL d   1      11.137   3.755 -18.715  0.00  0.00     0.054 A 
ATOM     10  N   UNL d   1      12.041   2.672 -18.555  0.00  0.00    -0.300 N 
ATOM     11  C   UNL d   1      11.737   1.355 -18.684  0.00  0.00     0.269 C 
ATOM     12  O   UNL d   1      12.584   0.469 -18.568  0.00  0.00    -0.270 OA
ATOM     13  C   UNL d   1      13.210   3.111 -17.793  0.00  0.00     0.093 C 
ATOM     14  C   UNL d   1      14.432   3.282 -18.709  0.00  0.00     0.025 C 
ATOM     15  C   UNL d   1      12.747   4.431 -17.140  0.00  0.00     0.050 C 
ENDROOT
BRANCH   1  16
ATOM     16  N   UNL d   1       9.380   1.298 -17.738  0.00  0.00     0.148 N 
ATOM     17  C   UNL d   1       8.032   0.699 -17.799  0.00  0.00     0.286 C 
ATOM     18  C   UNL d   1       7.112   1.149 -16.637  0.00  0.00     0.286 C 
ATOM     19  N   UNL d   1       7.693   0.795 -15.352  0.00  0.00     0.146 N 
ATOM     20  C   UNL d   1       9.052   1.322 -15.318  0.00  0.00     0.286 C 
ATOM     21  C   UNL d   1       9.967   0.905 -16.447  0.00  0.00     0.286 C 
BRANCH  19  22
ATOM     22  C   UNL d   1       6.889   1.266 -14.211  0.00  0.00     0.277 C 
BRANCH  22  23
ATOM     23  C   UNL d   1       7.071   2.733 -13.750  0.00  0.00     0.011 A 
ATOM     24  C   UNL d   1       5.928   3.508 -13.445  0.00  0.00    -0.003 A 
ATOM     25  C   UNL d   1       6.089   4.847 -12.982  0.00  0.00    -0.004 A 
ATOM     26  C   UNL d   1       7.394   5.404 -12.865  0.00  0.00    -0.022 A 
ATOM     27  C   UNL d   1       7.624   6.829 -12.446  0.00  0.00     0.031 C 
ATOM     28  C   UNL d   1       8.518   4.619 -13.153  0.00  0.00    -0.004 A 
ATOM     29  C   UNL d   1       8.375   3.287 -13.541  0.00  0.00    -0.003 A 
ENDBRANCH  22  23
ENDBRANCH  19  22
ENDBRANCH   1  16
TORSDOF 3
