REMARK  5 active torsions:
REMARK  status: ('A' for Active; 'I' for Inactive)
REMARK    1  A    between atoms: S_2  and  C_4 
REMARK    2  A    between atoms: S_2  and  N_11 
REMARK    3  A    between atoms: C_14  and  C_16 
REMARK    4  A    between atoms: C_16  and  C_17 
REMARK    5  A    between atoms: C_17  and  C_18 
ROOT
ATOM      1  N   UNL d   1       8.924   5.222 -11.141  0.00  0.00    -0.274 N 
ATOM      2  C   UNL d   1       9.404   4.446  -9.982  0.00  0.00     0.116 C 
ATOM      3  C   UNL d   1      10.244   5.324  -9.045  0.00  0.00     0.058 C 
ATOM      4  C   UNL d   1       9.618   6.636  -8.622  0.00  0.00     0.138 C 
ATOM      5  F   UNL d   1       8.604   6.255  -7.846  0.00  0.00    -0.240 F 
ATOM      6  C   UNL d   1       9.222   7.364  -9.899  0.00  0.00     0.058 C 
ATOM      7  C   UNL d   1       8.293   6.492 -10.798  0.00  0.00     0.116 C 
ENDROOT
BRANCH   4   8
ATOM      8  C   UNL d   1      10.662   7.495  -7.855  0.00  0.00     0.037 C 
BRANCH   8   9
ATOM      9  C   UNL d   1      10.016   8.362  -6.743  0.00  0.00     0.031 C 
BRANCH   9  10
ATOM     10  C   UNL d   1      10.858   8.393  -5.470  0.00  0.00     0.005 A 
ATOM     11  C   UNL d   1      11.331   7.212  -4.869  0.00  0.00     0.138 A 
ATOM     12  C   UNL d   1      12.072   7.217  -3.690  0.00  0.00     0.059 A 
ATOM     13  F   UNL d   1      11.048   6.033  -5.435  0.00  0.00    -0.204 F 
ATOM     14  C   UNL d   1      12.322   8.449  -3.048  0.00  0.00     0.142 A 
ATOM     15  C   UNL d   1      11.837   9.631  -3.623  0.00  0.00     0.029 A 
ATOM     16  F   UNL d   1      13.015   8.486  -1.882  0.00  0.00    -0.204 F 
ATOM     17  C   UNL d   1      11.114   9.623  -4.833  0.00  0.00     0.000 A 
ENDBRANCH   9  10
ENDBRANCH   8   9
ENDBRANCH   4   8
BRANCH   1  18
ATOM     18  S   UNL d   1       9.132   4.753 -12.803  0.00  0.00     0.264 S 
ATOM     19  O   UNL d   1      10.411   4.034 -12.922  0.00  0.00    -0.200 OA
ATOM     20  O   UNL d   1       8.856   5.942 -13.615  0.00  0.00    -0.200 OA
BRANCH  18  21
ATOM     21  C   UNL d   1       7.795   3.638 -13.156  0.00  0.00     0.103 A 
ATOM     22  C   UNL d   1       6.578   3.763 -12.463  0.00  0.00     0.015 A 
ATOM     23  C   UNL d   1       5.564   2.802 -12.660  0.00  0.00     0.030 A 
ATOM     24  C   UNL d   1       5.790   1.729 -13.552  0.00  0.00     0.140 A 
ATOM     25  C   UNL d   1       6.981   1.637 -14.282  0.00  0.00     0.030 A 
ATOM     26  F   UNL d   1       4.855   0.759 -13.661  0.00  0.00    -0.204 F 
ATOM     27  C   UNL d   1       8.010   2.585 -14.076  0.00  0.00     0.015 A 
ENDBRANCH  18  21
ENDBRANCH   1  18
TORSDOF 5
