REMARK  8 active torsions:
REMARK  status: ('A' for Active; 'I' for Inactive)
REMARK    1  A    between atoms: C_6  and  C_7 
REMARK    2  A    between atoms: C_10  and  S_11 
REMARK    3  A    between atoms: S_11  and  C_12 
REMARK    4  A    between atoms: C_12  and  C_13 
REMARK    5  A    between atoms: C_13  and  C_14 
REMARK    6  A    between atoms: C_14  and  N_15 
REMARK    7  A    between atoms: C_19  and  C_20 
REMARK    8  A    between atoms: C_23  and  C_24 
ROOT
ATOM      1  C   UNL d   1      14.327   5.485 -17.673  0.00  0.00     0.067 C 
ENDROOT
BRANCH   1   2
ATOM      2  S   UNL d   1      12.980   6.458 -16.929  0.00  0.00    -0.075 SA
BRANCH   2   3
ATOM      3  C   UNL d   1      12.220   5.162 -16.015  0.00  0.00     0.193 A 
ATOM      4  N   UNL d   1      12.659   4.752 -14.826  0.00  0.00    -0.122 NA
ATOM      5  N   UNL d   1      11.801   3.744 -14.447  0.00  0.00    -0.128 NA
ATOM      6  C   UNL d   1      10.923   3.619 -15.449  0.00  0.00     0.167 A 
ATOM      7  N   UNL d   1      11.135   4.494 -16.454  0.00  0.00    -0.289 N 
ATOM      8  C   UNL d   1      10.384   4.680 -17.690  0.00  0.00     0.134 C 
BRANCH   6   9
ATOM      9  C   UNL d   1       9.848   2.637 -15.424  0.00  0.00     0.037 A 
ATOM     10  C   UNL d   1       8.646   2.870 -14.706  0.00  0.00     0.021 A 
ATOM     11  C   UNL d   1       8.437   4.068 -13.981  0.00  0.00     0.003 A 
ATOM     12  C   UNL d   1       7.610   1.892 -14.705  0.00  0.00     0.081 A 
ATOM     13  C   UNL d   1       7.226   4.251 -13.293  0.00  0.00     0.015 A 
ATOM     14  C   UNL d   1       6.265   3.229 -13.354  0.00  0.00     0.059 A 
ATOM     15  C   UNL d   1       4.950   3.371 -12.629  0.00  0.00     0.052 C 
ATOM     16  N   UNL d   1       6.448   2.080 -14.044  0.00  0.00    -0.250 NA
ATOM     17  C   UNL d   1       7.806   0.699 -15.430  0.00  0.00     0.019 A 
ATOM     18  C   UNL d   1       8.999   0.465 -16.139  0.00  0.00     0.002 A 
ATOM     19  C   UNL d   1      10.019   1.432 -16.133  0.00  0.00     0.003 A 
ENDBRANCH   6   9
ENDBRANCH   2   3
ENDBRANCH   1   2
BRANCH   1  20
ATOM     20  C   UNL d   1      13.812   4.482 -18.714  0.00  0.00     0.047 C 
BRANCH  20  21
ATOM     21  C   UNL d   1      14.925   3.606 -19.287  0.00  0.00     0.251 C 
BRANCH  21  22
ATOM     22  N   UNL d   1      14.381   2.524 -20.105  0.00  0.00     0.137 N 
ATOM     23  C   UNL d   1      13.775   1.449 -19.312  0.00  0.00     0.254 C 
ATOM     24  C   UNL d   1      13.745   0.269 -20.279  0.00  0.00     0.052 A 
ATOM     25  C   UNL d   1      14.823   0.568 -21.282  0.00  0.00     0.039 A 
ATOM     26  C   UNL d   1      14.930  -0.665 -20.413  0.00  0.00     0.008 A 
ATOM     27  C   UNL d   1      15.428   1.890 -20.903  0.00  0.00     0.251 C 
BRANCH  24  28
ATOM     28  C   UNL d   1      12.367  -0.176 -20.754  0.00  0.00    -0.021 A 
ATOM     29  C   UNL d   1      12.234  -0.811 -22.012  0.00  0.00    -0.004 A 
ATOM     30  C   UNL d   1      10.981  -1.216 -22.494  0.00  0.00     0.004 A 
ATOM     31  C   UNL d   1       9.821  -1.027 -21.709  0.00  0.00     0.071 A 
ATOM     32  C   UNL d   1       9.933  -0.414 -20.445  0.00  0.00     0.004 A 
ATOM     33  C   UNL d   1      11.196  -0.010 -19.968  0.00  0.00    -0.004 A 
BRANCH  31  34
ATOM     34  C   UNL d   1       8.472  -1.490 -22.229  0.00  0.00     0.419 C 
ATOM     35  F   UNL d   1       7.642  -1.784 -21.224  0.00  0.00    -0.166 F 
ATOM     36  F   UNL d   1       7.937  -0.516 -22.968  0.00  0.00    -0.166 F 
ATOM     37  F   UNL d   1       8.619  -2.582 -22.987  0.00  0.00    -0.166 F 
ENDBRANCH  31  34
ENDBRANCH  24  28
ENDBRANCH  21  22
ENDBRANCH  20  21
ENDBRANCH   1  20
TORSDOF 8
