REMARK  6 active torsions:
REMARK  status: ('A' for Active; 'I' for Inactive)
REMARK    1  A    between atoms: C_5  and  O_6 
REMARK    2  A    between atoms: O_6  and  C_7 
REMARK    3  A    between atoms: C_7  and  C_8 
REMARK    4  A    between atoms: C_8  and  C_9 
REMARK    5  A    between atoms: C_9  and  N_10 
REMARK    6  A    between atoms: N_13  and  C_14 
ROOT
ATOM      1  N   UNL d   1       6.255   3.312 -12.817  0.00  0.00     0.141 N 
ATOM      2  C   UNL d   1       5.109   2.429 -12.623  0.00  0.00     0.275 C 
ATOM      3  C   UNL d   1       5.469   0.974 -12.986  0.00  0.00     0.155 C 
ATOM      4  N   UNL d   1       5.974   0.892 -14.355  0.00  0.00    -0.179 N 
ATOM      5  C   UNL d   1       7.070   1.825 -14.606  0.00  0.00     0.155 C 
ATOM      6  C   UNL d   1       6.666   3.254 -14.220  0.00  0.00     0.275 C 
ENDROOT
BRANCH   1   7
ATOM      7  C   UNL d   1       5.925   4.686 -12.430  0.00  0.00     0.253 C 
BRANCH   7   8
ATOM      8  C   UNL d   1       7.200   5.563 -12.330  0.00  0.00     0.068 C 
BRANCH   8   9
ATOM      9  C   UNL d   1       8.157   4.996 -11.268  0.00  0.00     0.151 C 
BRANCH   9  10
ATOM     10  O   UNL d   1       9.262   5.891 -11.068  0.00  0.00    -0.331 OA
BRANCH  10  11
ATOM     11  C   UNL d   1       9.545   6.349  -9.796  0.00  0.00     0.094 A 
ATOM     12  C   UNL d   1       8.790   5.955  -8.665  0.00  0.00     0.026 A 
ATOM     13  C   UNL d   1       9.087   6.481  -7.402  0.00  0.00     0.032 A 
ATOM     14  C   UNL d   1      10.155   7.385  -7.210  0.00  0.00     0.140 A 
ATOM     15  F   UNL d   1      10.447   7.870  -5.976  0.00  0.00    -0.204 F 
ATOM     16  C   UNL d   1      10.928   7.774  -8.325  0.00  0.00     0.032 A 
ATOM     17  C   UNL d   1      10.623   7.266  -9.615  0.00  0.00     0.026 A 
ENDBRANCH  10  11
ENDBRANCH   9  10
ENDBRANCH   8   9
ENDBRANCH   7   8
ENDBRANCH   1   7
BRANCH   4  18
ATOM     18  C   UNL d   1       5.460   0.025 -15.317  0.00  0.00     0.727 A 
ATOM     19  N   UNL d   1       6.099  -0.020 -16.492  0.00  0.00    -0.060 NA
ATOM     20  C   UNL d   1       5.609  -0.845 -17.435  0.00  0.00     0.120 A 
ATOM     21  C   UNL d   1       4.455  -1.612 -17.214  0.00  0.00     0.043 A 
ATOM     22  C   UNL d   1       3.857  -1.480 -15.948  0.00  0.00     0.120 A 
ATOM     23  N   UNL d   1       4.366  -0.666 -15.002  0.00  0.00    -0.060 NA
ENDBRANCH   4  18
TORSDOF 6
