REMARK  6 active torsions:
REMARK  status: ('A' for Active; 'I' for Inactive)
REMARK    1  A    between atoms: N_2  and  C_3 
REMARK    2  A    between atoms: N_2  and  C_16 
REMARK    3  A    between atoms: C_3  and  C_4 
REMARK    4  A    between atoms: C_4  and  N_5 
REMARK    5  A    between atoms: N_8  and  C_9 
REMARK    6  A    between atoms: C_16  and  C_17 
ROOT
ATOM      1  C   UNL d   1       8.601   4.534 -10.539  0.00  0.00     0.274 C 
ENDROOT
BRANCH   1   2
ATOM      2  N   UNL d   1       8.869   5.261  -9.321  0.00  0.00     0.141 N 
ATOM      3  C   UNL d   1       9.151   4.249  -8.339  0.00  0.00     0.285 C 
BRANCH   2   4
ATOM      4  C   UNL d   1      10.001   6.184  -9.464  0.00  0.00     0.250 C 
BRANCH   4   5
ATOM      5  C   UNL d   1      10.222   7.156  -8.280  0.00  0.00     0.032 C 
ATOM      6  C   UNL d   1      10.798   6.612  -6.948  0.00  0.00     0.002 C 
ATOM      7  C   UNL d   1      11.229   7.905  -6.252  0.00  0.00     0.000 C 
ATOM      8  C   UNL d   1      10.885   9.013  -7.258  0.00  0.00     0.000 C 
ATOM      9  C   UNL d   1       9.354   9.114  -7.177  0.00  0.00     0.000 C 
ATOM     10  C   UNL d   1      11.140   8.357  -8.633  0.00  0.00     0.002 C 
ATOM     11  C   UNL d   1       8.920   7.831  -7.857  0.00  0.00     0.002 C 
ATOM     12  C   UNL d   1      12.614   7.971  -8.904  0.00  0.00     0.000 C 
ATOM     13  C   UNL d   1      10.709   9.250  -9.844  0.00  0.00     0.000 C 
ENDBRANCH   4   5
ENDBRANCH   2   4
ENDBRANCH   1   2
BRANCH   1  14
ATOM     14  C   UNL d   1       8.142   5.388 -11.695  0.00  0.00     0.141 C 
BRANCH  14  15
ATOM     15  N   UNL d   1       7.949   4.529 -12.840  0.00  0.00    -0.299 N 
ATOM     16  C   UNL d   1       8.894   4.316 -13.758  0.00  0.00     0.324 A 
ATOM     17  N   UNL d   1       8.381   3.542 -14.689  0.00  0.00    -0.297 N 
ATOM     18  O   UNL d   1      10.034   4.813 -13.726  0.00  0.00    -0.247 OA
ATOM     19  C   UNL d   1       6.989   3.151 -14.415  0.00  0.00     0.130 A 
ATOM     20  C   UNL d   1       6.689   3.862 -13.106  0.00  0.00     0.130 A 
BRANCH  17  21
ATOM     21  C   UNL d   1       9.060   3.086 -15.918  0.00  0.00     0.151 C 
ATOM     22  C   UNL d   1       9.701   4.242 -16.738  0.00  0.00     0.207 C 
ATOM     23  O   UNL d   1      11.081   3.925 -16.744  0.00  0.00    -0.218 OA
ATOM     24  O   UNL d   1      11.306   3.026 -15.542  0.00  0.00    -0.218 OA
ATOM     25  C   UNL d   1      10.213   2.139 -15.551  0.00  0.00     0.207 C 
ENDBRANCH  17  21
ENDBRANCH  14  15
ENDBRANCH   1  14
TORSDOF 6
