REMARK  4 active torsions:
REMARK  status: ('A' for Active; 'I' for Inactive)
REMARK    1  A    between atoms: C_3  and  N_4 
REMARK    2  A    between atoms: C_11  and  C_12 
REMARK    3  A    between atoms: C_12  and  N_13 
REMARK    4  A    between atoms: N_16  and  C_17 
ROOT
ATOM      1  C   UNL d   1       9.604   2.053 -15.858  0.00  0.00     0.153 C 
ATOM      2  N   UNL d   1       9.346   3.123 -14.876  0.00  0.00    -0.125 N 
ATOM      3  C   UNL d   1      10.309   4.181 -14.684  0.00  0.00     0.711 A 
ATOM      4  N   UNL d   1      10.147   5.148 -13.816  0.00  0.00    -0.061 NA
ATOM      5  C   UNL d   1       8.966   5.150 -13.062  0.00  0.00     0.121 A 
ATOM      6  C   UNL d   1       8.517   6.082 -12.074  0.00  0.00     0.050 A 
ATOM      7  C   UNL d   1       7.298   5.595 -11.651  0.00  0.00     0.098 A 
ATOM      8  N   UNL d   1       7.007   4.430 -12.348  0.00  0.00    -0.238 NA
ATOM      9  C   UNL d   1       8.042   4.181 -13.218  0.00  0.00     0.156 A 
ATOM     10  C   UNL d   1       8.183   3.079 -14.159  0.00  0.00     0.294 A 
ATOM     11  O   UNL d   1       7.298   2.228 -14.264  0.00  0.00    -0.265 OA
ENDROOT
BRANCH   6  12
ATOM     12  C   UNL d   1       9.226   7.328 -11.583  0.00  0.00     0.280 C 
BRANCH  12  13
ATOM     13  N   UNL d   1      10.140   7.098 -10.464  0.00  0.00     0.146 N 
ATOM     14  C   UNL d   1      10.818   8.365 -10.151  0.00  0.00     0.275 C 
ATOM     15  C   UNL d   1      11.838   8.162  -9.017  0.00  0.00     0.137 C 
ATOM     16  N   UNL d   1      11.188   7.543  -7.872  0.00  0.00    -0.344 N 
ATOM     17  C   UNL d   1      10.388   6.358  -8.130  0.00  0.00     0.137 C 
ATOM     18  C   UNL d   1       9.406   6.640  -9.278  0.00  0.00     0.275 C 
BRANCH  16  19
ATOM     19  C   UNL d   1      11.277   8.079  -6.564  0.00  0.00     0.056 A 
ATOM     20  C   UNL d   1      11.442   7.213  -5.468  0.00  0.00     0.017 A 
ATOM     21  C   UNL d   1      11.561   7.734  -4.164  0.00  0.00     0.002 A 
ATOM     22  C   UNL d   1      11.472   9.122  -3.953  0.00  0.00     0.000 A 
ATOM     23  C   UNL d   1      11.275   9.982  -5.045  0.00  0.00     0.002 A 
ATOM     24  C   UNL d   1      11.203   9.466  -6.356  0.00  0.00     0.017 A 
ENDBRANCH  16  19
ENDBRANCH  12  13
ENDBRANCH   6  12
BRANCH   3  25
ATOM     25  N   UNL d   1      11.455   4.137 -15.489  0.00  0.00    -0.184 N 
ATOM     26  C   UNL d   1      12.760   4.531 -14.959  0.00  0.00     0.120 C 
ATOM     27  C   UNL d   1      13.506   5.252 -16.099  0.00  0.00     0.027 C 
ATOM     28  C   UNL d   1      12.880   4.680 -17.352  0.00  0.00     0.027 C 
ATOM     29  C   UNL d   1      11.441   4.388 -16.937  0.00  0.00     0.120 C 
ENDBRANCH   3  25
TORSDOF 4
