REMARK  6 active torsions:
REMARK  status: ('A' for Active; 'I' for Inactive)
REMARK    1  A    between atoms: C_2  and  C_3 
REMARK       I    between atoms: C_3  and  N_5 
REMARK    2  A    between atoms: N_5  and  C_6 
REMARK    3  A    between atoms: C_9  and  C_10 
REMARK    4  A    between atoms: C_10  and  C_11 
REMARK    5  A    between atoms: C_11  and  N_12 
REMARK    6  A    between atoms: N_15  and  C_16 
ROOT
ATOM      1  N   UNL d   1       8.818   5.017 -12.133  0.00  0.00     0.141 N 
ATOM      2  C   UNL d   1       7.512   4.359 -12.045  0.00  0.00     0.274 C 
ATOM      3  C   UNL d   1       6.885   4.188 -13.443  0.00  0.00     0.138 C 
ATOM      4  N   UNL d   1       7.836   3.509 -14.330  0.00  0.00    -0.330 N 
ATOM      5  C   UNL d   1       9.160   4.131 -14.414  0.00  0.00     0.138 C 
ATOM      6  C   UNL d   1       9.730   4.242 -12.986  0.00  0.00     0.274 C 
ENDROOT
BRANCH   1   7
ATOM      7  C   UNL d   1       9.407   5.143 -10.810  0.00  0.00     0.250 C 
BRANCH   7   8
ATOM      8  C   UNL d   1       8.769   6.244  -9.974  0.00  0.00     0.035 C 
BRANCH   8   9
ATOM      9  C   UNL d   1       9.751   6.855  -8.944  0.00  0.00     0.002 C 
ATOM     10  C   UNL d   1       9.093   7.986  -8.143  0.00  0.00     0.002 C 
ATOM     11  C   UNL d   1      10.011   8.577  -7.081  0.00  0.00     0.024 C 
ATOM     12  C   UNL d   1      10.520   7.491  -6.125  0.00  0.00     0.106 C 
ATOM     13  C   UNL d   1      11.232   6.388  -6.925  0.00  0.00     0.024 C 
ATOM     14  C   UNL d   1      10.288   5.788  -7.978  0.00  0.00     0.002 C 
BRANCH  12  15
ATOM     15  N   UNL d   1      11.425   8.100  -5.155  0.00  0.00    -0.240 NA
ATOM     16  C   UNL d   1      11.857   7.512  -4.035  0.00  0.00     0.251 C 
ATOM     17  O   UNL d   1      11.471   6.420  -3.634  0.00  0.00    -0.271 OA
BRANCH  16  18
ATOM     18  C   UNL d   1      12.950   8.252  -3.275  0.00  0.00     0.090 C 
ATOM     19  C   UNL d   1      12.523   8.627  -1.855  0.00  0.00     0.010 C 
ENDBRANCH  16  18
ENDBRANCH  12  15
ENDBRANCH   8   9
ENDBRANCH   7   8
ENDBRANCH   1   7
BRANCH   4  20
ATOM     20  C   UNL d   1       7.501   2.373 -15.074  0.00  0.00     0.141 A 
ATOM     21  C   UNL d   1       6.554   1.404 -14.606  0.00  0.00     0.040 A 
ATOM     22  C   UNL d   1       6.238   0.331 -15.497  0.00  0.00     0.034 A 
ATOM     23  C   UNL d   1       5.825   1.299 -13.359  0.00  0.00     0.011 A 
ATOM     24  C   UNL d   1       6.821   0.247 -16.765  0.00  0.00     0.027 A 
ATOM     25  S   UNL d   1       5.061  -0.756 -14.793  0.00  0.00    -0.086 SA
ATOM     26  C   UNL d   1       7.732   1.247 -17.125  0.00  0.00     0.101 A 
ATOM     27  N   UNL d   1       8.064   2.253 -16.303  0.00  0.00    -0.227 NA
ATOM     28  C   UNL d   1       5.003   0.215 -13.357  0.00  0.00     0.035 A 
ENDBRANCH   4  20
TORSDOF 6
