REMARK  9 active torsions:
REMARK  status: ('A' for Active; 'I' for Inactive)
REMARK    1  A    between atoms: C_2  and  C_3 
REMARK    2  A    between atoms: C_3  and  N_4 
REMARK    3  A    between atoms: N_4  and  C_5 
REMARK    4  A    between atoms: C_5  and  C_6 
REMARK    5  A    between atoms: C_6  and  C_7 
REMARK    6  A    between atoms: C_7  and  C_8 
REMARK    7  A    between atoms: C_8  and  N_9 
REMARK       I    between atoms: N_9  and  C_10 
REMARK    8  A    between atoms: C_10  and  C_12 
REMARK    9  A    between atoms: C_15  and  C_16 
ROOT
ATOM      1  C   UNL d   1       8.301   3.844 -13.372  0.00  0.00     0.058 A 
ATOM      2  C   UNL d   1       6.903   3.783 -13.172  0.00  0.00     0.005 A 
ATOM      3  C   UNL d   1       6.157   2.704 -13.684  0.00  0.00     0.000 A 
ATOM      4  C   UNL d   1       6.769   1.677 -14.440  0.00  0.00     0.000 A 
ATOM      5  C   UNL d   1       8.163   1.758 -14.656  0.00  0.00     0.000 A 
ATOM      6  C   UNL d   1       8.919   2.822 -14.127  0.00  0.00     0.005 A 
ENDROOT
BRANCH   1   7
ATOM      7  C   UNL d   1       9.138   4.950 -12.788  0.00  0.00     0.275 C 
ATOM      8  N   UNL d   1       8.623   5.578 -11.719  0.00  0.00    -0.234 NA
ATOM      9  O   UNL d   1      10.258   5.190 -13.241  0.00  0.00    -0.266 OA
BRANCH   8  10
ATOM     10  C   UNL d   1       9.307   6.557 -10.885  0.00  0.00     0.129 C 
BRANCH  10  11
ATOM     11  C   UNL d   1       9.526   5.992  -9.472  0.00  0.00     0.029 C 
BRANCH  11  12
ATOM     12  C   UNL d   1      10.224   6.997  -8.546  0.00  0.00     0.040 C 
BRANCH  12  13
ATOM     13  C   UNL d   1      10.519   6.410  -7.158  0.00  0.00     0.290 C 
BRANCH  13  14
ATOM     14  N   UNL d   1      11.057   7.444  -6.290  0.00  0.00     0.339 N 
BRANCH  14  15
ATOM     15  C   UNL d   1      11.328   6.892  -4.972  0.00  0.00     0.290 C 
BRANCH  15  16
ATOM     16  C   UNL d   1      11.817   8.009  -4.037  0.00  0.00     0.038 C 
ATOM     17  C   UNL d   1      12.099   7.501  -2.618  0.00  0.00     0.002 C 
ENDBRANCH  15  16
ENDBRANCH  14  15
ENDBRANCH  13  14
ENDBRANCH  12  13
ENDBRANCH  11  12
ENDBRANCH  10  11
ENDBRANCH   8  10
ENDBRANCH   1   7
BRANCH   4  18
ATOM     18  C   UNL d   1       5.976   0.557 -14.996  0.00  0.00     0.000 A 
ATOM     19  C   UNL d   1       6.276   0.023 -16.270  0.00  0.00     0.000 A 
ATOM     20  C   UNL d   1       5.512  -1.025 -16.821  0.00  0.00     0.000 A 
ATOM     21  C   UNL d   1       4.430  -1.560 -16.101  0.00  0.00     0.000 A 
ATOM     22  C   UNL d   1       4.105  -1.033 -14.839  0.00  0.00     0.000 A 
ATOM     23  C   UNL d   1       4.881   0.005 -14.285  0.00  0.00     0.000 A 
ENDBRANCH   4  18
TORSDOF 9
