REMARK  7 active torsions:
REMARK  status: ('A' for Active; 'I' for Inactive)
REMARK    1  A    between atoms: C_5  and  N_6 
REMARK    2  A    between atoms: N_9  and  C_10 
REMARK    3  A    between atoms: C_10  and  C_11 
REMARK    4  A    between atoms: C_11  and  C_12 
REMARK    5  A    between atoms: C_15  and  N_16 
REMARK       I    between atoms: N_16  and  C_17 
REMARK    6  A    between atoms: C_17  and  C_19 
REMARK    7  A    between atoms: C_26  and  C_27 
ROOT
ATOM      1  N   UNL d   1       3.469  -0.957 -14.079  0.00  0.00    -0.191 NA
ATOM      2  C   UNL d   1       4.438  -0.407 -14.396  0.00  0.00     0.101 C 
ATOM      3  C   UNL d   1       5.637   0.302 -14.771  0.00  0.00     0.070 A 
ATOM      4  C   UNL d   1       5.941   1.497 -14.090  0.00  0.00     0.027 A 
ATOM      5  C   UNL d   1       7.051   2.293 -14.469  0.00  0.00     0.057 A 
ATOM      6  C   UNL d   1       7.886   1.813 -15.518  0.00  0.00     0.021 A 
ATOM      7  C   UNL d   1       7.608   0.589 -16.176  0.00  0.00     0.074 A 
ATOM      8  C   UNL d   1       6.474  -0.158 -15.802  0.00  0.00     0.014 A 
ENDROOT
BRANCH   7   9
ATOM      9  C   UNL d   1       8.543   0.094 -17.270  0.00  0.00     0.419 C 
ATOM     10  F   UNL d   1       7.963  -0.846 -18.016  0.00  0.00    -0.166 F 
ATOM     11  F   UNL d   1       8.892   1.103 -18.068  0.00  0.00    -0.166 F 
ATOM     12  F   UNL d   1       9.639  -0.414 -16.708  0.00  0.00    -0.166 F 
ENDBRANCH   7   9
BRANCH   5  13
ATOM     13  N   UNL d   1       7.292   3.540 -13.847  0.00  0.00    -0.344 N 
ATOM     14  C   UNL d   1       6.253   4.286 -13.135  0.00  0.00     0.137 C 
ATOM     15  C   UNL d   1       6.700   4.580 -11.701  0.00  0.00     0.274 C 
ATOM     16  N   UNL d   1       7.982   5.295 -11.689  0.00  0.00     0.141 N 
ATOM     17  C   UNL d   1       9.006   4.461 -12.330  0.00  0.00     0.274 C 
ATOM     18  C   UNL d   1       8.624   4.149 -13.790  0.00  0.00     0.137 C 
BRANCH  16  19
ATOM     19  C   UNL d   1       8.346   5.593 -10.304  0.00  0.00     0.250 C 
BRANCH  19  20
ATOM     20  C   UNL d   1       9.467   6.647 -10.227  0.00  0.00     0.035 C 
BRANCH  20  21
ATOM     21  C   UNL d   1       9.631   7.285  -8.836  0.00  0.00     0.002 C 
ATOM     22  C   UNL d   1      10.590   8.489  -8.905  0.00  0.00     0.002 C 
ATOM     23  C   UNL d   1      10.751   9.158  -7.528  0.00  0.00     0.024 C 
ATOM     24  C   UNL d   1      11.224   8.151  -6.470  0.00  0.00     0.106 C 
ATOM     25  C   UNL d   1      10.268   6.939  -6.409  0.00  0.00     0.024 C 
ATOM     26  C   UNL d   1      10.107   6.277  -7.779  0.00  0.00     0.002 C 
BRANCH  24  27
ATOM     27  N   UNL d   1      11.342   8.818  -5.173  0.00  0.00    -0.238 NA
ATOM     28  C   UNL d   1      11.875   8.266  -4.073  0.00  0.00     0.291 C 
ATOM     29  O   UNL d   1      12.259   7.101  -4.021  0.00  0.00    -0.268 OA
BRANCH  28  30
ATOM     30  C   UNL d   1      12.029   9.179  -2.858  0.00  0.00     0.426 C 
ATOM     31  N   UNL d   1      12.655   8.521  -1.710  0.00  0.00     0.629 N 
ENDBRANCH  28  30
ENDBRANCH  24  27
ENDBRANCH  20  21
ENDBRANCH  19  20
ENDBRANCH  16  19
ENDBRANCH   5  13
TORSDOF 7
