REMARK  2 active torsions:
REMARK  status: ('A' for Active; 'I' for Inactive)
REMARK    1  A    between atoms: C_9  and  C_10 
REMARK    2  A    between atoms: C_10  and  C_11 
ROOT
ATOM      1  F   UNL d   1      13.059   8.614  -1.240  0.00  0.00    -0.204 F 
ATOM      2  C   UNL d   1      12.521   8.258  -2.410  0.00  0.00     0.140 A 
ATOM      3  C   UNL d   1      12.007   6.952  -2.595  0.00  0.00     0.029 A 
ATOM      4  C   UNL d   1      11.469   6.595  -3.844  0.00  0.00    -0.002 A 
ATOM      5  C   UNL d   1      11.444   7.552  -4.861  0.00  0.00    -0.026 A 
ATOM      6  C   UNL d   1      11.947   8.827  -4.684  0.00  0.00    -0.024 A 
ATOM      7  C   UNL d   1      12.501   9.196  -3.458  0.00  0.00     0.025 A 
ATOM      8  C   UNL d   1      11.863   9.641  -5.941  0.00  0.00     0.026 C 
ATOM      9  C   UNL d   1      11.347   8.633  -7.005  0.00  0.00     0.011 C 
ATOM     10  C   UNL d   1      10.932   7.339  -6.242  0.00  0.00     0.026 C 
ENDROOT
BRANCH   9  11
ATOM     11  C   UNL d   1      12.377   8.339  -8.130  0.00  0.00     0.027 C 
BRANCH  11  12
ATOM     12  C   UNL d   1      11.741   8.014  -9.495  0.00  0.00     0.129 C 
ATOM     13  N   UNL d   1      11.032   9.171  -9.989  0.00  0.00    -0.251 NA
ATOM     14  C   UNL d   1       9.861   8.764 -10.357  0.00  0.00     0.190 C 
ATOM     15  N   UNL d   1       9.604   7.426 -10.260  0.00  0.00    -0.249 NA
ATOM     16  C   UNL d   1      10.688   6.883  -9.493  0.00  0.00     0.152 C 
ENDBRANCH  11  12
ENDBRANCH   9  11
TORSDOF 2
