REMARK  9 active torsions:
REMARK  status: ('A' for Active; 'I' for Inactive)
REMARK       I    between atoms: C_2  and  N_3 
REMARK    1  A    between atoms: C_2  and  C_24 
REMARK    2  A    between atoms: N_3  and  C_4 
REMARK    3  A    between atoms: C_4  and  C_5 
REMARK    4  A    between atoms: C_6  and  C_7 
REMARK    5  A    between atoms: C_7  and  N_8 
REMARK    6  A    between atoms: N_11  and  C_12 
REMARK    7  A    between atoms: C_17  and  O_18 
REMARK    8  A    between atoms: O_18  and  C_19 
REMARK    9  A    between atoms: C_19  and  C_20 
ROOT
ATOM      1  N   UNL d   1       6.825   4.071 -12.619  0.00  0.00     0.145 N 
ATOM      2  C   UNL d   1       7.926   4.142 -13.602  0.00  0.00     0.275 C 
ATOM      3  C   UNL d   1       8.351   2.737 -14.076  0.00  0.00     0.137 C 
ATOM      4  N   UNL d   1       7.190   2.010 -14.585  0.00  0.00    -0.343 N 
ATOM      5  C   UNL d   1       6.041   1.972 -13.675  0.00  0.00     0.137 C 
ATOM      6  C   UNL d   1       5.676   3.393 -13.211  0.00  0.00     0.275 C 
ENDROOT
BRANCH   1   7
ATOM      7  C   UNL d   1       6.384   5.399 -12.190  0.00  0.00     0.276 C 
BRANCH   7   8
ATOM      8  C   UNL d   1       7.583   6.253 -11.781  0.00  0.00     0.006 C 
ATOM      9  C   UNL d   1       7.886   7.401 -12.429  0.00  0.00    -0.003 C 
BRANCH   9  10
ATOM     10  C   UNL d   1       9.091   8.288 -12.147  0.00  0.00     0.155 C 
BRANCH  10  11
ATOM     11  N   UNL d   1       9.498   8.413 -10.752  0.00  0.00    -0.228 NA
ATOM     12  C   UNL d   1      10.029   7.463  -9.988  0.00  0.00     0.293 C 
ATOM     13  O   UNL d   1      10.137   6.302 -10.366  0.00  0.00    -0.264 OA
BRANCH  12  14
ATOM     14  C   UNL d   1      10.451   7.886  -8.640  0.00  0.00     0.139 A 
ATOM     15  N   UNL d   1      10.471   6.959  -7.607  0.00  0.00    -0.241 NA
ATOM     16  C   UNL d   1      10.996   7.509  -6.457  0.00  0.00     0.082 A 
ATOM     17  C   UNL d   1      11.293   8.866  -6.787  0.00  0.00     0.019 A 
ATOM     18  C   UNL d   1      11.252   6.978  -5.183  0.00  0.00     0.019 A 
ATOM     19  C   UNL d   1      10.928   9.086  -8.156  0.00  0.00     0.025 A 
ATOM     20  C   UNL d   1      11.866   9.665  -5.780  0.00  0.00     0.002 A 
ATOM     21  C   UNL d   1      12.117   9.146  -4.493  0.00  0.00     0.000 A 
ATOM     22  C   UNL d   1      11.816   7.803  -4.195  0.00  0.00     0.002 A 
ENDBRANCH  12  14
ENDBRANCH  10  11
ENDBRANCH   9  10
ENDBRANCH   7   8
ENDBRANCH   1   7
BRANCH   4  23
ATOM     23  C   UNL d   1       7.200   1.403 -15.852  0.00  0.00     0.079 A 
ATOM     24  C   UNL d   1       6.571   0.146 -16.080  0.00  0.00     0.110 A 
ATOM     25  C   UNL d   1       6.593  -0.416 -17.379  0.00  0.00     0.026 A 
ATOM     26  C   UNL d   1       7.250   0.240 -18.441  0.00  0.00     0.002 A 
ATOM     27  C   UNL d   1       7.889   1.473 -18.219  0.00  0.00     0.002 A 
ATOM     28  C   UNL d   1       7.863   2.040 -16.933  0.00  0.00     0.019 A 
BRANCH  24  29
ATOM     29  O   UNL d   1       6.019  -0.506 -14.990  0.00  0.00    -0.326 OA
BRANCH  29  30
ATOM     30  C   UNL d   1       5.165  -1.640 -15.162  0.00  0.00     0.187 C 
BRANCH  30  31
ATOM     31  C   UNL d   1       3.702  -1.207 -14.964  0.00  0.00     0.226 C 
ATOM     32  F   UNL d   1       3.451  -0.792 -13.721  0.00  0.00    -0.232 F 
ENDBRANCH  30  31
ENDBRANCH  29  30
ENDBRANCH  24  29
ENDBRANCH   4  23
TORSDOF 9
