REMARK  9 active torsions:
REMARK  status: ('A' for Active; 'I' for Inactive)
REMARK    1  A    between atoms: C_5  and  C_6 
REMARK    2  A    between atoms: C_6  and  O_7 
REMARK    3  A    between atoms: C_6  and  C_26 
REMARK    4  A    between atoms: O_7  and  C_8 
REMARK    5  A    between atoms: N_15  and  C_16 
REMARK    6  A    between atoms: C_16  and  C_17 
REMARK    7  A    between atoms: C_17  and  C_18 
REMARK    8  A    between atoms: C_18  and  C_19 
REMARK    9  A    between atoms: C_19  and  C_20 
ROOT
ATOM      1  C   UNL d   1       8.739   3.538 -13.813  0.00  0.00     0.120 C 
ATOM      2  C   UNL d   1       7.322   3.979 -13.361  0.00  0.00     0.063 C 
ATOM      3  C   UNL d   1       7.322   5.207 -12.413  0.00  0.00     0.222 C 
ATOM      4  C   UNL d   1       8.040   6.413 -13.030  0.00  0.00     0.035 C 
ATOM      5  C   UNL d   1       9.502   6.238 -12.652  0.00  0.00     0.035 C 
ATOM      6  C   UNL d   1       9.512   4.954 -11.813  0.00  0.00     0.222 C 
ATOM      7  C   UNL d   1       9.749   3.682 -12.653  0.00  0.00     0.063 C 
ATOM      8  N   UNL d   1       8.156   4.844 -11.268  0.00  0.00     0.133 N 
ENDROOT
BRANCH   1   9
ATOM      9  O   UNL d   1       9.085   4.345 -14.937  0.00  0.00    -0.350 OA
BRANCH   9  10
ATOM     10  C   UNL d   1      10.232   3.966 -15.696  0.00  0.00     0.160 C 
BRANCH  10  11
ATOM     11  C   UNL d   1      10.061   2.569 -16.263  0.00  0.00     0.009 A 
ATOM     12  C   UNL d   1      11.195   1.826 -16.650  0.00  0.00     0.001 A 
ATOM     13  C   UNL d   1      11.036   0.517 -17.159  0.00  0.00     0.029 A 
ATOM     14  C   UNL d   1       9.748  -0.034 -17.287  0.00  0.00     0.140 A 
ATOM     15  F   UNL d   1       9.602  -1.302 -17.753  0.00  0.00    -0.204 F 
ATOM     16  C   UNL d   1       8.617   0.712 -16.904  0.00  0.00     0.029 A 
ATOM     17  C   UNL d   1       8.772   2.015 -16.394  0.00  0.00     0.001 A 
ENDBRANCH  10  11
BRANCH  10  18
ATOM     18  C   UNL d   1      10.543   4.977 -16.790  0.00  0.00     0.009 A 
ATOM     19  C   UNL d   1      11.780   5.665 -16.807  0.00  0.00     0.001 A 
ATOM     20  C   UNL d   1      12.061   6.572 -17.848  0.00  0.00     0.029 A 
ATOM     21  C   UNL d   1      11.112   6.791 -18.866  0.00  0.00     0.140 A 
ATOM     22  C   UNL d   1       9.879   6.111 -18.844  0.00  0.00     0.029 A 
ATOM     23  F   UNL d   1      11.383   7.658 -19.870  0.00  0.00    -0.204 F 
ATOM     24  C   UNL d   1       9.598   5.205 -17.808  0.00  0.00     0.001 A 
ENDBRANCH  10  18
ENDBRANCH   9  10
ENDBRANCH   1   9
BRANCH   8  25
ATOM     25  C   UNL d   1       8.005   5.790 -10.168  0.00  0.00     0.250 C 
BRANCH  25  26
ATOM     26  C   UNL d   1       8.579   5.218  -8.864  0.00  0.00     0.036 C 
BRANCH  26  27
ATOM     27  C   UNL d   1       8.907   6.332  -7.859  0.00  0.00     0.007 C 
BRANCH  27  28
ATOM     28  C   UNL d   1      10.373   6.776  -7.936  0.00  0.00     0.026 C 
BRANCH  28  29
ATOM     29  C   UNL d   1      10.761   7.676  -6.778  0.00  0.00    -0.022 A 
ATOM     30  C   UNL d   1      11.083   7.117  -5.522  0.00  0.00    -0.004 A 
ATOM     31  C   UNL d   1      11.466   7.949  -4.453  0.00  0.00    -0.000 A 
ATOM     32  C   UNL d   1      11.504   9.346  -4.626  0.00  0.00    -0.000 A 
ATOM     33  C   UNL d   1      11.179   9.906  -5.877  0.00  0.00    -0.000 A 
ATOM     34  C   UNL d   1      10.807   9.074  -6.950  0.00  0.00    -0.004 A 
ENDBRANCH  28  29
ENDBRANCH  27  28
ENDBRANCH  26  27
ENDBRANCH  25  26
ENDBRANCH   8  25
TORSDOF 9
