REMARK  6 active torsions:
REMARK  status: ('A' for Active; 'I' for Inactive)
REMARK    1  A    between atoms: S_2  and  C_4 
REMARK    2  A    between atoms: S_2  and  N_14 
REMARK    3  A    between atoms: C_17  and  C_18 
REMARK    4  A    between atoms: C_18  and  C_19 
REMARK    5  A    between atoms: C_19  and  N_20 
REMARK    6  A    between atoms: N_23  and  C_24 
ROOT
ATOM      1  N   UNL d   1       7.010   2.057 -14.074  0.00  0.00    -0.275 N 
ATOM      2  C   UNL d   1       6.184   3.263 -14.042  0.00  0.00     0.113 C 
ATOM      3  C   UNL d   1       6.811   4.361 -13.166  0.00  0.00     0.025 C 
ATOM      4  C   UNL d   1       8.309   4.627 -13.485  0.00  0.00     0.006 C 
ATOM      5  C   UNL d   1       9.096   3.314 -13.409  0.00  0.00     0.025 C 
ATOM      6  C   UNL d   1       8.476   2.272 -14.275  0.00  0.00     0.113 C 
ENDROOT
BRANCH   4   7
ATOM      7  C   UNL d   1       8.947   5.686 -12.571  0.00  0.00     0.035 C 
BRANCH   7   8
ATOM      8  C   UNL d   1       8.980   5.256 -11.081  0.00  0.00     0.250 C 
BRANCH   8   9
ATOM      9  N   UNL d   1       9.210   6.388 -10.200  0.00  0.00     0.141 N 
ATOM     10  C   UNL d   1       8.539   6.151  -8.916  0.00  0.00     0.274 C 
ATOM     11  C   UNL d   1       8.757   7.363  -7.977  0.00  0.00     0.137 C 
ATOM     12  N   UNL d   1      10.166   7.674  -7.838  0.00  0.00    -0.344 N 
ATOM     13  C   UNL d   1      10.909   7.802  -9.071  0.00  0.00     0.137 C 
ATOM     14  C   UNL d   1      10.630   6.563  -9.931  0.00  0.00     0.274 C 
BRANCH  12  15
ATOM     15  C   UNL d   1      10.779   7.840  -6.593  0.00  0.00     0.056 A 
ATOM     16  C   UNL d   1      10.709   6.805  -5.657  0.00  0.00     0.018 A 
ATOM     17  C   UNL d   1      11.345   6.897  -4.410  0.00  0.00     0.013 A 
ATOM     18  C   UNL d   1      12.003   8.088  -4.069  0.00  0.00     0.058 A 
ATOM     19  C   UNL d   1      12.113   9.124  -5.021  0.00  0.00     0.013 A 
ATOM     20 CL   UNL d   1      12.595   8.282  -2.463  0.00  0.00    -0.082 Cl
ATOM     21  C   UNL d   1      11.501   9.008  -6.288  0.00  0.00     0.018 A 
ENDBRANCH  12  15
ENDBRANCH   8   9
ENDBRANCH   7   8
ENDBRANCH   4   7
BRANCH   1  22
ATOM     22  S   UNL d   1       6.343   0.498 -13.649  0.00  0.00     0.264 S 
ATOM     23  O   UNL d   1       5.270   0.734 -12.664  0.00  0.00    -0.200 OA
ATOM     24  O   UNL d   1       7.443  -0.390 -13.340  0.00  0.00    -0.200 OA
BRANCH  22  25
ATOM     25  C   UNL d   1       5.567  -0.129 -15.157  0.00  0.00     0.105 A 
ATOM     26  C   UNL d   1       6.218  -0.098 -16.425  0.00  0.00     0.030 A 
ATOM     27  C   UNL d   1       5.522  -0.590 -17.588  0.00  0.00     0.082 A 
ATOM     28  C   UNL d   1       7.559   0.360 -16.554  0.00  0.00     0.004 A 
ATOM     29  C   UNL d   1       4.234  -1.144 -17.400  0.00  0.00     0.019 A 
ATOM     30  N   UNL d   1       6.067  -0.551 -18.832  0.00  0.00    -0.244 NA
ATOM     31  C   UNL d   1       3.624  -1.194 -16.125  0.00  0.00     0.002 A 
ATOM     32  C   UNL d   1       4.285  -0.683 -14.997  0.00  0.00     0.013 A 
ATOM     33  C   UNL d   1       7.297  -0.010 -18.980  0.00  0.00     0.099 A 
ATOM     34  C   UNL d   1       8.058   0.464 -17.870  0.00  0.00     0.021 A 
ENDBRANCH  22  25
ENDBRANCH   1  22
TORSDOF 6
