REMARK  6 active torsions:
REMARK  status: ('A' for Active; 'I' for Inactive)
REMARK       I    between atoms: C_2  and  N_3 
REMARK    1  A    between atoms: C_2  and  C_26 
REMARK    2  A    between atoms: N_3  and  C_4 
REMARK    3  A    between atoms: C_7  and  C_8 
REMARK    4  A    between atoms: C_8  and  C_9 
REMARK    5  A    between atoms: C_9  and  N_10 
REMARK    6  A    between atoms: N_13  and  C_14 
ROOT
ATOM      1  C   UNL d   1       7.468   3.925 -13.630  0.00  0.00     0.035 C 
ENDROOT
BRANCH   1   2
ATOM      2  C   UNL d   1       8.588   3.563 -14.635  0.00  0.00     0.002 C 
ATOM      3  C   UNL d   1       8.196   2.317 -15.462  0.00  0.00     0.002 C 
ATOM      4  C   UNL d   1       9.295   1.937 -16.456  0.00  0.00     0.024 C 
ATOM      5  C   UNL d   1      10.660   1.747 -15.756  0.00  0.00     0.107 C 
ATOM      6  C   UNL d   1      11.048   2.963 -14.896  0.00  0.00     0.024 C 
ATOM      7  C   UNL d   1       9.940   3.329 -13.924  0.00  0.00     0.002 C 
BRANCH   5   8
ATOM      8  N   UNL d   1      11.702   1.427 -16.726  0.00  0.00    -0.236 NA
ATOM      9  C   UNL d   1      12.107   2.206 -17.746  0.00  0.00     0.275 C 
ATOM     10  O   UNL d   1      11.738   3.363 -17.926  0.00  0.00    -0.266 OA
BRANCH   9  11
ATOM     11  C   UNL d   1      13.089   1.578 -18.675  0.00  0.00     0.058 A 
ATOM     12  C   UNL d   1      13.002   0.212 -19.015  0.00  0.00     0.005 A 
ATOM     13  C   UNL d   1      13.921  -0.349 -19.920  0.00  0.00     0.000 A 
ATOM     14  C   UNL d   1      14.922   0.462 -20.493  0.00  0.00     0.000 A 
ATOM     15  C   UNL d   1      15.003   1.831 -20.170  0.00  0.00     0.000 A 
ATOM     16  C   UNL d   1      14.090   2.388 -19.259  0.00  0.00     0.005 A 
ENDBRANCH   9  11
ENDBRANCH   5   8
ENDBRANCH   1   2
BRANCH   1  17
ATOM     17  C   UNL d   1       7.575   5.351 -13.074  0.00  0.00     0.250 C 
BRANCH  17  18
ATOM     18  N   UNL d   1       8.579   5.447 -12.032  0.00  0.00     0.141 N 
ATOM     19  C   UNL d   1       8.044   5.037 -10.722  0.00  0.00     0.274 C 
ATOM     20  C   UNL d   1       9.160   5.112  -9.654  0.00  0.00     0.137 C 
ATOM     21  N   UNL d   1       9.817   6.415  -9.647  0.00  0.00    -0.344 N 
ATOM     22  C   UNL d   1      10.164   6.968 -10.935  0.00  0.00     0.137 C 
ATOM     23  C   UNL d   1       9.022   6.835 -11.945  0.00  0.00     0.274 C 
BRANCH  21  24
ATOM     24  C   UNL d   1       9.950   7.207  -8.500  0.00  0.00     0.068 A 
ATOM     25  C   UNL d   1      11.093   8.000  -8.185  0.00  0.00     0.084 A 
ATOM     26  C   UNL d   1      11.093   8.741  -6.982  0.00  0.00     0.070 A 
ATOM     27 CL   UNL d   1      12.493   8.094  -9.208  0.00  0.00    -0.080 Cl
ATOM     28  C   UNL d   1      10.024   8.708  -6.126  0.00  0.00     0.012 A 
ATOM     29 CL   UNL d   1      12.357   9.707  -6.387  0.00  0.00    -0.081 Cl
ATOM     30  C   UNL d   1       8.909   7.962  -6.445  0.00  0.00     0.002 A 
ATOM     31  C   UNL d   1       8.857   7.191  -7.602  0.00  0.00     0.018 A 
ENDBRANCH  21  24
ENDBRANCH  17  18
ENDBRANCH   1  17
TORSDOF 6
