REMARK  6 active torsions:
REMARK  status: ('A' for Active; 'I' for Inactive)
REMARK    1  A    between atoms: O_2  and  N_3 
REMARK    2  A    between atoms: C_4  and  C_5 
REMARK    3  A    between atoms: C_4  and  C_19 
REMARK    4  A    between atoms: C_5  and  C_6 
REMARK    5  A    between atoms: C_6  and  N_7 
REMARK    6  A    between atoms: N_10  and  C_11 
ROOT
ATOM      1  C   UNL d   1      11.625   2.238 -15.793  0.00  0.00     0.083 C 
ENDROOT
BRANCH   1   2
ATOM      2  C   UNL d   1      11.359   3.645 -15.261  0.00  0.00     0.087 C 
ATOM      3  N   UNL d   1      10.907   3.817 -14.084  0.00  0.00    -0.136 NA
BRANCH   3   4
ATOM      4  O   UNL d   1      10.649   5.155 -13.774  0.00  0.00    -0.234 OA
ATOM      5  C   UNL d   1       9.647   5.167 -12.767  0.00  0.00     0.211 C 
ENDBRANCH   3   4
BRANCH   2   6
ATOM      6  C   UNL d   1      11.648   4.734 -16.212  0.00  0.00     0.020 A 
ATOM      7  C   UNL d   1      10.657   5.234 -17.087  0.00  0.00     0.031 A 
ATOM      8  C   UNL d   1      10.963   6.286 -17.974  0.00  0.00     0.142 A 
ATOM      9  C   UNL d   1      12.261   6.838 -17.994  0.00  0.00     0.059 A 
ATOM     10  F   UNL d   1      10.006   6.777 -18.799  0.00  0.00    -0.204 F 
ATOM     11  C   UNL d   1      13.254   6.330 -17.133  0.00  0.00     0.142 A 
ATOM     12  C   UNL d   1      12.949   5.273 -16.258  0.00  0.00     0.031 A 
ATOM     13  F   UNL d   1      14.502   6.857 -17.146  0.00  0.00    -0.204 F 
ENDBRANCH   2   6
ENDBRANCH   1   2
BRANCH   1  14
ATOM     14  C   UNL d   1      10.694   1.147 -15.183  0.00  0.00     0.257 C 
BRANCH  14  15
ATOM     15  N   UNL d   1       9.286   1.355 -15.513  0.00  0.00     0.141 N 
ATOM     16  C   UNL d   1       9.034   1.143 -16.941  0.00  0.00     0.274 C 
ATOM     17  C   UNL d   1       7.575   1.439 -17.276  0.00  0.00     0.138 C 
ATOM     18  N   UNL d   1       6.704   0.579 -16.480  0.00  0.00    -0.330 N 
ATOM     19  C   UNL d   1       6.957   0.641 -15.029  0.00  0.00     0.138 C 
ATOM     20  C   UNL d   1       8.457   0.417 -14.747  0.00  0.00     0.274 C 
BRANCH  18  21
ATOM     21  C   UNL d   1       5.736  -0.273 -17.043  0.00  0.00     0.140 A 
ATOM     22  N   UNL d   1       4.802  -0.793 -16.205  0.00  0.00    -0.227 NA
ATOM     23  C   UNL d   1       3.859  -1.620 -16.687  0.00  0.00     0.101 A 
ATOM     24  C   UNL d   1       3.770  -1.968 -18.045  0.00  0.00     0.021 A 
ATOM     25  C   UNL d   1       4.716  -1.436 -18.935  0.00  0.00     0.005 A 
ATOM     26  C   UNL d   1       5.712  -0.587 -18.440  0.00  0.00     0.037 A 
ENDBRANCH  18  21
ENDBRANCH  14  15
ENDBRANCH   1  14
TORSDOF 6
