REMARK  7 active torsions:
REMARK  status: ('A' for Active; 'I' for Inactive)
REMARK    1  A    between atoms: C_2  and  C_3 
REMARK    2  A    between atoms: N_13  and  C_14 
REMARK    3  A    between atoms: C_14  and  C_15 
REMARK    4  A    between atoms: C_15  and  C_17 
REMARK    5  A    between atoms: C_17  and  N_18 
REMARK    6  A    between atoms: N_21  and  C_22 
REMARK    7  A    between atoms: C_22  and  C_23 
ROOT
ATOM      1  C   UNL d   1       8.931   0.626 -16.545  0.00  0.00     0.208 C 
ATOM      2  O   UNL d   1       9.860  -0.414 -16.315  0.00  0.00    -0.219 OA
ENDROOT
BRANCH   1   3
ATOM      3  C   UNL d   1       8.194   0.359 -17.873  0.00  0.00     0.148 C 
BRANCH   3   4
ATOM      4  N   UNL d   1       9.025   0.682 -19.043  0.00  0.00    -0.247 N 
ATOM      5  C   UNL d   1       8.992   1.839 -19.720  0.00  0.00     0.348 A 
ATOM      6  N   UNL d   1       9.892   1.780 -20.708  0.00  0.00    -0.209 NA
ATOM      7  O   UNL d   1       8.264   2.800 -19.485  0.00  0.00    -0.245 OA
ATOM      8  C   UNL d   1      10.642   0.533 -20.725  0.00  0.00     0.179 A 
ATOM      9  C   UNL d   1      10.386  -0.207 -22.058  0.00  0.00     0.039 C 
ATOM     10  C   UNL d   1       9.941  -0.147 -19.555  0.00  0.00     0.265 A 
ATOM     11  O   UNL d   1      10.208  -1.281 -19.164  0.00  0.00    -0.269 OA
BRANCH   8  12
ATOM     12  C   UNL d   1      12.141   0.696 -20.409  0.00  0.00     0.006 A 
ATOM     13  C   UNL d   1      13.028  -0.399 -20.566  0.00  0.00     0.000 A 
ATOM     14  C   UNL d   1      14.403  -0.262 -20.295  0.00  0.00     0.029 A 
ATOM     15  C   UNL d   1      14.915   0.974 -19.864  0.00  0.00     0.140 A 
ATOM     16  C   UNL d   1      14.045   2.064 -19.674  0.00  0.00     0.029 A 
ATOM     17  F   UNL d   1      16.242   1.116 -19.643  0.00  0.00    -0.204 F 
ATOM     18  C   UNL d   1      12.669   1.928 -19.948  0.00  0.00     0.000 A 
ENDBRANCH   8  12
ENDBRANCH   3   4
ENDBRANCH   1   3
BRANCH   1  19
ATOM     19  C   UNL d   1       7.968   0.622 -15.336  0.00  0.00     0.285 C 
BRANCH  19  20
ATOM     20  N   UNL d   1       7.522   1.944 -14.910  0.00  0.00     0.144 N 
ATOM     21  C   UNL d   1       6.389   1.839 -13.986  0.00  0.00     0.286 C 
ATOM     22  C   UNL d   1       5.928   3.224 -13.474  0.00  0.00     0.286 C 
ATOM     23  N   UNL d   1       7.017   3.970 -12.836  0.00  0.00     0.146 N 
ATOM     24  C   UNL d   1       8.139   4.066 -13.770  0.00  0.00     0.286 C 
ATOM     25  C   UNL d   1       8.602   2.684 -14.238  0.00  0.00     0.286 C 
BRANCH  23  26
ATOM     26  C   UNL d   1       6.564   5.277 -12.358  0.00  0.00     0.277 C 
BRANCH  26  27
ATOM     27  C   UNL d   1       7.691   6.186 -11.884  0.00  0.00     0.011 A 
ATOM     28  C   UNL d   1       8.491   5.936 -10.750  0.00  0.00    -0.002 A 
ATOM     29  C   UNL d   1       9.497   6.862 -10.359  0.00  0.00    -0.000 A 
ATOM     30  C   UNL d   1       8.283   4.790  -9.971  0.00  0.00    -0.000 A 
ATOM     31  C   UNL d   1       9.719   8.030 -11.104  0.00  0.00    -0.000 A 
ATOM     32  C   UNL d   1      10.260   6.651  -9.200  0.00  0.00    -0.000 A 
ATOM     33  C   UNL d   1       8.926   8.269 -12.232  0.00  0.00    -0.000 A 
ATOM     34  C   UNL d   1       7.920   7.364 -12.607  0.00  0.00    -0.002 A 
ATOM     35  C   UNL d   1      10.033   5.498  -8.437  0.00  0.00    -0.000 A 
ATOM     36  C   UNL d   1       9.062   4.559  -8.832  0.00  0.00    -0.000 A 
ENDBRANCH  26  27
ENDBRANCH  23  26
ENDBRANCH  19  20
ENDBRANCH   1  19
TORSDOF 7
