REMARK  5 active torsions:
REMARK  status: ('A' for Active; 'I' for Inactive)
REMARK       I    between atoms: C_2  and  N_3 
REMARK       I    between atoms: C_2  and  N_27 
REMARK    1  A    between atoms: N_3  and  C_4 
REMARK    2  A    between atoms: C_7  and  C_8 
REMARK    3  A    between atoms: C_8  and  C_9 
REMARK    4  A    between atoms: C_9  and  N_10 
REMARK    5  A    between atoms: N_13  and  C_14 
ROOT
ATOM      1  C   UNL d   1       8.210   2.568 -15.074  0.00  0.00     0.108 C 
ATOM      2  C   UNL d   1       6.863   2.983 -14.440  0.00  0.00     0.025 C 
ATOM      3  C   UNL d   1       6.997   4.273 -13.610  0.00  0.00     0.002 C 
ATOM      4  C   UNL d   1       8.049   4.155 -12.518  0.00  0.00     0.002 C 
ATOM      5  C   UNL d   1       9.387   3.617 -13.132  0.00  0.00     0.002 C 
ATOM      6  C   UNL d   1       9.236   2.351 -13.983  0.00  0.00     0.025 C 
ENDROOT
BRANCH   4   7
ATOM      7  C   UNL d   1       8.201   5.449 -11.708  0.00  0.00     0.035 C 
BRANCH   7   8
ATOM      8  C   UNL d   1       9.411   5.370 -10.782  0.00  0.00     0.250 C 
BRANCH   8   9
ATOM      9  N   UNL d   1       9.184   6.090  -9.557  0.00  0.00     0.141 N 
ATOM     10  C   UNL d   1       9.965   5.464  -8.504  0.00  0.00     0.274 C 
ATOM     11  C   UNL d   1       9.667   6.151  -7.180  0.00  0.00     0.137 C 
ATOM     12  N   UNL d   1       9.983   7.565  -7.277  0.00  0.00    -0.343 N 
ATOM     13  C   UNL d   1       9.314   8.249  -8.377  0.00  0.00     0.137 C 
ATOM     14  C   UNL d   1       9.601   7.490  -9.689  0.00  0.00     0.274 C 
BRANCH  12  15
ATOM     15  C   UNL d   1      10.816   8.214  -6.342  0.00  0.00     0.081 A 
ATOM     16  C   UNL d   1      11.125   7.686  -5.063  0.00  0.00     0.135 A 
ATOM     17  C   UNL d   1      11.939   8.348  -4.176  0.00  0.00     0.121 A 
ATOM     18  O   UNL d   1      10.728   6.538  -4.458  0.00  0.00    -0.298 OA
ATOM     19  C   UNL d   1      12.545   9.550  -4.502  0.00  0.00     0.026 A 
ATOM     20  O   UNL d   1      12.056   7.658  -3.021  0.00  0.00    -0.299 OA
ATOM     21  C   UNL d   1      12.246  10.113  -5.765  0.00  0.00     0.004 A 
ATOM     22  C   UNL d   1      11.402   9.456  -6.673  0.00  0.00     0.019 A 
ATOM     23  C   UNL d   1      11.323   6.497  -3.203  0.00  0.00     0.304 A 
ENDBRANCH  12  15
ENDBRANCH   8   9
ENDBRANCH   7   8
ENDBRANCH   4   7
BRANCH   1  24
ATOM     24  N   UNL d   1       8.078   1.354 -15.869  0.00  0.00    -0.221 NA
ATOM     25  C   UNL d   1       7.769   1.315 -17.171  0.00  0.00     0.346 C 
ATOM     26  O   UNL d   1       7.898   2.269 -17.928  0.00  0.00    -0.245 OA
ATOM     27  N   UNL d   1       7.231   0.143 -17.565  0.00  0.00    -0.281 N 
ATOM     28  C   UNL d   1       6.046  -0.430 -16.970  0.00  0.00     0.060 A 
ATOM     29  C   UNL d   1       7.331  -0.334 -18.968  0.00  0.00     0.115 A 
ATOM     30  C   UNL d   1       5.376  -1.222 -17.905  0.00  0.00    -0.004 A 
ATOM     31  C   UNL d   1       5.491  -0.237 -15.677  0.00  0.00     0.017 A 
ATOM     32  C   UNL d   1       6.133  -1.284 -19.199  0.00  0.00     0.052 A 
ATOM     33  C   UNL d   1       4.142  -1.817 -17.602  0.00  0.00    -0.003 A 
ATOM     34  C   UNL d   1       3.596  -1.597 -16.324  0.00  0.00    -0.000 A 
ATOM     35  C   UNL d   1       4.259  -0.820 -15.367  0.00  0.00     0.002 A 
ENDBRANCH   1  24
TORSDOF 5
