REMARK  6 active torsions:
REMARK  status: ('A' for Active; 'I' for Inactive)
REMARK    1  A    between atoms: C_2  and  C_3 
REMARK       I    between atoms: C_2  and  N_5 
REMARK    2  A    between atoms: N_5  and  C_6 
REMARK    3  A    between atoms: C_9  and  C_10 
REMARK    4  A    between atoms: C_10  and  C_11 
REMARK    5  A    between atoms: C_11  and  N_12 
REMARK    6  A    between atoms: C_15  and  C_16 
ROOT
ATOM      1  N   UNL d   1       9.468   6.791  -9.864  0.00  0.00     0.137 N 
ATOM      2  C   UNL d   1      10.909   7.001  -9.785  0.00  0.00     0.251 C 
ATOM      3  C   UNL d   1      11.293   7.930  -8.649  0.00  0.00     0.040 C 
ATOM      4  C   UNL d   1      10.778   7.387  -7.315  0.00  0.00     0.028 C 
ATOM      5  C   UNL d   1       9.288   7.050  -7.430  0.00  0.00     0.040 C 
ATOM      6  C   UNL d   1       9.011   6.147  -8.626  0.00  0.00     0.251 C 
ENDROOT
BRANCH   1   7
ATOM      7  C   UNL d   1       9.189   5.970 -11.035  0.00  0.00     0.250 C 
BRANCH   7   8
ATOM      8  C   UNL d   1       7.699   5.883 -11.389  0.00  0.00     0.035 C 
BRANCH   8   9
ATOM      9  C   UNL d   1       7.346   4.963 -12.574  0.00  0.00     0.002 C 
ATOM     10  C   UNL d   1       8.421   3.903 -12.890  0.00  0.00     0.002 C 
ATOM     11  C   UNL d   1       7.995   2.979 -14.029  0.00  0.00     0.024 C 
ATOM     12  C   UNL d   1       6.597   2.363 -13.809  0.00  0.00     0.106 C 
ATOM     13  C   UNL d   1       5.537   3.431 -13.511  0.00  0.00     0.024 C 
ATOM     14  C   UNL d   1       5.958   4.319 -12.335  0.00  0.00     0.002 C 
BRANCH  12  15
ATOM     15  N   UNL d   1       6.256   1.535 -14.954  0.00  0.00    -0.238 NA
ATOM     16  C   UNL d   1       5.696   0.317 -14.913  0.00  0.00     0.285 C 
ATOM     17  O   UNL d   1       5.374  -0.257 -13.874  0.00  0.00    -0.268 OA
BRANCH  16  18
ATOM     18  C   UNL d   1       5.437  -0.340 -16.263  0.00  0.00     0.271 C 
ATOM     19  O   UNL d   1       6.659  -0.743 -16.849  0.00  0.00    -0.210 OA
ENDBRANCH  16  18
ENDBRANCH  12  15
ENDBRANCH   8   9
ENDBRANCH   7   8
ENDBRANCH   1   7
BRANCH   4  20
ATOM     20  C   UNL d   1      11.016   8.366  -6.199  0.00  0.00     0.004 A 
ATOM     21  C   UNL d   1      11.460   8.105  -4.861  0.00  0.00     0.021 A 
ATOM     22  C   UNL d   1      11.482   9.365  -4.208  0.00  0.00     0.100 A 
ATOM     23  C   UNL d   1      11.845   6.977  -4.104  0.00  0.00     0.002 A 
ATOM     24  O   UNL d   1      11.061  10.342  -5.071  0.00  0.00    -0.305 OA
ATOM     25  C   UNL d   1      11.883   9.531  -2.879  0.00  0.00     0.025 A 
ATOM     26  C   UNL d   1      10.829   9.724  -6.259  0.00  0.00     0.118 A 
ATOM     27  C   UNL d   1      12.283   8.393  -2.156  0.00  0.00     0.002 A 
ATOM     28  C   UNL d   1      12.257   7.118  -2.761  0.00  0.00     0.000 A 
ENDBRANCH   4  20
TORSDOF 6
