REMARK  10 active torsions:
REMARK  status: ('A' for Active; 'I' for Inactive)
REMARK    1  A    between atoms: O_2  and  C_3 
REMARK    2  A    between atoms: C_9  and  C_10 
REMARK    3  A    between atoms: C_12  and  C_13 
REMARK    4  A    between atoms: C_13  and  N_14 
REMARK    5  A    between atoms: N_14  and  C_15 
REMARK    6  A    between atoms: C_15  and  C_16 
REMARK    7  A    between atoms: C_16  and  C_17 
REMARK    8  A    between atoms: C_17  and  C_18 
REMARK    9  A    between atoms: C_18  and  O_19 
REMARK   10  A    between atoms: O_19  and  C_20 
ROOT
ATOM      1  C   UNL d   1       9.448   6.186 -12.392  0.00  0.00     0.290 C 
ENDROOT
BRANCH   1   2
ATOM      2  N   UNL d   1       8.393   5.286 -12.838  0.00  0.00     0.339 N 
BRANCH   2   3
ATOM      3  C   UNL d   1       8.878   4.402 -13.881  0.00  0.00     0.290 C 
BRANCH   3   4
ATOM      4  C   UNL d   1      10.066   3.552 -13.434  0.00  0.00     0.041 A 
ATOM      5  C   UNL d   1      10.524   2.386 -14.269  0.00  0.00     0.026 A 
ATOM      6  C   UNL d   1      11.373   3.635 -14.187  0.00  0.00     0.007 A 
BRANCH   5   7
ATOM      7  C   UNL d   1       9.746   2.006 -15.485  0.00  0.00     0.001 A 
ATOM      8  C   UNL d   1       8.552   1.252 -15.384  0.00  0.00     0.090 A 
ATOM      9  C   UNL d   1       7.803   0.983 -16.556  0.00  0.00     0.025 A 
ATOM     10  C   UNL d   1       8.234   1.465 -17.806  0.00  0.00     0.013 A 
ATOM     11  C   UNL d   1       9.422   2.211 -17.899  0.00  0.00     0.058 A 
ATOM     12 CL   UNL d   1       9.957   2.822 -19.422  0.00  0.00    -0.082 Cl
ATOM     13  C   UNL d   1      10.175   2.474 -16.753  0.00  0.00     0.009 A 
BRANCH   8  14
ATOM     14  O   UNL d   1       8.164   0.835 -14.124  0.00  0.00    -0.328 OA
ATOM     15  C   UNL d   1       6.947   0.110 -13.998  0.00  0.00     0.181 C 
ENDBRANCH   8  14
ENDBRANCH   5   7
ENDBRANCH   3   4
ENDBRANCH   2   3
ENDBRANCH   1   2
BRANCH   1  16
ATOM     16  C   UNL d   1       8.959   7.082 -11.273  0.00  0.00     0.041 C 
BRANCH  16  17
ATOM     17  C   UNL d   1      10.118   7.900 -10.676  0.00  0.00     0.035 C 
BRANCH  17  18
ATOM     18  C   UNL d   1       9.626   8.883  -9.580  0.00  0.00     0.149 C 
BRANCH  18  19
ATOM     19  O   UNL d   1      10.675   9.429  -8.783  0.00  0.00    -0.331 OA
BRANCH  19  20
ATOM     20  C   UNL d   1      10.941   8.738  -7.621  0.00  0.00     0.096 A 
ATOM     21  C   UNL d   1      11.291   9.492  -6.457  0.00  0.00     0.043 A 
ATOM     22  C   UNL d   1      11.520   8.800  -5.242  0.00  0.00     0.087 A 
ATOM     23  C   UNL d   1      11.458   7.399  -5.207  0.00  0.00     0.018 A 
ATOM     24  N   UNL d   1      11.812   9.488  -4.031  0.00  0.00    -0.208 NA
ATOM     25  C   UNL d   1      11.159   6.668  -6.358  0.00  0.00     0.004 A 
ATOM     26  C   UNL d   1      11.715   6.733  -3.940  0.00  0.00     0.006 A 
ATOM     27  C   UNL d   1      10.880   7.333  -7.560  0.00  0.00     0.024 A 
ATOM     28  C   UNL d   1      11.977   7.428  -2.823  0.00  0.00     0.063 A 
ATOM     29  C   UNL d   1      12.048   8.882  -2.842  0.00  0.00     0.279 A 
ATOM     30  O   UNL d   1      12.255   9.537  -1.827  0.00  0.00    -0.265 OA
ENDBRANCH  19  20
ENDBRANCH  18  19
ENDBRANCH  17  18
ENDBRANCH  16  17
ENDBRANCH   1  16
TORSDOF 10
