REMARK  7 active torsions:
REMARK  status: ('A' for Active; 'I' for Inactive)
REMARK    1  A    between atoms: C_2  and  C_3 
REMARK       I    between atoms: C_2  and  N_6 
REMARK    2  A    between atoms: C_3  and  C_4 
REMARK    3  A    between atoms: N_6  and  C_7 
REMARK    4  A    between atoms: C_10  and  C_11 
REMARK    5  A    between atoms: C_11  and  C_12 
REMARK    6  A    between atoms: C_12  and  N_13 
REMARK    7  A    between atoms: N_16  and  C_17 
ROOT
ATOM      1  N   UNL d   1       8.216   5.742 -11.905  0.00  0.00     0.141 N 
ATOM      2  C   UNL d   1       9.164   4.975 -12.703  0.00  0.00     0.274 C 
ATOM      3  C   UNL d   1       8.493   4.519 -13.994  0.00  0.00     0.138 C 
ATOM      4  N   UNL d   1       7.298   3.737 -13.698  0.00  0.00    -0.330 N 
ATOM      5  C   UNL d   1       6.345   4.381 -12.780  0.00  0.00     0.138 C 
ATOM      6  C   UNL d   1       7.109   4.864 -11.529  0.00  0.00     0.274 C 
ENDROOT
BRANCH   1   7
ATOM      7  C   UNL d   1       8.870   6.170 -10.683  0.00  0.00     0.250 C 
BRANCH   7   8
ATOM      8  C   UNL d   1       9.544   7.545 -10.878  0.00  0.00     0.035 C 
BRANCH   8   9
ATOM      9  C   UNL d   1      10.182   8.097  -9.588  0.00  0.00     0.002 C 
ATOM     10  C   UNL d   1       9.132   8.572  -8.601  0.00  0.00     0.002 C 
ATOM     11  C   UNL d   1       9.663   9.021  -7.271  0.00  0.00     0.024 C 
ATOM     12  C   UNL d   1      10.568   7.983  -6.639  0.00  0.00     0.106 C 
ATOM     13  C   UNL d   1      11.695   7.577  -7.599  0.00  0.00     0.024 C 
ATOM     14  C   UNL d   1      11.105   7.074  -8.922  0.00  0.00     0.002 C 
BRANCH  12  15
ATOM     15  N   UNL d   1      11.108   8.581  -5.420  0.00  0.00    -0.240 NA
ATOM     16  C   UNL d   1      11.489   7.887  -4.356  0.00  0.00     0.254 C 
ATOM     17  O   UNL d   1      11.467   6.661  -4.298  0.00  0.00    -0.270 OA
BRANCH  16  18
ATOM     18  C   UNL d   1      11.961   8.713  -3.159  0.00  0.00     0.125 C 
BRANCH  18  19
ATOM     19  C   UNL d   1      12.972   7.972  -2.293  0.00  0.00     0.192 C 
ATOM     20  O   UNL d   1      13.387   8.780  -1.230  0.00  0.00    -0.220 OA
ENDBRANCH  18  19
ENDBRANCH  16  18
ENDBRANCH  12  15
ENDBRANCH   8   9
ENDBRANCH   7   8
ENDBRANCH   1   7
BRANCH   4  21
ATOM     21  C   UNL d   1       7.065   2.452 -14.254  0.00  0.00     0.142 A 
ATOM     22  C   UNL d   1       7.871   1.854 -15.292  0.00  0.00     0.059 A 
ATOM     23  C   UNL d   1       7.487   0.559 -15.713  0.00  0.00     0.104 A 
ATOM     24  C   UNL d   1       9.027   2.177 -16.107  0.00  0.00     0.032 A 
ATOM     25  C   UNL d   1       6.386  -0.125 -15.192  0.00  0.00     0.045 A 
ATOM     26  O   UNL d   1       8.353   0.099 -16.695  0.00  0.00    -0.305 OA
ATOM     27  C   UNL d   1       5.665   0.539 -14.191  0.00  0.00     0.103 A 
ATOM     28  N   UNL d   1       6.002   1.761 -13.750  0.00  0.00    -0.227 NA
ATOM     29  C   UNL d   1       9.271   1.089 -16.896  0.00  0.00     0.123 A 
ENDBRANCH   4  21
TORSDOF 7
