REMARK  7 active torsions:
REMARK  status: ('A' for Active; 'I' for Inactive)
REMARK    1  A    between atoms: O_2  and  C_3 
REMARK    2  A    between atoms: C_8  and  N_9 
REMARK    3  A    between atoms: N_12  and  C_13 
REMARK    4  A    between atoms: C_13  and  C_14 
REMARK    5  A    between atoms: C_14  and  C_15 
REMARK    6  A    between atoms: N_17  and  C_18 
REMARK    7  A    between atoms: C_24  and  C_25 
ROOT
ATOM      1  C   UNL d   1      14.346   4.807 -18.508  0.00  0.00     0.103 A 
ATOM      2  C   UNL d   1      15.597   5.103 -18.050  0.00  0.00     0.119 A 
ATOM      3  N   UNL d   1      16.150   5.853 -19.071  0.00  0.00    -0.209 N 
ATOM      4  N   UNL d   1      15.266   6.016 -20.088  0.00  0.00    -0.060 NA
ATOM      5  N   UNL d   1      14.175   5.403 -19.754  0.00  0.00    -0.133 NA
ENDROOT
BRANCH   1   6
ATOM      6  C   UNL d   1      13.262   4.012 -17.853  0.00  0.00     0.085 C 
BRANCH   6   7
ATOM      7  C   UNL d   1      12.894   4.576 -16.468  0.00  0.00     0.257 C 
BRANCH   7   8
ATOM      8  N   UNL d   1      11.874   3.774 -15.808  0.00  0.00     0.141 N 
ATOM      9  C   UNL d   1      10.562   3.987 -16.435  0.00  0.00     0.274 C 
ATOM     10  C   UNL d   1       9.501   3.111 -15.766  0.00  0.00     0.137 C 
ATOM     11  N   UNL d   1       9.462   3.401 -14.341  0.00  0.00    -0.343 N 
ATOM     12  C   UNL d   1      10.736   3.321 -13.650  0.00  0.00     0.137 C 
ATOM     13  C   UNL d   1      11.786   4.173 -14.395  0.00  0.00     0.274 C 
BRANCH  11  14
ATOM     14  C   UNL d   1       8.290   3.760 -13.665  0.00  0.00     0.079 A 
ATOM     15  C   UNL d   1       7.043   3.105 -13.908  0.00  0.00     0.110 A 
ATOM     16  C   UNL d   1       5.892   3.534 -13.234  0.00  0.00     0.026 A 
ATOM     17  C   UNL d   1       5.948   4.578 -12.293  0.00  0.00     0.002 A 
ATOM     18  C   UNL d   1       7.168   5.222 -12.037  0.00  0.00     0.002 A 
ATOM     19  C   UNL d   1       8.324   4.817 -12.715  0.00  0.00     0.019 A 
BRANCH  15  20
ATOM     20  O   UNL d   1       6.874   2.078 -14.815  0.00  0.00    -0.327 OA
ATOM     21  C   UNL d   1       7.519   0.848 -14.468  0.00  0.00     0.181 C 
ENDBRANCH  15  20
ENDBRANCH  11  14
ENDBRANCH   7   8
ENDBRANCH   6   7
ENDBRANCH   1   6
BRANCH   3  22
ATOM     22  C   UNL d   1      17.453   6.394 -19.154  0.00  0.00     0.088 A 
ATOM     23  C   UNL d   1      18.126   6.414 -20.359  0.00  0.00     0.039 A 
ATOM     24  C   UNL d   1      19.433   6.970 -20.429  0.00  0.00     0.089 A 
ATOM     25  N   UNL d   1      19.991   7.477 -19.237  0.00  0.00    -0.228 N 
ATOM     26  C   UNL d   1      20.383   7.176 -21.396  0.00  0.00     0.081 A 
ATOM     27  C   UNL d   1      19.338   7.450 -18.042  0.00  0.00     0.102 A 
ATOM     28  N   UNL d   1      21.244   7.996 -19.446  0.00  0.00    -0.164 NA
ATOM     29  C   UNL d   1      18.076   6.901 -17.983  0.00  0.00     0.040 A 
ATOM     30  C   UNL d   1      21.466   7.790 -20.726  0.00  0.00     0.125 A 
BRANCH  26  31
ATOM     31  C   UNL d   1      20.258   6.803 -22.793  0.00  0.00     0.237 C 
ATOM     32  O   UNL d   1      19.230   6.408 -23.342  0.00  0.00    -0.283 OA
ENDBRANCH  26  31
ENDBRANCH   3  22
TORSDOF 7
