REMARK  7 active torsions:
REMARK  status: ('A' for Active; 'I' for Inactive)
REMARK    1  A    between atoms: C_2  and  C_5 
REMARK    2  A    between atoms: C_5  and  C_6 
REMARK       I    between atoms: C_6  and  N_8 
REMARK    3  A    between atoms: N_8  and  C_9 
REMARK    4  A    between atoms: C_12  and  C_13 
REMARK    5  A    between atoms: C_13  and  C_14 
REMARK    6  A    between atoms: C_14  and  N_15 
REMARK    7  A    between atoms: C_18  and  C_19 
ROOT
ATOM      1  C   UNL d   1       9.484   3.622 -13.001  0.00  0.00     0.250 C 
ENDROOT
BRANCH   1   2
ATOM      2  C   UNL d   1       8.466   2.913 -13.931  0.00  0.00     0.035 C 
BRANCH   2   3
ATOM      3  C   UNL d   1       9.154   1.944 -14.903  0.00  0.00     0.002 C 
ATOM      4  C   UNL d   1       8.131   1.359 -15.899  0.00  0.00     0.002 C 
ATOM      5  C   UNL d   1       8.800   0.404 -16.900  0.00  0.00     0.024 C 
ATOM      6  C   UNL d   1       9.972   1.084 -17.628  0.00  0.00     0.106 C 
ATOM      7  C   UNL d   1      10.980   1.664 -16.623  0.00  0.00     0.024 C 
ATOM      8  C   UNL d   1      10.311   2.629 -15.658  0.00  0.00     0.002 C 
BRANCH   6   9
ATOM      9  N   UNL d   1      10.632   0.119 -18.503  0.00  0.00    -0.240 NA
ATOM     10  C   UNL d   1      11.629   0.431 -19.345  0.00  0.00     0.254 C 
ATOM     11  O   UNL d   1      12.085   1.572 -19.459  0.00  0.00    -0.271 OA
BRANCH  10  12
ATOM     12  C   UNL d   1      12.166  -0.710 -20.211  0.00  0.00     0.120 C 
BRANCH  12  13
ATOM     13  C   UNL d   1      13.390  -0.393 -21.116  0.00  0.00     0.136 C 
ATOM     14  C   UNL d   1      13.658  -1.574 -22.059  0.00  0.00     0.034 C 
ATOM     15  C   UNL d   1      14.657  -0.056 -20.305  0.00  0.00     0.034 C 
ATOM     16  O   UNL d   1      13.108   0.691 -21.986  0.00  0.00    -0.226 OA
ENDBRANCH  12  13
ENDBRANCH  10  12
ENDBRANCH   6   9
ENDBRANCH   2   3
ENDBRANCH   1   2
BRANCH   1  17
ATOM     17  N   UNL d   1       8.972   4.964 -12.751  0.00  0.00     0.137 N 
ATOM     18  C   UNL d   1      10.153   5.711 -12.324  0.00  0.00     0.251 C 
ATOM     19  C   UNL d   1       9.847   7.199 -12.041  0.00  0.00     0.040 C 
ATOM     20  C   UNL d   1       8.824   7.220 -10.951  0.00  0.00     0.028 C 
ATOM     21  C   UNL d   1       7.567   6.414 -11.434  0.00  0.00     0.040 C 
ATOM     22  C   UNL d   1       7.923   4.949 -11.748  0.00  0.00     0.251 C 
BRANCH  20  23
ATOM     23  C   UNL d   1       9.311   6.819  -9.571  0.00  0.00     0.004 A 
ATOM     24  C   UNL d   1       9.695   7.693  -8.490  0.00  0.00     0.021 A 
ATOM     25  C   UNL d   1      10.053   6.856  -7.393  0.00  0.00     0.100 A 
ATOM     26  C   UNL d   1       9.819   9.093  -8.249  0.00  0.00     0.002 A 
ATOM     27  O   UNL d   1       9.865   5.568  -7.757  0.00  0.00    -0.305 OA
ATOM     28  C   UNL d   1      10.525   7.321  -6.159  0.00  0.00     0.025 A 
ATOM     29  C   UNL d   1       9.432   5.543  -9.017  0.00  0.00     0.118 A 
ATOM     30  C   UNL d   1      10.670   8.691  -5.959  0.00  0.00     0.002 A 
ATOM     31  C   UNL d   1      10.318   9.567  -7.008  0.00  0.00     0.000 A 
ENDBRANCH  20  23
ENDBRANCH   1  17
TORSDOF 7
