REMARK  3 active torsions:
REMARK  status: ('A' for Active; 'I' for Inactive)
REMARK    1  A    between atoms: C_2  and  C_3 
REMARK    2  A    between atoms: C_3  and  N_4 
REMARK    3  A    between atoms: C_13  and  O_14 
ROOT
ATOM      1  N   UNL d   1      10.298   0.988 -17.089  0.00  0.00     0.140 N 
ATOM      2  C   UNL d   1       9.267   0.136 -17.670  0.00  0.00     0.251 C 
ATOM      3  C   UNL d   1       8.045   0.472 -16.828  0.00  0.00     0.042 C 
ATOM      4  C   UNL d   1       8.610   0.620 -15.418  0.00  0.00     0.057 C 
ATOM      5  C   UNL d   1       7.838   1.651 -14.590  0.00  0.00    -0.002 A 
ATOM      6  C   UNL d   1       8.368   2.947 -14.384  0.00  0.00    -0.024 A 
ATOM      7  C   UNL d   1       7.646   3.901 -13.640  0.00  0.00    -0.004 A 
ATOM      8  C   UNL d   1       6.385   3.575 -13.111  0.00  0.00     0.002 A 
ATOM      9  C   UNL d   1       5.851   2.286 -13.310  0.00  0.00     0.024 A 
ATOM     10  C   UNL d   1       6.567   1.313 -14.057  0.00  0.00     0.090 A 
ATOM     11  C   UNL d   1       9.726   3.313 -14.953  0.00  0.00     0.028 C 
ATOM     12  C   UNL d   1      10.685   2.121 -14.906  0.00  0.00     0.038 C 
ATOM     13  C   UNL d   1      10.123   0.886 -15.636  0.00  0.00     0.224 C 
ENDROOT
BRANCH   1  14
ATOM     14  C   UNL d   1      11.644   0.618 -17.526  0.00  0.00     0.276 C 
BRANCH  14  15
ATOM     15  C   UNL d   1      11.830   0.737 -19.025  0.00  0.00     0.009 C 
ATOM     16  C   UNL d   1      12.382  -0.216 -19.792  0.00  0.00    -0.003 C 
ENDBRANCH  14  15
ENDBRANCH   1  14
BRANCH  10  17
ATOM     17  O   UNL d   1       6.098   0.036 -14.286  0.00  0.00    -0.328 OA
ATOM     18  C   UNL d   1       4.726  -0.230 -14.040  0.00  0.00     0.181 C 
ENDBRANCH  10  17
TORSDOF 3
