REMARK  7 active torsions:
REMARK  status: ('A' for Active; 'I' for Inactive)
REMARK    1  A    between atoms: C_1  and  C_9 
REMARK    2  A    between atoms: C_2  and  C_3 
REMARK    3  A    between atoms: C_9  and  N_10 
REMARK    4  A    between atoms: N_10  and  C_11 
REMARK    5  A    between atoms: N_10  and  C_17 
REMARK    6  A    between atoms: N_20  and  C_21 
REMARK    7  A    between atoms: C_21  and  C_22 
ROOT
ATOM      1  N   UNL d   1       9.839   2.942 -14.986  0.00  0.00    -0.346 N 
ENDROOT
BRANCH   1   2
ATOM      2  C   UNL d   1       9.775   1.476 -14.882  0.00  0.00     0.128 C 
BRANCH   2   3
ATOM      3  C   UNL d   1       8.371   0.916 -14.722  0.00  0.00    -0.002 C 
ATOM      4  C   UNL d   1       7.634   0.455 -15.749  0.00  0.00    -0.003 C 
BRANCH   4   5
ATOM      5  C   UNL d   1       6.270  -0.086 -15.662  0.00  0.00    -0.000 A 
ATOM      6  C   UNL d   1       5.731  -0.738 -16.793  0.00  0.00    -0.000 A 
ATOM      7  C   UNL d   1       4.443  -1.302 -16.748  0.00  0.00    -0.000 A 
ATOM      8  C   UNL d   1       3.676  -1.214 -15.575  0.00  0.00    -0.000 A 
ATOM      9  C   UNL d   1       4.196  -0.552 -14.444  0.00  0.00    -0.000 A 
ATOM     10  C   UNL d   1       5.492  -0.000 -14.483  0.00  0.00    -0.000 A 
ENDBRANCH   4   5
ENDBRANCH   2   3
ENDBRANCH   1   2
BRANCH   1  11
ATOM     11  C   UNL d   1      11.024   3.456 -15.601  0.00  0.00     0.056 A 
ATOM     12  C   UNL d   1      11.748   4.557 -15.068  0.00  0.00     0.017 A 
ATOM     13  C   UNL d   1      12.853   5.120 -15.737  0.00  0.00     0.002 A 
ATOM     14  C   UNL d   1      13.308   4.554 -16.947  0.00  0.00     0.000 A 
ATOM     15  C   UNL d   1      12.626   3.444 -17.482  0.00  0.00     0.002 A 
ATOM     16  C   UNL d   1      11.483   2.915 -16.833  0.00  0.00     0.017 A 
ENDBRANCH   1  11
BRANCH   1  17
ATOM     17  C   UNL d   1       9.135   3.710 -13.946  0.00  0.00     0.086 C 
ATOM     18  C   UNL d   1       9.922   3.712 -12.631  0.00  0.00     0.058 C 
ATOM     19  C   UNL d   1       9.304   4.591 -11.555  0.00  0.00     0.253 C 
ATOM     20  N   UNL d   1       9.231   5.948 -12.080  0.00  0.00     0.141 N 
ATOM     21  C   UNL d   1       8.270   5.987 -13.189  0.00  0.00     0.253 C 
ATOM     22  C   UNL d   1       8.846   5.143 -14.369  0.00  0.00     0.058 C 
BRANCH  20  23
ATOM     23  C   UNL d   1       8.753   6.812 -11.019  0.00  0.00     0.277 C 
BRANCH  23  24
ATOM     24  C   UNL d   1       9.735   7.070  -9.891  0.00  0.00     0.011 A 
ATOM     25  C   UNL d   1       9.651   6.341  -8.684  0.00  0.00    -0.002 A 
ATOM     26  C   UNL d   1      10.553   6.609  -7.643  0.00  0.00    -0.000 A 
ATOM     27  C   UNL d   1      11.533   7.607  -7.797  0.00  0.00    -0.000 A 
ATOM     28  C   UNL d   1      11.611   8.346  -8.996  0.00  0.00    -0.000 A 
ATOM     29  C   UNL d   1      10.708   8.079 -10.035  0.00  0.00    -0.002 A 
ENDBRANCH  23  24
ENDBRANCH  20  23
ENDBRANCH   1  17
TORSDOF 7
