REMARK  7 active torsions:
REMARK  status: ('A' for Active; 'I' for Inactive)
REMARK    1  A    between atoms: C_2  and  C_3 
REMARK    2  A    between atoms: C_3  and  N_4 
REMARK    3  A    between atoms: N_4  and  C_5 
REMARK    4  A    between atoms: N_4  and  C_19 
REMARK    5  A    between atoms: C_5  and  C_6 
REMARK    6  A    between atoms: C_6  and  N_7 
REMARK    7  A    between atoms: N_10  and  C_11 
ROOT
ATOM      1  N   UNL d   1       8.682   4.668 -11.788  0.00  0.00     0.137 N 
ENDROOT
BRANCH   1   2
ATOM      2  C   UNL d   1       7.279   4.301 -11.535  0.00  0.00     0.250 C 
BRANCH   2   3
ATOM      3  C   UNL d   1       6.210   5.241 -12.149  0.00  0.00     0.035 C 
ATOM      4  C   UNL d   1       5.396   4.545 -13.238  0.00  0.00     0.002 C 
ENDBRANCH   2   3
ENDBRANCH   1   2
BRANCH   1   5
ATOM      5  C   UNL d   1       8.999   5.947 -11.123  0.00  0.00     0.285 C 
BRANCH   5   6
ATOM      6  C   UNL d   1       8.818   5.931  -9.603  0.00  0.00     0.286 C 
BRANCH   6   7
ATOM      7  N   UNL d   1       9.845   6.691  -8.905  0.00  0.00     0.143 N 
ATOM      8  C   UNL d   1       9.278   7.816  -8.162  0.00  0.00     0.274 C 
ATOM      9  C   UNL d   1      10.340   8.651  -7.427  0.00  0.00     0.137 C 
ATOM     10  N   UNL d   1      11.123   7.763  -6.570  0.00  0.00    -0.344 N 
ATOM     11  C   UNL d   1      11.710   6.621  -7.246  0.00  0.00     0.137 C 
ATOM     12  C   UNL d   1      10.593   5.861  -7.975  0.00  0.00     0.274 C 
BRANCH  10  13
ATOM     13  C   UNL d   1      11.395   8.028  -5.227  0.00  0.00     0.056 A 
ATOM     14  C   UNL d   1      11.424   9.366  -4.742  0.00  0.00     0.017 A 
ATOM     15  C   UNL d   1      11.664   9.610  -3.384  0.00  0.00     0.002 A 
ATOM     16  C   UNL d   1      11.898   8.553  -2.491  0.00  0.00     0.000 A 
ATOM     17  C   UNL d   1      11.883   7.224  -2.955  0.00  0.00     0.002 A 
ATOM     18  C   UNL d   1      11.631   6.972  -4.312  0.00  0.00     0.017 A 
ENDBRANCH  10  13
ENDBRANCH   6   7
ENDBRANCH   5   6
ENDBRANCH   1   5
BRANCH   1  19
ATOM     19  C   UNL d   1       9.025   4.549 -13.213  0.00  0.00     0.224 C 
ATOM     20  C   UNL d   1      10.344   5.203 -13.611  0.00  0.00     0.059 C 
ATOM     21  C   UNL d   1      10.781   4.971 -15.042  0.00  0.00    -0.022 A 
ATOM     22  C   UNL d   1      10.223   3.936 -15.820  0.00  0.00    -0.024 A 
ATOM     23  C   UNL d   1      11.755   5.821 -15.614  0.00  0.00     0.025 A 
ATOM     24  C   UNL d   1       9.196   2.978 -15.232  0.00  0.00     0.028 C 
ATOM     25  C   UNL d   1      10.640   3.754 -17.150  0.00  0.00     0.025 A 
ATOM     26  C   UNL d   1       9.079   3.081 -13.680  0.00  0.00     0.038 C 
ATOM     27  C   UNL d   1      11.618   4.594 -17.710  0.00  0.00     0.156 A 
ATOM     28  O   UNL d   1      12.016   4.345 -18.991  0.00  0.00    -0.188 OA
ATOM     29  C   UNL d   1      12.182   5.630 -16.939  0.00  0.00     0.156 A 
ATOM     30  O   UNL d   1      13.151   6.454 -17.430  0.00  0.00    -0.188 OA
ENDBRANCH   1  19
TORSDOF 7
