REMARK  3 active torsions:
REMARK  status: ('A' for Active; 'I' for Inactive)
REMARK    1  A    between atoms: O_2  and  C_3 
REMARK    2  A    between atoms: N_15  and  C_16 
REMARK    3  A    between atoms: C_16  and  C_17 
ROOT
ATOM      1  C   UNL d   1       4.652  -2.214 -19.730  0.00  0.00     0.096 A 
ATOM      2  C   UNL d   1       5.973  -1.758 -19.960  0.00  0.00     0.024 A 
ATOM      3  C   UNL d   1       6.703  -1.143 -18.925  0.00  0.00     0.004 A 
ATOM      4  C   UNL d   1       6.128  -0.972 -17.649  0.00  0.00     0.019 A 
ATOM      5  C   UNL d   1       6.832  -0.361 -16.512  0.00  0.00    -0.015 A 
ATOM      6  C   UNL d   1       6.227  -0.247 -15.314  0.00  0.00     0.071 A 
ATOM      7  C   UNL d   1       4.828  -0.710 -15.104  0.00  0.00     0.298 A 
ATOM      8  O   UNL d   1       4.236  -0.582 -14.035  0.00  0.00    -0.259 OA
ATOM      9  O   UNL d   1       4.209  -1.276 -16.185  0.00  0.00    -0.273 OA
ATOM     10  C   UNL d   1       4.811  -1.420 -17.416  0.00  0.00     0.105 A 
ATOM     11  C   UNL d   1       4.084  -2.034 -18.454  0.00  0.00     0.049 A 
ATOM     12  C   UNL d   1       6.926   0.377 -14.102  0.00  0.00     0.282 C 
ATOM     13  N   UNL d   1       8.085   1.209 -14.456  0.00  0.00     0.146 N 
ATOM     14  C   UNL d   1       8.958   0.458 -15.363  0.00  0.00     0.256 C 
ATOM     15  C   UNL d   1       8.270   0.111 -16.701  0.00  0.00     0.062 C 
ENDROOT
BRANCH  13  16
ATOM     16  C   UNL d   1       7.702   2.507 -15.024  0.00  0.00     0.277 C 
BRANCH  16  17
ATOM     17  C   UNL d   1       7.438   3.580 -13.977  0.00  0.00     0.011 A 
ATOM     18  C   UNL d   1       8.431   4.545 -13.704  0.00  0.00    -0.002 A 
ATOM     19  C   UNL d   1       8.202   5.552 -12.742  0.00  0.00    -0.000 A 
ATOM     20  C   UNL d   1       6.985   5.586 -12.037  0.00  0.00    -0.000 A 
ATOM     21  C   UNL d   1       5.993   4.619 -12.300  0.00  0.00    -0.000 A 
ATOM     22  C   UNL d   1       6.209   3.635 -13.282  0.00  0.00    -0.002 A 
ENDBRANCH  16  17
ENDBRANCH  13  16
BRANCH   1  23
ATOM     23  O   UNL d   1       3.871  -2.829 -20.684  0.00  0.00    -0.328 OA
ATOM     24  C   UNL d   1       4.415  -3.005 -21.983  0.00  0.00     0.181 C 
ENDBRANCH   1  23
TORSDOF 3
