REMARK  7 active torsions:
REMARK  status: ('A' for Active; 'I' for Inactive)
REMARK    1  A    between atoms: S_2  and  O_5 
REMARK    2  A    between atoms: O_5  and  C_6 
REMARK    3  A    between atoms: N_14  and  C_15 
REMARK    4  A    between atoms: C_15  and  C_16 
REMARK    5  A    between atoms: C_16  and  C_17 
REMARK    6  A    between atoms: C_20  and  N_21 
REMARK       I    between atoms: N_21  and  C_22 
REMARK    7  A    between atoms: C_22  and  C_24 
ROOT
ATOM      1  C   UNL d   1       8.086   4.396 -12.088  0.00  0.00     0.002 C 
ATOM      2  C   UNL d   1       7.095   4.710 -13.190  0.00  0.00     0.002 C 
ATOM      3  C   UNL d   1       6.946   3.501 -14.124  0.00  0.00     0.024 C 
ATOM      4  C   UNL d   1       8.318   3.176 -14.810  0.00  0.00     0.107 C 
ATOM      5  C   UNL d   1       9.345   2.795 -13.722  0.00  0.00     0.024 C 
ATOM      6  C   UNL d   1       9.454   3.939 -12.695  0.00  0.00     0.002 C 
ENDROOT
BRANCH   1   7
ATOM      7  C   UNL d   1       8.197   5.529 -11.082  0.00  0.00     0.035 C 
BRANCH   7   8
ATOM      8  C   UNL d   1       9.100   5.158  -9.888  0.00  0.00     0.250 C 
BRANCH   8   9
ATOM      9  N   UNL d   1       9.180   6.265  -8.944  0.00  0.00     0.138 N 
ATOM     10  C   UNL d   1       9.745   5.735  -7.716  0.00  0.00     0.255 C 
ATOM     11  C   UNL d   1       9.421   6.620  -6.503  0.00  0.00     0.061 C 
ATOM     12  C   UNL d   1      10.347   7.813  -6.398  0.00  0.00    -0.022 C 
ATOM     13  C   UNL d   1      10.505   8.755  -7.420  0.00  0.00    -0.024 C 
ATOM     14  C   UNL d   1      11.054   7.974  -5.184  0.00  0.00     0.021 C 
ATOM     15  C   UNL d   1      11.363   9.823  -7.188  0.00  0.00    -0.003 C 
ATOM     16  C   UNL d   1       9.802   8.652  -8.756  0.00  0.00     0.061 C 
ATOM     17  C   UNL d   1      12.042  10.035  -5.970  0.00  0.00     0.025 C 
ATOM     18  C   UNL d   1      11.833   9.125  -4.906  0.00  0.00     0.113 C 
ATOM     19  C   UNL d   1      10.027   7.330  -9.477  0.00  0.00     0.255 C 
BRANCH  18  20
ATOM     20  O   UNL d   1      12.251   9.406  -3.614  0.00  0.00    -0.230 OA
BRANCH  20  21
ATOM     21  S   UNL d   1      12.432   8.068  -2.570  0.00  0.00     0.285 S 
ATOM     22  C   UNL d   1      13.290   8.806  -1.204  0.00  0.00     0.172 C 
ATOM     23  O   UNL d   1      13.319   7.150  -3.216  0.00  0.00    -0.197 OA
ATOM     24  O   UNL d   1      11.105   7.622  -2.034  0.00  0.00    -0.197 OA
ENDBRANCH  20  21
ENDBRANCH  18  20
ENDBRANCH   8   9
ENDBRANCH   7   8
ENDBRANCH   1   7
BRANCH   4  25
ATOM     25  N   UNL d   1       8.193   2.028 -15.706  0.00  0.00    -0.236 NA
ATOM     26  C   UNL d   1       8.352   2.026 -17.035  0.00  0.00     0.275 C 
ATOM     27  O   UNL d   1       8.661   3.014 -17.697  0.00  0.00    -0.266 OA
BRANCH  26  28
ATOM     28  C   UNL d   1       8.130   0.707 -17.709  0.00  0.00     0.059 A 
ATOM     29  C   UNL d   1       6.996  -0.123 -17.447  0.00  0.00     0.022 A 
ATOM     30  C   UNL d   1       6.881  -1.380 -18.111  0.00  0.00     0.082 A 
ATOM     31  C   UNL d   1       5.947   0.242 -16.558  0.00  0.00     0.003 A 
ATOM     32  C   UNL d   1       7.888  -1.765 -19.019  0.00  0.00     0.019 A 
ATOM     33  N   UNL d   1       5.841  -2.220 -17.903  0.00  0.00    -0.244 NA
ATOM     34  C   UNL d   1       8.985  -0.934 -19.297  0.00  0.00     0.002 A 
ATOM     35  C   UNL d   1       9.100   0.300 -18.647  0.00  0.00     0.005 A 
ATOM     36  C   UNL d   1       4.889  -1.875 -17.012  0.00  0.00     0.099 A 
ATOM     37  C   UNL d   1       4.896  -0.654 -16.321  0.00  0.00     0.021 A 
ENDBRANCH  26  28
ENDBRANCH   4  25
TORSDOF 7
