REMARK  6 active torsions:
REMARK  status: ('A' for Active; 'I' for Inactive)
REMARK       I    between atoms: C_2  and  N_3 
REMARK       I    between atoms: C_2  and  N_10 
REMARK    1  A    between atoms: N_3  and  C_4 
REMARK    2  A    between atoms: N_10  and  C_11 
REMARK    3  A    between atoms: C_14  and  C_15 
REMARK    4  A    between atoms: C_15  and  C_16 
REMARK    5  A    between atoms: C_16  and  N_17 
REMARK    6  A    between atoms: N_20  and  C_21 
ROOT
ATOM      1  C   UNL d   1       7.793   6.066 -12.759  0.00  0.00     0.035 C 
ENDROOT
BRANCH   1   2
ATOM      2  C   UNL d   1       8.743   5.870 -11.551  0.00  0.00     0.002 C 
ATOM      3  C   UNL d   1       9.438   7.204 -11.245  0.00  0.00     0.002 C 
ATOM      4  C   UNL d   1      10.324   7.114 -10.001  0.00  0.00     0.025 C 
ATOM      5  C   UNL d   1       9.532   6.597  -8.786  0.00  0.00     0.108 C 
ATOM      6  C   UNL d   1       8.892   5.237  -9.072  0.00  0.00     0.025 C 
ATOM      7  C   UNL d   1       8.016   5.305 -10.308  0.00  0.00     0.002 C 
BRANCH   5   8
ATOM      8  N   UNL d   1      10.422   6.440  -7.645  0.00  0.00    -0.219 NA
ATOM      9  C   UNL d   1      10.503   7.301  -6.628  0.00  0.00     0.364 C 
ATOM     10  O   UNL d   1       9.854   8.342  -6.559  0.00  0.00    -0.243 OA
ATOM     11  N   UNL d   1      11.368   6.881  -5.688  0.00  0.00    -0.190 NA
BRANCH  11  12
ATOM     12  C   UNL d   1      11.653   7.556  -4.481  0.00  0.00     0.105 A 
ATOM     13  C   UNL d   1      11.590   8.967  -4.355  0.00  0.00     0.118 A 
ATOM     14  N   UNL d   1      11.859   9.622  -3.208  0.00  0.00    -0.241 NA
ATOM     15  C   UNL d   1      12.256   8.901  -2.149  0.00  0.00     0.099 A 
ATOM     16  C   UNL d   1      12.352   7.498  -2.172  0.00  0.00     0.022 A 
ATOM     17  C   UNL d   1      12.047   6.811  -3.354  0.00  0.00     0.022 A 
ENDBRANCH  11  12
ENDBRANCH   5   8
ENDBRANCH   1   2
BRANCH   1  18
ATOM     18  C   UNL d   1       6.637   5.034 -12.835  0.00  0.00     0.250 C 
BRANCH  18  19
ATOM     19  N   UNL d   1       7.083   3.669 -13.125  0.00  0.00     0.141 N 
ATOM     20  C   UNL d   1       8.294   3.602 -13.959  0.00  0.00     0.274 C 
ATOM     21  C   UNL d   1       8.682   2.168 -14.314  0.00  0.00     0.138 C 
ATOM     22  N   UNL d   1       7.556   1.466 -14.932  0.00  0.00    -0.329 N 
ATOM     23  C   UNL d   1       6.302   1.563 -14.191  0.00  0.00     0.138 C 
ATOM     24  C   UNL d   1       5.987   3.023 -13.833  0.00  0.00     0.274 C 
BRANCH  22  25
ATOM     25  C   UNL d   1       7.669   0.808 -16.188  0.00  0.00     0.148 A 
ATOM     26  C   UNL d   1       6.710  -0.182 -16.656  0.00  0.00     0.042 A 
ATOM     27  C   UNL d   1       7.112  -0.641 -17.960  0.00  0.00     0.050 A 
ATOM     28  C   UNL d   1       5.541  -0.781 -16.118  0.00  0.00     0.004 A 
ATOM     29  S   UNL d   1       8.608   0.169 -18.373  0.00  0.00     0.015 SA
ATOM     30  C   UNL d   1       6.384  -1.591 -18.683  0.00  0.00     0.008 A 
ATOM     31  N   UNL d   1       8.688   1.075 -16.971  0.00  0.00    -0.192 NA
ATOM     32  C   UNL d   1       5.201  -2.127 -18.135  0.00  0.00     0.001 A 
ATOM     33  C   UNL d   1       4.787  -1.708 -16.847  0.00  0.00     0.000 A 
ENDBRANCH  22  25
ENDBRANCH  18  19
ENDBRANCH   1  18
TORSDOF 6
