REMARK  3 active torsions:
REMARK  status: ('A' for Active; 'I' for Inactive)
REMARK       I    between atoms: N_2  and  C_4 
REMARK    1  A    between atoms: C_4  and  O_6 
REMARK    2  A    between atoms: O_6  and  C_7 
REMARK    3  A    between atoms: C_11  and  N_12 
ROOT
ATOM      1  C   UNL d   1       8.746   5.763 -10.725  0.00  0.00     0.106 A 
ATOM      2  C   UNL d   1       8.584   4.847  -9.674  0.00  0.00     0.025 A 
ATOM      3  C   UNL d   1       9.204   5.065  -8.444  0.00  0.00     0.004 A 
ATOM      4  C   UNL d   1      10.009   6.197  -8.238  0.00  0.00     0.025 A 
ATOM      5  C   UNL d   1      10.182   7.132  -9.275  0.00  0.00     0.166 A 
ATOM      6  C   UNL d   1       9.547   6.904 -10.536  0.00  0.00     0.050 A 
ENDROOT
BRANCH   1   7
ATOM      7  O   UNL d   1       8.046   5.575 -11.888  0.00  0.00    -0.259 OA
BRANCH   7   8
ATOM      8  C   UNL d   1       8.383   4.549 -12.700  0.00  0.00     0.370 C 
ATOM      9  N   UNL d   1       7.233   4.005 -13.287  0.00  0.00    -0.292 N 
ATOM     10  C   UNL d   1       7.327   2.831 -14.156  0.00  0.00     0.131 C 
ATOM     11  C   UNL d   1       5.886   4.498 -12.976  0.00  0.00     0.131 C 
ATOM     12  O   UNL d   1       9.537   4.138 -12.833  0.00  0.00    -0.238 OA
ENDBRANCH   7   8
ENDBRANCH   1   7
BRANCH   5  13
ATOM     13  N   UNL d   1      11.072   8.368  -9.019  0.00  0.00     0.016 N 
ATOM     14  C   UNL d   1      10.596   9.122  -7.825  0.00  0.00     0.256 C 
ATOM     15  C   UNL d   1      12.479   7.965  -8.786  0.00  0.00     0.256 C 
ATOM     16  C   UNL d   1      11.071   9.288 -10.166  0.00  0.00     0.256 C 
ENDBRANCH   5  13
TORSDOF 3
