REMARK  2 active torsions:
REMARK  status: ('A' for Active; 'I' for Inactive)
REMARK    1  A    between atoms: C_2  and  C_3 
REMARK    2  A    between atoms: C_3  and  N_4 
ROOT
ATOM      1  N   UNL d   1       9.247   6.502  -9.732  0.00  0.00     0.140 N 
ATOM      2  C   UNL d   1       9.868   7.516 -10.596  0.00  0.00     0.251 C 
ATOM      3  C   UNL d   1      10.480   8.589  -9.694  0.00  0.00     0.042 C 
ATOM      4  C   UNL d   1      10.017   8.152  -8.319  0.00  0.00     0.055 C 
ATOM      5  C   UNL d   1      10.827   8.569  -7.100  0.00  0.00    -0.024 A 
ATOM      6  C   UNL d   1      11.466   9.791  -7.128  0.00  0.00    -0.004 A 
ATOM      7  C   UNL d   1      12.188  10.233  -6.011  0.00  0.00     0.000 A 
ATOM      8  C   UNL d   1      12.300   9.431  -4.877  0.00  0.00     0.010 A 
ATOM      9  C   UNL d   1      11.682   8.162  -4.838  0.00  0.00     0.064 A 
ATOM     10  C   UNL d   1      11.873   7.363  -3.634  0.00  0.00     0.101 C 
ATOM     11  N   UNL d   1      12.019   6.747  -2.675  0.00  0.00    -0.191 NA
ATOM     12  C   UNL d   1      10.927   7.742  -5.962  0.00  0.00    -0.016 A 
ATOM     13  C   UNL d   1      10.258   6.391  -5.991  0.00  0.00     0.029 C 
ATOM     14  C   UNL d   1       9.380   6.090  -7.239  0.00  0.00     0.038 C 
ATOM     15  C   UNL d   1      10.005   6.658  -8.487  0.00  0.00     0.224 C 
ENDROOT
BRANCH   1  16
ATOM     16  C   UNL d   1       9.221   5.161 -10.299  0.00  0.00     0.276 C 
BRANCH  16  17
ATOM     17  C   UNL d   1       8.470   5.011 -11.633  0.00  0.00     0.009 C 
ATOM     18  C   UNL d   1       7.681   5.924 -12.238  0.00  0.00    -0.003 C 
ENDBRANCH  16  17
ENDBRANCH   1  16
TORSDOF 2
