REMARK  6 active torsions:
REMARK  status: ('A' for Active; 'I' for Inactive)
REMARK    1  A    between atoms: C_2  and  C_3 
REMARK    2  A    between atoms: C_3  and  N_4 
REMARK    3  A    between atoms: C_8  and  C_9 
REMARK    4  A    between atoms: C_9  and  N_10 
REMARK       I    between atoms: N_10  and  C_11 
REMARK    5  A    between atoms: C_11  and  C_13 
REMARK    6  A    between atoms: C_19  and  O_20 
ROOT
ATOM      1  N   UNL d   1       8.999   6.107 -10.235  0.00  0.00    -0.232 NA
ATOM      2  C   UNL d   1       9.057   6.375 -11.544  0.00  0.00     0.277 C 
ATOM      3  O   UNL d   1       9.411   7.459 -12.018  0.00  0.00    -0.266 OA
ENDROOT
BRANCH   2   4
ATOM      4  C   UNL d   1       8.595   5.266 -12.430  0.00  0.00     0.080 A 
ATOM      5  C   UNL d   1       9.409   4.801 -13.507  0.00  0.00     0.099 A 
ATOM      6  C   UNL d   1       8.929   3.744 -14.311  0.00  0.00     0.025 A 
ATOM      7  C   UNL d   1       7.682   3.155 -14.057  0.00  0.00     0.008 A 
ATOM      8  C   UNL d   1       6.882   3.635 -13.006  0.00  0.00     0.030 A 
ATOM      9  C   UNL d   1       7.333   4.681 -12.194  0.00  0.00     0.013 A 
ATOM     10  I   UNL d   1       5.065   2.703 -12.602  0.00  0.00    -0.043 I 
BRANCH   5  11
ATOM     11  O   UNL d   1      10.636   5.397 -13.710  0.00  0.00    -0.328 OA
ATOM     12  C   UNL d   1      11.412   5.019 -14.839  0.00  0.00     0.181 C 
ENDBRANCH   5  11
ENDBRANCH   2   4
BRANCH   1  13
ATOM     13  C   UNL d   1       9.159   7.114  -9.196  0.00  0.00     0.162 C 
BRANCH  13  14
ATOM     14  C   UNL d   1      10.476   6.998  -8.478  0.00  0.00     0.244 C 
ATOM     15  N   UNL d   1      10.623   7.972  -7.393  0.00  0.00     0.141 N 
ATOM     16  C   UNL d   1      11.812   7.467  -6.749  0.00  0.00     0.251 C 
ATOM     17  C   UNL d   1      11.509   6.014  -6.594  0.00  0.00     0.037 C 
ATOM     18  C   UNL d   1      10.586   5.674  -7.759  0.00  0.00     0.037 C 
BRANCH  15  19
ATOM     19  C   UNL d   1      10.870   9.323  -7.883  0.00  0.00     0.277 C 
BRANCH  19  20
ATOM     20  C   UNL d   1      11.078  10.362  -6.786  0.00  0.00     0.009 C 
ATOM     21  C   UNL d   1      10.804  10.242  -5.467  0.00  0.00    -0.003 C 
ENDBRANCH  19  20
ENDBRANCH  15  19
ENDBRANCH  13  14
ENDBRANCH   1  13
TORSDOF 6
