REMARK  12 active torsions:
REMARK  status: ('A' for Active; 'I' for Inactive)
REMARK    1  A    between atoms: O_2  and  C_3 
REMARK    2  A    between atoms: C_8  and  C_9 
REMARK    3  A    between atoms: C_9  and  N_10 
REMARK    4  A    between atoms: N_10  and  C_11 
REMARK    5  A    between atoms: C_11  and  C_12 
REMARK    6  A    between atoms: C_12  and  C_13 
REMARK    7  A    between atoms: C_17  and  C_18 
REMARK    8  A    between atoms: C_18  and  C_19 
REMARK    9  A    between atoms: C_19  and  N_20 
REMARK   10  A    between atoms: N_20  and  C_21 
REMARK   11  A    between atoms: C_21  and  C_22 
REMARK   12  A    between atoms: C_22  and  C_24 
ROOT
ATOM      1  C   UNL d   1       9.844   7.063 -10.029  0.00  0.00    -0.020 A 
ATOM      2  C   UNL d   1       9.639   8.234 -10.780  0.00  0.00    -0.004 A 
ATOM      3  C   UNL d   1       9.036   8.154 -12.046  0.00  0.00    -0.001 A 
ATOM      4  C   UNL d   1       8.657   6.900 -12.558  0.00  0.00    -0.004 A 
ATOM      5  C   UNL d   1       8.901   5.725 -11.826  0.00  0.00    -0.020 A 
ATOM      6  C   UNL d   1       9.478   5.807 -10.546  0.00  0.00    -0.008 A 
ENDROOT
BRANCH   5   7
ATOM      7  C   UNL d   1       8.527   4.383 -12.414  0.00  0.00     0.065 C 
BRANCH   7   8
ATOM      8  C   UNL d   1       9.406   3.999 -13.613  0.00  0.00     0.295 C 
BRANCH   8   9
ATOM      9  N   UNL d   1       9.108   2.640 -14.037  0.00  0.00     0.343 N 
BRANCH   9  10
ATOM     10  C   UNL d   1       9.683   2.268 -15.320  0.00  0.00     0.327 C 
BRANCH  10  11
ATOM     11  C   UNL d   1       9.432   0.784 -15.646  0.00  0.00     0.211 C 
ATOM     12  O   UNL d   1      10.068   0.511 -16.876  0.00  0.00    -0.216 OA
BRANCH  11  13
ATOM     13  C   UNL d   1       7.948   0.389 -15.595  0.00  0.00     0.018 A 
ATOM     14  C   UNL d   1       7.070   0.373 -16.708  0.00  0.00     0.052 A 
ATOM     15  C   UNL d   1       5.741  -0.048 -16.589  0.00  0.00     0.116 A 
ATOM     16  S   UNL d   1       7.432   0.837 -18.360  0.00  0.00    -0.024 SA
ATOM     17  C   UNL d   1       5.204  -0.428 -15.344  0.00  0.00     0.149 A 
ATOM     18  N   UNL d   1       5.041  -0.034 -17.814  0.00  0.00    -0.200 NA
ATOM     19  C   UNL d   1       6.053  -0.395 -14.219  0.00  0.00     0.029 A 
ATOM     20  O   UNL d   1       3.906  -0.824 -15.187  0.00  0.00    -0.189 OA
ATOM     21  C   UNL d   1       7.401  -0.006 -14.348  0.00  0.00     0.001 A 
ATOM     22  C   UNL d   1       5.760   0.400 -18.911  0.00  0.00     0.311 A 
ATOM     23  O   UNL d   1       5.368   0.518 -20.071  0.00  0.00    -0.258 OA
ENDBRANCH  11  13
ENDBRANCH  10  11
ENDBRANCH   9  10
ENDBRANCH   8   9
ENDBRANCH   7   8
ENDBRANCH   5   7
BRANCH   1  24
ATOM     24  C   UNL d   1      10.413   7.193  -8.646  0.00  0.00     0.065 C 
BRANCH  24  25
ATOM     25  C   UNL d   1       9.388   6.872  -7.544  0.00  0.00     0.295 C 
BRANCH  25  26
ATOM     26  N   UNL d   1       9.798   7.468  -6.288  0.00  0.00     0.344 N 
BRANCH  26  27
ATOM     27  C   UNL d   1      11.107   7.024  -5.858  0.00  0.00     0.319 C 
BRANCH  27  28
ATOM     28  C   UNL d   1      11.517   7.659  -4.551  0.00  0.00     0.036 A 
ATOM     29  C   UNL d   1      11.492   9.066  -4.345  0.00  0.00     0.092 A 
ATOM     30  C   UNL d   1      11.858   9.580  -3.085  0.00  0.00     0.024 A 
ATOM     31  C   UNL d   1      12.277   8.719  -2.058  0.00  0.00     0.002 A 
ATOM     32  C   UNL d   1      12.319   7.329  -2.273  0.00  0.00    -0.000 A 
ATOM     33  C   UNL d   1      11.942   6.804  -3.516  0.00  0.00    -0.000 A 
BRANCH  29  34
ATOM     34  O   UNL d   1      11.054   9.948  -5.301  0.00  0.00    -0.328 OA
ATOM     35  C   UNL d   1      11.954  10.191  -6.373  0.00  0.00     0.181 C 
ENDBRANCH  29  34
ENDBRANCH  27  28
ENDBRANCH  26  27
ENDBRANCH  25  26
ENDBRANCH  24  25
ENDBRANCH   1  24
TORSDOF 12
