REMARK  3 active torsions:
REMARK  status: ('A' for Active; 'I' for Inactive)
REMARK    1  A    between atoms: C_3  and  C_4 
REMARK       I    between atoms: C_4  and  N_6 
REMARK    2  A    between atoms: N_6  and  C_7 
REMARK    3  A    between atoms: N_6  and  C_9 
ROOT
ATOM      1  C   UNL d   1       8.568   5.058 -12.025  0.00  0.00     0.261 C 
ATOM      2  O   UNL d   1       9.400   4.157 -11.862  0.00  0.00    -0.267 OA
ATOM      3  N   UNL d   1       7.397   4.851 -12.704  0.00  0.00    -0.296 N 
ENDROOT
BRANCH   3   4
ATOM      4  C   UNL d   1       6.347   5.865 -12.833  0.00  0.00     0.109 C 
ATOM      5  C   UNL d   1       5.612   6.123 -11.528  0.00  0.00     0.027 C 
ENDBRANCH   3   4
BRANCH   3   6
ATOM      6  C   UNL d   1       7.064   3.577 -13.273  0.00  0.00     0.059 A 
ATOM      7  C   UNL d   1       7.830   2.969 -14.314  0.00  0.00    -0.006 A 
ATOM      8  C   UNL d   1       7.421   1.726 -14.843  0.00  0.00    -0.003 A 
ATOM      9  C   UNL d   1       9.060   3.632 -14.914  0.00  0.00     0.033 C 
ATOM     10  C   UNL d   1       6.274   1.071 -14.361  0.00  0.00    -0.000 A 
ATOM     11  C   UNL d   1       5.514   1.660 -13.338  0.00  0.00     0.002 A 
ATOM     12  C   UNL d   1       5.887   2.913 -12.822  0.00  0.00     0.017 A 
ENDBRANCH   3   6
BRANCH   1  13
ATOM     13  C   UNL d   1       8.789   6.410 -11.506  0.00  0.00     0.056 C 
ATOM     14  C   UNL d   1       9.879   6.728 -10.782  0.00  0.00    -0.021 C 
ATOM     15  C   UNL d   1      10.123   8.103 -10.202  0.00  0.00     0.031 C 
ENDBRANCH   1  13
TORSDOF 3
