REMARK  2 active torsions:
REMARK  status: ('A' for Active; 'I' for Inactive)
REMARK    1  A    between atoms: C_6  and  C_7 
REMARK    2  A    between atoms: C_13  and  C_14 
ROOT
ATOM      1  C   UNL d   1      11.444   8.521  -5.703  0.00  0.00     0.038 A 
ATOM      2  C   UNL d   1      11.819   9.796  -5.959  0.00  0.00     0.100 A 
ATOM      3  N   UNL d   1      11.452  10.088  -7.237  0.00  0.00    -0.244 NA
ATOM      4  C   UNL d   1      10.907   9.043  -7.892  0.00  0.00     0.082 A 
ATOM      5  C   UNL d   1      10.383   8.963  -9.181  0.00  0.00     0.019 A 
ATOM      6  C   UNL d   1       9.855   7.738  -9.620  0.00  0.00     0.006 A 
ATOM      7  C   UNL d   1       9.854   6.634  -8.743  0.00  0.00     0.059 A 
ATOM      8  C   UNL d   1      10.360   6.761  -7.423  0.00  0.00     0.006 A 
ATOM      9  C   UNL d   1      10.882   7.995  -6.950  0.00  0.00     0.021 A 
ENDROOT
BRANCH   1  10
ATOM     10  C   UNL d   1      11.680   7.794  -4.465  0.00  0.00     0.082 A 
ATOM     11  N   UNL d   1      11.876   8.372  -3.202  0.00  0.00    -0.307 N 
ATOM     12  C   UNL d   1      11.831   9.751  -2.767  0.00  0.00     0.132 C 
ATOM     13  C   UNL d   1      12.120   7.345  -2.391  0.00  0.00     0.179 A 
ATOM     14  N   UNL d   1      12.230   6.177  -2.988  0.00  0.00    -0.223 NA
ATOM     15  C   UNL d   1      11.868   6.443  -4.304  0.00  0.00     0.118 A 
ENDBRANCH   1  10
BRANCH   7  16
ATOM     16  C   UNL d   1       9.331   5.331  -9.205  0.00  0.00     0.297 C 
ATOM     17  N   UNL d   1       8.258   5.405 -10.006  0.00  0.00    -0.102 N 
ATOM     18  O   UNL d   1       9.859   4.285  -8.875  0.00  0.00    -0.264 OA
ENDBRANCH   7  16
TORSDOF 2
