REMARK  7 active torsions:
REMARK  status: ('A' for Active; 'I' for Inactive)
REMARK    1  A    between atoms: C_2  and  C_3 
REMARK    2  A    between atoms: C_3  and  N_4 
REMARK    3  A    between atoms: N_4  and  C_5 
REMARK    4  A    between atoms: N_4  and  C_8 
REMARK    5  A    between atoms: C_5  and  C_6 
REMARK    6  A    between atoms: C_15  and  C_16 
REMARK       I    between atoms: C_16  and  N_18 
REMARK    7  A    between atoms: N_18  and  C_19 
ROOT
ATOM      1  C   UNL d   1       7.190   4.109 -12.695  0.00  0.00     0.253 C 
ATOM      2  C   UNL d   1       5.645   3.954 -12.630  0.00  0.00     0.182 C 
ATOM      3  O   UNL d   1       5.223   2.620 -12.567  0.00  0.00    -0.329 OA
ATOM      4  C   UNL d   1       5.765   1.762 -13.488  0.00  0.00     0.090 A 
ATOM      5  C   UNL d   1       5.097   0.532 -13.691  0.00  0.00     0.024 A 
ATOM      6  C   UNL d   1       5.596  -0.397 -14.617  0.00  0.00     0.002 A 
ATOM      7  C   UNL d   1       6.757  -0.099 -15.325  0.00  0.00     0.005 A 
ATOM      8  C   UNL d   1       7.437   1.115 -15.123  0.00  0.00     0.056 A 
ATOM      9  C   UNL d   1       6.943   2.051 -14.193  0.00  0.00     0.007 A 
ATOM     10  C   UNL d   1       7.696   3.355 -13.936  0.00  0.00     0.064 C 
ENDROOT
BRANCH   1  11
ATOM     11  N   UNL d   1       7.702   5.496 -12.671  0.00  0.00     0.138 N 
BRANCH  11  12
ATOM     12  C   UNL d   1       9.039   5.522 -12.069  0.00  0.00     0.250 C 
BRANCH  12  13
ATOM     13  C   UNL d   1       8.991   5.288 -10.537  0.00  0.00     0.035 C 
ATOM     14  C   UNL d   1       9.869   6.304  -9.730  0.00  0.00     0.002 C 
ENDBRANCH  12  13
ENDBRANCH  11  12
BRANCH  11  15
ATOM     15  C   UNL d   1       6.752   6.477 -12.104  0.00  0.00     0.250 C 
BRANCH  15  16
ATOM     16  C   UNL d   1       6.992   7.935 -12.601  0.00  0.00     0.035 C 
ATOM     17  C   UNL d   1       8.400   8.528 -12.376  0.00  0.00     0.002 C 
ENDBRANCH  15  16
ENDBRANCH  11  15
ENDBRANCH   1  11
BRANCH   8  18
ATOM     18  C   UNL d   1       8.657   1.389 -15.899  0.00  0.00     0.275 C 
ATOM     19  O   UNL d   1       8.691   2.339 -16.686  0.00  0.00    -0.266 OA
ATOM     20  N   UNL d   1       9.682   0.568 -15.651  0.00  0.00    -0.236 NA
BRANCH  20  21
ATOM     21  C   UNL d   1      11.016   0.680 -16.223  0.00  0.00     0.107 C 
ATOM     22  C   UNL d   1      11.609   2.099 -16.039  0.00  0.00     0.026 C 
ATOM     23  C   UNL d   1      11.006   0.232 -17.693  0.00  0.00     0.026 C 
ENDBRANCH  20  21
ENDBRANCH   8  18
TORSDOF 7
