REMARK  8 active torsions:
REMARK  status: ('A' for Active; 'I' for Inactive)
REMARK       I    between atoms: N_2  and  C_3 
REMARK    1  A    between atoms: C_3  and  C_5 
REMARK    2  A    between atoms: C_7  and  O_8 
REMARK    3  A    between atoms: O_8  and  C_9 
REMARK    4  A    between atoms: C_9  and  C_10 
REMARK    5  A    between atoms: C_10  and  C_11 
REMARK    6  A    between atoms: C_11  and  C_12 
REMARK    7  A    between atoms: C_12  and  N_13 
REMARK    8  A    between atoms: N_16  and  C_17 
ROOT
ATOM      1  C   UNL d   1       9.248   5.262 -10.798  0.00  0.00     0.251 C 
ENDROOT
BRANCH   1   2
ATOM      2  C   UNL d   1       8.194   5.728 -11.808  0.00  0.00     0.038 C 
BRANCH   2   3
ATOM      3  C   UNL d   1       7.867   4.654 -12.857  0.00  0.00     0.035 C 
BRANCH   3   4
ATOM      4  C   UNL d   1       9.012   4.355 -13.835  0.00  0.00     0.149 C 
BRANCH   4   5
ATOM      5  O   UNL d   1       9.215   2.947 -13.853  0.00  0.00    -0.331 OA
BRANCH   5   6
ATOM      6  C   UNL d   1       8.637   2.279 -14.901  0.00  0.00     0.094 A 
ATOM      7  C   UNL d   1       7.572   1.383 -14.671  0.00  0.00     0.031 A 
ATOM      8  C   UNL d   1       6.972   0.676 -15.739  0.00  0.00     0.087 A 
ATOM      9  C   UNL d   1       7.497   0.858 -17.048  0.00  0.00     0.145 A 
ATOM     10  C   UNL d   1       8.568   1.741 -17.273  0.00  0.00     0.032 A 
ATOM     11  F   UNL d   1       6.984   0.206 -18.119  0.00  0.00    -0.204 F 
ATOM     12  C   UNL d   1       9.143   2.448 -16.204  0.00  0.00     0.026 A 
BRANCH   8  13
ATOM     13  C   UNL d   1       5.833  -0.277 -15.466  0.00  0.00     0.277 C 
ATOM     14  N   UNL d   1       5.003  -0.493 -16.494  0.00  0.00    -0.232 NA
ATOM     15  C   UNL d   1       3.869  -1.405 -16.490  0.00  0.00     0.155 C 
ATOM     16  O   UNL d   1       5.673  -0.778 -14.350  0.00  0.00    -0.266 OA
ENDBRANCH   8  13
ENDBRANCH   5   6
ENDBRANCH   4   5
ENDBRANCH   3   4
ENDBRANCH   2   3
ENDBRANCH   1   2
BRANCH   1  17
ATOM     17  N   UNL d   1       9.092   5.979  -9.543  0.00  0.00     0.141 N 
ATOM     18  C   UNL d   1       9.467   7.390  -9.681  0.00  0.00     0.274 C 
ATOM     19  C   UNL d   1       9.263   8.141  -8.346  0.00  0.00     0.137 C 
ATOM     20  N   UNL d   1      10.077   7.494  -7.316  0.00  0.00    -0.344 N 
ATOM     21  C   UNL d   1       9.849   6.071  -7.208  0.00  0.00     0.137 C 
ATOM     22  C   UNL d   1       9.978   5.374  -8.561  0.00  0.00     0.274 C 
BRANCH  20  23
ATOM     23  C   UNL d   1      10.931   8.182  -6.447  0.00  0.00     0.057 C 
ATOM     24  C   UNL d   1      11.337   7.681  -5.156  0.00  0.00     0.022 A 
ATOM     25  C   UNL d   1      12.257   8.449  -4.394  0.00  0.00     0.031 A 
ATOM     26  C   UNL d   1      11.010   6.514  -4.401  0.00  0.00     0.009 A 
ATOM     27  C   UNL d   1      12.784   9.601  -4.892  0.00  0.00     0.007 C 
ATOM     28  S   UNL d   1      12.639   7.779  -2.829  0.00  0.00    -0.086 SA
ATOM     29  C   UNL d   1      12.304  10.145  -6.089  0.00  0.00     0.002 C 
ATOM     30  C   UNL d   1      11.442   9.415  -6.902  0.00  0.00     0.017 C 
ATOM     31  C   UNL d   1      11.650   6.426  -3.189  0.00  0.00     0.035 A 
ENDBRANCH  20  23
ENDBRANCH   1  17
TORSDOF 8
