REMARK  5 active torsions:
REMARK  status: ('A' for Active; 'I' for Inactive)
REMARK       I    between atoms: C_2  and  N_4 
REMARK    1  A    between atoms: N_4  and  C_5 
REMARK    2  A    between atoms: C_8  and  C_9 
REMARK    3  A    between atoms: C_9  and  C_10 
REMARK    4  A    between atoms: C_10  and  N_11 
REMARK    5  A    between atoms: C_14  and  C_15 
ROOT
ATOM      1  N   UNL d   1       8.375   4.766 -12.120  0.00  0.00     0.137 N 
ATOM      2  C   UNL d   1       9.627   4.451 -12.817  0.00  0.00     0.251 C 
ATOM      3  C   UNL d   1       9.439   3.241 -13.738  0.00  0.00     0.040 C 
ATOM      4  C   UNL d   1       8.315   3.489 -14.744  0.00  0.00     0.026 C 
ATOM      5  C   UNL d   1       7.045   3.974 -13.998  0.00  0.00     0.040 C 
ATOM      6  C   UNL d   1       7.366   5.165 -13.089  0.00  0.00     0.251 C 
ENDROOT
BRANCH   1   7
ATOM      7  C   UNL d   1       8.544   5.894 -11.210  0.00  0.00     0.250 C 
BRANCH   7   8
ATOM      8  C   UNL d   1       9.343   5.479  -9.972  0.00  0.00     0.035 C 
BRANCH   8   9
ATOM      9  C   UNL d   1       9.450   6.593  -8.925  0.00  0.00     0.002 C 
ATOM     10  C   UNL d   1       9.898   5.998  -7.603  0.00  0.00     0.002 C 
ATOM     11  C   UNL d   1       9.924   7.042  -6.471  0.00  0.00     0.024 C 
ATOM     12  C   UNL d   1      10.945   8.150  -6.881  0.00  0.00     0.106 C 
ATOM     13  C   UNL d   1      10.545   8.791  -8.227  0.00  0.00     0.024 C 
ATOM     14  C   UNL d   1      10.415   7.730  -9.340  0.00  0.00     0.002 C 
BRANCH  12  15
ATOM     15  N   UNL d   1      11.036   9.190  -5.851  0.00  0.00    -0.240 NA
ATOM     16  C   UNL d   1      11.489   9.020  -4.604  0.00  0.00     0.252 C 
ATOM     17  C   UNL d   1      12.092   7.689  -4.123  0.00  0.00     0.100 C 
ATOM     18  O   UNL d   1      11.402   9.983  -3.818  0.00  0.00    -0.271 OA
ENDBRANCH  12  15
ENDBRANCH   8   9
ENDBRANCH   7   8
ENDBRANCH   1   7
BRANCH   4  19
ATOM     19  C   UNL d   1       8.056   2.252 -15.589  0.00  0.00    -0.020 A 
ATOM     20  C   UNL d   1       8.434   2.220 -16.960  0.00  0.00     0.023 A 
ATOM     21  C   UNL d   1       8.131   1.046 -17.692  0.00  0.00     0.127 A 
ATOM     22  C   UNL d   1       9.064   3.110 -17.899  0.00  0.00     0.029 A 
ATOM     23  C   UNL d   1       7.484  -0.067 -17.122  0.00  0.00     0.163 A 
ATOM     24  O   UNL d   1       8.554   1.185 -18.998  0.00  0.00    -0.303 OA
ATOM     25  C   UNL d   1       7.123  -0.013 -15.764  0.00  0.00     0.031 A 
ATOM     26  F   UNL d   1       7.232  -1.170 -17.863  0.00  0.00    -0.202 F 
ATOM     27  C   UNL d   1       7.416   1.127 -15.005  0.00  0.00    -0.002 A 
ATOM     28  C   UNL d   1       9.114   2.429 -19.091  0.00  0.00     0.123 A 
ENDBRANCH   4  19
TORSDOF 5
