REMARK  6 active torsions:
REMARK  status: ('A' for Active; 'I' for Inactive)
REMARK       I    between atoms: C_2  and  N_3 
REMARK    1  A    between atoms: C_2  and  C_27 
REMARK    2  A    between atoms: N_3  and  C_4 
REMARK    3  A    between atoms: C_7  and  C_8 
REMARK    4  A    between atoms: C_8  and  C_9 
REMARK    5  A    between atoms: C_9  and  N_10 
REMARK    6  A    between atoms: N_13  and  C_14 
ROOT
ATOM      1  C   UNL d   1       8.523   5.665 -10.473  0.00  0.00     0.250 C 
ENDROOT
BRANCH   1   2
ATOM      2  C   UNL d   1       9.915   6.074 -10.016  0.00  0.00     0.035 C 
BRANCH   2   3
ATOM      3  C   UNL d   1       9.880   7.098  -8.901  0.00  0.00     0.002 C 
ATOM      4  C   UNL d   1       9.643   6.399  -7.547  0.00  0.00     0.002 C 
ATOM      5  C   UNL d   1       9.684   7.423  -6.418  0.00  0.00     0.024 C 
ATOM      6  C   UNL d   1      11.010   8.209  -6.471  0.00  0.00     0.106 C 
ATOM      7  C   UNL d   1      11.206   8.919  -7.805  0.00  0.00     0.024 C 
ATOM      8  C   UNL d   1      11.184   7.899  -8.930  0.00  0.00     0.002 C 
BRANCH   6   9
ATOM      9  N   UNL d   1      11.076   9.173  -5.395  0.00  0.00    -0.240 NA
ATOM     10  C   UNL d   1      11.461   8.929  -4.133  0.00  0.00     0.256 C 
ATOM     11  O   UNL d   1      11.491   9.863  -3.343  0.00  0.00    -0.270 OA
BRANCH  10  12
ATOM     12  C   UNL d   1      11.727   7.498  -3.750  0.00  0.00     0.147 A 
ATOM     13  C   UNL d   1      12.651   7.244  -2.583  0.00  0.00     0.273 A 
ATOM     14  C   UNL d   1      11.199   7.003  -2.409  0.00  0.00     0.082 A 
ATOM     15  F   UNL d   1      13.464   6.129  -2.662  0.00  0.00    -0.204 F 
ATOM     16  F   UNL d   1      13.230   8.336  -1.943  0.00  0.00    -0.204 F 
ENDBRANCH  10  12
ENDBRANCH   6   9
ENDBRANCH   2   3
ENDBRANCH   1   2
BRANCH   1  17
ATOM     17  N   UNL d   1       8.237   6.102 -11.839  0.00  0.00     0.141 N 
ATOM     18  C   UNL d   1       6.879   5.676 -12.194  0.00  0.00     0.274 C 
ATOM     19  C   UNL d   1       6.771   4.149 -12.300  0.00  0.00     0.138 C 
ATOM     20  N   UNL d   1       7.808   3.650 -13.208  0.00  0.00    -0.330 N 
ATOM     21  C   UNL d   1       9.184   4.101 -12.959  0.00  0.00     0.138 C 
ATOM     22  C   UNL d   1       9.164   5.630 -12.890  0.00  0.00     0.274 C 
BRANCH  20  23
ATOM     23  C   UNL d   1       7.548   2.679 -14.203  0.00  0.00     0.138 A 
ATOM     24  C   UNL d   1       6.457   1.790 -14.148  0.00  0.00     0.036 A 
ATOM     25  C   UNL d   1       6.254   0.871 -15.162  0.00  0.00     0.095 A 
ATOM     26  C   UNL d   1       5.379   1.612 -13.119  0.00  0.00     0.064 C 
ATOM     27  C   UNL d   1       7.114   0.845 -16.268  0.00  0.00     0.045 A 
ATOM     28  O   UNL d   1       5.160   0.077 -14.959  0.00  0.00    -0.331 OA
ATOM     29  C   UNL d   1       8.199   1.751 -16.245  0.00  0.00     0.103 A 
ATOM     30  N   UNL d   1       8.413   2.634 -15.243  0.00  0.00    -0.228 NA
ATOM     31  C   UNL d   1       4.638   0.392 -13.657  0.00  0.00     0.154 C 
ENDBRANCH  20  23
ENDBRANCH   1  17
TORSDOF 6
