REMARK  6 active torsions:
REMARK  status: ('A' for Active; 'I' for Inactive)
REMARK    1  A    between atoms: O_2  and  N_3 
REMARK    2  A    between atoms: C_4  and  C_5 
REMARK    3  A    between atoms: C_4  and  C_19 
REMARK    4  A    between atoms: C_5  and  C_6 
REMARK    5  A    between atoms: C_6  and  N_7 
REMARK    6  A    between atoms: N_10  and  C_11 
ROOT
ATOM      1  C   UNL d   1       8.766   5.260 -13.045  0.00  0.00     0.083 C 
ENDROOT
BRANCH   1   2
ATOM      2  C   UNL d   1       9.143   4.286 -14.175  0.00  0.00     0.087 C 
ATOM      3  N   UNL d   1      10.220   4.427 -14.850  0.00  0.00    -0.136 NA
BRANCH   3   4
ATOM      4  O   UNL d   1      11.008   5.519 -14.451  0.00  0.00    -0.234 OA
ATOM      5  C   UNL d   1      11.870   5.867 -15.523  0.00  0.00     0.211 C 
ENDBRANCH   3   4
BRANCH   2   6
ATOM      6  C   UNL d   1       8.210   3.153 -14.489  0.00  0.00     0.015 A 
ATOM      7  C   UNL d   1       7.113   2.829 -13.646  0.00  0.00    -0.003 A 
ATOM      8  C   UNL d   1       6.249   1.764 -13.964  0.00  0.00    -0.022 A 
ATOM      9  C   UNL d   1       6.432   1.012 -15.137  0.00  0.00    -0.009 A 
ATOM     10  C   UNL d   1       5.115   1.447 -13.014  0.00  0.00     0.031 C 
ATOM     11  C   UNL d   1       7.506   1.323 -15.995  0.00  0.00    -0.022 A 
ATOM     12  C   UNL d   1       8.382   2.383 -15.672  0.00  0.00    -0.003 A 
ATOM     13  C   UNL d   1       7.714   0.523 -17.263  0.00  0.00     0.031 C 
ENDBRANCH   2   6
ENDBRANCH   1   2
BRANCH   1  14
ATOM     14  C   UNL d   1       9.604   4.992 -11.792  0.00  0.00     0.257 C 
BRANCH  14  15
ATOM     15  N   UNL d   1       9.263   5.939 -10.731  0.00  0.00     0.141 N 
ATOM     16  C   UNL d   1      10.226   7.053 -10.713  0.00  0.00     0.274 C 
ATOM     17  C   UNL d   1       9.905   8.093  -9.634  0.00  0.00     0.138 C 
ATOM     18  N   UNL d   1       9.788   7.425  -8.341  0.00  0.00    -0.330 N 
ATOM     19  C   UNL d   1       8.887   6.269  -8.317  0.00  0.00     0.138 C 
ATOM     20  C   UNL d   1       9.277   5.276  -9.423  0.00  0.00     0.274 C 
BRANCH  18  21
ATOM     21  C   UNL d   1      10.475   7.892  -7.200  0.00  0.00     0.140 A 
ATOM     22  N   UNL d   1      10.895   9.184  -7.214  0.00  0.00    -0.227 NA
ATOM     23  C   UNL d   1      11.574   9.657  -6.145  0.00  0.00     0.101 A 
ATOM     24  C   UNL d   1      11.866   8.883  -5.012  0.00  0.00     0.021 A 
ATOM     25  C   UNL d   1      11.450   7.542  -4.992  0.00  0.00     0.005 A 
ATOM     26  C   UNL d   1      10.740   7.043  -6.102  0.00  0.00     0.037 A 
ENDBRANCH  18  21
ENDBRANCH  14  15
ENDBRANCH   1  14
TORSDOF 6
