REMARK  3 active torsions:
REMARK  status: ('A' for Active; 'I' for Inactive)
REMARK    1  A    between atoms: S_2  and  C_4 
REMARK    2  A    between atoms: S_2  and  C_14 
REMARK    3  A    between atoms: C_20  and  N_21 
ROOT
ATOM      1  C   UNL d   1      10.043   3.573 -17.224  0.00  0.00     0.192 A 
ATOM      2  N   UNL d   1       8.988   3.438 -17.995  0.00  0.00    -0.136 NA
ATOM      3  N   UNL d   1       9.133   4.383 -18.962  0.00  0.00    -0.147 NA
ATOM      4  C   UNL d   1      10.310   5.101 -18.864  0.00  0.00     0.105 A 
ATOM      5  C   UNL d   1      10.896   6.111 -19.644  0.00  0.00     0.022 A 
ATOM      6  C   UNL d   1      12.159   6.608 -19.282  0.00  0.00     0.018 A 
ATOM      7  C   UNL d   1      12.827   6.117 -18.135  0.00  0.00     0.056 A 
ATOM      8  C   UNL d   1      12.206   5.111 -17.355  0.00  0.00     0.021 A 
ATOM      9  C   UNL d   1      10.946   4.577 -17.706  0.00  0.00     0.051 A 
ENDROOT
BRANCH   1  10
ATOM     10  S   UNL d   1      10.351   2.540 -15.814  0.00  0.00     0.228 S 
ATOM     11  O   UNL d   1      11.417   3.158 -15.008  0.00  0.00    -0.216 OA
ATOM     12  O   UNL d   1      10.539   1.182 -16.349  0.00  0.00    -0.216 OA
BRANCH  10  13
ATOM     13  C   UNL d   1       8.789   2.588 -14.903  0.00  0.00     0.089 A 
ATOM     14  C   UNL d   1       8.392   3.659 -14.047  0.00  0.00     0.011 A 
ATOM     15  C   UNL d   1       7.117   3.593 -13.414  0.00  0.00     0.001 A 
ATOM     16  C   UNL d   1       9.196   4.800 -13.809  0.00  0.00     0.001 A 
ATOM     17  C   UNL d   1       6.258   2.493 -13.643  0.00  0.00     0.000 A 
ATOM     18  C   UNL d   1       6.684   4.624 -12.550  0.00  0.00     0.000 A 
ATOM     19  C   UNL d   1       6.657   1.452 -14.494  0.00  0.00     0.001 A 
ATOM     20  C   UNL d   1       7.912   1.504 -15.126  0.00  0.00     0.011 A 
ATOM     21  C   UNL d   1       7.513   5.734 -12.302  0.00  0.00     0.000 A 
ATOM     22  C   UNL d   1       8.766   5.815 -12.931  0.00  0.00     0.000 A 
ENDBRANCH  10  13
ENDBRANCH   1  10
BRANCH   7  23
ATOM     23  N   UNL d   1      14.092   6.610 -17.769  0.00  0.00    -0.344 N 
ATOM     24  C   UNL d   1      14.533   7.966 -18.091  0.00  0.00     0.140 C 
ATOM     25  C   UNL d   1      15.884   7.922 -18.831  0.00  0.00     0.314 C 
ATOM     26  N   UNL d   1      16.879   7.187 -18.044  0.00  0.00     0.343 N 
ATOM     27  C   UNL d   1      16.416   5.816 -17.847  0.00  0.00     0.314 C 
ATOM     28  C   UNL d   1      15.083   5.787 -17.081  0.00  0.00     0.140 C 
ENDBRANCH   7  23
TORSDOF 3
