REMARK  6 active torsions:
REMARK  status: ('A' for Active; 'I' for Inactive)
REMARK    1  A    between atoms: C_5  and  S_6 
REMARK    2  A    between atoms: S_6  and  C_7 
REMARK    3  A    between atoms: C_7  and  C_8 
REMARK    4  A    between atoms: C_8  and  C_9 
REMARK    5  A    between atoms: C_9  and  N_10 
REMARK    6  A    between atoms: N_14  and  C_15 
ROOT
ATOM      1  N   UNL d   1       8.927   5.630 -10.951  0.00  0.00     0.139 N 
ATOM      2  C   UNL d   1       8.466   6.553 -11.979  0.00  0.00     0.252 C 
ATOM      3  C   UNL d   1       7.361   5.928 -12.813  0.00  0.00     0.059 C 
ATOM      4  C   UNL d   1       7.888   5.185 -14.037  0.00  0.00     0.103 C 
ATOM      5  N   UNL d   1       8.950   4.216 -13.813  0.00  0.00    -0.346 N 
ATOM      6  C   UNL d   1       8.999   3.653 -12.482  0.00  0.00     0.137 C 
ATOM      7  C   UNL d   1       9.753   4.579 -11.539  0.00  0.00     0.274 C 
ENDROOT
BRANCH   1   8
ATOM      8  C   UNL d   1       9.722   6.364  -9.964  0.00  0.00     0.251 C 
BRANCH   8   9
ATOM      9  C   UNL d   1       9.131   6.180  -8.560  0.00  0.00     0.047 C 
BRANCH   9  10
ATOM     10  C   UNL d   1      10.171   6.422  -7.458  0.00  0.00     0.064 C 
BRANCH  10  11
ATOM     11  S   UNL d   1      10.313   8.163  -6.964  0.00  0.00    -0.114 SA
BRANCH  11  12
ATOM     12  C   UNL d   1      11.068   8.220  -5.358  0.00  0.00     0.025 A 
ATOM     13  C   UNL d   1      11.245   9.476  -4.742  0.00  0.00     0.009 A 
ATOM     14  C   UNL d   1      11.825   9.561  -3.461  0.00  0.00     0.030 A 
ATOM     15  C   UNL d   1      12.242   8.394  -2.794  0.00  0.00     0.140 A 
ATOM     16  F   UNL d   1      12.794   8.478  -1.562  0.00  0.00    -0.204 F 
ATOM     17  C   UNL d   1      12.064   7.139  -3.401  0.00  0.00     0.030 A 
ATOM     18  C   UNL d   1      11.478   7.046  -4.677  0.00  0.00     0.009 A 
ENDBRANCH  11  12
ENDBRANCH  10  11
ENDBRANCH   9  10
ENDBRANCH   8   9
ENDBRANCH   1   8
BRANCH   5  19
ATOM     19  C   UNL d   1       9.873   3.874 -14.835  0.00  0.00     0.056 A 
ATOM     20  C   UNL d   1      10.172   4.749 -15.916  0.00  0.00     0.018 A 
ATOM     21  C   UNL d   1      11.118   4.417 -16.906  0.00  0.00     0.013 A 
ATOM     22  C   UNL d   1      11.777   3.175 -16.857  0.00  0.00     0.058 A 
ATOM     23  C   UNL d   1      11.474   2.276 -15.821  0.00  0.00     0.013 A 
ATOM     24 CL   UNL d   1      12.924   2.757 -18.077  0.00  0.00    -0.082 Cl
ATOM     25  C   UNL d   1      10.541   2.619 -14.822  0.00  0.00     0.018 A 
ENDBRANCH   5  19
TORSDOF 6
