REMARK  5 active torsions:
REMARK  status: ('A' for Active; 'I' for Inactive)
REMARK    1  A    between atoms: C_2  and  C_3 
REMARK    2  A    between atoms: C_3  and  C_4 
REMARK    3  A    between atoms: C_3  and  N_14 
REMARK    4  A    between atoms: C_4  and  C_5 
REMARK    5  A    between atoms: C_5  and  C_7 
ROOT
ATOM      1  C   UNL d   1       7.737   5.246 -11.108  0.00  0.00     0.102 C 
ENDROOT
BRANCH   1   2
ATOM      2  C   UNL d   1       7.033   5.202 -12.500  0.00  0.00     0.227 C 
BRANCH   2   3
ATOM      3  C   UNL d   1       5.667   5.893 -12.409  0.00  0.00     0.034 C 
ATOM      4  C   UNL d   1       5.734   7.430 -12.616  0.00  0.00     0.002 C 
ENDBRANCH   2   3
BRANCH   2   5
ATOM      5  N   UNL d   1       7.012   3.786 -12.973  0.00  0.00     0.135 N 
ATOM      6  C   UNL d   1       6.059   3.544 -14.039  0.00  0.00     0.250 C 
ATOM      7  C   UNL d   1       6.483   2.165 -14.639  0.00  0.00     0.037 C 
ATOM      8  C   UNL d   1       7.950   2.007 -14.275  0.00  0.00     0.037 C 
ATOM      9  C   UNL d   1       8.287   3.309 -13.503  0.00  0.00     0.250 C 
ENDBRANCH   2   5
ENDBRANCH   1   2
BRANCH   1  10
ATOM     10  C   UNL d   1       9.143   5.837 -11.076  0.00  0.00     0.175 C 
ATOM     11  O   UNL d   1       9.843   5.841 -12.105  0.00  0.00    -0.291 OA
BRANCH  10  12
ATOM     12  C   UNL d   1       9.591   6.451  -9.790  0.00  0.00     0.035 A 
ATOM     13  C   UNL d   1      10.599   7.427  -9.801  0.00  0.00     0.003 A 
ATOM     14  C   UNL d   1      11.052   8.032  -8.604  0.00  0.00    -0.004 A 
ATOM     15  C   UNL d   1      10.487   7.657  -7.372  0.00  0.00    -0.022 A 
ATOM     16  C   UNL d   1       9.473   6.679  -7.346  0.00  0.00    -0.004 A 
ATOM     17  C   UNL d   1      10.925   8.303  -6.069  0.00  0.00     0.031 C 
ATOM     18  C   UNL d   1       9.046   6.056  -8.538  0.00  0.00     0.003 A 
ENDBRANCH  10  12
ENDBRANCH   1  10
TORSDOF 5
