REMARK  6 active torsions:
REMARK  status: ('A' for Active; 'I' for Inactive)
REMARK    1  A    between atoms: C_2  and  C_3 
REMARK    2  A    between atoms: N_11  and  C_12 
REMARK    3  A    between atoms: C_12  and  C_13 
REMARK    4  A    between atoms: C_13  and  C_14 
REMARK    5  A    between atoms: C_17  and  N_18 
REMARK    6  A    between atoms: N_18  and  C_19 
ROOT
ATOM      1  C   UNL d   1       9.517   6.174 -10.934  0.00  0.00     0.035 C 
ENDROOT
BRANCH   1   2
ATOM      2  C   UNL d   1       8.045   5.999 -11.335  0.00  0.00     0.251 C 
BRANCH   2   3
ATOM      3  N   UNL d   1       7.842   4.784 -12.110  0.00  0.00     0.142 N 
ATOM      4  C   UNL d   1       8.500   4.807 -13.414  0.00  0.00     0.255 C 
ATOM      5  C   UNL d   1       8.410   3.416 -14.052  0.00  0.00     0.061 C 
ATOM      6  C   UNL d   1       6.992   2.861 -14.044  0.00  0.00    -0.022 C 
ATOM      7  C   UNL d   1       6.091   3.395 -13.194  0.00  0.00     0.005 C 
ATOM      8  C   UNL d   1       6.402   4.554 -12.262  0.00  0.00     0.276 C 
BRANCH   6   9
ATOM      9  C   UNL d   1       6.661   1.675 -14.850  0.00  0.00    -0.004 A 
ATOM     10  C   UNL d   1       5.836   0.647 -14.336  0.00  0.00    -0.000 A 
ATOM     11  C   UNL d   1       5.498  -0.457 -15.143  0.00  0.00    -0.000 A 
ATOM     12  C   UNL d   1       5.984  -0.540 -16.465  0.00  0.00    -0.000 A 
ATOM     13  C   UNL d   1       6.811   0.479 -16.978  0.00  0.00    -0.000 A 
ATOM     14  C   UNL d   1       7.141   1.584 -16.176  0.00  0.00    -0.000 A 
ENDBRANCH   6   9
ENDBRANCH   2   3
ENDBRANCH   1   2
BRANCH   1  15
ATOM     15  C   UNL d   1       9.720   7.156  -9.768  0.00  0.00     0.002 C 
ATOM     16  C   UNL d   1      11.174   7.660  -9.711  0.00  0.00     0.002 C 
ATOM     17  C   UNL d   1      11.415   8.588  -8.516  0.00  0.00     0.025 C 
ATOM     18  C   UNL d   1      11.018   7.920  -7.191  0.00  0.00     0.122 C 
ATOM     19  C   UNL d   1       9.561   7.430  -7.237  0.00  0.00     0.025 C 
ATOM     20  C   UNL d   1       9.327   6.497  -8.427  0.00  0.00     0.002 C 
BRANCH  18  21
ATOM     21  N   UNL d   1      11.217   8.844  -6.084  0.00  0.00    -0.088 NA
BRANCH  21  22
ATOM     22  C   UNL d   1      11.546   8.483  -4.798  0.00  0.00     0.746 A 
ATOM     23  N   UNL d   1      11.682   9.497  -3.950  0.00  0.00    -0.058 NA
ATOM     24  C   UNL d   1      12.049   9.187  -2.690  0.00  0.00     0.120 A 
ATOM     25  C   UNL d   1      12.260   7.862  -2.280  0.00  0.00     0.043 A 
ATOM     26  C   UNL d   1      12.075   6.873  -3.260  0.00  0.00     0.120 A 
ATOM     27  N   UNL d   1      11.720   7.189  -4.520  0.00  0.00    -0.058 NA
ENDBRANCH  21  22
ENDBRANCH  18  21
ENDBRANCH   1  15
TORSDOF 6
