REMARK  3 active torsions:
REMARK  status: ('A' for Active; 'I' for Inactive)
REMARK    1  A    between atoms: C_5  and  C_6 
REMARK    2  A    between atoms: N_9  and  C_10 
REMARK    3  A    between atoms: C_10  and  C_11 
ROOT
ATOM      1  C   UNL d   1      10.922   7.959  -8.894  0.00  0.00     0.026 C 
ATOM      2  C   UNL d   1      10.076   9.035  -9.619  0.00  0.00     0.040 C 
ATOM      3  C   UNL d   1       9.759   8.641 -11.056  0.00  0.00     0.251 C 
ATOM      4  N   UNL d   1       9.119   7.342 -11.173  0.00  0.00     0.141 N 
ATOM      5  C   UNL d   1      10.045   6.357 -10.630  0.00  0.00     0.251 C 
ATOM      6  C   UNL d   1      10.252   6.602  -9.162  0.00  0.00     0.040 C 
ENDROOT
BRANCH   4   7
ATOM      7  C   UNL d   1       8.821   7.185 -12.561  0.00  0.00     0.277 C 
BRANCH   7   8
ATOM      8  C   UNL d   1       8.253   5.851 -12.899  0.00  0.00     0.013 A 
ATOM      9  C   UNL d   1       6.881   5.593 -12.690  0.00  0.00     0.023 A 
ATOM     10  C   UNL d   1       6.354   4.334 -13.029  0.00  0.00     0.112 A 
ATOM     11  C   UNL d   1       7.185   3.325 -13.576  0.00  0.00     0.107 A 
ATOM     12  O   UNL d   1       5.017   4.061 -12.792  0.00  0.00    -0.319 OA
ATOM     13  C   UNL d   1       8.577   3.560 -13.695  0.00  0.00     0.021 A 
ATOM     14  N   UNL d   1       6.647   2.062 -13.884  0.00  0.00    -0.208 NA
ATOM     15  C   UNL d   1       9.087   4.826 -13.374  0.00  0.00    -0.001 A 
ATOM     16  C   UNL d   1       5.485   1.664 -13.383  0.00  0.00     0.286 C 
ATOM     17  C   UNL d   1       4.661   2.696 -12.575  0.00  0.00     0.238 C 
ATOM     18  O   UNL d   1       5.098   0.505 -13.440  0.00  0.00    -0.267 OA
ENDBRANCH   7   8
ENDBRANCH   4   7
BRANCH   1  19
ATOM     19  C   UNL d   1      11.142   8.242  -7.375  0.00  0.00    -0.023 A 
ATOM     20  C   UNL d   1      11.273   9.564  -6.887  0.00  0.00    -0.005 A 
ATOM     21  C   UNL d   1      11.389   9.863  -5.494  0.00  0.00    -0.005 A 
ATOM     22  C   UNL d   1      11.459   8.807  -4.577  0.00  0.00    -0.026 A 
ATOM     23  C   UNL d   1      11.629   9.070  -3.086  0.00  0.00     0.031 C 
ATOM     24  C   UNL d   1      11.381   7.503  -5.035  0.00  0.00    -0.026 A 
ATOM     25  C   UNL d   1      11.222   7.195  -6.432  0.00  0.00    -0.009 A 
ATOM     26  C   UNL d   1      11.417   6.375  -4.075  0.00  0.00     0.031 C 
ENDBRANCH   1  19
TORSDOF 3
