REMARK  5 active torsions:
REMARK  status: ('A' for Active; 'I' for Inactive)
REMARK    1  A    between atoms: C_7  and  O_8 
REMARK    2  A    between atoms: O_8  and  C_9 
REMARK    3  A    between atoms: C_9  and  C_10 
REMARK    4  A    between atoms: C_10  and  N_11 
REMARK    5  A    between atoms: N_14  and  C_15 
ROOT
ATOM      1  N   UNL d   1       7.052  -0.131 -16.408  0.00  0.00     0.144 N 
ATOM      2  C   UNL d   1       8.477   0.197 -16.316  0.00  0.00     0.274 C 
ATOM      3  C   UNL d   1       8.830   0.699 -14.904  0.00  0.00     0.137 C 
ATOM      4  N   UNL d   1       7.978   1.846 -14.558  0.00  0.00    -0.344 N 
ATOM      5  C   UNL d   1       6.544   1.565 -14.711  0.00  0.00     0.137 C 
ATOM      6  C   UNL d   1       6.262   1.053 -16.121  0.00  0.00     0.274 C 
ENDROOT
BRANCH   1   7
ATOM      7  C   UNL d   1       6.754  -0.648 -17.733  0.00  0.00     0.283 C 
BRANCH   7   8
ATOM      8  C   UNL d   1       5.345  -1.279 -17.803  0.00  0.00     0.184 C 
BRANCH   8   9
ATOM      9  O   UNL d   1       5.197  -1.980 -19.033  0.00  0.00    -0.329 OA
BRANCH   9  10
ATOM     10  C   UNL d   1       5.875  -3.168 -19.199  0.00  0.00     0.096 A 
ATOM     11  C   UNL d   1       6.392  -3.949 -18.116  0.00  0.00     0.026 A 
ATOM     12  C   UNL d   1       7.092  -5.156 -18.344  0.00  0.00     0.023 A 
ATOM     13  C   UNL d   1       7.243  -5.555 -19.676  0.00  0.00     0.102 A 
ATOM     14  N   UNL d   1       7.860  -6.672 -20.238  0.00  0.00    -0.216 NA
ATOM     15  C   UNL d   1       6.745  -4.817 -20.726  0.00  0.00     0.103 A 
ATOM     16  C   UNL d   1       7.764  -6.647 -21.590  0.00  0.00     0.221 A 
ATOM     17  S   UNL d   1       8.361  -7.770 -22.651  0.00  0.00    -0.037 SA
ATOM     18  N   UNL d   1       7.083  -5.510 -21.890  0.00  0.00    -0.216 NA
ATOM     19  C   UNL d   1       6.049  -3.616 -20.532  0.00  0.00     0.045 A 
ENDBRANCH   9  10
ENDBRANCH   8   9
ENDBRANCH   7   8
ENDBRANCH   1   7
BRANCH   4  20
ATOM     20  C   UNL d   1       8.474   3.067 -14.080  0.00  0.00     0.057 A 
ATOM     21  C   UNL d   1       7.615   4.026 -13.470  0.00  0.00     0.028 A 
ATOM     22  C   UNL d   1       8.089   5.267 -13.048  0.00  0.00     0.059 A 
ATOM     23  C   UNL d   1       9.450   5.589 -13.164  0.00  0.00     0.011 A 
ATOM     24 CL   UNL d   1       6.962   6.407 -12.438  0.00  0.00    -0.082 Cl
ATOM     25  C   UNL d   1      10.332   4.661 -13.750  0.00  0.00     0.002 A 
ATOM     26  C   UNL d   1       9.852   3.424 -14.204  0.00  0.00     0.017 A 
ENDBRANCH   4  20
TORSDOF 5
