REMARK  10 active torsions:
REMARK  status: ('A' for Active; 'I' for Inactive)
REMARK    1  A    between atoms: C_2  and  C_3 
REMARK    2  A    between atoms: C_3  and  N_4 
REMARK    3  A    between atoms: N_4  and  C_5 
REMARK    4  A    between atoms: N_4  and  C_24 
REMARK    5  A    between atoms: C_5  and  C_6 
REMARK    6  A    between atoms: C_6  and  C_7 
REMARK    7  A    between atoms: C_7  and  C_8 
REMARK    8  A    between atoms: C_8  and  N_9 
REMARK       I    between atoms: N_9  and  C_10 
REMARK    9  A    between atoms: C_10  and  C_12 
REMARK   10  A    between atoms: C_15  and  C_16 
ROOT
ATOM      1  C   UNL d   1       9.571   4.927 -12.852  0.00  0.00     0.029 C 
ENDROOT
BRANCH   1   2
ATOM      2  C   UNL d   1       9.118   4.586 -14.259  0.00  0.00     0.037 C 
BRANCH   2   3
ATOM      3  C   UNL d   1       9.485   3.133 -14.624  0.00  0.00     0.250 C 
BRANCH   3   4
ATOM      4  N   UNL d   1       9.127   2.760 -16.001  0.00  0.00     0.135 N 
BRANCH   4   5
ATOM      5  C   UNL d   1       9.547   3.774 -16.985  0.00  0.00     0.250 C 
BRANCH   5   6
ATOM      6  C   UNL d   1      11.085   3.942 -17.037  0.00  0.00     0.035 C 
ATOM      7  C   UNL d   1      11.512   5.038 -18.000  0.00  0.00     0.002 C 
ENDBRANCH   5   6
ENDBRANCH   4   5
BRANCH   4   8
ATOM      8  C   UNL d   1       9.562   1.386 -16.332  0.00  0.00     0.225 C 
ATOM      9  C   UNL d   1       9.205   0.998 -17.806  0.00  0.00     0.068 C 
ATOM     10  C   UNL d   1       7.753   0.657 -17.921  0.00  0.00     0.026 A 
ATOM     11  C   UNL d   1       6.955   0.325 -16.861  0.00  0.00     0.063 A 
ATOM     12  S   UNL d   1       6.866   0.691 -19.418  0.00  0.00    -0.050 SA
ATOM     13  C   UNL d   1       7.429   0.281 -15.437  0.00  0.00     0.048 C 
ATOM     14  N   UNL d   1       5.634   0.070 -17.202  0.00  0.00    -0.224 NA
ATOM     15  C   UNL d   1       8.970   0.342 -15.352  0.00  0.00     0.040 C 
ATOM     16  C   UNL d   1       5.437   0.197 -18.528  0.00  0.00     0.214 A 
ATOM     17  N   UNL d   1       4.227  -0.035 -19.135  0.00  0.00    -0.120 N 
ENDBRANCH   4   8
ENDBRANCH   3   4
ENDBRANCH   2   3
ENDBRANCH   1   2
BRANCH   1  18
ATOM     18  C   UNL d   1       9.162   6.370 -12.504  0.00  0.00     0.129 C 
BRANCH  18  19
ATOM     19  N   UNL d   1       9.517   6.738 -11.148  0.00  0.00    -0.234 NA
ATOM     20  C   UNL d   1       9.175   6.072 -10.046  0.00  0.00     0.275 C 
ATOM     21  O   UNL d   1       8.431   5.087 -10.044  0.00  0.00    -0.266 OA
BRANCH  20  22
ATOM     22  C   UNL d   1       9.732   6.638  -8.768  0.00  0.00     0.058 A 
ATOM     23  C   UNL d   1       9.055   6.386  -7.564  0.00  0.00     0.005 A 
ATOM     24  C   UNL d   1       9.594   6.795  -6.345  0.00  0.00     0.000 A 
ATOM     25  C   UNL d   1      10.822   7.502  -6.299  0.00  0.00     0.000 A 
ATOM     26  C   UNL d   1      11.489   7.777  -7.504  0.00  0.00     0.000 A 
ATOM     27  C   UNL d   1      10.965   7.332  -8.735  0.00  0.00     0.005 A 
BRANCH  25  28
ATOM     28  C   UNL d   1      11.362   7.917  -5.005  0.00  0.00     0.000 A 
ATOM     29  C   UNL d   1      11.368   9.284  -4.655  0.00  0.00     0.000 A 
ATOM     30  C   UNL d   1      11.854   9.695  -3.406  0.00  0.00     0.000 A 
ATOM     31  C   UNL d   1      12.361   8.757  -2.490  0.00  0.00     0.000 A 
ATOM     32  C   UNL d   1      12.353   7.390  -2.820  0.00  0.00     0.000 A 
ATOM     33  C   UNL d   1      11.856   6.974  -4.067  0.00  0.00     0.000 A 
ENDBRANCH  25  28
ENDBRANCH  20  22
ENDBRANCH  18  19
ENDBRANCH   1  18
TORSDOF 10
