REMARK  7 active torsions:
REMARK  status: ('A' for Active; 'I' for Inactive)
REMARK    1  A    between atoms: C_8  and  O_9 
REMARK    2  A    between atoms: O_9  and  C_10 
REMARK    3  A    between atoms: C_10  and  C_11 
REMARK    4  A    between atoms: C_11  and  C_12 
REMARK    5  A    between atoms: C_12  and  C_13 
REMARK    6  A    between atoms: C_13  and  N_14 
REMARK    7  A    between atoms: N_17  and  C_18 
ROOT
ATOM      1  C   UNL d   1       9.597   8.335 -11.040  0.00  0.00     0.038 C 
ENDROOT
BRANCH   1   2
ATOM      2  C   UNL d   1       9.631   8.895  -9.627  0.00  0.00     0.035 C 
BRANCH   2   3
ATOM      3  C   UNL d   1      11.075   9.322  -9.228  0.00  0.00     0.149 C 
BRANCH   3   4
ATOM      4  O   UNL d   1      11.151   9.810  -7.910  0.00  0.00    -0.331 OA
BRANCH   4   5
ATOM      5  C   UNL d   1      11.271   8.966  -6.871  0.00  0.00     0.096 A 
ATOM      6  C   UNL d   1      10.891   7.617  -6.994  0.00  0.00     0.024 A 
ATOM      7  C   UNL d   1      10.958   6.840  -5.856  0.00  0.00    -0.001 A 
ATOM      8  C   UNL d   1      11.476   7.353  -4.666  0.00  0.00    -0.004 A 
ATOM      9  C   UNL d   1      11.714   6.391  -3.522  0.00  0.00     0.038 C 
ATOM     10  C   UNL d   1      11.922   8.693  -4.551  0.00  0.00     0.082 A 
ATOM     11  C   UNL d   1      11.682   7.122  -2.184  0.00  0.00     0.095 C 
ATOM     12  C   UNL d   1      12.496   8.412  -2.225  0.00  0.00     0.256 C 
ATOM     13  O   UNL d   1      13.105   8.763  -1.229  0.00  0.00    -0.270 OA
ATOM     14  N   UNL d   1      12.528   9.131  -3.370  0.00  0.00    -0.212 NA
ATOM     15  C   UNL d   1      11.790   9.526  -5.680  0.00  0.00     0.043 A 
ENDBRANCH   4   5
ENDBRANCH   3   4
ENDBRANCH   2   3
ENDBRANCH   1   2
BRANCH   1  16
ATOM     16  C   UNL d   1       9.899   6.823 -11.072  0.00  0.00     0.251 C 
BRANCH  16  17
ATOM     17  N   UNL d   1       8.735   5.991 -10.788  0.00  0.00     0.141 N 
ATOM     18  C   UNL d   1       9.125   4.600 -10.554  0.00  0.00     0.274 C 
ATOM     19  C   UNL d   1       9.702   3.968 -11.849  0.00  0.00     0.137 C 
ATOM     20  N   UNL d   1       8.758   4.123 -12.954  0.00  0.00    -0.343 N 
ATOM     21  C   UNL d   1       8.194   5.443 -13.179  0.00  0.00     0.137 C 
ATOM     22  C   UNL d   1       7.689   6.027 -11.835  0.00  0.00     0.274 C 
BRANCH  20  23
ATOM     23  C   UNL d   1       8.428   3.072 -13.801  0.00  0.00     0.084 A 
ATOM     24  C   UNL d   1       9.424   2.212 -14.324  0.00  0.00     0.155 A 
ATOM     25  C   UNL d   1       9.052   1.093 -15.086  0.00  0.00     0.031 A 
ATOM     26  F   UNL d   1      10.739   2.441 -14.081  0.00  0.00    -0.203 F 
ATOM     27  C   UNL d   1       7.691   0.819 -15.331  0.00  0.00     0.002 A 
ATOM     28  C   UNL d   1       6.698   1.668 -14.806  0.00  0.00     0.002 A 
ATOM     29  C   UNL d   1       7.067   2.797 -14.055  0.00  0.00     0.019 A 
ENDBRANCH  20  23
ENDBRANCH  16  17
ENDBRANCH   1  16
TORSDOF 7
