REMARK  7 active torsions:
REMARK  status: ('A' for Active; 'I' for Inactive)
REMARK    1  A    between atoms: N_17  and  C_18 
REMARK    2  A    between atoms: C_18  and  C_19 
REMARK    3  A    between atoms: C_19  and  C_20 
REMARK    4  A    between atoms: C_20  and  C_21 
REMARK    5  A    between atoms: C_21  and  C_22 
REMARK    6  A    between atoms: C_22  and  N_23 
REMARK    7  A    between atoms: N_26  and  C_27 
ROOT
ATOM      1  C   UNL d   1       7.048   3.662 -13.688  0.00  0.00     0.124 C 
ENDROOT
BRANCH   1   2
ATOM      2  N   UNL d   1       7.592   2.507 -14.396  0.00  0.00    -0.165 N 
ATOM      3  C   UNL d   1       7.195   1.149 -14.442  0.00  0.00     0.073 A 
ATOM      4  C   UNL d   1       6.024   0.588 -13.702  0.00  0.00     0.052 C 
ATOM      5  C   UNL d   1       8.107   0.534 -15.277  0.00  0.00     0.112 A 
ATOM      6  N   UNL d   1       9.004   1.442 -15.731  0.00  0.00    -0.132 N 
ATOM      7  C   UNL d   1       8.667   2.653 -15.207  0.00  0.00     0.718 A 
ATOM      8  C   UNL d   1      10.123   1.666 -16.505  0.00  0.00     0.172 A 
ATOM      9  N   UNL d   1       9.440   3.649 -15.590  0.00  0.00    -0.043 NA
ATOM     10  C   UNL d   1      10.371   2.990 -16.388  0.00  0.00     0.187 A 
ATOM     11  N   UNL d   1      11.498   3.508 -17.072  0.00  0.00    -0.263 N 
ATOM     12  C   UNL d   1      12.284   2.697 -17.852  0.00  0.00     0.335 A 
ATOM     13  C   UNL d   1      11.810   4.938 -16.947  0.00  0.00     0.137 C 
ATOM     14  N   UNL d   1      11.960   1.351 -17.944  0.00  0.00    -0.246 N 
ATOM     15  O   UNL d   1      13.253   3.163 -18.459  0.00  0.00    -0.246 OA
ATOM     16  C   UNL d   1      10.914   0.749 -17.302  0.00  0.00     0.284 A 
ATOM     17  C   UNL d   1      12.822   0.524 -18.801  0.00  0.00     0.139 C 
ATOM     18  O   UNL d   1      10.615  -0.448 -17.369  0.00  0.00    -0.265 OA
ENDBRANCH   1   2
BRANCH   1  19
ATOM     19  C   UNL d   1       8.073   4.335 -12.740  0.00  0.00     0.025 C 
BRANCH  19  20
ATOM     20  C   UNL d   1       7.592   5.671 -12.158  0.00  0.00     0.004 C 
BRANCH  20  21
ATOM     21  C   UNL d   1       8.726   6.460 -11.469  0.00  0.00     0.035 C 
BRANCH  21  22
ATOM     22  C   UNL d   1       8.819   6.132  -9.972  0.00  0.00     0.250 C 
BRANCH  22  23
ATOM     23  N   UNL d   1       9.865   6.923  -9.324  0.00  0.00     0.141 N 
ATOM     24  C   UNL d   1       9.269   8.025  -8.555  0.00  0.00     0.274 C 
ATOM     25  C   UNL d   1      10.338   8.871  -7.869  0.00  0.00     0.137 C 
ATOM     26  N   UNL d   1      11.150   8.014  -7.028  0.00  0.00    -0.344 N 
ATOM     27  C   UNL d   1      11.698   6.850  -7.687  0.00  0.00     0.137 C 
ATOM     28  C   UNL d   1      10.563   6.075  -8.363  0.00  0.00     0.274 C 
BRANCH  26  29
ATOM     29  C   UNL d   1      11.356   8.267  -5.673  0.00  0.00     0.057 A 
ATOM     30  C   UNL d   1      11.736   7.215  -4.804  0.00  0.00     0.029 A 
ATOM     31  C   UNL d   1      12.058   7.521  -3.477  0.00  0.00     0.070 A 
ATOM     32  C   UNL d   1      11.916   8.808  -3.007  0.00  0.00     0.068 A 
ATOM     33 CL   UNL d   1      12.655   6.335  -2.405  0.00  0.00    -0.081 Cl
ATOM     34  C   UNL d   1      11.485   9.838  -3.818  0.00  0.00     0.014 A 
ATOM     35 CL   UNL d   1      12.309   9.126  -1.410  0.00  0.00    -0.082 Cl
ATOM     36  C   UNL d   1      11.235   9.592  -5.174  0.00  0.00     0.018 A 
ENDBRANCH  26  29
ENDBRANCH  22  23
ENDBRANCH  21  22
ENDBRANCH  20  21
ENDBRANCH  19  20
ENDBRANCH   1  19
TORSDOF 7
