REMARK  6 active torsions:
REMARK  status: ('A' for Active; 'I' for Inactive)
REMARK    1  A    between atoms: O_2  and  C_3 
REMARK    2  A    between atoms: C_4  and  C_5 
REMARK       I    between atoms: C_5  and  N_7 
REMARK    3  A    between atoms: N_7  and  C_8 
REMARK    4  A    between atoms: C_8  and  C_9 
REMARK    5  A    between atoms: C_9  and  N_10 
REMARK    6  A    between atoms: N_13  and  C_14 
ROOT
ATOM      1  C   UNL d   1      10.132   4.400 -13.703  0.00  0.00     0.277 C 
ATOM      2  O   UNL d   1      11.045   5.178 -13.972  0.00  0.00    -0.266 OA
ATOM      3  N   UNL d   1       9.338   4.568 -12.633  0.00  0.00    -0.232 NA
ENDROOT
BRANCH   3   4
ATOM      4  C   UNL d   1       9.362   5.699 -11.712  0.00  0.00     0.164 C 
BRANCH   4   5
ATOM      5  C   UNL d   1       9.317   5.204 -10.262  0.00  0.00     0.277 C 
BRANCH   5   6
ATOM      6  N   UNL d   1       9.239   6.328  -9.336  0.00  0.00     0.143 N 
ATOM      7  C   UNL d   1       8.831   5.833  -8.015  0.00  0.00     0.274 C 
ATOM      8  C   UNL d   1       8.691   6.987  -7.000  0.00  0.00     0.137 C 
ATOM      9  N   UNL d   1       9.908   7.786  -6.958  0.00  0.00    -0.344 N 
ATOM     10  C   UNL d   1      10.416   8.236  -8.241  0.00  0.00     0.137 C 
ATOM     11  C   UNL d   1      10.520   7.040  -9.202  0.00  0.00     0.274 C 
BRANCH   9  12
ATOM     12  C   UNL d   1      10.617   8.024  -5.770  0.00  0.00     0.056 A 
ATOM     13  C   UNL d   1      11.171   6.958  -5.034  0.00  0.00     0.017 A 
ATOM     14  C   UNL d   1      11.867   7.203  -3.826  0.00  0.00    -0.003 A 
ATOM     15  C   UNL d   1      11.979   8.517  -3.333  0.00  0.00    -0.022 A 
ATOM     16  C   UNL d   1      11.426   9.585  -4.066  0.00  0.00    -0.003 A 
ATOM     17  C   UNL d   1      12.673   8.785  -2.007  0.00  0.00     0.031 C 
ATOM     18  C   UNL d   1      10.759   9.342  -5.290  0.00  0.00     0.017 A 
ENDBRANCH   9  12
ENDBRANCH   5   6
ENDBRANCH   4   5
ENDBRANCH   3   4
BRANCH   1  19
ATOM     19  C   UNL d   1       9.863   3.182 -14.556  0.00  0.00     0.080 A 
ATOM     20  C   UNL d   1      10.803   2.717 -15.525  0.00  0.00     0.099 A 
ATOM     21  C   UNL d   1      10.513   1.560 -16.291  0.00  0.00     0.023 A 
ATOM     22  C   UNL d   1       9.270   0.889 -16.139  0.00  0.00     0.008 A 
ATOM     23  C   UNL d   1      11.460   1.064 -17.214  0.00  0.00     0.002 A 
ATOM     24  C   UNL d   1       8.329   1.372 -15.206  0.00  0.00     0.035 A 
ATOM     25  C   UNL d   1       8.999  -0.253 -16.927  0.00  0.00     0.001 A 
ATOM     26  C   UNL d   1       8.623   2.511 -14.444  0.00  0.00     0.013 A 
ATOM     27 BR   UNL d   1       6.639   0.526 -14.926  0.00  0.00    -0.049 Br
ATOM     28  C   UNL d   1       9.953  -0.743 -17.836  0.00  0.00     0.000 A 
ATOM     29  C   UNL d   1      11.185  -0.081 -17.985  0.00  0.00     0.000 A 
BRANCH  20  30
ATOM     30  O   UNL d   1      12.007   3.351 -15.715  0.00  0.00    -0.328 OA
ATOM     31  C   UNL d   1      11.977   4.354 -16.727  0.00  0.00     0.181 C 
ENDBRANCH  20  30
ENDBRANCH   1  19
TORSDOF 6
