REMARK  11 active torsions:
REMARK  status: ('A' for Active; 'I' for Inactive)
REMARK    1  A    between atoms: C_2  and  N_3 
REMARK    2  A    between atoms: N_3  and  C_4 
REMARK    3  A    between atoms: N_3  and  C_20 
REMARK    4  A    between atoms: C_4  and  C_5 
REMARK    5  A    between atoms: C_5  and  C_6 
REMARK    6  A    between atoms: C_6  and  C_7 
REMARK    7  A    between atoms: C_7  and  O_8 
REMARK    8  A    between atoms: O_8  and  C_9 
REMARK    9  A    between atoms: C_20  and  C_21 
REMARK   10  A    between atoms: C_23  and  C_24 
REMARK   11  A    between atoms: C_30  and  O_31 
ROOT
ATOM      1  N   UNL d   1       9.294   1.558 -15.598  0.00  0.00     0.137 N 
ENDROOT
BRANCH   1   2
ATOM      2  C   UNL d   1      10.123   0.398 -15.953  0.00  0.00     0.250 C 
ATOM      3  C   UNL d   1      11.424   0.815 -16.687  0.00  0.00     0.037 C 
ENDBRANCH   1   2
BRANCH   1   4
ATOM      4  C   UNL d   1       9.964   2.387 -14.592  0.00  0.00     0.250 C 
BRANCH   4   5
ATOM      5  C   UNL d   1       9.011   3.419 -13.970  0.00  0.00     0.038 C 
BRANCH   5   6
ATOM      6  C   UNL d   1       9.706   4.447 -13.075  0.00  0.00     0.035 C 
BRANCH   6   7
ATOM      7  C   UNL d   1       8.746   5.615 -12.785  0.00  0.00     0.149 C 
BRANCH   7   8
ATOM      8  O   UNL d   1       9.462   6.680 -12.171  0.00  0.00    -0.331 OA
BRANCH   8   9
ATOM      9  C   UNL d   1       9.560   6.684 -10.808  0.00  0.00     0.096 A 
ATOM     10  C   UNL d   1      10.258   7.760 -10.207  0.00  0.00     0.043 A 
ATOM     11  C   UNL d   1      10.367   7.836  -8.808  0.00  0.00     0.082 A 
ATOM     12  C   UNL d   1       9.796   6.820  -8.007  0.00  0.00    -0.004 A 
ATOM     13  N   UNL d   1      11.064   8.918  -8.198  0.00  0.00    -0.212 NA
ATOM     14  C   UNL d   1       9.108   5.748  -8.608  0.00  0.00    -0.001 A 
ATOM     15  C   UNL d   1       9.964   6.895  -6.507  0.00  0.00     0.038 C 
ATOM     16  C   UNL d   1       8.994   5.674 -10.001  0.00  0.00     0.024 A 
ATOM     17  C   UNL d   1      10.072   8.348  -6.016  0.00  0.00     0.095 C 
ATOM     18  C   UNL d   1      11.006   9.194  -6.886  0.00  0.00     0.256 C 
ATOM     19  O   UNL d   1      11.658  10.114  -6.376  0.00  0.00    -0.270 OA
ENDBRANCH   8   9
ENDBRANCH   7   8
ENDBRANCH   6   7
ENDBRANCH   5   6
ENDBRANCH   4   5
ENDBRANCH   1   4
BRANCH   1  20
ATOM     20  C   UNL d   1       8.873   2.318 -16.791  0.00  0.00     0.251 C 
BRANCH  20  21
ATOM     21  C   UNL d   1       7.616   1.748 -17.435  0.00  0.00     0.038 A 
ATOM     22  C   UNL d   1       7.580   0.381 -18.093  0.00  0.00     0.026 A 
ATOM     23  C   UNL d   1       7.549   1.631 -18.944  0.00  0.00     0.007 A 
BRANCH  22  24
ATOM     24  C   UNL d   1       6.351  -0.463 -17.941  0.00  0.00     0.002 A 
ATOM     25  C   UNL d   1       5.799  -0.727 -16.660  0.00  0.00     0.090 A 
ATOM     26  C   UNL d   1       4.608  -1.490 -16.561  0.00  0.00     0.026 A 
ATOM     27  C   UNL d   1       3.982  -1.981 -17.721  0.00  0.00     0.032 A 
ATOM     28  C   UNL d   1       4.543  -1.742 -18.987  0.00  0.00     0.140 A 
ATOM     29  C   UNL d   1       5.724  -0.988 -19.096  0.00  0.00     0.027 A 
ATOM     30  F   UNL d   1       3.945  -2.226 -20.100  0.00  0.00    -0.204 F 
BRANCH  25  31
ATOM     31  O   UNL d   1       6.466  -0.214 -15.564  0.00  0.00    -0.328 OA
ATOM     32  C   UNL d   1       5.993  -0.538 -14.265  0.00  0.00     0.181 C 
ENDBRANCH  25  31
ENDBRANCH  22  24
ENDBRANCH  20  21
ENDBRANCH   1  20
TORSDOF 11
