REMARK  7 active torsions:
REMARK  status: ('A' for Active; 'I' for Inactive)
REMARK    1  A    between atoms: N_7  and  C_8 
REMARK    2  A    between atoms: C_8  and  C_9 
REMARK    3  A    between atoms: C_9  and  C_10 
REMARK    4  A    between atoms: C_10  and  C_11 
REMARK    5  A    between atoms: C_11  and  N_12 
REMARK    6  A    between atoms: N_15  and  C_16 
REMARK    7  A    between atoms: C_23  and  O_24 
ROOT
ATOM      1  N   UNL d   1      12.230   4.688 -15.955  0.00  0.00     0.141 N 
ATOM      2  C   UNL d   1      12.094   4.056 -14.632  0.00  0.00     0.274 C 
ATOM      3  C   UNL d   1      10.753   3.307 -14.513  0.00  0.00     0.137 C 
ATOM      4  N   UNL d   1       9.671   4.229 -14.802  0.00  0.00    -0.344 N 
ATOM      5  C   UNL d   1       9.771   4.960 -16.049  0.00  0.00     0.137 C 
ATOM      6  C   UNL d   1      11.141   5.659 -16.132  0.00  0.00     0.274 C 
ENDROOT
BRANCH   1   7
ATOM      7  C   UNL d   1      13.518   5.372 -16.047  0.00  0.00     0.251 C 
BRANCH   7   8
ATOM      8  C   UNL d   1      13.978   5.523 -17.507  0.00  0.00     0.037 C 
BRANCH   8   9
ATOM      9  C   UNL d   1      15.394   6.113 -17.608  0.00  0.00     0.029 C 
BRANCH   9  10
ATOM     10  C   UNL d   1      15.846   6.353 -19.062  0.00  0.00     0.132 C 
BRANCH  10  11
ATOM     11  N   UNL d   1      17.205   6.910 -19.134  0.00  0.00    -0.202 N 
ATOM     12  N   UNL d   1      18.176   6.010 -19.531  0.00  0.00    -0.159 NA
ATOM     13  C   UNL d   1      19.405   6.388 -19.643  0.00  0.00     0.181 A 
ATOM     14  C   UNL d   1      19.775   7.793 -19.336  0.00  0.00     0.285 A 
ATOM     15  N   UNL d   1      18.758   8.624 -18.954  0.00  0.00    -0.244 N 
ATOM     16  O   UNL d   1      20.953   8.141 -19.430  0.00  0.00    -0.265 OA
ATOM     17  C   UNL d   1      19.055  10.031 -18.636  0.00  0.00     0.139 C 
ATOM     18  C   UNL d   1      17.452   8.226 -18.848  0.00  0.00     0.349 A 
ATOM     19  O   UNL d   1      16.553   8.999 -18.511  0.00  0.00    -0.245 OA
ENDBRANCH  10  11
ENDBRANCH   9  10
ENDBRANCH   8   9
ENDBRANCH   7   8
ENDBRANCH   1   7
BRANCH   4  20
ATOM     20  C   UNL d   1       8.566   4.378 -13.948  0.00  0.00     0.056 A 
ATOM     21  C   UNL d   1       7.562   3.379 -13.837  0.00  0.00     0.018 A 
ATOM     22  C   UNL d   1       6.460   3.590 -12.969  0.00  0.00     0.002 A 
ATOM     23  C   UNL d   1       7.623   2.173 -14.576  0.00  0.00     0.026 A 
ATOM     24  C   UNL d   1       6.362   4.779 -12.222  0.00  0.00     0.000 A 
ATOM     25  C   UNL d   1       5.465   2.603 -12.838  0.00  0.00     0.002 A 
ATOM     26  C   UNL d   1       7.354   5.763 -12.332  0.00  0.00     0.002 A 
ATOM     27  C   UNL d   1       8.451   5.564 -13.191  0.00  0.00     0.017 A 
ATOM     28  C   UNL d   1       5.544   1.403 -13.568  0.00  0.00     0.024 A 
ATOM     29  C   UNL d   1       6.627   1.184 -14.453  0.00  0.00     0.094 A 
BRANCH  29  30
ATOM     30  O   UNL d   1       6.773   0.054 -15.228  0.00  0.00    -0.328 OA
ATOM     31  C   UNL d   1       5.725  -0.904 -15.216  0.00  0.00     0.181 C 
ENDBRANCH  29  30
ENDBRANCH   4  20
TORSDOF 7
