REMARK  10 active torsions:
REMARK  status: ('A' for Active; 'I' for Inactive)
REMARK    1  A    between atoms: C_2  and  C_5 
REMARK    2  A    between atoms: C_10  and  O_11 
REMARK    3  A    between atoms: O_11  and  C_12 
REMARK    4  A    between atoms: C_12  and  C_13 
REMARK    5  A    between atoms: C_13  and  N_14 
REMARK    6  A    between atoms: C_17  and  N_18 
REMARK    7  A    between atoms: N_18  and  C_19 
REMARK    8  A    between atoms: N_18  and  S_23 
REMARK    9  A    between atoms: C_19  and  C_20 
REMARK   10  A    between atoms: S_23  and  C_26 
ROOT
ATOM      1  N   UNL d   1      10.281   4.909 -13.997  0.00  0.00     0.140 N 
ATOM      2  C   UNL d   1       9.079   4.726 -14.795  0.00  0.00     0.252 C 
ATOM      3  C   UNL d   1       9.548   4.417 -16.217  0.00  0.00     0.058 C 
ATOM      4  C   UNL d   1      10.377   3.131 -16.284  0.00  0.00     0.096 C 
ATOM      5  C   UNL d   1      11.529   3.236 -15.284  0.00  0.00     0.058 C 
ATOM      6  C   UNL d   1      11.014   3.639 -13.901  0.00  0.00     0.252 C 
ENDROOT
BRANCH   4   7
ATOM      7  N   UNL d   1      10.921   2.905 -17.660  0.00  0.00    -0.276 N 
BRANCH   7   8
ATOM      8  C   UNL d   1      10.353   1.698 -18.337  0.00  0.00     0.113 C 
BRANCH   8   9
ATOM      9  C   UNL d   1      11.406   0.903 -19.099  0.00  0.00     0.023 A 
ATOM     10  C   UNL d   1      12.136  -0.250 -18.418  0.00  0.00     0.002 A 
ATOM     11  C   UNL d   1      11.135  -0.530 -19.507  0.00  0.00     0.002 A 
ENDBRANCH   8   9
ENDBRANCH   7   8
BRANCH   7  12
ATOM     12  S   UNL d   1      11.726   4.189 -18.602  0.00  0.00     0.264 S 
ATOM     13  O   UNL d   1      12.282   5.196 -17.658  0.00  0.00    -0.200 OA
ATOM     14  O   UNL d   1      12.598   3.568 -19.591  0.00  0.00    -0.200 OA
BRANCH  12  15
ATOM     15  C   UNL d   1      10.397   5.045 -19.470  0.00  0.00     0.103 A 
ATOM     16  C   UNL d   1      10.164   4.703 -20.847  0.00  0.00     0.015 A 
ATOM     17  C   UNL d   1       9.150   5.379 -21.557  0.00  0.00     0.030 A 
ATOM     18  C   UNL d   1       8.331   6.342 -20.928  0.00  0.00     0.140 A 
ATOM     19  C   UNL d   1       8.571   6.663 -19.558  0.00  0.00     0.030 A 
ATOM     20  F   UNL d   1       7.357   6.980 -21.616  0.00  0.00    -0.204 F 
ATOM     21  C   UNL d   1       9.628   6.056 -18.849  0.00  0.00     0.015 A 
ENDBRANCH  12  15
ENDBRANCH   7  12
ENDBRANCH   4   7
BRANCH   1  22
ATOM     22  C   UNL d   1       9.842   5.260 -12.660  0.00  0.00     0.283 C 
BRANCH  22  23
ATOM     23  C   UNL d   1       9.570   6.782 -12.423  0.00  0.00     0.184 C 
BRANCH  23  24
ATOM     24  O   UNL d   1      10.148   7.260 -11.200  0.00  0.00    -0.329 OA
BRANCH  24  25
ATOM     25  C   UNL d   1       9.712   6.806  -9.989  0.00  0.00     0.090 A 
ATOM     26  C   UNL d   1      10.251   7.407  -8.793  0.00  0.00    -0.001 A 
ATOM     27  C   UNL d   1       9.691   6.995  -7.560  0.00  0.00    -0.002 A 
ATOM     28  C   UNL d   1       8.710   6.014  -7.509  0.00  0.00    -0.000 A 
ATOM     29  C   UNL d   1       8.273   5.371  -8.676  0.00  0.00     0.002 A 
ATOM     30  C   UNL d   1       8.720   5.805  -9.917  0.00  0.00     0.024 A 
BRANCH  26  31
ATOM     31  C   UNL d   1      11.327   8.523  -8.809  0.00  0.00     0.021 C 
ATOM     32  C   UNL d   1      12.698   7.988  -9.218  0.00  0.00     0.004 C 
ATOM     33  C   UNL d   1      11.501   9.175  -7.399  0.00  0.00     0.004 C 
ATOM     34  C   UNL d   1      10.941   9.611  -9.818  0.00  0.00     0.004 C 
ENDBRANCH  26  31
ENDBRANCH  24  25
ENDBRANCH  23  24
ENDBRANCH  22  23
ENDBRANCH   1  22
TORSDOF 10
