REMARK  13 active torsions:
REMARK  status: ('A' for Active; 'I' for Inactive)
REMARK    1  A    between atoms: O_2  and  C_3 
REMARK    2  A    between atoms: C_7  and  C_8 
REMARK    3  A    between atoms: C_8  and  C_9 
REMARK    4  A    between atoms: C_9  and  C_10 
REMARK    5  A    between atoms: C_15  and  O_16 
REMARK    6  A    between atoms: O_16  and  C_17 
REMARK    7  A    between atoms: C_17  and  C_18 
REMARK    8  A    between atoms: C_18  and  C_19 
REMARK    9  A    between atoms: C_19  and  C_20 
REMARK   10  A    between atoms: C_20  and  C_21 
REMARK   11  A    between atoms: C_21  and  N_22 
REMARK   12  A    between atoms: N_25  and  C_26 
REMARK   13  A    between atoms: C_31  and  O_32 
ROOT
ATOM      1  C   UNL d   1      13.626   3.777 -20.983  0.00  0.00     0.149 C 
ENDROOT
BRANCH   1   2
ATOM      2  O   UNL d   1      14.102   5.105 -21.133  0.00  0.00    -0.331 OA
BRANCH   2   3
ATOM      3  C   UNL d   1      13.304   6.037 -21.765  0.00  0.00     0.090 A 
ATOM      4  C   UNL d   1      13.817   7.347 -21.903  0.00  0.00     0.001 A 
ATOM      5  C   UNL d   1      13.051   8.346 -22.541  0.00  0.00    -0.002 A 
ATOM      6  C   UNL d   1      11.769   8.051 -23.039  0.00  0.00    -0.000 A 
ATOM      7  C   UNL d   1      11.248   6.753 -22.901  0.00  0.00     0.002 A 
ATOM      8  C   UNL d   1      12.012   5.751 -22.279  0.00  0.00     0.024 A 
BRANCH   4   9
ATOM      9  C   UNL d   1      15.198   7.694 -21.367  0.00  0.00     0.033 C 
BRANCH   9  10
ATOM     10  C   UNL d   1      15.146   8.232 -19.930  0.00  0.00     0.031 C 
BRANCH  10  11
ATOM     11  C   UNL d   1      16.534   8.480 -19.369  0.00  0.00    -0.020 A 
ATOM     12  C   UNL d   1      17.272   9.608 -19.779  0.00  0.00    -0.004 A 
ATOM     13  C   UNL d   1      18.558   9.836 -19.256  0.00  0.00     0.002 A 
ATOM     14  C   UNL d   1      19.109   8.938 -18.323  0.00  0.00     0.024 A 
ATOM     15  C   UNL d   1      18.384   7.805 -17.899  0.00  0.00     0.094 A 
ATOM     16  C   UNL d   1      17.091   7.580 -18.439  0.00  0.00     0.020 A 
BRANCH  15  17
ATOM     17  O   UNL d   1      18.987   6.989 -16.968  0.00  0.00    -0.328 OA
ATOM     18  C   UNL d   1      18.195   5.996 -16.332  0.00  0.00     0.181 C 
ENDBRANCH  15  17
ENDBRANCH  10  11
ENDBRANCH   9  10
ENDBRANCH   4   9
ENDBRANCH   2   3
ENDBRANCH   1   2
BRANCH   1  19
ATOM     19  C   UNL d   1      12.572   3.718 -19.866  0.00  0.00     0.033 C 
BRANCH  19  20
ATOM     20  C   UNL d   1      12.026   2.301 -19.674  0.00  0.00     0.005 C 
BRANCH  20  21
ATOM     21  C   UNL d   1      10.963   2.291 -18.586  0.00  0.00     0.035 C 
BRANCH  21  22
ATOM     22  C   UNL d   1      10.634   0.861 -18.096  0.00  0.00     0.250 C 
BRANCH  22  23
ATOM     23  N   UNL d   1       9.729   0.832 -16.943  0.00  0.00     0.141 N 
ATOM     24  C   UNL d   1       8.499   1.597 -17.224  0.00  0.00     0.274 C 
ATOM     25  C   UNL d   1       7.529   1.552 -16.035  0.00  0.00     0.137 C 
ATOM     26  N   UNL d   1       8.222   2.009 -14.837  0.00  0.00    -0.343 N 
ATOM     27  C   UNL d   1       9.468   1.317 -14.523  0.00  0.00     0.137 C 
ATOM     28  C   UNL d   1      10.421   1.316 -15.737  0.00  0.00     0.274 C 
BRANCH  26  29
ATOM     29  C   UNL d   1       7.687   3.040 -14.041  0.00  0.00     0.079 A 
ATOM     30  C   UNL d   1       8.464   4.116 -13.533  0.00  0.00     0.110 A 
ATOM     31  C   UNL d   1       7.854   5.097 -12.725  0.00  0.00     0.026 A 
ATOM     32  C   UNL d   1       6.476   5.046 -12.436  0.00  0.00     0.002 A 
ATOM     33  C   UNL d   1       5.702   3.990 -12.952  0.00  0.00     0.002 A 
ATOM     34  C   UNL d   1       6.301   3.000 -13.744  0.00  0.00     0.019 A 
BRANCH  30  35
ATOM     35  O   UNL d   1       9.810   4.260 -13.798  0.00  0.00    -0.327 OA
ATOM     36  C   UNL d   1      10.162   4.482 -15.156  0.00  0.00     0.181 C 
ENDBRANCH  30  35
ENDBRANCH  26  29
ENDBRANCH  22  23
ENDBRANCH  21  22
ENDBRANCH  20  21
ENDBRANCH  19  20
ENDBRANCH   1  19
TORSDOF 13
