REMARK  9 active torsions:
REMARK  status: ('A' for Active; 'I' for Inactive)
REMARK    1  A    between atoms: C_2  and  N_3 
REMARK    2  A    between atoms: C_4  and  S_5 
REMARK    3  A    between atoms: S_5  and  C_6 
REMARK    4  A    between atoms: C_6  and  C_7 
REMARK    5  A    between atoms: C_7  and  C_8 
REMARK    6  A    between atoms: C_8  and  N_9 
REMARK    7  A    between atoms: N_17  and  C_18 
REMARK    8  A    between atoms: C_23  and  O_24 
REMARK    9  A    between atoms: C_30  and  C_31 
ROOT
ATOM      1  N   UNL d   1       8.750   5.534 -11.455  0.00  0.00     0.137 N 
ATOM      2  C   UNL d   1       8.712   4.916 -10.118  0.00  0.00     0.250 C 
ATOM      3  C   UNL d   1       8.433   5.974  -9.061  0.00  0.00     0.035 C 
ATOM      4  C   UNL d   1       9.482   7.124  -9.036  0.00  0.00     0.008 C 
ATOM      5  C   UNL d   1       9.584   7.679 -10.494  0.00  0.00     0.035 C 
ATOM      6  C   UNL d   1       9.781   6.567 -11.527  0.00  0.00     0.250 C 
ATOM      7  C   UNL d   1       9.143   8.241  -8.026  0.00  0.00     0.024 C 
ATOM      8  C   UNL d   1       9.073   7.693  -6.598  0.00  0.00     0.102 C 
ATOM      9  N   UNL d   1      10.345   7.074  -6.237  0.00  0.00    -0.347 N 
ATOM     10  C   UNL d   1      10.860   6.064  -7.153  0.00  0.00     0.102 C 
ATOM     11  C   UNL d   1      10.860   6.576  -8.590  0.00  0.00     0.024 C 
ENDROOT
BRANCH   1  12
ATOM     12  C   UNL d   1       9.032   4.498 -12.455  0.00  0.00     0.251 C 
BRANCH  12  13
ATOM     13  C   UNL d   1       7.687   3.879 -12.855  0.00  0.00     0.047 C 
BRANCH  13  14
ATOM     14  C   UNL d   1       7.874   2.807 -13.928  0.00  0.00     0.067 C 
BRANCH  14  15
ATOM     15  S   UNL d   1       6.391   1.781 -14.136  0.00  0.00    -0.075 SA
BRANCH  15  16
ATOM     16  C   UNL d   1       6.870   0.901 -15.596  0.00  0.00     0.193 A 
ATOM     17  N   UNL d   1       6.039   0.044 -16.222  0.00  0.00    -0.291 N 
ATOM     18  C   UNL d   1       6.802  -0.345 -17.276  0.00  0.00     0.167 A 
ATOM     19  N   UNL d   1       8.014   0.228 -17.285  0.00  0.00    -0.128 NA
ATOM     20  N   UNL d   1       8.059   1.042 -16.188  0.00  0.00    -0.122 NA
BRANCH  17  21
ATOM     21  C   UNL d   1       4.693  -0.365 -15.821  0.00  0.00     0.110 C 
ATOM     22  C   UNL d   1       4.716  -1.683 -15.058  0.00  0.00     0.027 C 
ENDBRANCH  17  21
BRANCH  18  23
ATOM     23  C   UNL d   1       6.419  -1.286 -18.326  0.00  0.00     0.036 A 
ATOM     24  C   UNL d   1       5.149  -1.213 -18.944  0.00  0.00     0.003 A 
ATOM     25  C   UNL d   1       4.772  -2.172 -19.897  0.00  0.00     0.000 A 
ATOM     26  C   UNL d   1       5.682  -3.169 -20.300  0.00  0.00     0.000 A 
ATOM     27  C   UNL d   1       6.975  -3.212 -19.736  0.00  0.00     0.000 A 
ATOM     28  C   UNL d   1       7.340  -2.280 -18.743  0.00  0.00     0.003 A 
ENDBRANCH  18  23
ENDBRANCH  15  16
ENDBRANCH  14  15
ENDBRANCH  13  14
ENDBRANCH  12  13
ENDBRANCH   1  12
BRANCH   9  29
ATOM     29  C   UNL d   1      11.107   7.539  -5.171  0.00  0.00     0.079 A 
ATOM     30  C   UNL d   1      11.406   8.912  -5.026  0.00  0.00     0.110 A 
ATOM     31  C   UNL d   1      12.104   9.352  -3.873  0.00  0.00     0.026 A 
ATOM     32  C   UNL d   1      12.543   8.427  -2.902  0.00  0.00     0.002 A 
ATOM     33  C   UNL d   1      12.254   7.062  -3.072  0.00  0.00     0.002 A 
ATOM     34  C   UNL d   1      11.541   6.630  -4.197  0.00  0.00     0.019 A 
BRANCH  30  35
ATOM     35  O   UNL d   1      10.987   9.757  -6.035  0.00  0.00    -0.327 OA
ATOM     36  C   UNL d   1      11.623  10.993  -6.098  0.00  0.00     0.181 C 
ENDBRANCH  30  35
ENDBRANCH   9  29
TORSDOF 9
