REMARK  3 active torsions:
REMARK  status: ('A' for Active; 'I' for Inactive)
REMARK    1  A    between atoms: N_8  and  C_9 
REMARK    2  A    between atoms: C_9  and  C_10 
REMARK    3  A    between atoms: C_19  and  C_20 
ROOT
ATOM      1  O   UNL d   1       9.036   3.713 -17.378  0.00  0.00    -0.291 OA
ATOM      2  C   UNL d   1       9.747   3.904 -16.390  0.00  0.00     0.177 C 
ATOM      3  C   UNL d   1       9.575   5.179 -15.567  0.00  0.00     0.099 C 
ATOM      4  C   UNL d   1       9.762   4.888 -14.056  0.00  0.00     0.137 C 
ATOM      5  C   UNL d   1       8.658   3.981 -13.521  0.00  0.00     0.032 C 
ATOM      6  C   UNL d   1       8.799   3.963 -12.011  0.00  0.00     0.038 C 
ATOM      7  C   UNL d   1       8.692   5.252 -11.306  0.00  0.00     0.251 C 
ATOM      8  N   UNL d   1       9.786   6.057 -11.768  0.00  0.00     0.144 N 
ATOM      9  C   UNL d   1       9.618   6.201 -13.226  0.00  0.00     0.278 C 
ATOM     10  O   UNL d   1      11.051   4.312 -13.843  0.00  0.00    -0.331 OA
ATOM     11  C   UNL d   1      11.389   3.259 -14.675  0.00  0.00     0.119 C 
ATOM     12  C   UNL d   1      10.780   2.979 -15.859  0.00  0.00     0.059 C 
ENDROOT
BRANCH   8  13
ATOM     13  C   UNL d   1       9.692   7.351 -11.079  0.00  0.00     0.277 C 
BRANCH  13  14
ATOM     14  C   UNL d   1      10.287   7.348  -9.672  0.00  0.00     0.011 A 
ATOM     15  C   UNL d   1       9.665   6.646  -8.614  0.00  0.00    -0.002 A 
ATOM     16  C   UNL d   1      10.260   6.597  -7.346  0.00  0.00    -0.000 A 
ATOM     17  C   UNL d   1      11.449   7.306  -7.091  0.00  0.00    -0.000 A 
ATOM     18  C   UNL d   1      12.058   8.051  -8.125  0.00  0.00    -0.000 A 
ATOM     19  C   UNL d   1      11.487   8.056  -9.418  0.00  0.00    -0.002 A 
ENDBRANCH  13  14
ENDBRANCH   8  13
BRANCH  12  20
ATOM     20  C   UNL d   1      11.138   1.823 -16.694  0.00  0.00     0.005 A 
ATOM     21  C   UNL d   1      10.362   0.641 -16.657  0.00  0.00     0.003 A 
ATOM     22  C   UNL d   1      10.682  -0.425 -17.531  0.00  0.00     0.030 A 
ATOM     23  C   UNL d   1      11.768  -0.273 -18.419  0.00  0.00     0.140 A 
ATOM     24  C   UNL d   1      12.544   0.884 -18.438  0.00  0.00     0.030 A 
ATOM     25  F   UNL d   1      12.109  -1.244 -19.273  0.00  0.00    -0.204 F 
ATOM     26  C   UNL d   1      12.232   1.950 -17.576  0.00  0.00     0.003 A 
ENDBRANCH  12  20
TORSDOF 3
