REMARK  7 active torsions:
REMARK  status: ('A' for Active; 'I' for Inactive)
REMARK    1  A    between atoms: O_2  and  C_3 
REMARK    2  A    between atoms: C_8  and  C_9 
REMARK    3  A    between atoms: C_9  and  C_10 
REMARK    4  A    between atoms: C_10  and  C_11 
REMARK    5  A    between atoms: C_11  and  N_12 
REMARK    6  A    between atoms: N_15  and  C_16 
REMARK    7  A    between atoms: C_16  and  C_17 
ROOT
ATOM      1  N   UNL d   1       9.447   5.823 -11.022  0.00  0.00     0.141 N 
ATOM      2  C   UNL d   1       9.304   7.236 -11.422  0.00  0.00     0.285 C 
ATOM      3  C   UNL d   1      10.220   8.190 -10.609  0.00  0.00     0.286 C 
ATOM      4  N   UNL d   1      10.000   8.078  -9.149  0.00  0.00     0.148 N 
ATOM      5  C   UNL d   1      10.054   6.663  -8.788  0.00  0.00     0.286 C 
ATOM      6  C   UNL d   1       9.174   5.749  -9.602  0.00  0.00     0.285 C 
ENDROOT
BRANCH   1   7
ATOM      7  C   UNL d   1       8.549   4.937 -11.726  0.00  0.00     0.251 C 
BRANCH   7   8
ATOM      8  C   UNL d   1       8.970   4.655 -13.171  0.00  0.00     0.040 C 
BRANCH   8   9
ATOM      9  C   UNL d   1      10.252   3.809 -13.254  0.00  0.00     0.030 C 
BRANCH   9  10
ATOM     10  C   UNL d   1      10.591   3.391 -14.666  0.00  0.00     0.000 A 
ATOM     11  C   UNL d   1      11.191   4.308 -15.558  0.00  0.00     0.090 A 
ATOM     12  C   UNL d   1      11.486   3.880 -16.876  0.00  0.00     0.024 A 
ATOM     13  C   UNL d   1      11.192   2.566 -17.288  0.00  0.00     0.002 A 
ATOM     14  C   UNL d   1      10.596   1.663 -16.389  0.00  0.00    -0.000 A 
ATOM     15  C   UNL d   1      10.295   2.075 -15.080  0.00  0.00    -0.002 A 
BRANCH  11  16
ATOM     16  O   UNL d   1      11.460   5.580 -15.090  0.00  0.00    -0.328 OA
ATOM     17  C   UNL d   1      12.026   6.523 -15.990  0.00  0.00     0.181 C 
ENDBRANCH  11  16
ENDBRANCH   9  10
ENDBRANCH   8   9
ENDBRANCH   7   8
ENDBRANCH   1   7
BRANCH   4  18
ATOM     18  C   UNL d   1      10.969   8.896  -8.406  0.00  0.00     0.301 C 
BRANCH  18  19
ATOM     19  C   UNL d   1      11.193   8.550  -6.943  0.00  0.00     0.111 A 
ATOM     20  O   UNL d   1      11.239   9.590  -6.031  0.00  0.00    -0.309 OA
ATOM     21  C   UNL d   1      11.482   9.005  -4.788  0.00  0.00     0.100 A 
ATOM     22  C   UNL d   1      11.516   7.598  -4.951  0.00  0.00     0.025 A 
ATOM     23  C   UNL d   1      11.650   9.612  -3.539  0.00  0.00     0.025 A 
ATOM     24  C   UNL d   1      11.410   7.340  -6.340  0.00  0.00     0.024 A 
ATOM     25  C   UNL d   1      11.698   6.807  -3.804  0.00  0.00     0.002 A 
ATOM     26  C   UNL d   1      11.874   7.377  -2.530  0.00  0.00     0.000 A 
ATOM     27  C   UNL d   1      11.887   8.796  -2.412  0.00  0.00     0.002 A 
ENDBRANCH  18  19
ENDBRANCH   4  18
TORSDOF 7
