REMARK  7 active torsions:
REMARK  status: ('A' for Active; 'I' for Inactive)
REMARK    1  A    between atoms: C_4  and  C_5 
REMARK    2  A    between atoms: N_13  and  C_14 
REMARK    3  A    between atoms: C_14  and  C_15 
REMARK    4  A    between atoms: C_15  and  C_16 
REMARK    5  A    between atoms: C_16  and  S_17 
REMARK    6  A    between atoms: S_17  and  C_18 
REMARK    7  A    between atoms: C_21  and  C_22 
ROOT
ATOM      1  C   UNL d   1       8.584   2.560 -14.879  0.00  0.00     0.020 A 
ATOM      2  C   UNL d   1       8.254   1.258 -15.316  0.00  0.00     0.001 A 
ATOM      3  C   UNL d   1       9.146   0.530 -16.130  0.00  0.00    -0.004 A 
ATOM      4  C   UNL d   1      10.383   1.085 -16.520  0.00  0.00    -0.024 A 
ATOM      5  C   UNL d   1      10.725   2.382 -16.084  0.00  0.00    -0.024 A 
ATOM      6  C   UNL d   1       9.826   3.109 -15.269  0.00  0.00    -0.003 A 
ATOM      7  C   UNL d   1      12.046   3.017 -16.474  0.00  0.00     0.061 C 
ATOM      8  C   UNL d   1      12.243   3.177 -17.989  0.00  0.00     0.255 C 
ATOM      9  N   UNL d   1      12.709   1.954 -18.646  0.00  0.00     0.138 N 
ATOM     10  C   UNL d   1      11.664   0.929 -18.742  0.00  0.00     0.255 C 
ATOM     11  C   UNL d   1      11.328   0.273 -17.393  0.00  0.00     0.061 C 
ENDROOT
BRANCH   9  12
ATOM     12  C   UNL d   1      13.181   2.274 -19.997  0.00  0.00     0.251 C 
BRANCH  12  13
ATOM     13  C   UNL d   1      14.400   1.415 -20.374  0.00  0.00     0.047 C 
BRANCH  13  14
ATOM     14  C   UNL d   1      14.787   1.598 -21.850  0.00  0.00     0.067 C 
BRANCH  14  15
ATOM     15  S   UNL d   1      16.556   1.199 -22.150  0.00  0.00    -0.075 SA
BRANCH  15  16
ATOM     16  C   UNL d   1      17.302   2.790 -21.974  0.00  0.00     0.193 A 
ATOM     17  N   UNL d   1      18.608   3.020 -21.731  0.00  0.00    -0.292 N 
ATOM     18  C   UNL d   1      18.647   4.378 -21.651  0.00  0.00     0.143 A 
ATOM     19  C   UNL d   1      19.715   2.085 -21.574  0.00  0.00     0.134 C 
ATOM     20  N   UNL d   1      17.446   4.937 -21.838  0.00  0.00    -0.133 NA
ATOM     21  N   UNL d   1      16.576   3.905 -22.051  0.00  0.00    -0.122 NA
BRANCH  18  22
ATOM     22  C   UNL d   1      19.869   5.201 -21.380  0.00  0.00     0.064 C 
ATOM     23  C   UNL d   1      20.226   6.154 -22.540  0.00  0.00     0.040 C 
ATOM     24  C   UNL d   1      19.291   7.388 -22.612  0.00  0.00     0.143 C 
ATOM     25  O   UNL d   1      19.283   8.057 -21.346  0.00  0.00    -0.354 OA
ATOM     26  C   UNL d   1      18.844   7.271 -20.233  0.00  0.00     0.143 C 
ATOM     27  C   UNL d   1      19.765   6.033 -20.084  0.00  0.00     0.040 C 
ENDBRANCH  18  22
ENDBRANCH  15  16
ENDBRANCH  14  15
ENDBRANCH  13  14
ENDBRANCH  12  13
ENDBRANCH   9  12
BRANCH   1  28
ATOM     28  C   UNL d   1       7.664   3.343 -14.032  0.00  0.00     0.110 A 
ATOM     29  C   UNL d   1       7.839   4.662 -13.522  0.00  0.00     0.044 A 
ATOM     30  C   UNL d   1       6.691   4.907 -12.823  0.00  0.00     0.105 A 
ATOM     31  C   UNL d   1       6.203   6.093 -12.072  0.00  0.00     0.061 C 
ATOM     32  O   UNL d   1       5.865   3.836 -12.898  0.00  0.00    -0.215 OA
ATOM     33  N   UNL d   1       6.484   2.850 -13.674  0.00  0.00    -0.127 NA
ENDBRANCH   1  28
TORSDOF 7
