REMARK  8 active torsions:
REMARK  status: ('A' for Active; 'I' for Inactive)
REMARK    1  A    between atoms: O_2  and  C_3 
REMARK    2  A    between atoms: C_8  and  N_9 
REMARK    3  A    between atoms: N_9  and  C_10 
REMARK    4  A    between atoms: N_13  and  C_14 
REMARK    5  A    between atoms: C_14  and  C_15 
REMARK    6  A    between atoms: C_15  and  C_16 
REMARK    7  A    between atoms: C_16  and  C_17 
REMARK    8  A    between atoms: C_17  and  N_18 
ROOT
ATOM      1  C   UNL d   1       9.012   6.350 -11.065  0.00  0.00     0.107 C 
ATOM      2  C   UNL d   1       8.627   5.021 -10.384  0.00  0.00     0.060 C 
ATOM      3  C   UNL d   1       7.332   4.512 -11.015  0.00  0.00     0.252 C 
ATOM      4  N   UNL d   1       7.503   4.307 -12.449  0.00  0.00     0.137 N 
ATOM      5  C   UNL d   1       7.734   5.590 -13.117  0.00  0.00     0.252 C 
ATOM      6  C   UNL d   1       9.064   6.159 -12.590  0.00  0.00     0.060 C 
ENDROOT
BRANCH   4   7
ATOM      7  C   UNL d   1       6.349   3.581 -12.980  0.00  0.00     0.250 C 
BRANCH   7   8
ATOM      8  C   UNL d   1       6.656   2.827 -14.292  0.00  0.00     0.037 C 
BRANCH   8   9
ATOM      9  C   UNL d   1       8.165   2.730 -14.633  0.00  0.00     0.027 C 
BRANCH   9  10
ATOM     10  C   UNL d   1       8.454   2.122 -16.026  0.00  0.00     0.112 C 
BRANCH  10  11
ATOM     11  N   UNL d   1       9.741   2.584 -16.572  0.00  0.00    -0.264 N 
ATOM     12  C   UNL d   1      10.703   1.730 -17.004  0.00  0.00     0.263 A 
ATOM     13  C   UNL d   1      11.835   2.571 -17.489  0.00  0.00     0.061 A 
ATOM     14  O   UNL d   1      10.683   0.499 -17.020  0.00  0.00    -0.267 OA
ATOM     15  C   UNL d   1      11.477   3.884 -17.295  0.00  0.00     0.061 A 
ATOM     16  C   UNL d   1      13.060   2.213 -18.050  0.00  0.00     0.005 A 
ATOM     17  C   UNL d   1      10.106   3.889 -16.744  0.00  0.00     0.263 A 
ATOM     18  C   UNL d   1      12.330   4.954 -17.607  0.00  0.00     0.005 A 
ATOM     19  O   UNL d   1       9.464   4.918 -16.524  0.00  0.00    -0.267 OA
ATOM     20  C   UNL d   1      13.588   4.629 -18.162  0.00  0.00     0.000 A 
ATOM     21  C   UNL d   1      13.944   3.275 -18.392  0.00  0.00     0.000 A 
ENDBRANCH  10  11
ENDBRANCH   9  10
ENDBRANCH   8   9
ENDBRANCH   7   8
ENDBRANCH   4   7
BRANCH   1  22
ATOM     22  N   UNL d   1      10.253   6.867 -10.549  0.00  0.00    -0.271 NA
BRANCH  22  23
ATOM     23  C   UNL d   1      10.415   7.410  -9.270  0.00  0.00     0.098 A 
ATOM     24  C   UNL d   1      11.663   7.980  -8.970  0.00  0.00     0.111 A 
ATOM     25  C   UNL d   1      11.929   8.476  -7.663  0.00  0.00     0.026 A 
ATOM     26  C   UNL d   1      10.945   8.342  -6.659  0.00  0.00     0.002 A 
ATOM     27  C   UNL d   1       9.689   7.771  -6.974  0.00  0.00     0.002 A 
ATOM     28  C   UNL d   1       9.408   7.327  -8.277  0.00  0.00     0.021 A 
BRANCH  24  29
ATOM     29  O   UNL d   1      12.591   7.988 -10.008  0.00  0.00    -0.327 OA
ATOM     30  C   UNL d   1      13.973   7.990  -9.691  0.00  0.00     0.181 C 
ENDBRANCH  24  29
ENDBRANCH  22  23
ENDBRANCH   1  22
TORSDOF 8
