REMARK  6 active torsions:
REMARK  status: ('A' for Active; 'I' for Inactive)
REMARK    1  A    between atoms: C_6  and  N_7 
REMARK    2  A    between atoms: N_10  and  C_11 
REMARK    3  A    between atoms: C_11  and  C_12 
REMARK    4  A    between atoms: C_12  and  C_13 
REMARK    5  A    between atoms: C_16  and  N_17 
REMARK    6  A    between atoms: N_17  and  C_18 
ROOT
ATOM      1  C   UNL d   1       8.844   5.516 -10.217  0.00  0.00     0.250 C 
ENDROOT
BRANCH   1   2
ATOM      2  N   UNL d   1       8.456   5.201 -11.595  0.00  0.00     0.141 N 
ATOM      3  C   UNL d   1       7.109   4.633 -11.620  0.00  0.00     0.274 C 
ATOM      4  C   UNL d   1       6.662   4.337 -13.065  0.00  0.00     0.137 C 
ATOM      5  N   UNL d   1       7.639   3.501 -13.758  0.00  0.00    -0.344 N 
ATOM      6  C   UNL d   1       9.017   3.961 -13.655  0.00  0.00     0.137 C 
ATOM      7  C   UNL d   1       9.399   4.258 -12.195  0.00  0.00     0.274 C 
BRANCH   5   8
ATOM      8  C   UNL d   1       7.266   2.318 -14.438  0.00  0.00     0.068 A 
ATOM      9  C   UNL d   1       6.259   1.507 -13.862  0.00  0.00     0.018 A 
ATOM     10  C   UNL d   1       5.870   0.295 -14.470  0.00  0.00     0.002 A 
ATOM     11  C   UNL d   1       6.463  -0.097 -15.676  0.00  0.00     0.012 A 
ATOM     12  C   UNL d   1       7.452   0.695 -16.272  0.00  0.00     0.070 A 
ATOM     13 CL   UNL d   1       8.153   0.176 -17.761  0.00  0.00    -0.081 Cl
ATOM     14  C   UNL d   1       7.865   1.908 -15.660  0.00  0.00     0.084 A 
ATOM     15 CL   UNL d   1       9.058   2.838 -16.503  0.00  0.00    -0.080 Cl
ENDBRANCH   5   8
ENDBRANCH   1   2
BRANCH   1  16
ATOM     16  C   UNL d   1       9.851   6.682 -10.191  0.00  0.00     0.035 C 
BRANCH  16  17
ATOM     17  C   UNL d   1      10.245   7.165  -8.785  0.00  0.00     0.002 C 
ATOM     18  C   UNL d   1       9.066   7.837  -8.052  0.00  0.00     0.002 C 
ATOM     19  C   UNL d   1       9.454   8.314  -6.653  0.00  0.00     0.025 C 
ATOM     20  C   UNL d   1      10.688   9.248  -6.681  0.00  0.00     0.122 C 
ATOM     21  C   UNL d   1      11.861   8.630  -7.479  0.00  0.00     0.025 C 
ATOM     22  C   UNL d   1      11.431   8.153  -8.866  0.00  0.00     0.002 C 
BRANCH  20  23
ATOM     23  N   UNL d   1      11.095   9.684  -5.345  0.00  0.00    -0.088 NA
BRANCH  23  24
ATOM     24  C   UNL d   1      11.523   8.852  -4.338  0.00  0.00     0.746 A 
ATOM     25  N   UNL d   1      11.515   7.548  -4.582  0.00  0.00    -0.058 NA
ATOM     26  C   UNL d   1      11.877   6.721  -3.581  0.00  0.00     0.120 A 
ATOM     27  C   UNL d   1      12.275   7.221  -2.328  0.00  0.00     0.043 A 
ATOM     28  C   UNL d   1      12.263   8.616  -2.190  0.00  0.00     0.120 A 
ATOM     29  N   UNL d   1      11.873   9.432  -3.183  0.00  0.00    -0.058 NA
ENDBRANCH  23  24
ENDBRANCH  20  23
ENDBRANCH  16  17
ENDBRANCH   1  16
TORSDOF 6
