REMARK  6 active torsions:
REMARK  status: ('A' for Active; 'I' for Inactive)
REMARK    1  A    between atoms: C_2  and  C_3 
REMARK       I    between atoms: C_2  and  N_11 
REMARK    2  A    between atoms: C_4  and  C_5 
REMARK    3  A    between atoms: N_11  and  C_12 
REMARK    4  A    between atoms: N_11  and  C_18 
REMARK    5  A    between atoms: N_21  and  C_22 
REMARK    6  A    between atoms: C_22  and  C_23 
ROOT
ATOM      1  O   UNL d   1      10.667   5.190 -14.525  0.00  0.00    -0.258 OA
ATOM      2  C   UNL d   1       9.871   4.377 -14.984  0.00  0.00     0.304 C 
ATOM      3  N   UNL d   1       8.977   3.649 -14.226  0.00  0.00    -0.291 N 
ENDROOT
BRANCH   3   4
ATOM      4  C   UNL d   1       8.334   2.453 -14.706  0.00  0.00     0.063 A 
ATOM      5  C   UNL d   1       9.109   1.386 -15.217  0.00  0.00     0.017 A 
ATOM      6  C   UNL d   1       8.487   0.232 -15.708  0.00  0.00     0.002 A 
ATOM      7  C   UNL d   1       7.090   0.085 -15.626  0.00  0.00     0.000 A 
ATOM      8  C   UNL d   1       6.312   1.110 -15.043  0.00  0.00     0.002 A 
ATOM      9  C   UNL d   1       6.932   2.286 -14.589  0.00  0.00     0.017 A 
ENDBRANCH   3   4
BRANCH   3  10
ATOM     10  C   UNL d   1       8.639   4.063 -12.849  0.00  0.00     0.093 C 
ATOM     11  C   UNL d   1       9.802   3.967 -11.855  0.00  0.00     0.058 C 
ATOM     12  C   UNL d   1       9.456   4.517 -10.421  0.00  0.00     0.253 C 
ATOM     13  N   UNL d   1       9.028   5.887 -10.522  0.00  0.00     0.141 N 
ATOM     14  C   UNL d   1       7.777   5.789 -11.260  0.00  0.00     0.253 C 
ATOM     15  C   UNL d   1       8.003   5.448 -12.733  0.00  0.00     0.058 C 
BRANCH  13  16
ATOM     16  C   UNL d   1       8.815   6.259  -9.119  0.00  0.00     0.277 C 
BRANCH  16  17
ATOM     17  C   UNL d   1       9.912   7.141  -8.607  0.00  0.00     0.011 A 
ATOM     18  C   UNL d   1      10.464   8.116  -9.455  0.00  0.00    -0.002 A 
ATOM     19  C   UNL d   1      11.446   8.990  -8.970  0.00  0.00    -0.000 A 
ATOM     20  C   UNL d   1      11.870   8.896  -7.631  0.00  0.00    -0.000 A 
ATOM     21  C   UNL d   1      11.306   7.930  -6.774  0.00  0.00    -0.000 A 
ATOM     22  C   UNL d   1      10.328   7.048  -7.265  0.00  0.00    -0.002 A 
ENDBRANCH  16  17
ENDBRANCH  13  16
ENDBRANCH   3  10
BRANCH   2  23
ATOM     23  C   UNL d   1       9.869   4.182 -16.399  0.00  0.00     0.001 C 
ATOM     24  C   UNL d   1       9.929   3.932 -17.594  0.00  0.00    -0.055 C 
BRANCH  24  25
ATOM     25  C   UNL d   1      10.027   3.596 -18.979  0.00  0.00     0.042 A 
ATOM     26  C   UNL d   1       9.130   4.181 -19.889  0.00  0.00     0.008 A 
ATOM     27  C   UNL d   1       9.234   3.866 -21.251  0.00  0.00     0.001 A 
ATOM     28  C   UNL d   1      10.229   2.971 -21.693  0.00  0.00     0.000 A 
ATOM     29  C   UNL d   1      11.121   2.385 -20.771  0.00  0.00     0.001 A 
ATOM     30  C   UNL d   1      11.020   2.695 -19.407  0.00  0.00     0.008 A 
ENDBRANCH  24  25
ENDBRANCH   2  23
TORSDOF 6
