REMARK  6 active torsions:
REMARK  status: ('A' for Active; 'I' for Inactive)
REMARK    1  A    between atoms: C_7  and  N_8 
REMARK       I    between atoms: N_11  and  C_12 
REMARK    2  A    between atoms: C_12  and  C_14 
REMARK    3  A    between atoms: C_14  and  O_15 
REMARK    4  A    between atoms: O_15  and  C_16 
REMARK    5  A    between atoms: C_22  and  C_23 
REMARK    6  A    between atoms: C_23  and  C_24 
ROOT
ATOM      1  N   UNL d   1       6.436   1.145 -14.184  0.00  0.00    -0.345 N 
ATOM      2  C   UNL d   1       7.896   1.080 -14.319  0.00  0.00     0.126 C 
ATOM      3  C   UNL d   1       8.443   2.456 -14.798  0.00  0.00     0.128 C 
ATOM      4  N   UNL d   1       7.939   3.526 -13.927  0.00  0.00    -0.314 N 
ATOM      5  C   UNL d   1       8.804   4.374 -13.288  0.00  0.00     0.264 C 
ATOM      6  O   UNL d   1      10.027   4.213 -13.302  0.00  0.00    -0.270 OA
ATOM      7  C   UNL d   1       6.459   3.596 -13.859  0.00  0.00     0.128 C 
ATOM      8  C   UNL d   1       5.905   2.246 -13.367  0.00  0.00     0.126 C 
ENDROOT
BRANCH   5   9
ATOM      9  C   UNL d   1       8.225   5.612 -12.569  0.00  0.00     0.236 C 
BRANCH   9  10
ATOM     10  O   UNL d   1       9.265   6.275 -11.855  0.00  0.00    -0.321 OA
BRANCH  10  11
ATOM     11  C   UNL d   1       9.281   6.199 -10.482  0.00  0.00     0.095 A 
ATOM     12  C   UNL d   1      10.088   7.146  -9.813  0.00  0.00     0.025 A 
ATOM     13  C   UNL d   1      10.124   7.226  -8.401  0.00  0.00     0.017 A 
ATOM     14  C   UNL d   1       9.292   6.322  -7.688  0.00  0.00     0.081 A 
ATOM     15  C   UNL d   1      10.817   8.039  -7.438  0.00  0.00     0.001 A 
ATOM     16  C   UNL d   1       8.510   5.356  -8.331  0.00  0.00     0.021 A 
ATOM     17  N   UNL d   1       9.469   6.619  -6.360  0.00  0.00    -0.244 NA
ATOM     18  C   UNL d   1       8.520   5.274  -9.729  0.00  0.00     0.026 A 
ATOM     19  C   UNL d   1      10.427   7.589  -6.200  0.00  0.00     0.095 A 
BRANCH  15  20
ATOM     20  C   UNL d   1      11.767   9.148  -7.749  0.00  0.00     0.069 C 
BRANCH  20  21
ATOM     21  C   UNL d   1      12.263   9.905  -6.506  0.00  0.00     0.343 C 
ATOM     22  N   UNL d   1      11.165  10.450  -5.733  0.00  0.00     0.618 N 
ENDBRANCH  20  21
ENDBRANCH  15  20
ENDBRANCH  10  11
ENDBRANCH   9  10
ENDBRANCH   5   9
BRANCH   1  23
ATOM     23  C   UNL d   1       5.587   0.313 -14.924  0.00  0.00     0.052 A 
ATOM     24  C   UNL d   1       5.793  -0.013 -16.294  0.00  0.00    -0.006 A 
ATOM     25  C   UNL d   1       6.916   0.569 -17.131  0.00  0.00     0.033 C 
ATOM     26  C   UNL d   1       4.890  -0.870 -16.951  0.00  0.00    -0.003 A 
ATOM     27  C   UNL d   1       3.780  -1.402 -16.283  0.00  0.00    -0.000 A 
ATOM     28  C   UNL d   1       3.557  -1.068 -14.935  0.00  0.00     0.002 A 
ATOM     29  C   UNL d   1       4.455  -0.211 -14.270  0.00  0.00     0.017 A 
ENDBRANCH   1  23
TORSDOF 6
