REMARK  6 active torsions:
REMARK  status: ('A' for Active; 'I' for Inactive)
REMARK    1  A    between atoms: C_2  and  C_3 
REMARK    2  A    between atoms: C_5  and  O_6 
REMARK    3  A    between atoms: O_6  and  C_7 
REMARK    4  A    between atoms: C_13  and  O_14 
REMARK    5  A    between atoms: O_14  and  C_15 
REMARK    6  A    between atoms: C_17  and  C_18 
ROOT
ATOM      1  C   UNL d   1       6.526   1.403 -14.586  0.00  0.00     0.188 C 
ATOM      2  C   UNL d   1       5.773   0.830 -13.382  0.00  0.00     0.334 C 
ATOM      3  N   UNL d   1       5.416   1.896 -12.436  0.00  0.00     0.619 N 
ATOM      4  C   UNL d   1       4.493   0.078 -13.796  0.00  0.00     0.083 C 
ATOM      5  C   UNL d   1       4.736  -0.978 -14.873  0.00  0.00     0.334 C 
ATOM      6  N   UNL d   1       3.446  -1.599 -15.229  0.00  0.00     0.619 N 
ATOM      7  C   UNL d   1       5.417  -0.347 -16.107  0.00  0.00     0.188 C 
ATOM      8  C   UNL d   1       6.737   0.320 -15.669  0.00  0.00     0.210 C 
ATOM      9  O   UNL d   1       7.265   0.970 -16.797  0.00  0.00    -0.218 OA
ENDROOT
BRANCH   7  10
ATOM     10  O   UNL d   1       5.755  -1.387 -17.032  0.00  0.00    -0.327 OA
BRANCH  10  11
ATOM     11  C   UNL d   1       4.805  -1.614 -18.044  0.00  0.00     0.269 C 
ATOM     12  C   UNL d   1       5.126  -2.957 -18.734  0.00  0.00     0.248 C 
ATOM     13  C   UNL d   1       6.462  -2.832 -19.502  0.00  0.00     0.369 C 
ATOM     14  O   UNL d   1       5.139  -4.064 -17.815  0.00  0.00    -0.216 OA
ATOM     15  C   UNL d   1       6.427  -1.599 -20.443  0.00  0.00     0.221 C 
ATOM     16  N   UNL d   1       6.702  -4.052 -20.316  0.00  0.00     0.622 N 
ATOM     17  C   UNL d   1       5.996  -0.336 -19.666  0.00  0.00     0.183 C 
ATOM     18  O   UNL d   1       7.736  -1.377 -20.963  0.00  0.00    -0.218 OA
ATOM     19  O   UNL d   1       4.760  -0.597 -19.022  0.00  0.00    -0.326 OA
BRANCH  17  20
ATOM     20  C   UNL d   1       5.803   0.910 -20.554  0.00  0.00     0.214 C 
ATOM     21  O   UNL d   1       7.027   1.603 -20.663  0.00  0.00    -0.218 OA
ENDBRANCH  17  20
ENDBRANCH  10  11
ENDBRANCH   7  10
BRANCH   1  22
ATOM     22  O   UNL d   1       7.790   1.857 -14.117  0.00  0.00    -0.327 OA
BRANCH  22  23
ATOM     23  C   UNL d   1       8.287   3.015 -14.717  0.00  0.00     0.274 C 
ATOM     24  O   UNL d   1       7.670   4.173 -14.232  0.00  0.00    -0.327 OA
ATOM     25  C   UNL d   1       7.767   4.445 -12.852  0.00  0.00     0.187 C 
ATOM     26  C   UNL d   1       9.235   4.671 -12.551  0.00  0.00     0.184 C 
ATOM     27  C   UNL d   1      10.018   3.452 -13.029  0.00  0.00     0.080 C 
ATOM     28  O   UNL d   1       9.406   4.805 -11.156  0.00  0.00    -0.221 OA
ATOM     29  C   UNL d   1       9.779   3.123 -14.501  0.00  0.00     0.360 C 
ATOM     30  N   UNL d   1      10.511   1.917 -14.975  0.00  0.00     0.621 N 
BRANCH  25  31
ATOM     31  C   UNL d   1       6.918   5.681 -12.558  0.00  0.00     0.370 C 
ATOM     32  N   UNL d   1       5.502   5.435 -12.832  0.00  0.00     0.621 N 
ENDBRANCH  25  31
ENDBRANCH  22  23
ENDBRANCH   1  22
TORSDOF 6
