REMARK  10 active torsions:
REMARK  status: ('A' for Active; 'I' for Inactive)
REMARK    1  A    between atoms: C_2  and  O_3 
REMARK    2  A    between atoms: O_3  and  C_4 
REMARK    3  A    between atoms: C_9  and  N_10 
REMARK    4  A    between atoms: N_13  and  C_14 
REMARK    5  A    between atoms: C_14  and  C_15 
REMARK    6  A    between atoms: C_15  and  C_16 
REMARK    7  A    between atoms: C_16  and  C_17 
REMARK    8  A    between atoms: C_19  and  C_20 
REMARK    9  A    between atoms: C_23  and  O_24 
REMARK   10  A    between atoms: C_26  and  O_27 
ROOT
ATOM      1  C   UNL d   1      13.600   4.415 -17.213  0.00  0.00     0.038 C 
ENDROOT
BRANCH   1   2
ATOM      2  C   UNL d   1      13.111   4.017 -15.804  0.00  0.00     0.251 C 
BRANCH   2   3
ATOM      3  N   UNL d   1      11.803   4.569 -15.466  0.00  0.00     0.141 N 
ATOM      4  C   UNL d   1      11.529   4.304 -14.048  0.00  0.00     0.274 C 
ATOM      5  C   UNL d   1      10.162   4.905 -13.646  0.00  0.00     0.137 C 
ATOM      6  N   UNL d   1       9.113   4.399 -14.525  0.00  0.00    -0.343 N 
ATOM      7  C   UNL d   1       9.408   4.503 -15.953  0.00  0.00     0.137 C 
ATOM      8  C   UNL d   1      10.775   3.897 -16.269  0.00  0.00     0.274 C 
BRANCH   6   9
ATOM      9  C   UNL d   1       7.972   3.773 -14.010  0.00  0.00     0.079 A 
ATOM     10  C   UNL d   1       7.548   2.507 -14.496  0.00  0.00     0.109 A 
ATOM     11  C   UNL d   1       6.364   1.922 -13.975  0.00  0.00     0.026 A 
ATOM     12  C   UNL d   1       5.608   2.597 -12.996  0.00  0.00     0.002 A 
ATOM     13  C   UNL d   1       6.036   3.847 -12.505  0.00  0.00     0.002 A 
ATOM     14  C   UNL d   1       7.218   4.422 -13.005  0.00  0.00     0.019 A 
BRANCH  10  15
ATOM     15  O   UNL d   1       8.313   1.891 -15.467  0.00  0.00    -0.329 OA
BRANCH  15  16
ATOM     16  C   UNL d   1       7.947   0.611 -15.954  0.00  0.00     0.149 C 
ATOM     17  C   UNL d   1       6.690   0.670 -16.837  0.00  0.00     0.035 C 
ENDBRANCH  15  16
ENDBRANCH  10  15
ENDBRANCH   6   9
ENDBRANCH   2   3
ENDBRANCH   1   2
BRANCH   1  18
ATOM     18  C   UNL d   1      14.206   5.824 -17.241  0.00  0.00     0.035 C 
BRANCH  18  19
ATOM     19  C   UNL d   1      14.244   6.415 -18.664  0.00  0.00     0.153 C 
ATOM     20  O   UNL d   1      14.954   5.541 -19.535  0.00  0.00    -0.239 OA
ATOM     21  N   UNL d   1      16.301   5.972 -19.593  0.00  0.00    -0.136 NA
ATOM     22  C   UNL d   1      16.388   7.162 -19.171  0.00  0.00     0.088 C 
ATOM     23  C   UNL d   1      15.050   7.694 -18.766  0.00  0.00     0.081 C 
BRANCH  22  24
ATOM     24  C   UNL d   1      17.665   7.914 -19.070  0.00  0.00     0.018 A 
ATOM     25  C   UNL d   1      18.861   7.373 -19.595  0.00  0.00     0.028 A 
ATOM     26  C   UNL d   1      20.086   8.078 -19.488  0.00  0.00     0.116 A 
ATOM     27  C   UNL d   1      20.111   9.335 -18.838  0.00  0.00     0.116 A 
ATOM     28  C   UNL d   1      18.909   9.873 -18.319  0.00  0.00     0.026 A 
ATOM     29  C   UNL d   1      17.697   9.174 -18.441  0.00  0.00     0.003 A 
BRANCH  26  30
ATOM     30  O   UNL d   1      21.285   7.602 -19.976  0.00  0.00    -0.326 OA
ATOM     31  C   UNL d   1      21.259   6.514 -20.891  0.00  0.00     0.181 C 
ENDBRANCH  26  30
BRANCH  27  32
ATOM     32  O   UNL d   1      21.328   9.980 -18.760  0.00  0.00    -0.326 OA
ATOM     33  C   UNL d   1      21.386  11.229 -18.088  0.00  0.00     0.181 C 
ENDBRANCH  27  32
ENDBRANCH  22  24
ENDBRANCH  18  19
ENDBRANCH   1  18
TORSDOF 10
