REMARK  7 active torsions:
REMARK  status: ('A' for Active; 'I' for Inactive)
REMARK    1  A    between atoms: N_4  and  C_5 
REMARK    2  A    between atoms: C_5  and  C_6 
REMARK    3  A    between atoms: C_6  and  C_7 
REMARK    4  A    between atoms: C_7  and  C_8 
REMARK    5  A    between atoms: C_8  and  N_9 
REMARK       I    between atoms: N_9  and  C_10 
REMARK    6  A    between atoms: C_10  and  C_12 
REMARK    7  A    between atoms: N_18  and  C_19 
ROOT
ATOM      1  C   UNL d   1      12.479   8.725  -8.186  0.00  0.00     0.026 C 
ATOM      2  C   UNL d   1      10.997   8.437  -8.498  0.00  0.00     0.115 C 
ATOM      3  C   UNL d   1      10.908   7.279  -9.517  0.00  0.00     0.272 C 
ATOM      4  N   UNL d   1       9.515   6.925  -9.801  0.00  0.00     0.141 N 
ATOM      5  C   UNL d   1       8.883   6.469  -8.561  0.00  0.00     0.274 C 
ATOM      6  C   UNL d   1       8.870   7.614  -7.529  0.00  0.00     0.137 C 
ATOM      7  N   UNL d   1      10.220   8.111  -7.300  0.00  0.00    -0.346 N 
ENDROOT
BRANCH   4   8
ATOM      8  C   UNL d   1       9.487   5.855 -10.797  0.00  0.00     0.251 C 
BRANCH   8   9
ATOM      9  C   UNL d   1       8.124   5.731 -11.512  0.00  0.00     0.037 C 
BRANCH   9  10
ATOM     10  C   UNL d   1       8.002   4.438 -12.337  0.00  0.00     0.029 C 
BRANCH  10  11
ATOM     11  C   UNL d   1       9.219   4.147 -13.243  0.00  0.00     0.129 C 
BRANCH  11  12
ATOM     12  N   UNL d   1       9.158   2.788 -13.760  0.00  0.00    -0.238 NA
ATOM     13  C   UNL d   1       9.056   2.427 -15.042  0.00  0.00     0.250 C 
ATOM     14  O   UNL d   1       9.061   3.244 -15.966  0.00  0.00    -0.271 OA
BRANCH  13  15
ATOM     15  C   UNL d   1       8.930   0.913 -15.330  0.00  0.00     0.073 C 
ATOM     16  C   UNL d   1       7.916   0.270 -14.356  0.00  0.00     0.009 C 
ATOM     17  C   UNL d   1      10.314   0.254 -15.164  0.00  0.00     0.009 C 
ATOM     18  C   UNL d   1       8.437   0.683 -16.773  0.00  0.00     0.009 C 
ENDBRANCH  13  15
ENDBRANCH  11  12
ENDBRANCH  10  11
ENDBRANCH   9  10
ENDBRANCH   8   9
ENDBRANCH   4   8
BRANCH   7  19
ATOM     19  C   UNL d   1      10.758   8.151  -6.014  0.00  0.00     0.056 A 
ATOM     20  C   UNL d   1      11.057   6.949  -5.335  0.00  0.00     0.018 A 
ATOM     21  C   UNL d   1      11.655   6.991  -4.063  0.00  0.00     0.013 A 
ATOM     22  C   UNL d   1      11.937   8.234  -3.463  0.00  0.00     0.058 A 
ATOM     23  C   UNL d   1      11.616   9.429  -4.127  0.00  0.00     0.013 A 
ATOM     24 CL   UNL d   1      12.655   8.329  -1.904  0.00  0.00    -0.082 Cl
ATOM     25  C   UNL d   1      11.029   9.390  -5.401  0.00  0.00     0.018 A 
ENDBRANCH   7  19
TORSDOF 7
