REMARK  1 active torsions:
REMARK  status: ('A' for Active; 'I' for Inactive)
REMARK    1  A    between atoms: C_2  and  C_4 
ROOT
ATOM      1  C   UNL d   1      10.847   7.965  -8.518  0.00  0.00     0.057 A 
ATOM      2  C   UNL d   1       9.858   7.080  -8.969  0.00  0.00     0.005 A 
ATOM      3  C   UNL d   1       9.099   6.394  -8.010  0.00  0.00     0.002 A 
ATOM      4  C   UNL d   1       9.377   6.569  -6.638  0.00  0.00     0.024 A 
ATOM      5  C   UNL d   1      10.424   7.392  -6.198  0.00  0.00     0.090 A 
ATOM      6  C   UNL d   1      11.118   8.171  -7.148  0.00  0.00     0.007 A 
ATOM      7  C   UNL d   1      12.095   9.228  -6.691  0.00  0.00     0.070 C 
ATOM      8  C   UNL d   1      12.054   9.473  -5.171  0.00  0.00     0.336 C 
ATOM      9  N   UNL d   1      10.957  10.377  -4.879  0.00  0.00     0.619 N 
ATOM     10  C   UNL d   1      11.850   8.156  -4.406  0.00  0.00     0.188 C 
ATOM     11  O   UNL d   1      10.690   7.424  -4.854  0.00  0.00    -0.329 OA
ENDROOT
BRANCH   1  12
ATOM     12  C   UNL d   1      11.555   8.776  -9.506  0.00  0.00     0.296 C 
ATOM     13  N   UNL d   1      12.641   8.241 -10.024  0.00  0.00    -0.102 N 
ATOM     14  O   UNL d   1      11.181   9.912  -9.679  0.00  0.00    -0.264 OA
ENDBRANCH   1  12
TORSDOF 1
