REMARK  5 active torsions:
REMARK  status: ('A' for Active; 'I' for Inactive)
REMARK    1  A    between atoms: C_3  and  C_4 
REMARK       I    between atoms: C_4  and  N_6 
REMARK    2  A    between atoms: N_9  and  C_10 
REMARK    3  A    between atoms: C_10  and  C_11 
REMARK    4  A    between atoms: C_11  and  O_12 
REMARK    5  A    between atoms: O_12  and  C_13 
ROOT
ATOM      1  C   UNL d   1       7.671   5.825 -11.796  0.00  0.00     0.275 C 
ATOM      2  O   UNL d   1       6.725   6.537 -12.108  0.00  0.00    -0.266 OA
ATOM      3  N   UNL d   1       7.796   4.576 -12.257  0.00  0.00    -0.311 N 
ATOM      4  C   UNL d   1       9.114   3.990 -12.510  0.00  0.00     0.140 C 
ATOM      5  C   UNL d   1       9.209   3.484 -13.943  0.00  0.00     0.274 C 
ATOM      6  N   UNL d   1       8.087   2.595 -14.283  0.00  0.00     0.144 N 
ATOM      7  C   UNL d   1       6.813   3.292 -14.097  0.00  0.00     0.274 C 
ATOM      8  C   UNL d   1       6.615   3.803 -12.680  0.00  0.00     0.140 C 
ENDROOT
BRANCH   1   9
ATOM      9  C   UNL d   1       8.702   6.294 -10.852  0.00  0.00     0.133 A 
ATOM     10  C   UNL d   1       9.117   5.847  -9.615  0.00  0.00     0.002 A 
ATOM     11  C   UNL d   1       8.581   4.721  -8.796  0.00  0.00     0.033 C 
ATOM     12  C   UNL d   1      10.122   6.748  -9.156  0.00  0.00     0.015 A 
ATOM     13  C   UNL d   1      10.308   7.737 -10.170  0.00  0.00     0.081 A 
ATOM     14  C   UNL d   1      10.895   6.838  -7.978  0.00  0.00     0.001 A 
ATOM     15  N   UNL d   1       9.429   7.436 -11.169  0.00  0.00    -0.241 NA
ATOM     16  C   UNL d   1      11.287   8.740 -10.037  0.00  0.00     0.019 A 
ATOM     17  C   UNL d   1      12.082   8.757  -8.888  0.00  0.00     0.002 A 
ATOM     18  C   UNL d   1      11.850   7.856  -7.851  0.00  0.00     0.000 A 
ENDBRANCH   1   9
BRANCH   6  19
ATOM     19  C   UNL d   1       8.190   2.180 -15.683  0.00  0.00     0.283 C 
BRANCH  19  20
ATOM     20  C   UNL d   1       9.097   0.917 -15.784  0.00  0.00     0.184 C 
BRANCH  20  21
ATOM     21  O   UNL d   1       9.149   0.440 -17.120  0.00  0.00    -0.327 OA
BRANCH  21  22
ATOM     22  C   UNL d   1       7.996  -0.032 -17.713  0.00  0.00     0.113 A 
ATOM     23  C   UNL d   1       8.063  -0.426 -19.071  0.00  0.00     0.123 A 
ATOM     24  N   UNL d   1       6.992  -0.833 -19.792  0.00  0.00    -0.240 NA
ATOM     25  C   UNL d   1       5.787  -0.838 -19.179  0.00  0.00     0.099 A 
ATOM     26  C   UNL d   1       5.616  -0.465 -17.828  0.00  0.00     0.023 A 
ATOM     27  C   UNL d   1       6.743  -0.090 -17.068  0.00  0.00     0.027 A 
ENDBRANCH  21  22
ENDBRANCH  20  21
ENDBRANCH  19  20
ENDBRANCH   6  19
TORSDOF 5
