REMARK  6 active torsions:
REMARK  status: ('A' for Active; 'I' for Inactive)
REMARK    1  A    between atoms: N_10  and  C_11 
REMARK    2  A    between atoms: C_11  and  C_12 
REMARK    3  A    between atoms: C_12  and  C_13 
REMARK    4  A    between atoms: C_13  and  C_14 
REMARK    5  A    between atoms: C_14  and  N_15 
REMARK    6  A    between atoms: N_18  and  C_19 
ROOT
ATOM      1  N   UNL d   1       8.666   4.520 -13.048  0.00  0.00     0.141 N 
ATOM      2  C   UNL d   1       8.612   5.980 -13.228  0.00  0.00     0.274 C 
ATOM      3  C   UNL d   1       8.230   6.697 -11.922  0.00  0.00     0.137 C 
ATOM      4  N   UNL d   1       9.144   6.297 -10.867  0.00  0.00    -0.344 N 
ATOM      5  C   UNL d   1       9.293   4.869 -10.683  0.00  0.00     0.137 C 
ATOM      6  C   UNL d   1       9.678   4.227 -12.025  0.00  0.00     0.274 C 
ENDROOT
BRANCH   1   7
ATOM      7  C   UNL d   1       9.037   3.904 -14.322  0.00  0.00     0.251 C 
BRANCH   7   8
ATOM      8  C   UNL d   1       9.102   2.365 -14.254  0.00  0.00     0.037 C 
BRANCH   8   9
ATOM      9  C   UNL d   1       9.429   1.704 -15.596  0.00  0.00     0.027 C 
BRANCH   9  10
ATOM     10  C   UNL d   1       8.311   0.773 -16.097  0.00  0.00     0.112 C 
BRANCH  10  11
ATOM     11  N   UNL d   1       8.581   0.283 -17.452  0.00  0.00    -0.271 N 
ATOM     12  C   UNL d   1       9.506  -0.639 -17.751  0.00  0.00     0.239 A 
ATOM     13  O   UNL d   1      10.257  -1.204 -16.956  0.00  0.00    -0.272 OA
ATOM     14  C   UNL d   1       9.525  -0.933 -19.248  0.00  0.00     0.088 A 
ATOM     15  C   UNL d   1       8.452   0.014 -19.801  0.00  0.00     0.088 A 
ATOM     16  C   UNL d   1      10.850  -0.538 -19.926  0.00  0.00     0.010 C 
ATOM     17  C   UNL d   1       9.162   0.955 -20.790  0.00  0.00     0.010 C 
ATOM     18  C   UNL d   1       7.949   0.727 -18.548  0.00  0.00     0.239 A 
ATOM     19  C   UNL d   1      10.644   0.899 -20.410  0.00  0.00     0.001 C 
ATOM     20  O   UNL d   1       7.067   1.588 -18.587  0.00  0.00    -0.272 OA
ENDBRANCH  10  11
ENDBRANCH   9  10
ENDBRANCH   8   9
ENDBRANCH   7   8
ENDBRANCH   1   7
BRANCH   4  21
ATOM     21  C   UNL d   1       9.769   7.228 -10.027  0.00  0.00     0.057 A 
ATOM     22  C   UNL d   1       9.664   7.151  -8.617  0.00  0.00     0.022 A 
ATOM     23  C   UNL d   1      10.370   8.136  -7.847  0.00  0.00     0.031 A 
ATOM     24  C   UNL d   1       8.943   6.240  -7.770  0.00  0.00     0.009 A 
ATOM     25  C   UNL d   1      11.118   9.144  -8.442  0.00  0.00     0.007 A 
ATOM     26  S   UNL d   1      10.158   7.897  -6.138  0.00  0.00    -0.086 SA
ATOM     27  C   UNL d   1      11.207   9.195  -9.831  0.00  0.00     0.002 A 
ATOM     28  C   UNL d   1      10.497   8.275 -10.612  0.00  0.00     0.017 A 
ATOM     29  C   UNL d   1       9.102   6.566  -6.456  0.00  0.00     0.035 A 
ENDBRANCH   4  21
TORSDOF 6
