REMARK  8 active torsions:
REMARK  status: ('A' for Active; 'I' for Inactive)
REMARK    1  A    between atoms: C_3  and  S_4 
REMARK    2  A    between atoms: S_4  and  C_5 
REMARK    3  A    between atoms: C_5  and  C_6 
REMARK    4  A    between atoms: C_6  and  C_7 
REMARK    5  A    between atoms: C_7  and  N_8 
REMARK    6  A    between atoms: C_13  and  C_14 
REMARK    7  A    between atoms: C_17  and  C_18 
REMARK    8  A    between atoms: C_27  and  C_28 
ROOT
ATOM      1  N   UNL d   1       9.244   1.669 -15.691  0.00  0.00     0.137 N 
ATOM      2  C   UNL d   1       7.917   1.087 -15.553  0.00  0.00     0.250 C 
ATOM      3  C   UNL d   1       7.789   0.221 -16.809  0.00  0.00     0.038 C 
ATOM      4  C   UNL d   1       9.212  -0.126 -17.179  0.00  0.00     0.037 A 
ATOM      5  C   UNL d   1       9.594  -1.455 -17.809  0.00  0.00     0.007 A 
ATOM      6  C   UNL d   1       9.679  -0.192 -18.625  0.00  0.00     0.024 A 
ATOM      7  C   UNL d   1      10.058   0.540 -16.113  0.00  0.00     0.251 C 
ENDROOT
BRANCH   1   8
ATOM      8  C   UNL d   1       9.761   2.235 -14.453  0.00  0.00     0.251 C 
BRANCH   8   9
ATOM      9  C   UNL d   1       9.073   3.569 -14.115  0.00  0.00     0.047 C 
BRANCH   9  10
ATOM     10  C   UNL d   1       9.565   4.160 -12.789  0.00  0.00     0.067 C 
BRANCH  10  11
ATOM     11  S   UNL d   1       8.680   5.690 -12.384  0.00  0.00    -0.075 SA
BRANCH  11  12
ATOM     12  C   UNL d   1       9.155   5.837 -10.688  0.00  0.00     0.193 A 
ATOM     13  N   UNL d   1       9.661   6.974 -10.160  0.00  0.00    -0.289 N 
ATOM     14  C   UNL d   1       9.913   8.223 -10.862  0.00  0.00     0.134 C 
ATOM     15  C   UNL d   1       9.840   6.618  -8.858  0.00  0.00     0.167 A 
ATOM     16  N   UNL d   1       9.507   5.341  -8.625  0.00  0.00    -0.128 NA
ATOM     17  N   UNL d   1       9.059   4.833  -9.817  0.00  0.00    -0.122 NA
BRANCH  15  18
ATOM     18  C   UNL d   1      10.353   7.465  -7.747  0.00  0.00     0.042 A 
ATOM     19  C   UNL d   1      10.554   8.905  -7.864  0.00  0.00     0.024 A 
ATOM     20  C   UNL d   1      11.064   9.596  -6.829  0.00  0.00     0.102 A 
ATOM     21  N   UNL d   1      11.378   8.971  -5.624  0.00  0.00    -0.206 NA
ATOM     22  C   UNL d   1      11.183   7.657  -5.401  0.00  0.00     0.279 A 
ATOM     23  C   UNL d   1      10.653   6.901  -6.541  0.00  0.00     0.066 A 
ATOM     24  O   UNL d   1      11.464   7.159  -4.310  0.00  0.00    -0.265 OA
ENDBRANCH  15  18
ENDBRANCH  11  12
ENDBRANCH  10  11
ENDBRANCH   9  10
ENDBRANCH   8   9
ENDBRANCH   1   8
BRANCH   6  25
ATOM     25  C   UNL d   1      11.001   0.412 -19.003  0.00  0.00    -0.022 A 
ATOM     26  C   UNL d   1      11.162   1.813 -19.013  0.00  0.00    -0.004 A 
ATOM     27  C   UNL d   1      12.418   2.380 -19.300  0.00  0.00     0.004 A 
ATOM     28  C   UNL d   1      13.522   1.555 -19.582  0.00  0.00     0.071 A 
ATOM     29  C   UNL d   1      13.363   0.153 -19.577  0.00  0.00     0.004 A 
ATOM     30  C   UNL d   1      12.108  -0.413 -19.286  0.00  0.00    -0.004 A 
BRANCH  28  31
ATOM     31  C   UNL d   1      14.869   2.175 -19.900  0.00  0.00     0.419 C 
ATOM     32  F   UNL d   1      15.863   1.324 -19.651  0.00  0.00    -0.166 F 
ATOM     33  F   UNL d   1      14.903   2.508 -21.190  0.00  0.00    -0.166 F 
ATOM     34  F   UNL d   1      15.057   3.273 -19.168  0.00  0.00    -0.166 F 
ENDBRANCH  28  31
ENDBRANCH   6  25
TORSDOF 8
