REMARK  7 active torsions:
REMARK  status: ('A' for Active; 'I' for Inactive)
REMARK    1  A    between atoms: C_6  and  C_7 
REMARK    2  A    between atoms: C_10  and  S_11 
REMARK    3  A    between atoms: S_11  and  C_12 
REMARK    4  A    between atoms: C_12  and  C_13 
REMARK    5  A    between atoms: C_13  and  C_14 
REMARK    6  A    between atoms: C_14  and  N_15 
REMARK    7  A    between atoms: C_21  and  C_22 
ROOT
ATOM      1  C   UNL d   1      11.688   0.704 -17.225  0.00  0.00     0.067 C 
ENDROOT
BRANCH   1   2
ATOM      2  S   UNL d   1      10.306  -0.462 -17.424  0.00  0.00    -0.075 SA
BRANCH   2   3
ATOM      3  C   UNL d   1       8.929   0.493 -16.853  0.00  0.00     0.193 A 
ATOM      4  N   UNL d   1       7.919   0.868 -17.631  0.00  0.00    -0.122 NA
ATOM      5  N   UNL d   1       7.077   1.601 -16.829  0.00  0.00    -0.128 NA
ATOM      6  C   UNL d   1       7.652   1.620 -15.623  0.00  0.00     0.167 A 
ATOM      7  N   UNL d   1       8.821   0.945 -15.583  0.00  0.00    -0.289 N 
ATOM      8  C   UNL d   1       9.689   0.759 -14.450  0.00  0.00     0.134 C 
BRANCH   6   9
ATOM      9  C   UNL d   1       7.056   2.309 -14.485  0.00  0.00     0.037 A 
ATOM     10  C   UNL d   1       7.624   3.479 -13.913  0.00  0.00     0.021 A 
ATOM     11  C   UNL d   1       8.822   4.039 -14.411  0.00  0.00     0.003 A 
ATOM     12  C   UNL d   1       7.008   4.112 -12.798  0.00  0.00     0.081 A 
ATOM     13  C   UNL d   1       9.356   5.190 -13.784  0.00  0.00     0.015 A 
ATOM     14  C   UNL d   1       8.660   5.738 -12.704  0.00  0.00     0.059 A 
ATOM     15  C   UNL d   1       9.156   6.987 -12.008  0.00  0.00     0.052 C 
ATOM     16  N   UNL d   1       7.519   5.219 -12.218  0.00  0.00    -0.250 NA
ATOM     17  C   UNL d   1       5.827   3.567 -12.276  0.00  0.00     0.019 A 
ATOM     18  C   UNL d   1       5.269   2.403 -12.838  0.00  0.00     0.002 A 
ATOM     19  C   UNL d   1       5.877   1.774 -13.930  0.00  0.00     0.003 A 
ENDBRANCH   6   9
ENDBRANCH   2   3
ENDBRANCH   1   2
BRANCH   1  20
ATOM     20  C   UNL d   1      11.390   2.052 -17.861  0.00  0.00     0.047 C 
BRANCH  20  21
ATOM     21  C   UNL d   1      12.479   3.120 -17.628  0.00  0.00     0.251 C 
BRANCH  21  22
ATOM     22  N   UNL d   1      12.174   4.405 -18.272  0.00  0.00     0.138 N 
ATOM     23  C   UNL d   1      10.897   4.943 -17.782  0.00  0.00     0.255 C 
ATOM     24  C   UNL d   1      10.649   6.412 -18.134  0.00  0.00     0.061 C 
ATOM     25  C   UNL d   1      10.143   6.604 -19.554  0.00  0.00    -0.024 A 
ATOM     26  C   UNL d   1      10.926   6.223 -20.665  0.00  0.00    -0.024 A 
ATOM     27  C   UNL d   1       8.867   7.188 -19.763  0.00  0.00    -0.003 A 
ATOM     28  C   UNL d   1      12.296   5.591 -20.483  0.00  0.00     0.061 C 
ATOM     29  C   UNL d   1      10.427   6.426 -21.968  0.00  0.00    -0.004 A 
ATOM     30  C   UNL d   1      12.251   4.258 -19.726  0.00  0.00     0.255 C 
ATOM     31  C   UNL d   1       9.164   7.013 -22.167  0.00  0.00     0.001 A 
ATOM     32  C   UNL d   1       8.367   7.396 -21.067  0.00  0.00     0.020 A 
BRANCH  32  33
ATOM     33  C   UNL d   1       7.051   8.018 -21.295  0.00  0.00     0.110 A 
ATOM     34  N   UNL d   1       6.316   8.439 -20.276  0.00  0.00    -0.127 NA
ATOM     35  O   UNL d   1       5.146   8.979 -20.818  0.00  0.00    -0.215 OA
ATOM     36  C   UNL d   1       5.209   8.858 -22.164  0.00  0.00     0.105 A 
ATOM     37  C   UNL d   1       6.387   8.268 -22.530  0.00  0.00     0.044 A 
ATOM     38  C   UNL d   1       4.042   9.364 -22.935  0.00  0.00     0.061 C 
ENDBRANCH  32  33
ENDBRANCH  21  22
ENDBRANCH  20  21
ENDBRANCH   1  20
TORSDOF 7
