REMARK  6 active torsions:
REMARK  status: ('A' for Active; 'I' for Inactive)
REMARK    1  A    between atoms: N_6  and  C_7 
REMARK    2  A    between atoms: C_7  and  C_8 
REMARK    3  A    between atoms: C_8  and  C_9 
REMARK    4  A    between atoms: C_9  and  C_10 
REMARK    5  A    between atoms: C_10  and  N_11 
REMARK    6  A    between atoms: N_14  and  C_15 
ROOT
ATOM      1  C   UNL d   1       8.359   5.071 -10.233  0.00  0.00     0.251 C 
ENDROOT
BRANCH   1   2
ATOM      2  C   UNL d   1       9.679   5.685  -9.787  0.00  0.00     0.037 C 
BRANCH   2   3
ATOM      3  C   UNL d   1       9.644   6.224  -8.370  0.00  0.00     0.027 C 
BRANCH   3   4
ATOM      4  C   UNL d   1      11.069   6.590  -7.937  0.00  0.00     0.111 C 
BRANCH   4   5
ATOM      5  N   UNL d   1      11.083   7.734  -7.035  0.00  0.00    -0.280 N 
ATOM      6  C   UNL d   1      10.850   8.941  -7.620  0.00  0.00     0.353 A 
ATOM      7  N   UNL d   1      10.777   9.986  -6.806  0.00  0.00    -0.153 NA
ATOM      8  O   UNL d   1      10.698   9.124  -8.834  0.00  0.00    -0.244 OA
ATOM      9  C   UNL d   1      10.928  10.044  -5.484  0.00  0.00     0.284 A 
ATOM     10  O   UNL d   1      10.674  11.045  -4.839  0.00  0.00    -0.265 OA
ATOM     11  C   UNL d   1      11.312   8.802  -4.817  0.00  0.00     0.074 A 
ATOM     12  C   UNL d   1      11.372   7.637  -5.610  0.00  0.00     0.069 A 
ATOM     13  C   UNL d   1      11.555   8.833  -3.424  0.00  0.00     0.006 A 
ATOM     14  C   UNL d   1      11.764   6.461  -4.965  0.00  0.00     0.018 A 
ATOM     15  C   UNL d   1      12.044   6.486  -3.575  0.00  0.00     0.002 A 
ATOM     16  C   UNL d   1      11.915   7.646  -2.790  0.00  0.00     0.000 A 
ENDBRANCH   4   5
ENDBRANCH   3   4
ENDBRANCH   2   3
ENDBRANCH   1   2
BRANCH   1  17
ATOM     17  N   UNL d   1       8.263   4.948 -11.693  0.00  0.00     0.141 N 
ATOM     18  C   UNL d   1       6.985   4.299 -12.006  0.00  0.00     0.274 C 
ATOM     19  C   UNL d   1       6.803   4.184 -13.526  0.00  0.00     0.137 C 
ATOM     20  N   UNL d   1       7.935   3.514 -14.142  0.00  0.00    -0.344 N 
ATOM     21  C   UNL d   1       9.234   4.091 -13.819  0.00  0.00     0.137 C 
ATOM     22  C   UNL d   1       9.374   4.186 -12.292  0.00  0.00     0.274 C 
BRANCH  20  23
ATOM     23  C   UNL d   1       7.799   2.371 -14.960  0.00  0.00     0.057 A 
ATOM     24  C   UNL d   1       6.805   1.373 -14.697  0.00  0.00     0.022 A 
ATOM     25  C   UNL d   1       6.689   0.299 -15.648  0.00  0.00     0.031 A 
ATOM     26  C   UNL d   1       5.849   1.223 -13.613  0.00  0.00     0.009 A 
ATOM     27  C   UNL d   1       7.524   0.210 -16.768  0.00  0.00     0.007 A 
ATOM     28  S   UNL d   1       5.396  -0.804 -15.204  0.00  0.00    -0.086 SA
ATOM     29  C   UNL d   1       8.506   1.183 -16.998  0.00  0.00     0.002 A 
ATOM     30  C   UNL d   1       8.639   2.257 -16.094  0.00  0.00     0.017 A 
ATOM     31  C   UNL d   1       5.026   0.147 -13.797  0.00  0.00     0.035 A 
ENDBRANCH  20  23
ENDBRANCH   1  17
TORSDOF 6
