REMARK  5 active torsions:
REMARK  status: ('A' for Active; 'I' for Inactive)
REMARK    1  A    between atoms: N_10  and  C_11 
REMARK    2  A    between atoms: C_11  and  C_12 
REMARK    3  A    between atoms: C_12  and  C_13 
REMARK    4  A    between atoms: C_16  and  N_17 
REMARK       I    between atoms: N_17  and  C_18 
REMARK    5  A    between atoms: C_18  and  C_20 
ROOT
ATOM      1  N   UNL d   1       5.996  -2.124 -18.214  0.00  0.00    -0.191 NA
ATOM      2  C   UNL d   1       5.887  -1.434 -17.294  0.00  0.00     0.101 C 
ATOM      3  C   UNL d   1       5.762  -0.553 -16.128  0.00  0.00     0.068 A 
ATOM      4  C   UNL d   1       4.937  -0.927 -15.036  0.00  0.00     0.010 A 
ATOM      5  C   UNL d   1       4.779  -0.075 -13.915  0.00  0.00    -0.002 A 
ATOM      6  C   UNL d   1       5.518   1.112 -13.875  0.00  0.00     0.009 A 
ATOM      7  C   UNL d   1       6.359   1.443 -14.921  0.00  0.00     0.009 A 
ATOM      8  C   UNL d   1       6.483   0.655 -16.072  0.00  0.00     0.008 A 
ATOM      9  C   UNL d   1       6.839   2.839 -14.687  0.00  0.00     0.277 C 
ATOM     10  N   UNL d   1       6.642   3.046 -13.252  0.00  0.00     0.146 N 
ATOM     11  C   UNL d   1       5.452   2.256 -12.905  0.00  0.00     0.277 C 
ENDROOT
BRANCH  10  12
ATOM     12  C   UNL d   1       6.633   4.424 -12.778  0.00  0.00     0.251 C 
BRANCH  12  13
ATOM     13  C   UNL d   1       8.062   5.006 -12.799  0.00  0.00     0.035 C 
BRANCH  13  14
ATOM     14  C   UNL d   1       8.396   5.854 -11.552  0.00  0.00     0.002 C 
ATOM     15  C   UNL d   1       9.760   6.546 -11.714  0.00  0.00     0.002 C 
ATOM     16  C   UNL d   1      10.119   7.394 -10.475  0.00  0.00     0.024 C 
ATOM     17  C   UNL d   1      10.068   6.552  -9.193  0.00  0.00     0.107 C 
ATOM     18  C   UNL d   1       8.733   5.841  -9.011  0.00  0.00     0.024 C 
ATOM     19  C   UNL d   1       8.421   4.998 -10.253  0.00  0.00     0.002 C 
BRANCH  17  20
ATOM     20  N   UNL d   1      10.303   7.407  -8.047  0.00  0.00    -0.236 NA
ATOM     21  C   UNL d   1      11.063   7.085  -6.989  0.00  0.00     0.275 C 
ATOM     22  O   UNL d   1      11.675   6.030  -6.914  0.00  0.00    -0.266 OA
BRANCH  21  23
ATOM     23  C   UNL d   1      11.098   8.116  -5.894  0.00  0.00     0.060 A 
ATOM     24  C   UNL d   1      11.573   7.852  -4.567  0.00  0.00     0.022 A 
ATOM     25  C   UNL d   1      11.606   8.930  -3.633  0.00  0.00     0.082 A 
ATOM     26  C   UNL d   1      12.015   6.595  -4.099  0.00  0.00     0.002 A 
ATOM     27  N   UNL d   1      11.108  10.127  -3.922  0.00  0.00    -0.244 NA
ATOM     28  C   UNL d   1      12.136   8.772  -2.345  0.00  0.00     0.019 A 
ATOM     29  C   UNL d   1      10.673  10.368  -5.149  0.00  0.00     0.099 A 
ATOM     30  C   UNL d   1      10.670   9.432  -6.177  0.00  0.00     0.025 A 
ATOM     31  C   UNL d   1      12.601   7.534  -1.933  0.00  0.00     0.002 A 
ATOM     32  C   UNL d   1      12.534   6.452  -2.808  0.00  0.00     0.000 A 
ENDBRANCH  21  23
ENDBRANCH  17  20
ENDBRANCH  13  14
ENDBRANCH  12  13
ENDBRANCH  10  12
TORSDOF 5
