REMARK  5 active torsions:
REMARK  status: ('A' for Active; 'I' for Inactive)
REMARK       I    between atoms: N_4  and  C_5 
REMARK    1  A    between atoms: C_5  and  C_7 
REMARK    2  A    between atoms: C_10  and  C_11 
REMARK    3  A    between atoms: C_14  and  O_15 
REMARK    4  A    between atoms: O_15  and  C_16 
REMARK       I    between atoms: N_26  and  C_27 
REMARK    5  A    between atoms: C_27  and  C_29 
ROOT
ATOM      1  C   UNL d   1      10.703   1.379 -15.475  0.00  0.00     0.026 C 
ATOM      2  C   UNL d   1      10.618   2.510 -16.514  0.00  0.00     0.106 C 
ATOM      3  C   UNL d   1       9.393   3.420 -16.299  0.00  0.00     0.127 C 
ATOM      4  N   UNL d   1       9.547   4.206 -15.061  0.00  0.00    -0.313 N 
ATOM      5  C   UNL d   1       8.669   4.112 -14.027  0.00  0.00     0.257 C 
ATOM      6  O   UNL d   1       7.672   3.387 -14.040  0.00  0.00    -0.267 OA
ATOM      7  C   UNL d   1      10.768   5.032 -15.086  0.00  0.00     0.129 C 
ATOM      8  C   UNL d   1      12.006   4.151 -15.322  0.00  0.00     0.129 C 
ATOM      9  N   UNL d   1      11.834   3.349 -16.542  0.00  0.00    -0.315 N 
ATOM     10  C   UNL d   1      12.676   3.387 -17.609  0.00  0.00     0.257 C 
ATOM     11  O   UNL d   1      12.742   2.485 -18.443  0.00  0.00    -0.267 OA
ENDROOT
BRANCH   5  12
ATOM     12  C   UNL d   1       8.941   4.920 -12.796  0.00  0.00     0.056 A 
ATOM     13  C   UNL d   1       8.725   6.311 -12.761  0.00  0.00     0.005 A 
ATOM     14  C   UNL d   1       9.046   7.055 -11.600  0.00  0.00     0.000 A 
ATOM     15  C   UNL d   1       9.477   6.408 -10.419  0.00  0.00     0.000 A 
ATOM     16  C   UNL d   1       9.595   5.007 -10.447  0.00  0.00     0.000 A 
ATOM     17  C   UNL d   1       9.398   4.278 -11.638  0.00  0.00     0.005 A 
BRANCH  15  18
ATOM     18  C   UNL d   1       9.813   7.152  -9.185  0.00  0.00     0.000 A 
ATOM     19  C   UNL d   1       9.075   6.912  -8.010  0.00  0.00     0.002 A 
ATOM     20  C   UNL d   1       9.327   7.642  -6.838  0.00  0.00     0.025 A 
ATOM     21  C   UNL d   1      10.351   8.605  -6.796  0.00  0.00     0.102 A 
ATOM     22  C   UNL d   1      11.123   8.829  -7.956  0.00  0.00     0.025 A 
ATOM     23  C   UNL d   1      10.849   8.116  -9.146  0.00  0.00     0.002 A 
BRANCH  21  24
ATOM     24  O   UNL d   1      10.518   9.351  -5.651  0.00  0.00    -0.253 OA
BRANCH  24  25
ATOM     25  C   UNL d   1      11.598   9.093  -4.870  0.00  0.00     0.530 C 
ATOM     26  F   UNL d   1      11.438   9.676  -3.656  0.00  0.00    -0.144 F 
ATOM     27  F   UNL d   1      11.748   7.762  -4.654  0.00  0.00    -0.144 F 
ATOM     28  F   UNL d   1      12.739   9.588  -5.407  0.00  0.00    -0.144 F 
ENDBRANCH  24  25
ENDBRANCH  21  24
ENDBRANCH  15  18
ENDBRANCH   5  12
BRANCH  10  29
ATOM     29  C   UNL d   1      13.527   4.618 -17.793  0.00  0.00     0.057 A 
ATOM     30  C   UNL d   1      12.945   5.908 -17.833  0.00  0.00     0.024 A 
ATOM     31  C   UNL d   1      13.746   7.039 -18.045  0.00  0.00     0.082 A 
ATOM     32  C   UNL d   1      15.156   6.940 -18.237  0.00  0.00     0.019 A 
ATOM     33  N   UNL d   1      13.466   8.389 -18.129  0.00  0.00    -0.244 NA
ATOM     34  C   UNL d   1      15.720   5.645 -18.203  0.00  0.00     0.002 A 
ATOM     35  C   UNL d   1      15.682   8.267 -18.443  0.00  0.00     0.022 A 
ATOM     36  C   UNL d   1      14.922   4.499 -17.992  0.00  0.00     0.005 A 
ATOM     37  C   UNL d   1      14.617   9.123 -18.359  0.00  0.00     0.099 A 
ENDBRANCH  10  29
TORSDOF 5
