REMARK  5 active torsions:
REMARK  status: ('A' for Active; 'I' for Inactive)
REMARK    1  A    between atoms: S_2  and  C_4 
REMARK    2  A    between atoms: S_2  and  C_11 
REMARK    3  A    between atoms: C_14  and  C_15 
REMARK    4  A    between atoms: C_15  and  C_16 
REMARK    5  A    between atoms: C_16  and  C_17 
ROOT
ATOM      1  C   UNL d   1       8.678   5.943 -10.898  0.00  0.00     0.169 A 
ATOM      2  C   UNL d   1       8.554   5.164  -9.738  0.00  0.00     0.030 A 
ATOM      3  C   UNL d   1       9.319   5.535  -8.621  0.00  0.00    -0.001 A 
ATOM      4  C   UNL d   1      10.200   6.630  -8.731  0.00  0.00    -0.003 A 
ATOM      5  C   UNL d   1      10.258   7.337  -9.947  0.00  0.00     0.095 A 
ATOM      6  N   UNL d   1       9.528   6.986 -11.025  0.00  0.00    -0.233 NA
ENDROOT
BRANCH   1   7
ATOM      7  S   UNL d   1       7.735   5.557 -12.359  0.00  0.00     0.226 S 
ATOM      8  O   UNL d   1       7.481   6.840 -13.027  0.00  0.00    -0.216 OA
ATOM      9  O   UNL d   1       6.608   4.677 -12.011  0.00  0.00    -0.216 OA
BRANCH   7  10
ATOM     10  C   UNL d   1       8.873   4.591 -13.357  0.00  0.00     0.090 A 
ATOM     11  C   UNL d   1      10.056   5.186 -13.837  0.00  0.00     0.014 A 
ATOM     12  C   UNL d   1      10.964   4.427 -14.603  0.00  0.00     0.030 A 
ATOM     13  C   UNL d   1      10.686   3.080 -14.893  0.00  0.00     0.140 A 
ATOM     14  C   UNL d   1       9.498   2.488 -14.422  0.00  0.00     0.030 A 
ATOM     15  F   UNL d   1      11.553   2.353 -15.635  0.00  0.00    -0.204 F 
ATOM     16  C   UNL d   1       8.590   3.243 -13.651  0.00  0.00     0.014 A 
ENDBRANCH   7  10
ENDBRANCH   1   7
BRANCH   4  17
ATOM     17  C   UNL d   1      11.068   7.021  -7.558  0.00  0.00     0.033 C 
BRANCH  17  18
ATOM     18  C   UNL d   1      10.346   7.977  -6.588  0.00  0.00     0.031 C 
BRANCH  18  19
ATOM     19  C   UNL d   1      11.056   8.113  -5.250  0.00  0.00    -0.022 A 
ATOM     20  C   UNL d   1      11.464   6.957  -4.546  0.00  0.00    -0.002 A 
ATOM     21  C   UNL d   1      12.097   7.069  -3.297  0.00  0.00     0.029 A 
ATOM     22  C   UNL d   1      12.294   8.335  -2.722  0.00  0.00     0.140 A 
ATOM     23  C   UNL d   1      11.862   9.490  -3.402  0.00  0.00     0.029 A 
ATOM     24  F   UNL d   1      12.893   8.441  -1.516  0.00  0.00    -0.204 F 
ATOM     25  C   UNL d   1      11.253   9.386  -4.669  0.00  0.00    -0.002 A 
ENDBRANCH  18  19
ENDBRANCH  17  18
ENDBRANCH   4  17
TORSDOF 5
