REMARK  2 active torsions:
REMARK  status: ('A' for Active; 'I' for Inactive)
REMARK    1  A    between atoms: C_2  and  C_3 
REMARK    2  A    between atoms: C_3  and  N_4 
ROOT
ATOM      1  N   UNL d   1      11.009   8.426  -5.295  0.00  0.00     0.140 N 
ATOM      2  C   UNL d   1      11.487   9.700  -5.812  0.00  0.00     0.251 C 
ATOM      3  C   UNL d   1      10.944   9.670  -7.223  0.00  0.00     0.042 C 
ATOM      4  C   UNL d   1      11.236   8.260  -7.674  0.00  0.00     0.055 C 
ATOM      5  C   UNL d   1      10.461   7.803  -8.912  0.00  0.00    -0.022 A 
ATOM      6  C   UNL d   1      10.522   8.575 -10.086  0.00  0.00    -0.004 A 
ATOM      7  C   UNL d   1       9.811   8.177 -11.235  0.00  0.00     0.002 A 
ATOM      8  C   UNL d   1       9.111   6.955 -11.255  0.00  0.00     0.027 A 
ATOM      9  C   UNL d   1       9.042   6.177 -10.093  0.00  0.00     0.127 A 
ATOM     10  O   UNL d   1       8.282   5.039 -10.111  0.00  0.00    -0.191 OA
ATOM     11  C   UNL d   1       9.682   6.624  -8.912  0.00  0.00    -0.001 A 
ATOM     12  C   UNL d   1       9.554   5.833  -7.639  0.00  0.00     0.030 C 
ATOM     13  C   UNL d   1       9.685   6.693  -6.381  0.00  0.00     0.038 C 
ATOM     14  C   UNL d   1      11.014   7.452  -6.387  0.00  0.00     0.224 C 
ENDROOT
BRANCH   1  15
ATOM     15  C   UNL d   1      11.676   7.950  -4.092  0.00  0.00     0.276 C 
BRANCH  15  16
ATOM     16  C   UNL d   1      11.575   8.945  -2.960  0.00  0.00     0.009 C 
ATOM     17  C   UNL d   1      12.469   9.041  -1.969  0.00  0.00    -0.003 C 
ENDBRANCH  15  16
ENDBRANCH   1  15
TORSDOF 2
