REMARK  5 active torsions:
REMARK  status: ('A' for Active; 'I' for Inactive)
REMARK    1  A    between atoms: C_10  and  O_11 
REMARK    2  A    between atoms: O_11  and  C_12 
REMARK    3  A    between atoms: C_12  and  C_13 
REMARK    4  A    between atoms: C_13  and  C_15 
REMARK    5  A    between atoms: C_15  and  N_16 
ROOT
ATOM      1  C   UNL d   1       7.494   4.362 -12.091  0.00  0.00    -0.034 C 
ATOM      2  B   UNL d   1       8.233   5.162 -10.957  0.00  0.00     0.359 B 
ATOM      3  C   UNL d   1       8.347   4.785  -9.425  0.00  0.00    -0.059 C 
ATOM      4  C   UNL d   1       9.011   5.609  -8.602  0.00  0.00    -0.013 C 
ATOM      5  C   UNL d   1       9.678   6.827  -9.067  0.00  0.00     0.037 A 
ATOM      6  C   UNL d   1       9.637   7.143 -10.444  0.00  0.00     0.060 A 
ATOM      7  C   UNL d   1      10.228   8.330 -10.885  0.00  0.00     0.017 A 
ATOM      8  C   UNL d   1      10.965   9.131 -10.002  0.00  0.00     0.004 A 
ATOM      9  C   UNL d   1      11.012   8.823  -8.637  0.00  0.00     0.024 A 
ATOM     10  C   UNL d   1      10.351   7.669  -8.147  0.00  0.00     0.095 A 
ATOM     11  N   UNL d   1       9.060   6.310 -11.410  0.00  0.00    -0.344 NA
ENDROOT
BRANCH  10  12
ATOM     12  O   UNL d   1      10.365   7.306  -6.822  0.00  0.00    -0.328 OA
BRANCH  12  13
ATOM     13  C   UNL d   1      11.024   8.151  -5.893  0.00  0.00     0.184 C 
BRANCH  13  14
ATOM     14  C   UNL d   1      11.277   7.332  -4.640  0.00  0.00     0.215 C 
ATOM     15  O   UNL d   1      12.216   6.364  -5.009  0.00  0.00    -0.219 OA
BRANCH  14  16
ATOM     16  C   UNL d   1      11.802   8.220  -3.481  0.00  0.00     0.286 C 
BRANCH  16  17
ATOM     17  N   UNL d   1      12.566   7.555  -2.434  0.00  0.00     0.144 N 
ATOM     18  C   UNL d   1      11.964   6.317  -1.991  0.00  0.00     0.286 C 
ATOM     19  C   UNL d   1      12.805   8.447  -1.314  0.00  0.00     0.286 C 
ENDBRANCH  16  17
ENDBRANCH  14  16
ENDBRANCH  13  14
ENDBRANCH  12  13
ENDBRANCH  10  12
TORSDOF 5
