REMARK  6 active torsions:
REMARK  status: ('A' for Active; 'I' for Inactive)
REMARK    1  A    between atoms: C_2  and  C_5 
REMARK       I    between atoms: C_5  and  N_7 
REMARK    2  A    between atoms: N_7  and  C_8 
REMARK    3  A    between atoms: C_11  and  C_12 
REMARK    4  A    between atoms: C_12  and  C_13 
REMARK    5  A    between atoms: C_13  and  N_14 
REMARK    6  A    between atoms: C_17  and  C_18 
ROOT
ATOM      1  N   UNL d   1       9.704   6.985 -10.091  0.00  0.00     0.137 N 
ATOM      2  C   UNL d   1      10.984   7.693 -10.160  0.00  0.00     0.251 C 
ATOM      3  C   UNL d   1      11.206   8.520  -8.890  0.00  0.00     0.040 C 
ATOM      4  C   UNL d   1      11.145   7.651  -7.622  0.00  0.00     0.028 C 
ATOM      5  C   UNL d   1       9.870   6.812  -7.645  0.00  0.00     0.040 C 
ATOM      6  C   UNL d   1       9.721   6.053  -8.962  0.00  0.00     0.251 C 
ENDROOT
BRANCH   1   7
ATOM      7  C   UNL d   1       9.445   6.317 -11.371  0.00  0.00     0.250 C 
BRANCH   7   8
ATOM      8  C   UNL d   1       8.111   5.552 -11.429  0.00  0.00     0.035 C 
BRANCH   8   9
ATOM      9  C   UNL d   1       7.852   4.824 -12.757  0.00  0.00     0.002 C 
ATOM     10  C   UNL d   1       9.027   3.908 -13.187  0.00  0.00     0.002 C 
ATOM     11  C   UNL d   1       8.726   3.167 -14.492  0.00  0.00     0.024 C 
ATOM     12  C   UNL d   1       7.427   2.355 -14.381  0.00  0.00     0.106 C 
ATOM     13  C   UNL d   1       6.242   3.224 -13.907  0.00  0.00     0.024 C 
ATOM     14  C   UNL d   1       6.558   3.986 -12.617  0.00  0.00     0.002 C 
BRANCH  12  15
ATOM     15  N   UNL d   1       7.122   1.710 -15.649  0.00  0.00    -0.240 NA
ATOM     16  C   UNL d   1       6.496   0.544 -15.808  0.00  0.00     0.250 C 
ATOM     17  O   UNL d   1       5.994  -0.070 -14.853  0.00  0.00    -0.271 OA
BRANCH  16  18
ATOM     18  C   UNL d   1       6.434  -0.014 -17.244  0.00  0.00     0.073 C 
ATOM     19  C   UNL d   1       5.702  -1.373 -17.274  0.00  0.00     0.009 C 
ATOM     20  C   UNL d   1       7.873  -0.206 -17.774  0.00  0.00     0.009 C 
ATOM     21  C   UNL d   1       5.672   0.966 -18.149  0.00  0.00     0.009 C 
ENDBRANCH  16  18
ENDBRANCH  12  15
ENDBRANCH   8   9
ENDBRANCH   7   8
ENDBRANCH   1   7
BRANCH   4  22
ATOM     22  C   UNL d   1      11.206   8.472  -6.350  0.00  0.00     0.004 A 
ATOM     23  C   UNL d   1      11.507   8.014  -5.036  0.00  0.00     0.021 A 
ATOM     24  C   UNL d   1      11.470   9.163  -4.202  0.00  0.00     0.100 A 
ATOM     25  C   UNL d   1      11.840   6.786  -4.413  0.00  0.00     0.002 A 
ATOM     26  O   UNL d   1      11.079  10.249  -4.935  0.00  0.00    -0.305 OA
ATOM     27  C   UNL d   1      11.780   9.144  -2.842  0.00  0.00     0.025 A 
ATOM     28  C   UNL d   1      10.975   9.808  -6.217  0.00  0.00     0.118 A 
ATOM     29  C   UNL d   1      12.111   7.913  -2.259  0.00  0.00     0.002 A 
ATOM     30  C   UNL d   1      12.136   6.740  -3.038  0.00  0.00     0.000 A 
ENDBRANCH   4  22
TORSDOF 6
