REMARK  5 active torsions:
REMARK  status: ('A' for Active; 'I' for Inactive)
REMARK    1  A    between atoms: C_2  and  C_3 
REMARK    2  A    between atoms: C_3  and  N_4 
REMARK    3  A    between atoms: N_4  and  C_5 
REMARK    4  A    between atoms: N_4  and  C_9 
REMARK    5  A    between atoms: C_5  and  C_6 
ROOT
ATOM      1  C   UNL d   1      10.123   7.984  -6.866  0.00  0.00     0.254 C 
ATOM      2  C   UNL d   1      10.682   9.403  -6.577  0.00  0.00     0.182 C 
ATOM      3  O   UNL d   1      10.739   9.671  -5.199  0.00  0.00    -0.327 OA
ATOM      4  C   UNL d   1      11.399   8.714  -4.439  0.00  0.00     0.115 A 
ATOM      5  C   UNL d   1      11.918   9.074  -3.204  0.00  0.00     0.153 A 
ATOM      6  O   UNL d   1      11.844  10.372  -2.861  0.00  0.00    -0.188 OA
ATOM      7  C   UNL d   1      12.476   8.140  -2.319  0.00  0.00     0.029 A 
ATOM      8  C   UNL d   1      12.517   6.791  -2.700  0.00  0.00     0.002 A 
ATOM      9  C   UNL d   1      12.016   6.406  -3.955  0.00  0.00    -0.002 A 
ATOM     10  C   UNL d   1      11.456   7.355  -4.824  0.00  0.00     0.004 A 
ATOM     11  C   UNL d   1      10.939   6.877  -6.163  0.00  0.00     0.064 C 
ENDROOT
BRANCH   1  12
ATOM     12  N   UNL d   1       9.924   7.680  -8.306  0.00  0.00     0.142 N 
BRANCH  12  13
ATOM     13  C   UNL d   1      11.137   7.361  -9.073  0.00  0.00     0.251 C 
BRANCH  13  14
ATOM     14  C   UNL d   1      12.338   8.273  -8.786  0.00  0.00     0.035 C 
ATOM     15  C   UNL d   1      13.539   8.067  -9.659  0.00  0.00     0.002 C 
ENDBRANCH  13  14
ENDBRANCH  12  13
BRANCH  12  16
ATOM     16  C   UNL d   1       8.925   6.611  -8.516  0.00  0.00     0.277 C 
BRANCH  16  17
ATOM     17  C   UNL d   1       8.661   6.280  -9.979  0.00  0.00     0.015 C 
ATOM     18  C   UNL d   1       8.205   5.100 -10.425  0.00  0.00     0.033 C 
ATOM     19  I   UNL d   1       7.908   4.797 -12.541  0.00  0.00    -0.043 I 
ENDBRANCH  16  17
ENDBRANCH  12  16
ENDBRANCH   1  12
TORSDOF 5
