REMARK  4 active torsions:
REMARK  status: ('A' for Active; 'I' for Inactive)
REMARK    1  A    between atoms: O_2  and  C_3 
REMARK    2  A    between atoms: C_9  and  C_10 
REMARK    3  A    between atoms: N_18  and  S_19 
REMARK    4  A    between atoms: S_19  and  C_22 
ROOT
ATOM      1  C   UNL d   1      10.544   5.212 -20.482  0.00  0.00     0.094 A 
ATOM      2  C   UNL d   1      11.410   5.303 -19.353  0.00  0.00     0.026 A 
ATOM      3  C   UNL d   1      11.283   4.359 -18.321  0.00  0.00     0.020 A 
ATOM      4  C   UNL d   1      10.325   3.327 -18.419  0.00  0.00     0.075 A 
ATOM      5  C   UNL d   1       9.433   3.204 -19.549  0.00  0.00     0.022 A 
ATOM      6  C   UNL d   1       9.569   4.197 -20.574  0.00  0.00     0.026 A 
ATOM      7  C   UNL d   1       8.577   2.047 -19.319  0.00  0.00     0.039 A 
ATOM      8  C   UNL d   1       8.968   1.540 -18.094  0.00  0.00     0.093 A 
ATOM      9  N   UNL d   1      10.007   2.284 -17.556  0.00  0.00    -0.231 N 
ENDROOT
BRANCH   9  10
ATOM     10  S   UNL d   1      10.774   1.978 -16.043  0.00  0.00     0.271 S 
ATOM     11  O   UNL d   1      10.518   0.540 -15.761  0.00  0.00    -0.200 OA
ATOM     12  O   UNL d   1      12.132   2.492 -16.164  0.00  0.00    -0.200 OA
BRANCH  10  13
ATOM     13  C   UNL d   1       9.837   2.985 -14.903  0.00  0.00     0.104 A 
ATOM     14  C   UNL d   1       8.456   2.775 -14.765  0.00  0.00     0.013 A 
ATOM     15  C   UNL d   1       7.717   3.563 -13.860  0.00  0.00     0.001 A 
ATOM     16  C   UNL d   1       8.371   4.565 -13.098  0.00  0.00     0.000 A 
ATOM     17  C   UNL d   1       6.333   3.355 -13.706  0.00  0.00     0.000 A 
ATOM     18  C   UNL d   1       9.756   4.771 -13.250  0.00  0.00     0.001 A 
ATOM     19  C   UNL d   1       7.631   5.347 -12.187  0.00  0.00     0.000 A 
ATOM     20  C   UNL d   1      10.495   3.987 -14.158  0.00  0.00     0.013 A 
ATOM     21  C   UNL d   1       6.248   5.136 -12.042  0.00  0.00     0.000 A 
ATOM     22  C   UNL d   1       5.599   4.144 -12.800  0.00  0.00     0.000 A 
ENDBRANCH  10  13
ENDBRANCH   9  10
BRANCH   7  23
ATOM     23  C   UNL d   1       7.506   1.495 -20.163  0.00  0.00     0.116 A 
ATOM     24  C   UNL d   1       7.134   1.639 -21.501  0.00  0.00     0.096 A 
ATOM     25  N   UNL d   1       5.993   0.884 -21.768  0.00  0.00    -0.061 NA
ATOM     26  C   UNL d   1       7.720   2.443 -22.613  0.00  0.00     0.054 C 
ATOM     27  C   UNL d   1       5.710   0.292 -20.622  0.00  0.00     0.768 A 
ATOM     28  N   UNL d   1       6.558   0.611 -19.644  0.00  0.00    -0.057 NA
ATOM     29  N   UNL d   1       4.662  -0.582 -20.422  0.00  0.00     0.062 N 
ENDBRANCH   7  23
BRANCH   1  30
ATOM     30  O   UNL d   1      10.602   6.110 -21.529  0.00  0.00    -0.328 OA
ATOM     31  C   UNL d   1      11.508   7.192 -21.458  0.00  0.00     0.181 C 
ENDBRANCH   1  30
TORSDOF 4
