REMARK  3 active torsions:
REMARK  status: ('A' for Active; 'I' for Inactive)
REMARK    1  A    between atoms: C_6  and  N_7 
REMARK    2  A    between atoms: N_10  and  C_11 
REMARK    3  A    between atoms: C_11  and  C_12 
ROOT
ATOM      1  N   UNL d   1       9.359   3.486 -14.413  0.00  0.00    -0.344 N 
ATOM      2  C   UNL d   1       9.580   4.762 -15.047  0.00  0.00     0.137 C 
ATOM      3  C   UNL d   1      10.329   4.573 -16.379  0.00  0.00     0.275 C 
ATOM      4  N   UNL d   1      11.574   3.812 -16.192  0.00  0.00     0.145 N 
ATOM      5  C   UNL d   1      11.237   2.493 -15.645  0.00  0.00     0.275 C 
ATOM      6  C   UNL d   1      10.529   2.647 -14.274  0.00  0.00     0.137 C 
ENDROOT
BRANCH   1   7
ATOM      7  C   UNL d   1       8.052   3.063 -14.041  0.00  0.00     0.068 A 
ATOM      8  C   UNL d   1       7.261   3.938 -13.271  0.00  0.00     0.018 A 
ATOM      9  C   UNL d   1       5.970   3.554 -12.852  0.00  0.00     0.002 A 
ATOM     10  C   UNL d   1       5.463   2.295 -13.217  0.00  0.00     0.012 A 
ATOM     11  C   UNL d   1       6.226   1.429 -14.024  0.00  0.00     0.070 A 
ATOM     12 CL   UNL d   1       5.554  -0.101 -14.466  0.00  0.00    -0.081 Cl
ATOM     13  C   UNL d   1       7.520   1.808 -14.441  0.00  0.00     0.084 A 
ATOM     14 CL   UNL d   1       8.374   0.721 -15.490  0.00  0.00    -0.080 Cl
ENDBRANCH   1   7
BRANCH   4  15
ATOM     15  C   UNL d   1      12.287   3.642 -17.462  0.00  0.00     0.277 C 
BRANCH  15  16
ATOM     16  C   UNL d   1      13.143   4.831 -17.875  0.00  0.00     0.011 A 
ATOM     17  C   UNL d   1      14.554   4.723 -17.836  0.00  0.00    -0.002 A 
ATOM     18  C   UNL d   1      15.369   5.821 -18.192  0.00  0.00    -0.000 A 
ATOM     19  C   UNL d   1      14.774   7.045 -18.560  0.00  0.00    -0.000 A 
ATOM     20  C   UNL d   1      13.370   7.157 -18.605  0.00  0.00    -0.000 A 
ATOM     21  C   UNL d   1      12.560   6.046 -18.305  0.00  0.00    -0.002 A 
ENDBRANCH  15  16
ENDBRANCH   4  15
TORSDOF 3
