REMARK  1 active torsions:
REMARK  status: ('A' for Active; 'I' for Inactive)
REMARK    1  A    between atoms: C_12  and  C_13 
ROOT
ATOM      1  C   UNL d   1       5.753   7.412 -12.500  0.00  0.00     0.285 C 
ATOM      2  N   UNL d   1       6.723   6.331 -12.360  0.00  0.00     0.140 N 
ATOM      3  C   UNL d   1       6.157   5.113 -12.955  0.00  0.00     0.255 C 
ATOM      4  C   UNL d   1       6.901   3.845 -12.593  0.00  0.00     0.061 C 
ATOM      5  C   UNL d   1       8.272   3.692 -13.308  0.00  0.00    -0.022 A 
ATOM      6  C   UNL d   1       8.465   2.507 -14.053  0.00  0.00     0.023 A 
ATOM      7  C   UNL d   1       9.646   2.254 -14.778  0.00  0.00     0.131 A 
ATOM      8  O   UNL d   1       9.788   1.089 -15.485  0.00  0.00    -0.190 OA
ATOM      9  C   UNL d   1      10.670   3.215 -14.781  0.00  0.00     0.027 A 
ATOM     10  C   UNL d   1      10.510   4.402 -14.032  0.00  0.00    -0.002 A 
ATOM     11  C   UNL d   1       9.327   4.652 -13.277  0.00  0.00    -0.020 A 
ATOM     12  C   UNL d   1       9.229   5.977 -12.507  0.00  0.00     0.078 C 
ATOM     13  C   UNL d   1       7.992   6.784 -12.924  0.00  0.00     0.259 C 
ENDROOT
BRANCH  12  14
ATOM     14  C   UNL d   1       9.461   5.916 -10.992  0.00  0.00    -0.017 C 
ATOM     15  C   UNL d   1      10.201   6.924 -10.322  0.00  0.00    -0.004 C 
ATOM     16  C   UNL d   1      10.402   6.816  -8.929  0.00  0.00    -0.000 C 
ATOM     17  C   UNL d   1       9.837   5.769  -8.179  0.00  0.00    -0.000 C 
ATOM     18  C   UNL d   1       9.101   4.772  -8.841  0.00  0.00    -0.000 C 
ATOM     19  C   UNL d   1       9.020   4.839 -10.229  0.00  0.00    -0.004 C 
ENDBRANCH  12  14
TORSDOF 1
