REMARK  6 active torsions:
REMARK  status: ('A' for Active; 'I' for Inactive)
REMARK    1  A    between atoms: C_2  and  C_3 
REMARK    2  A    between atoms: C_3  and  N_4 
REMARK    3  A    between atoms: N_4  and  C_5 
REMARK    4  A    between atoms: N_4  and  C_8 
REMARK    5  A    between atoms: C_5  and  C_6 
REMARK    6  A    between atoms: C_16  and  O_17 
ROOT
ATOM      1  C   UNL d   1       9.262   3.999 -13.323  0.00  0.00     0.224 C 
ATOM      2  C   UNL d   1      10.147   4.913 -14.187  0.00  0.00     0.038 C 
ATOM      3  C   UNL d   1      11.198   4.136 -14.985  0.00  0.00     0.030 C 
ATOM      4  C   UNL d   1      10.626   2.927 -15.714  0.00  0.00    -0.004 A 
ATOM      5  C   UNL d   1       9.378   2.378 -15.325  0.00  0.00    -0.022 A 
ATOM      6  C   UNL d   1       8.853   1.277 -16.024  0.00  0.00    -0.004 A 
ATOM      7  C   UNL d   1       9.567   0.711 -17.094  0.00  0.00     0.002 A 
ATOM      8  C   UNL d   1      10.809   1.245 -17.478  0.00  0.00     0.024 A 
ATOM      9  C   UNL d   1      11.357   2.370 -16.790  0.00  0.00     0.090 A 
ATOM     10  C   UNL d   1       8.525   2.980 -14.225  0.00  0.00     0.059 C 
ENDROOT
BRANCH   1  11
ATOM     11  N   UNL d   1       8.363   4.737 -12.410  0.00  0.00     0.135 N 
BRANCH  11  12
ATOM     12  C   UNL d   1       7.429   5.622 -13.098  0.00  0.00     0.250 C 
BRANCH  12  13
ATOM     13  C   UNL d   1       6.258   6.108 -12.226  0.00  0.00     0.035 C 
ATOM     14  C   UNL d   1       5.840   7.537 -12.599  0.00  0.00     0.002 C 
ENDBRANCH  12  13
ENDBRANCH  11  12
BRANCH  11  15
ATOM     15  C   UNL d   1       9.082   5.468 -11.363  0.00  0.00     0.250 C 
BRANCH  15  16
ATOM     16  C   UNL d   1       9.175   4.632 -10.092  0.00  0.00     0.035 C 
ATOM     17  C   UNL d   1       9.680   5.456  -8.912  0.00  0.00     0.002 C 
ENDBRANCH  15  16
ENDBRANCH  11  15
ENDBRANCH   1  11
BRANCH   9  18
ATOM     18  O   UNL d   1      12.563   2.951 -17.121  0.00  0.00    -0.328 OA
ATOM     19  C   UNL d   1      13.278   2.410 -18.226  0.00  0.00     0.181 C 
ENDBRANCH   9  18
TORSDOF 6
