REMARK  12 active torsions:
REMARK  status: ('A' for Active; 'I' for Inactive)
REMARK    1  A    between atoms: O_2  and  C_3 
REMARK    2  A    between atoms: C_9  and  C_10 
REMARK    3  A    between atoms: C_12  and  C_13 
REMARK    4  A    between atoms: C_13  and  N_14 
REMARK    5  A    between atoms: N_14  and  C_15 
REMARK    6  A    between atoms: N_14  and  C_31 
REMARK    7  A    between atoms: C_15  and  C_16 
REMARK    8  A    between atoms: C_16  and  C_17 
REMARK    9  A    between atoms: C_17  and  S_18 
REMARK   10  A    between atoms: S_18  and  C_19 
REMARK   11  A    between atoms: C_22  and  C_23 
REMARK   12  A    between atoms: C_31  and  C_32 
ROOT
ATOM      1  N   UNL d   1       8.021   4.499 -11.936  0.00  0.00     0.137 N 
ENDROOT
BRANCH   1   2
ATOM      2  C   UNL d   1       7.819   5.524 -10.919  0.00  0.00     0.251 C 
BRANCH   2   3
ATOM      3  C   UNL d   1       8.916   5.369  -9.851  0.00  0.00     0.038 A 
ATOM      4  C   UNL d   1       8.740   6.114  -8.534  0.00  0.00     0.026 A 
ATOM      5  C   UNL d   1       8.668   4.594  -8.555  0.00  0.00     0.007 A 
BRANCH   4   6
ATOM      6  C   UNL d   1       9.838   6.857  -7.889  0.00  0.00     0.001 A 
ATOM      7  C   UNL d   1      10.596   7.791  -8.601  0.00  0.00     0.090 A 
ATOM      8  C   UNL d   1      11.599   8.528  -8.008  0.00  0.00     0.025 A 
ATOM      9  C   UNL d   1      11.835   8.428  -6.606  0.00  0.00     0.013 A 
ATOM     10  C   UNL d   1      11.014   7.503  -5.886  0.00  0.00     0.058 A 
ATOM     11 CL   UNL d   1      11.419   7.120  -4.257  0.00  0.00    -0.082 Cl
ATOM     12  C   UNL d   1      10.004   6.772  -6.511  0.00  0.00     0.009 A 
BRANCH   7  13
ATOM     13  O   UNL d   1      10.246   7.948  -9.910  0.00  0.00    -0.328 OA
ATOM     14  C   UNL d   1      11.046   8.795 -10.684  0.00  0.00     0.181 C 
ENDBRANCH   7  13
ENDBRANCH   4   6
ENDBRANCH   2   3
ENDBRANCH   1   2
BRANCH   1  15
ATOM     15  C   UNL d   1       9.180   4.840 -12.746  0.00  0.00     0.251 C 
BRANCH  15  16
ATOM     16  C   UNL d   1      10.126   3.651 -12.737  0.00  0.00     0.047 C 
BRANCH  16  17
ATOM     17  C   UNL d   1      11.424   3.985 -13.536  0.00  0.00     0.067 C 
BRANCH  17  18
ATOM     18  S   UNL d   1      11.141   4.184 -15.306  0.00  0.00    -0.075 SA
BRANCH  18  19
ATOM     19  C   UNL d   1      10.655   2.530 -15.680  0.00  0.00     0.193 A 
ATOM     20  N   UNL d   1       9.816   2.258 -16.673  0.00  0.00    -0.289 N 
ATOM     21  C   UNL d   1       9.659   0.921 -16.593  0.00  0.00     0.167 A 
ATOM     22  C   UNL d   1       9.188   3.203 -17.567  0.00  0.00     0.134 C 
ATOM     23  N   UNL d   1      10.399   0.392 -15.634  0.00  0.00    -0.128 NA
ATOM     24  N   UNL d   1      11.017   1.439 -15.016  0.00  0.00    -0.122 NA
BRANCH  21  25
ATOM     25  C   UNL d   1       8.802   0.129 -17.465  0.00  0.00     0.036 A 
ATOM     26  C   UNL d   1       7.479   0.542 -17.765  0.00  0.00     0.003 A 
ATOM     27  C   UNL d   1       6.657  -0.217 -18.627  0.00  0.00     0.000 A 
ATOM     28  C   UNL d   1       7.141  -1.420 -19.159  0.00  0.00     0.000 A 
ATOM     29  C   UNL d   1       8.425  -1.858 -18.825  0.00  0.00     0.000 A 
ATOM     30  C   UNL d   1       9.279  -1.082 -18.012  0.00  0.00     0.003 A 
ENDBRANCH  21  25
ENDBRANCH  18  19
ENDBRANCH  17  18
ENDBRANCH  16  17
ENDBRANCH  15  16
ENDBRANCH   1  15
BRANCH   1  31
ATOM     31  C   UNL d   1       6.853   4.301 -12.778  0.00  0.00     0.250 C 
BRANCH  31  32
ATOM     32  C   UNL d   1       5.741   3.576 -12.035  0.00  0.00     0.033 A 
ATOM     33  C   UNL d   1       4.667   3.018 -12.899  0.00  0.00     0.002 A 
ATOM     34  C   UNL d   1       5.560   2.069 -12.180  0.00  0.00     0.002 A 
ENDBRANCH  31  32
ENDBRANCH   1  31
TORSDOF 12
