REMARK  1 active torsions:
REMARK  status: ('A' for Active; 'I' for Inactive)
REMARK    1  A    between atoms: C_14  and  C_15 
ROOT
ATOM      1  C   UNL d   1       8.155   1.229 -19.562  0.00  0.00     0.074 C 
ATOM      2  C   UNL d   1       9.287   1.460 -18.601  0.00  0.00     0.147 A 
ATOM      3  N   UNL d   1      10.500   1.851 -18.994  0.00  0.00    -0.133 NA
ATOM      4  N   UNL d   1      11.263   1.974 -17.837  0.00  0.00    -0.131 NA
ATOM      5  C   UNL d   1      10.446   1.643 -16.830  0.00  0.00     0.172 A 
ATOM      6  N   UNL d   1       9.222   1.304 -17.268  0.00  0.00    -0.279 N 
ATOM      7  C   UNL d   1       8.127   0.891 -16.444  0.00  0.00     0.068 A 
ATOM      8  C   UNL d   1       7.218  -0.075 -16.938  0.00  0.00     0.018 A 
ATOM      9  C   UNL d   1       6.072  -0.452 -16.217  0.00  0.00     0.013 A 
ATOM     10  C   UNL d   1       5.860   0.061 -14.937  0.00  0.00     0.058 A 
ATOM     11 CL   UNL d   1       4.444  -0.350 -14.043  0.00  0.00    -0.082 Cl
ATOM     12  C   UNL d   1       6.803   0.958 -14.390  0.00  0.00     0.014 A 
ATOM     13  C   UNL d   1       7.915   1.428 -15.130  0.00  0.00     0.034 A 
ATOM     14  C   UNL d   1       8.771   2.514 -14.505  0.00  0.00     0.078 C 
ATOM     15  N   UNL d   1      10.035   2.612 -14.645  0.00  0.00    -0.262 NA
ATOM     16  C   UNL d   1      10.812   1.639 -15.387  0.00  0.00     0.191 C 
ENDROOT
BRANCH  14  17
ATOM     17  C   UNL d   1       8.091   3.546 -13.660  0.00  0.00     0.017 A 
ATOM     18  C   UNL d   1       6.774   3.934 -13.953  0.00  0.00     0.002 A 
ATOM     19  C   UNL d   1       6.069   4.798 -13.094  0.00  0.00     0.000 A 
ATOM     20  C   UNL d   1       6.711   5.332 -11.964  0.00  0.00     0.000 A 
ATOM     21  C   UNL d   1       8.034   4.962 -11.668  0.00  0.00     0.000 A 
ATOM     22  C   UNL d   1       8.731   4.074 -12.508  0.00  0.00     0.002 A 
ENDBRANCH  14  17
TORSDOF 1
