REMARK  6 active torsions:
REMARK  status: ('A' for Active; 'I' for Inactive)
REMARK    1  A    between atoms: C_2  and  C_3 
REMARK    2  A    between atoms: C_3  and  N_4 
REMARK    3  A    between atoms: C_8  and  C_9 
REMARK    4  A    between atoms: C_13  and  N_14 
REMARK    5  A    between atoms: N_14  and  S_15 
REMARK    6  A    between atoms: S_15  and  C_18 
ROOT
ATOM      1  C   UNL d   1       7.440   4.699 -12.381  0.00  0.00    -0.019 A 
ATOM      2  C   UNL d   1       6.076   4.368 -12.373  0.00  0.00    -0.004 A 
ATOM      3  C   UNL d   1       5.613   3.334 -13.202  0.00  0.00     0.001 A 
ATOM      4  C   UNL d   1       6.503   2.638 -14.043  0.00  0.00     0.020 A 
ATOM      5  C   UNL d   1       7.872   2.967 -14.060  0.00  0.00     0.093 A 
ATOM      6  C   UNL d   1       8.328   3.996 -13.221  0.00  0.00     0.016 A 
ENDROOT
BRANCH   1   7
ATOM      7  C   UNL d   1       7.959   5.798 -11.491  0.00  0.00     0.056 C 
ATOM      8  C   UNL d   1       8.872   6.745 -12.298  0.00  0.00     0.008 C 
ATOM      9  C   UNL d   1       9.493   7.767 -11.369  0.00  0.00     0.036 C 
ATOM     10  C   UNL d   1      10.182   7.070 -10.209  0.00  0.00     0.250 C 
ATOM     11  N   UNL d   1       9.225   6.286  -9.417  0.00  0.00     0.137 N 
ATOM     12  C   UNL d   1       8.689   5.215 -10.254  0.00  0.00     0.255 C 
BRANCH  11  13
ATOM     13  C   UNL d   1       9.862   5.730  -8.221  0.00  0.00     0.250 C 
BRANCH  13  14
ATOM     14  C   UNL d   1      10.136   6.793  -7.112  0.00  0.00     0.035 C 
ATOM     15  C   UNL d   1      11.346   7.751  -7.328  0.00  0.00     0.002 C 
ENDBRANCH  13  14
ENDBRANCH  11  13
ENDBRANCH   1   7
BRANCH   5  16
ATOM     16  N   UNL d   1       8.755   2.257 -14.876  0.00  0.00    -0.155 NA
BRANCH  16  17
ATOM     17  S   UNL d   1      10.375   2.665 -15.351  0.00  0.00     0.354 S 
ATOM     18  O   UNL d   1      10.241   3.672 -16.398  0.00  0.00    -0.194 OA
ATOM     19  O   UNL d   1      11.125   2.950 -14.104  0.00  0.00    -0.194 OA
BRANCH  17  20
ATOM     20  C   UNL d   1      10.997   1.085 -16.060  0.00  0.00     0.519 C 
ATOM     21  F   UNL d   1      12.216   1.301 -16.549  0.00  0.00    -0.155 F 
ATOM     22  F   UNL d   1      11.052   0.165 -15.098  0.00  0.00    -0.155 F 
ATOM     23  F   UNL d   1      10.185   0.694 -17.042  0.00  0.00    -0.155 F 
ENDBRANCH  17  20
ENDBRANCH  16  17
ENDBRANCH   5  16
TORSDOF 6
