REMARK  7 active torsions:
REMARK  status: ('A' for Active; 'I' for Inactive)
REMARK    1  A    between atoms: O_2  and  C_3 
REMARK    2  A    between atoms: C_9  and  N_10 
REMARK       I    between atoms: N_10  and  C_11 
REMARK       I    between atoms: C_11  and  N_13 
REMARK    3  A    between atoms: N_13  and  C_14 
REMARK    4  A    between atoms: C_17  and  N_18 
REMARK    5  A    between atoms: N_21  and  C_22 
REMARK    6  A    between atoms: C_27  and  O_28 
REMARK    7  A    between atoms: O_28  and  C_29 
ROOT
ATOM      1  C   UNL d   1       8.988   4.461 -12.488  0.00  0.00     0.108 C 
ATOM      2  C   UNL d   1       9.859   3.584 -13.429  0.00  0.00     0.026 C 
ATOM      3  C   UNL d   1       9.018   2.439 -14.030  0.00  0.00     0.035 C 
ATOM      4  C   UNL d   1       7.797   3.020 -14.792  0.00  0.00     0.220 C 
ATOM      5  C   UNL d   1       6.935   3.955 -13.875  0.00  0.00     0.035 C 
ATOM      6  C   UNL d   1       7.808   5.065 -13.260  0.00  0.00     0.026 C 
ENDROOT
BRANCH   4   7
ATOM      7  N   UNL d   1       6.879   1.965 -15.286  0.00  0.00     0.139 N 
ATOM      8  C   UNL d   1       6.936   1.815 -16.748  0.00  0.00     0.274 C 
ATOM      9  C   UNL d   1       5.890   0.827 -17.282  0.00  0.00     0.137 C 
ATOM     10  N   UNL d   1       6.007  -0.455 -16.622  0.00  0.00    -0.343 N 
ATOM     11  C   UNL d   1       6.050  -0.426 -15.157  0.00  0.00     0.137 C 
ATOM     12  C   UNL d   1       7.091   0.630 -14.677  0.00  0.00     0.274 C 
BRANCH  10  13
ATOM     13  C   UNL d   1       6.208  -1.637 -17.346  0.00  0.00     0.079 A 
ATOM     14  C   UNL d   1       7.194  -1.737 -18.369  0.00  0.00     0.109 A 
ATOM     15  C   UNL d   1       7.357  -2.989 -19.018  0.00  0.00     0.026 A 
ATOM     16  C   UNL d   1       6.557  -4.094 -18.673  0.00  0.00     0.002 A 
ATOM     17  C   UNL d   1       5.597  -3.984 -17.653  0.00  0.00     0.002 A 
ATOM     18  C   UNL d   1       5.438  -2.761 -16.987  0.00  0.00     0.019 A 
BRANCH  14  19
ATOM     19  O   UNL d   1       7.970  -0.619 -18.640  0.00  0.00    -0.332 OA
BRANCH  19  20
ATOM     20  C   UNL d   1       9.155  -0.712 -19.428  0.00  0.00     0.122 C 
ATOM     21  C   UNL d   1      10.339  -1.129 -18.526  0.00  0.00     0.033 C 
ATOM     22  C   UNL d   1       9.389   0.654 -20.067  0.00  0.00     0.033 C 
ENDBRANCH  19  20
ENDBRANCH  14  19
ENDBRANCH  10  13
ENDBRANCH   4   7
BRANCH   1  23
ATOM     23  N   UNL d   1       9.781   5.542 -11.937  0.00  0.00    -0.219 NA
ATOM     24  C   UNL d   1       9.732   6.021 -10.684  0.00  0.00     0.364 C 
ATOM     25  N   UNL d   1      10.592   7.057 -10.523  0.00  0.00    -0.189 NA
ATOM     26  O   UNL d   1       9.037   5.528  -9.812  0.00  0.00    -0.243 OA
BRANCH  25  27
ATOM     27  C   UNL d   1      11.099   7.604  -9.334  0.00  0.00     0.109 A 
ATOM     28  C   UNL d   1      12.427   8.109  -9.300  0.00  0.00     0.112 A 
ATOM     29  C   UNL d   1      12.929   8.762  -8.153  0.00  0.00     0.027 A 
ATOM     30  C   UNL d   1      12.122   8.855  -7.023  0.00  0.00     0.013 A 
ATOM     31  C   UNL d   1      10.837   8.292  -7.056  0.00  0.00     0.059 A 
ATOM     32 CL   UNL d   1       9.962   8.287  -5.659  0.00  0.00    -0.082 Cl
ATOM     33  C   UNL d   1      10.290   7.700  -8.201  0.00  0.00     0.033 A 
BRANCH  28  34
ATOM     34  O   UNL d   1      13.166   8.003 -10.431  0.00  0.00    -0.327 OA
ATOM     35  C   UNL d   1      14.601   8.000 -10.355  0.00  0.00     0.181 C 
ENDBRANCH  28  34
ENDBRANCH  25  27
ENDBRANCH   1  23
TORSDOF 7
