REMARK  3 active torsions:
REMARK  status: ('A' for Active; 'I' for Inactive)
REMARK    1  A    between atoms: N_2  and  C_4 
REMARK    2  A    between atoms: C_7  and  C_8 
REMARK    3  A    between atoms: C_8  and  C_9 
ROOT
ATOM      1  C   UNL d   1       8.147   4.612 -13.126  0.00  0.00    -0.018 C 
ATOM      2  C   UNL d   1       6.995   5.012 -12.414  0.00  0.00    -0.004 C 
ATOM      3  C   UNL d   1       5.858   4.215 -12.388  0.00  0.00    -0.005 C 
ATOM      4  C   UNL d   1       5.860   3.004 -13.085  0.00  0.00    -0.022 C 
ATOM      5  C   UNL d   1       7.000   2.631 -13.837  0.00  0.00     0.005 C 
ATOM      6  C   UNL d   1       8.151   3.453 -13.974  0.00  0.00    -0.004 C 
ATOM      7  C   UNL d   1       9.273   3.005 -14.844  0.00  0.00     0.023 C 
ATOM      8  C   UNL d   1       9.540   1.617 -14.937  0.00  0.00    -0.018 C 
ATOM      9  C   UNL d   1      10.617   1.127 -15.700  0.00  0.00    -0.002 C 
ATOM     10  C   UNL d   1      11.401   2.019 -16.453  0.00  0.00     0.029 C 
ATOM     11  C   UNL d   1      11.082   3.384 -16.475  0.00  0.00     0.156 C 
ATOM     12  O   UNL d   1      11.810   4.198 -17.302  0.00  0.00    -0.188 OA
ATOM     13  C   UNL d   1      10.013   3.873 -15.689  0.00  0.00     0.156 C 
ATOM     14  O   UNL d   1       9.626   5.182 -15.802  0.00  0.00    -0.188 OA
ATOM     15  C   UNL d   1       8.547   0.649 -14.323  0.00  0.00     0.064 C 
ATOM     16  C   UNL d   1       7.101   1.199 -14.424  0.00  0.00     0.246 C 
ATOM     17  N   UNL d   1       6.182   0.216 -13.815  0.00  0.00     0.142 N 
ATOM     18  C   UNL d   1       6.120  -1.026 -14.564  0.00  0.00     0.286 C 
ATOM     19  C   UNL d   1       4.866   0.787 -13.888  0.00  0.00     0.255 C 
ATOM     20  C   UNL d   1       4.844   1.916 -12.851  0.00  0.00     0.061 C 
ENDROOT
BRANCH   1  21
ATOM     21  C   UNL d   1       9.407   5.432 -12.864  0.00  0.00     0.053 C 
BRANCH  21  22
ATOM     22  C   UNL d   1       9.515   6.016 -11.459  0.00  0.00    -0.018 A 
ATOM     23  C   UNL d   1       9.433   5.187 -10.329  0.00  0.00    -0.003 A 
ATOM     24  C   UNL d   1       9.558   5.728  -9.035  0.00  0.00     0.017 A 
ATOM     25  C   UNL d   1       9.795   7.114  -8.844  0.00  0.00     0.056 A 
ATOM     26  C   UNL d   1       9.877   7.941  -9.985  0.00  0.00     0.017 A 
ATOM     27  C   UNL d   1       9.716   7.399 -11.273  0.00  0.00    -0.003 A 
BRANCH  25  28
ATOM     28  N   UNL d   1       9.966   7.657  -7.546  0.00  0.00    -0.344 N 
ATOM     29  C   UNL d   1      10.058   9.096  -7.380  0.00  0.00     0.126 C 
ATOM     30  C   UNL d   1       9.825   6.791  -6.391  0.00  0.00     0.126 C 
ENDBRANCH  25  28
ENDBRANCH  21  22
ENDBRANCH   1  21
TORSDOF 3
