REMARK  8 active torsions:
REMARK  status: ('A' for Active; 'I' for Inactive)
REMARK    1  A    between atoms: C_3  and  S_4 
REMARK    2  A    between atoms: S_4  and  C_5 
REMARK    3  A    between atoms: C_5  and  C_6 
REMARK    4  A    between atoms: C_6  and  C_7 
REMARK    5  A    between atoms: C_7  and  N_8 
REMARK    6  A    between atoms: N_13  and  C_14 
REMARK    7  A    between atoms: C_17  and  C_18 
REMARK    8  A    between atoms: C_28  and  C_29 
ROOT
ATOM      1  N   UNL d   1       9.534   3.201 -13.962  0.00  0.00     0.139 N 
ATOM      2  C   UNL d   1       8.348   3.763 -14.604  0.00  0.00     0.252 C 
ATOM      3  C   UNL d   1       7.692   4.580 -13.518  0.00  0.00     0.058 C 
ATOM      4  C   UNL d   1       6.688   3.893 -12.622  0.00  0.00     0.028 C 
ATOM      5  C   UNL d   1       7.071   4.499 -11.259  0.00  0.00     0.102 C 
ATOM      6  N   UNL d   1       8.482   4.859 -11.311  0.00  0.00    -0.348 N 
ATOM      7  C   UNL d   1       8.836   5.091 -12.698  0.00  0.00     0.117 C 
ATOM      8  C   UNL d   1      10.068   4.297 -13.167  0.00  0.00     0.272 C 
ENDROOT
BRANCH   1   9
ATOM      9  C   UNL d   1      10.492   2.691 -14.931  0.00  0.00     0.251 C 
BRANCH   9  10
ATOM     10  C   UNL d   1       9.925   1.389 -15.504  0.00  0.00     0.047 C 
BRANCH  10  11
ATOM     11  C   UNL d   1      10.827   0.799 -16.601  0.00  0.00     0.067 C 
BRANCH  11  12
ATOM     12  S   UNL d   1      10.314  -0.858 -17.169  0.00  0.00    -0.075 SA
BRANCH  12  13
ATOM     13  C   UNL d   1       8.848  -0.475 -18.051  0.00  0.00     0.193 A 
ATOM     14  N   UNL d   1       8.025  -1.414 -18.544  0.00  0.00    -0.292 N 
ATOM     15  C   UNL d   1       8.123  -2.863 -18.587  0.00  0.00     0.134 C 
ATOM     16  C   UNL d   1       7.057  -0.632 -19.031  0.00  0.00     0.143 A 
ATOM     17  N   UNL d   1       7.245   0.671 -18.861  0.00  0.00    -0.133 NA
ATOM     18  N   UNL d   1       8.476   0.767 -18.246  0.00  0.00    -0.122 NA
BRANCH  16  19
ATOM     19  C   UNL d   1       5.874  -1.198 -19.791  0.00  0.00     0.059 C 
ATOM     20  C   UNL d   1       4.571  -0.936 -19.050  0.00  0.00     0.007 C 
ATOM     21  C   UNL d   1       4.226   0.548 -19.064  0.00  0.00     0.000 C 
ATOM     22  C   UNL d   1       4.290   1.168 -20.481  0.00  0.00     0.000 C 
ATOM     23  C   UNL d   1       5.542   0.869 -21.331  0.00  0.00     0.000 C 
ATOM     24  C   UNL d   1       5.860  -0.650 -21.235  0.00  0.00     0.007 C 
ENDBRANCH  16  19
ENDBRANCH  12  13
ENDBRANCH  11  12
ENDBRANCH  10  11
ENDBRANCH   9  10
ENDBRANCH   1   9
BRANCH   6  25
ATOM     25  C   UNL d   1       9.045   5.632 -10.269  0.00  0.00     0.056 A 
ATOM     26  C   UNL d   1       8.739   5.333  -8.925  0.00  0.00     0.017 A 
ATOM     27  C   UNL d   1       9.347   6.056  -7.878  0.00  0.00     0.005 A 
ATOM     28  C   UNL d   1      10.273   7.086  -8.150  0.00  0.00     0.072 A 
ATOM     29  C   UNL d   1      10.571   7.401  -9.486  0.00  0.00     0.005 A 
ATOM     30  C   UNL d   1       9.948   6.694 -10.530  0.00  0.00     0.017 A 
BRANCH  28  31
ATOM     31  C   UNL d   1      10.946   7.806  -6.996  0.00  0.00     0.419 C 
ATOM     32  F   UNL d   1      11.894   8.668  -7.377  0.00  0.00    -0.166 F 
ATOM     33  F   UNL d   1      10.025   8.470  -6.299  0.00  0.00    -0.166 F 
ATOM     34  F   UNL d   1      11.493   6.878  -6.211  0.00  0.00    -0.166 F 
ENDBRANCH  28  31
ENDBRANCH   6  25
TORSDOF 8
