REMARK  8 active torsions:
REMARK  status: ('A' for Active; 'I' for Inactive)
REMARK       I    between atoms: N_2  and  C_3 
REMARK    1  A    between atoms: C_3  and  C_5 
REMARK    2  A    between atoms: C_7  and  O_8 
REMARK    3  A    between atoms: O_8  and  C_9 
REMARK    4  A    between atoms: C_9  and  C_10 
REMARK    5  A    between atoms: C_10  and  C_11 
REMARK    6  A    between atoms: C_11  and  C_12 
REMARK    7  A    between atoms: C_12  and  N_13 
REMARK    8  A    between atoms: N_16  and  C_17 
ROOT
ATOM      1  N   UNL d   1       8.355   4.959 -11.880  0.00  0.00     0.141 N 
ATOM      2  C   UNL d   1       9.518   4.101 -12.166  0.00  0.00     0.274 C 
ATOM      3  C   UNL d   1       9.759   3.945 -13.663  0.00  0.00     0.137 C 
ATOM      4  N   UNL d   1       8.556   3.442 -14.284  0.00  0.00    -0.343 N 
ATOM      5  C   UNL d   1       7.352   4.185 -13.990  0.00  0.00     0.137 C 
ATOM      6  C   UNL d   1       7.148   4.350 -12.467  0.00  0.00     0.274 C 
ENDROOT
BRANCH   1   7
ATOM      7  C   UNL d   1       8.151   5.134 -10.456  0.00  0.00     0.251 C 
BRANCH   7   8
ATOM      8  C   UNL d   1       9.379   5.680  -9.685  0.00  0.00     0.038 C 
BRANCH   8   9
ATOM      9  C   UNL d   1       9.121   5.819  -8.186  0.00  0.00     0.035 C 
BRANCH   9  10
ATOM     10  C   UNL d   1      10.435   6.014  -7.429  0.00  0.00     0.149 C 
BRANCH  10  11
ATOM     11  O   UNL d   1      10.892   7.335  -7.645  0.00  0.00    -0.331 OA
BRANCH  11  12
ATOM     12  C   UNL d   1      11.077   8.098  -6.524  0.00  0.00     0.094 A 
ATOM     13  C   UNL d   1      11.475   7.560  -5.266  0.00  0.00     0.031 A 
ATOM     14  C   UNL d   1      11.670   8.398  -4.148  0.00  0.00     0.087 A 
ATOM     15  C   UNL d   1      11.414   9.755  -4.282  0.00  0.00     0.145 A 
ATOM     16  C   UNL d   1      11.017  10.300  -5.505  0.00  0.00     0.032 A 
ATOM     17  F   UNL d   1      11.453  10.503  -3.188  0.00  0.00    -0.204 F 
ATOM     18  C   UNL d   1      10.842   9.482  -6.634  0.00  0.00     0.026 A 
BRANCH  14  19
ATOM     19  C   UNL d   1      12.081   7.915  -2.792  0.00  0.00     0.277 C 
ATOM     20  N   UNL d   1      12.660   6.744  -2.821  0.00  0.00    -0.232 NA
ATOM     21  C   UNL d   1      12.885   5.981  -1.665  0.00  0.00     0.155 C 
ATOM     22  O   UNL d   1      11.914   8.543  -1.753  0.00  0.00    -0.266 OA
ENDBRANCH  14  19
ENDBRANCH  11  12
ENDBRANCH  10  11
ENDBRANCH   9  10
ENDBRANCH   8   9
ENDBRANCH   7   8
ENDBRANCH   1   7
BRANCH   4  23
ATOM     23  C   UNL d   1       8.598   2.325 -15.149  0.00  0.00     0.081 A 
ATOM     24  C   UNL d   1       9.646   2.144 -16.067  0.00  0.00     0.140 A 
ATOM     25  C   UNL d   1       9.667   1.044 -16.913  0.00  0.00     0.126 A 
ATOM     26  O   UNL d   1      10.709   2.936 -16.332  0.00  0.00    -0.253 OA
ATOM     27  C   UNL d   1       8.659   0.079 -16.876  0.00  0.00     0.027 A 
ATOM     28  O   UNL d   1      10.758   1.129 -17.713  0.00  0.00    -0.255 OA
ATOM     29  C   UNL d   1       7.611   0.244 -15.961  0.00  0.00     0.004 A 
ATOM     30  C   UNL d   1       7.569   1.358 -15.092  0.00  0.00     0.019 A 
ATOM     31  C   UNL d   1      11.429   2.316 -17.373  0.00  0.00     0.498 A 
ATOM     32  F   UNL d   1      11.505   3.120 -18.428  0.00  0.00    -0.147 F 
ATOM     33  F   UNL d   1      12.661   2.048 -16.967  0.00  0.00    -0.147 F 
ENDBRANCH   4  23
TORSDOF 8
