REMARK  6 active torsions:
REMARK  status: ('A' for Active; 'I' for Inactive)
REMARK    1  A    between atoms: C_7  and  C_8 
REMARK    2  A    between atoms: C_8  and  O_9 
REMARK    3  A    between atoms: C_8  and  C_15 
REMARK    4  A    between atoms: O_9  and  C_10 
REMARK    5  A    between atoms: C_10  and  C_11 
REMARK    6  A    between atoms: C_11  and  N_12 
ROOT
ATOM      1  C   UNL d   1       7.375   2.390 -14.746  0.00  0.00     0.160 C 
ENDROOT
BRANCH   1   2
ATOM      2  C   UNL d   1       7.673   3.589 -13.814  0.00  0.00     0.005 A 
ATOM      3  C   UNL d   1       6.701   4.106 -12.903  0.00  0.00    -0.023 A 
ATOM      4  C   UNL d   1       5.303   3.528 -12.774  0.00  0.00     0.031 C 
ATOM      5  C   UNL d   1       7.033   5.208 -12.084  0.00  0.00    -0.004 A 
ATOM      6  C   UNL d   1       8.296   5.811 -12.151  0.00  0.00    -0.000 A 
ATOM      7  C   UNL d   1       9.250   5.315 -13.053  0.00  0.00    -0.000 A 
ATOM      8  C   UNL d   1       8.940   4.227 -13.881  0.00  0.00    -0.002 A 
ENDBRANCH   1   2
BRANCH   1   9
ATOM      9  O   UNL d   1       6.689   1.335 -14.068  0.00  0.00    -0.346 OA
BRANCH   9  10
ATOM     10  C   UNL d   1       6.488   0.124 -14.803  0.00  0.00     0.178 C 
BRANCH  10  11
ATOM     11  C   UNL d   1       5.336  -0.651 -14.168  0.00  0.00     0.282 C 
BRANCH  11  12
ATOM     12  N   UNL d   1       4.060  -0.472 -14.839  0.00  0.00     0.144 N 
ATOM     13  C   UNL d   1       2.966  -0.941 -14.011  0.00  0.00     0.286 C 
ATOM     14  C   UNL d   1       4.033  -1.147 -16.136  0.00  0.00     0.286 C 
ENDBRANCH  11  12
ENDBRANCH  10  11
ENDBRANCH   9  10
ENDBRANCH   1   9
BRANCH   1  15
ATOM     15  C   UNL d   1       8.628   1.874 -15.453  0.00  0.00     0.009 A 
ATOM     16  C   UNL d   1       9.034   2.389 -16.700  0.00  0.00    -0.002 A 
ATOM     17  C   UNL d   1      10.215   1.909 -17.320  0.00  0.00    -0.000 A 
ATOM     18  C   UNL d   1      10.977   0.906 -16.691  0.00  0.00    -0.000 A 
ATOM     19  C   UNL d   1      10.566   0.387 -15.444  0.00  0.00    -0.000 A 
ATOM     20  C   UNL d   1       9.423   0.900 -14.806  0.00  0.00    -0.002 A 
ENDBRANCH   1  15
TORSDOF 6
