REMARK  9 active torsions:
REMARK  status: ('A' for Active; 'I' for Inactive)
REMARK    1  A    between atoms: O_2  and  C_3 
REMARK    2  A    between atoms: C_8  and  N_9 
REMARK    3  A    between atoms: N_12  and  C_13 
REMARK    4  A    between atoms: C_13  and  C_14 
REMARK    5  A    between atoms: C_14  and  C_15 
REMARK    6  A    between atoms: C_15  and  C_16 
REMARK    7  A    between atoms: C_16  and  C_17 
REMARK    8  A    between atoms: C_17  and  N_18 
REMARK       I    between atoms: N_18  and  C_19 
REMARK    9  A    between atoms: C_19  and  C_21 
ROOT
ATOM      1  C   UNL d   1       9.524   5.422 -11.768  0.00  0.00     0.004 C 
ENDROOT
BRANCH   1   2
ATOM      2  C   UNL d   1       8.661   6.420 -11.007  0.00  0.00     0.035 C 
BRANCH   2   3
ATOM      3  C   UNL d   1       9.556   7.523 -10.364  0.00  0.00     0.250 C 
BRANCH   3   4
ATOM      4  N   UNL d   1      10.324   7.059  -9.220  0.00  0.00     0.141 N 
ATOM      5  C   UNL d   1       9.433   6.789  -8.071  0.00  0.00     0.274 C 
ATOM      6  C   UNL d   1      10.301   6.267  -6.929  0.00  0.00     0.137 C 
ATOM      7  N   UNL d   1      11.300   7.245  -6.565  0.00  0.00    -0.343 N 
ATOM      8  C   UNL d   1      12.114   7.772  -7.650  0.00  0.00     0.137 C 
ATOM      9  C   UNL d   1      11.215   8.170  -8.835  0.00  0.00     0.274 C 
BRANCH   7  10
ATOM     10  C   UNL d   1      11.457   7.691  -5.261  0.00  0.00     0.079 A 
ATOM     11  C   UNL d   1      11.444   9.073  -5.001  0.00  0.00     0.110 A 
ATOM     12  C   UNL d   1      11.656   9.543  -3.682  0.00  0.00     0.026 A 
ATOM     13  C   UNL d   1      11.899   8.629  -2.647  0.00  0.00     0.002 A 
ATOM     14  C   UNL d   1      11.908   7.255  -2.904  0.00  0.00     0.002 A 
ATOM     15  C   UNL d   1      11.689   6.786  -4.211  0.00  0.00     0.019 A 
BRANCH  11  16
ATOM     16  O   UNL d   1      11.116   9.882  -6.048  0.00  0.00    -0.327 OA
ATOM     17  C   UNL d   1      11.805  11.106  -6.087  0.00  0.00     0.181 C 
ENDBRANCH  11  16
ENDBRANCH   7  10
ENDBRANCH   3   4
ENDBRANCH   2   3
ENDBRANCH   1   2
BRANCH   1  18
ATOM     18  C   UNL d   1       8.726   4.377 -12.549  0.00  0.00     0.026 C 
BRANCH  18  19
ATOM     19  C   UNL d   1       9.668   3.402 -13.290  0.00  0.00     0.129 C 
BRANCH  19  20
ATOM     20  N   UNL d   1       8.913   2.438 -14.082  0.00  0.00    -0.234 NA
ATOM     21  C   UNL d   1       8.738   2.436 -15.409  0.00  0.00     0.282 C 
ATOM     22  O   UNL d   1       9.346   3.195 -16.167  0.00  0.00    -0.265 OA
BRANCH  21  23
ATOM     23  C   UNL d   1       7.738   1.459 -15.921  0.00  0.00     0.101 A 
ATOM     24  C   UNL d   1       6.713   0.756 -15.303  0.00  0.00     0.082 A 
ATOM     25  C   UNL d   1       5.936  -0.030 -16.261  0.00  0.00     0.034 A 
ATOM     26  N   UNL d   1       6.336   0.775 -13.943  0.00  0.00    -0.100 NA
ATOM     27  C   UNL d   1       6.411   0.145 -17.600  0.00  0.00     0.111 A 
ATOM     28  C   UNL d   1       4.813  -0.898 -16.150  0.00  0.00    -0.018 A 
ATOM     29  S   UNL d   1       7.758   1.261 -17.660  0.00  0.00    -0.062 SA
ATOM     30  N   UNL d   1       5.923  -0.441 -18.732  0.00  0.00    -0.243 NA
ATOM     31  C   UNL d   1       4.883  -1.280 -18.549  0.00  0.00     0.060 A 
ATOM     32  C   UNL d   1       4.350  -1.949 -19.798  0.00  0.00     0.052 C 
ATOM     33  C   UNL d   1       4.296  -1.538 -17.296  0.00  0.00     0.011 A 
ATOM     34  C   UNL d   1       4.169  -1.179 -14.809  0.00  0.00     0.031 C 
ENDBRANCH  21  23
ENDBRANCH  19  20
ENDBRANCH  18  19
ENDBRANCH   1  18
TORSDOF 9
