REMARK  6 active torsions:
REMARK  status: ('A' for Active; 'I' for Inactive)
REMARK       I    between atoms: C_2  and  N_3 
REMARK    1  A    between atoms: C_2  and  C_27 
REMARK    2  A    between atoms: N_3  and  C_4 
REMARK    3  A    between atoms: C_7  and  C_8 
REMARK    4  A    between atoms: C_8  and  C_9 
REMARK    5  A    between atoms: C_9  and  N_10 
REMARK    6  A    between atoms: C_13  and  C_14 
ROOT
ATOM      1  N   UNL d   1       9.005   3.612 -12.797  0.00  0.00     0.137 N 
ATOM      2  C   UNL d   1      10.039   3.226 -13.750  0.00  0.00     0.251 C 
ATOM      3  C   UNL d   1       9.462   2.185 -14.714  0.00  0.00     0.040 C 
ATOM      4  C   UNL d   1       8.230   2.751 -15.418  0.00  0.00     0.028 C 
ATOM      5  C   UNL d   1       7.239   3.325 -14.376  0.00  0.00     0.040 C 
ATOM      6  C   UNL d   1       7.909   4.317 -13.447  0.00  0.00     0.251 C 
ENDROOT
BRANCH   1   7
ATOM      7  C   UNL d   1       9.589   4.465 -11.778  0.00  0.00     0.250 C 
BRANCH   7   8
ATOM      8  C   UNL d   1       8.652   4.869 -10.636  0.00  0.00     0.035 C 
BRANCH   8   9
ATOM      9  C   UNL d   1       9.399   5.523  -9.459  0.00  0.00     0.002 C 
ATOM     10  C   UNL d   1       9.979   6.899  -9.873  0.00  0.00     0.002 C 
ATOM     11  C   UNL d   1      10.627   7.633  -8.697  0.00  0.00     0.024 C 
ATOM     12  C   UNL d   1       9.633   7.821  -7.542  0.00  0.00     0.106 C 
ATOM     13  C   UNL d   1       8.978   6.472  -7.145  0.00  0.00     0.024 C 
ATOM     14  C   UNL d   1       8.394   5.697  -8.326  0.00  0.00     0.002 C 
BRANCH  12  15
ATOM     15  N   UNL d   1      10.275   8.470  -6.397  0.00  0.00    -0.240 NA
ATOM     16  C   UNL d   1      11.107   7.869  -5.540  0.00  0.00     0.251 C 
ATOM     17  O   UNL d   1      11.670   6.796  -5.777  0.00  0.00    -0.271 OA
BRANCH  16  18
ATOM     18  C   UNL d   1      11.266   8.508  -4.164  0.00  0.00     0.081 C 
ATOM     19  C   UNL d   1      11.514   7.500  -3.019  0.00  0.00     0.009 C 
ATOM     20  C   UNL d   1      12.523   8.487  -2.450  0.00  0.00     0.001 C 
ATOM     21  C   UNL d   1      12.650   9.061  -3.853  0.00  0.00     0.009 C 
ENDBRANCH  16  18
ENDBRANCH  12  15
ENDBRANCH   8   9
ENDBRANCH   7   8
ENDBRANCH   1   7
BRANCH   4  22
ATOM     22  C   UNL d   1       7.558   1.694 -16.272  0.00  0.00     0.004 A 
ATOM     23  C   UNL d   1       6.615   0.669 -15.869  0.00  0.00     0.021 A 
ATOM     24  C   UNL d   1       6.293  -0.047 -17.065  0.00  0.00     0.100 A 
ATOM     25  C   UNL d   1       5.966   0.222 -14.691  0.00  0.00     0.002 A 
ATOM     26  O   UNL d   1       7.003   0.490 -18.119  0.00  0.00    -0.305 OA
ATOM     27  C   UNL d   1       5.394  -1.127 -17.102  0.00  0.00     0.025 A 
ATOM     28  C   UNL d   1       7.755   1.517 -17.617  0.00  0.00     0.118 A 
ATOM     29  C   UNL d   1       4.750  -1.523 -15.914  0.00  0.00     0.002 A 
ATOM     30  C   UNL d   1       5.033  -0.833 -14.712  0.00  0.00     0.000 A 
ENDBRANCH   4  22
TORSDOF 6
