REMARK  6 active torsions:
REMARK  status: ('A' for Active; 'I' for Inactive)
REMARK       I    between atoms: C_2  and  N_3 
REMARK    1  A    between atoms: C_2  and  C_22 
REMARK    2  A    between atoms: N_3  and  C_4 
REMARK    3  A    between atoms: C_4  and  C_5 
REMARK    4  A    between atoms: C_5  and  C_6 
REMARK    5  A    between atoms: C_6  and  C_7 
REMARK    6  A    between atoms: C_7  and  N_8 
ROOT
ATOM      1  N   UNL d   1      10.345   6.822  -8.904  0.00  0.00     0.143 N 
ATOM      2  C   UNL d   1      11.198   7.501  -9.885  0.00  0.00     0.282 C 
ATOM      3  C   UNL d   1      11.992   8.659  -9.281  0.00  0.00     0.178 C 
ATOM      4  O   UNL d   1      11.062   9.569  -8.712  0.00  0.00    -0.348 OA
ATOM      5  C   UNL d   1      10.224   9.002  -7.713  0.00  0.00     0.173 C 
ATOM      6  C   UNL d   1      10.953   8.686  -6.414  0.00  0.00     0.029 A 
ATOM      7  C   UNL d   1      11.989   9.519  -5.938  0.00  0.00     0.000 A 
ATOM      8  C   UNL d   1      12.652   9.207  -4.732  0.00  0.00    -0.000 A 
ATOM      9  C   UNL d   1      12.280   8.064  -3.996  0.00  0.00     0.002 A 
ATOM     10  C   UNL d   1      11.260   7.222  -4.480  0.00  0.00     0.024 A 
ATOM     11  C   UNL d   1      10.571   7.552  -5.664  0.00  0.00     0.092 A 
ATOM     12  O   UNL d   1       9.528   6.740  -6.044  0.00  0.00    -0.329 OA
ATOM     13  C   UNL d   1       8.660   7.219  -7.068  0.00  0.00     0.185 C 
ATOM     14  C   UNL d   1       9.452   7.786  -8.261  0.00  0.00     0.280 C 
ENDROOT
BRANCH   1  15
ATOM     15  C   UNL d   1       9.672   5.656  -9.481  0.00  0.00     0.251 C 
BRANCH  15  16
ATOM     16  C   UNL d   1       8.933   5.891 -10.813  0.00  0.00     0.037 C 
BRANCH  16  17
ATOM     17  C   UNL d   1       8.819   4.624 -11.661  0.00  0.00     0.029 C 
BRANCH  17  18
ATOM     18  C   UNL d   1       8.513   4.940 -13.131  0.00  0.00     0.129 C 
BRANCH  18  19
ATOM     19  N   UNL d   1       8.905   3.842 -14.005  0.00  0.00    -0.234 NA
ATOM     20  C   UNL d   1      10.166   3.561 -14.379  0.00  0.00     0.281 C 
ATOM     21  O   UNL d   1      11.139   4.247 -14.064  0.00  0.00    -0.265 OA
BRANCH  20  22
ATOM     22  C   UNL d   1      10.327   2.370 -15.238  0.00  0.00     0.087 A 
ATOM     23  S   UNL d   1       9.174   1.069 -15.051  0.00  0.00    -0.082 SA
ATOM     24  C   UNL d   1       9.958   0.145 -16.301  0.00  0.00     0.036 A 
ATOM     25  C   UNL d   1      11.061   0.791 -16.790  0.00  0.00     0.008 A 
ATOM     26  C   UNL d   1      11.279   2.060 -16.177  0.00  0.00     0.012 A 
ENDBRANCH  20  22
ENDBRANCH  18  19
ENDBRANCH  17  18
ENDBRANCH  16  17
ENDBRANCH  15  16
ENDBRANCH   1  15
TORSDOF 6
