REMARK  8 active torsions:
REMARK  status: ('A' for Active; 'I' for Inactive)
REMARK    1  A    between atoms: O_2  and  C_3 
REMARK    2  A    between atoms: C_9  and  C_10 
REMARK    3  A    between atoms: N_14  and  C_15 
REMARK    4  A    between atoms: C_15  and  C_16 
REMARK    5  A    between atoms: C_16  and  C_17 
REMARK    6  A    between atoms: C_17  and  C_18 
REMARK    7  A    between atoms: C_18  and  N_19 
REMARK    8  A    between atoms: C_22  and  C_23 
ROOT
ATOM      1  C   UNL d   1       9.456   4.490 -14.260  0.00  0.00     0.112 C 
ENDROOT
BRANCH   1   2
ATOM      2  N   UNL d   1       9.834   3.265 -14.977  0.00  0.00    -0.270 N 
ATOM      3  C   UNL d   1      11.091   2.971 -15.347  0.00  0.00     0.240 A 
ATOM      4  C   UNL d   1      11.138   1.657 -16.125  0.00  0.00     0.102 A 
ATOM      5  O   UNL d   1      12.089   3.648 -15.141  0.00  0.00    -0.272 OA
ATOM      6  C   UNL d   1       9.668   1.219 -16.145  0.00  0.00     0.113 A 
ATOM      7  C   UNL d   1       8.960   2.325 -15.368  0.00  0.00     0.243 A 
ATOM      8  O   UNL d   1       7.751   2.337 -15.161  0.00  0.00    -0.272 OA
BRANCH   6   9
ATOM      9  C   UNL d   1       9.112   1.114 -17.550  0.00  0.00     0.007 A 
ATOM     10  C   UNL d   1       8.578  -0.009 -18.130  0.00  0.00     0.095 A 
ATOM     11  N   UNL d   1       8.194   0.291 -19.426  0.00  0.00    -0.244 NA
ATOM     12  C   UNL d   1       8.466   1.611 -19.723  0.00  0.00     0.081 A 
ATOM     13  C   UNL d   1       8.267   2.389 -20.879  0.00  0.00     0.021 A 
ATOM     14  C   UNL d   1       9.050   2.155 -18.543  0.00  0.00     0.018 A 
ATOM     15  C   UNL d   1       8.658   3.741 -20.877  0.00  0.00     0.026 A 
ATOM     16  C   UNL d   1       9.238   4.322 -19.733  0.00  0.00     0.094 A 
ATOM     17  C   UNL d   1       9.426   3.521 -18.581  0.00  0.00     0.025 A 
BRANCH  16  18
ATOM     18  O   UNL d   1       9.587   5.654 -19.805  0.00  0.00    -0.328 OA
ATOM     19  C   UNL d   1      10.107   6.280 -18.637  0.00  0.00     0.181 C 
ENDBRANCH  16  18
ENDBRANCH   6   9
ENDBRANCH   1   2
BRANCH   1  20
ATOM     20  C   UNL d   1       8.918   4.196 -12.845  0.00  0.00     0.027 C 
BRANCH  20  21
ATOM     21  C   UNL d   1       9.055   5.406 -11.912  0.00  0.00     0.037 C 
BRANCH  21  22
ATOM     22  C   UNL d   1       8.601   5.098 -10.470  0.00  0.00     0.250 C 
BRANCH  22  23
ATOM     23  N   UNL d   1       9.039   6.103  -9.494  0.00  0.00     0.137 N 
ATOM     24  C   UNL d   1       8.560   5.716  -8.164  0.00  0.00     0.251 C 
ATOM     25  C   UNL d   1       8.933   6.782  -7.112  0.00  0.00     0.040 C 
ATOM     26  C   UNL d   1      10.449   7.016  -7.080  0.00  0.00     0.028 C 
ATOM     27  C   UNL d   1      10.944   7.306  -8.494  0.00  0.00     0.040 C 
ATOM     28  C   UNL d   1      10.492   6.213  -9.459  0.00  0.00     0.251 C 
BRANCH  26  29
ATOM     29  C   UNL d   1      10.816   8.142  -6.146  0.00  0.00    -0.002 A 
ATOM     30  C   UNL d   1      11.392   8.036  -4.839  0.00  0.00     0.017 A 
ATOM     31  C   UNL d   1      11.549   9.352  -4.317  0.00  0.00     0.081 A 
ATOM     32  C   UNL d   1      11.780   6.956  -4.014  0.00  0.00     0.031 A 
ATOM     33  N   UNL d   1      11.092  10.203  -5.298  0.00  0.00    -0.244 NA
ATOM     34  C   UNL d   1      12.072   9.586  -3.039  0.00  0.00     0.021 A 
ATOM     35  C   UNL d   1      10.657   9.480  -6.391  0.00  0.00     0.095 A 
ATOM     36  C   UNL d   1      12.451   8.496  -2.242  0.00  0.00     0.031 A 
ATOM     37  C   UNL d   1      12.297   7.186  -2.727  0.00  0.00     0.140 A 
ATOM     38  F   UNL d   1      12.658   6.135  -1.960  0.00  0.00    -0.204 F 
ENDBRANCH  26  29
ENDBRANCH  22  23
ENDBRANCH  21  22
ENDBRANCH  20  21
ENDBRANCH   1  20
TORSDOF 8
