REMARK  9 active torsions:
REMARK  status: ('A' for Active; 'I' for Inactive)
REMARK    1  A    between atoms: C_3  and  S_4 
REMARK    2  A    between atoms: S_4  and  C_5 
REMARK    3  A    between atoms: C_5  and  C_6 
REMARK    4  A    between atoms: C_6  and  C_7 
REMARK    5  A    between atoms: C_7  and  N_8 
REMARK    6  A    between atoms: C_12  and  C_13 
REMARK    7  A    between atoms: C_16  and  C_17 
REMARK    8  A    between atoms: C_26  and  C_27 
REMARK    9  A    between atoms: C_30  and  N_31 
ROOT
ATOM      1  C   UNL d   1      10.351   1.511 -14.862  0.00  0.00     0.067 C 
ENDROOT
BRANCH   1   2
ATOM      2  S   UNL d   1       9.967   0.969 -16.563  0.00  0.00    -0.075 SA
BRANCH   2   3
ATOM      3  C   UNL d   1      11.287   1.765 -17.428  0.00  0.00     0.193 A 
ATOM      4  N   UNL d   1      11.441   3.102 -17.529  0.00  0.00    -0.289 N 
ATOM      5  C   UNL d   1      10.606   4.176 -17.022  0.00  0.00     0.134 C 
ATOM      6  C   UNL d   1      12.574   3.229 -18.212  0.00  0.00     0.167 A 
ATOM      7  N   UNL d   1      13.087   2.039 -18.592  0.00  0.00    -0.128 NA
ATOM      8  N   UNL d   1      12.240   1.088 -18.071  0.00  0.00    -0.122 NA
BRANCH   6   9
ATOM      9  C   UNL d   1      13.194   4.506 -18.561  0.00  0.00     0.036 A 
ATOM     10  C   UNL d   1      13.178   5.603 -17.658  0.00  0.00     0.004 A 
ATOM     11  C   UNL d   1      13.736   6.841 -18.024  0.00  0.00     0.018 A 
ATOM     12  C   UNL d   1      14.340   6.985 -19.288  0.00  0.00     0.067 A 
ATOM     13  C   UNL d   1      14.362   5.897 -20.182  0.00  0.00     0.018 A 
ATOM     14  C   UNL d   1      13.780   4.667 -19.819  0.00  0.00     0.004 A 
BRANCH  12  15
ATOM     15  N   UNL d   1      14.926   8.225 -19.650  0.00  0.00    -0.269 N 
ATOM     16  C   UNL d   1      15.854   8.445 -20.590  0.00  0.00     0.207 A 
ATOM     17  N   UNL d   1      16.195   9.741 -20.672  0.00  0.00    -0.125 NA
ATOM     18  N   UNL d   1      15.418  10.401 -19.715  0.00  0.00    -0.125 NA
ATOM     19  C   UNL d   1      14.688   9.439 -19.140  0.00  0.00     0.207 A 
ENDBRANCH  12  15
ENDBRANCH   6   9
ENDBRANCH   2   3
ENDBRANCH   1   2
BRANCH   1  20
ATOM     20  C   UNL d   1       9.526   2.755 -14.459  0.00  0.00     0.047 C 
BRANCH  20  21
ATOM     21  C   UNL d   1      10.051   3.435 -13.185  0.00  0.00     0.251 C 
BRANCH  21  22
ATOM     22  N   UNL d   1       9.100   4.393 -12.617  0.00  0.00     0.143 N 
ATOM     23  C   UNL d   1       9.646   5.026 -11.430  0.00  0.00     0.284 C 
ATOM     24  C   UNL d   1       8.687   6.025 -10.794  0.00  0.00     0.171 C 
ATOM     25  O   UNL d   1       8.350   6.980 -11.797  0.00  0.00    -0.348 OA
ATOM     26  C   UNL d   1       7.711   6.410 -12.926  0.00  0.00     0.178 C 
ATOM     27  C   UNL d   1       8.695   5.428 -13.566  0.00  0.00     0.282 C 
BRANCH  24  28
ATOM     28  C   UNL d   1       9.353   6.689  -9.601  0.00  0.00     0.007 A 
ATOM     29  C   UNL d   1      10.239   7.771  -9.791  0.00  0.00    -0.002 A 
ATOM     30  C   UNL d   1      10.826   8.406  -8.682  0.00  0.00     0.004 A 
ATOM     31  C   UNL d   1      10.539   7.966  -7.371  0.00  0.00     0.071 A 
ATOM     32  C   UNL d   1       9.649   6.885  -7.183  0.00  0.00     0.004 A 
ATOM     33  C   UNL d   1       9.064   6.246  -8.295  0.00  0.00    -0.002 A 
BRANCH  31  34
ATOM     34  C   UNL d   1      11.202   8.635  -6.180  0.00  0.00     0.419 C 
ATOM     35  F   UNL d   1      11.467   7.736  -5.232  0.00  0.00    -0.166 F 
ATOM     36  F   UNL d   1      12.342   9.208  -6.556  0.00  0.00    -0.166 F 
ATOM     37  F   UNL d   1      10.414   9.577  -5.668  0.00  0.00    -0.166 F 
ENDBRANCH  31  34
ENDBRANCH  24  28
ENDBRANCH  21  22
ENDBRANCH  20  21
ENDBRANCH   1  20
TORSDOF 9
