REMARK  3 active torsions:
REMARK  status: ('A' for Active; 'I' for Inactive)
REMARK    1  A    between atoms: C_7  and  N_8 
REMARK    2  A    between atoms: N_19  and  S_20 
REMARK    3  A    between atoms: S_20  and  C_23 
ROOT
ATOM      1  C   UNL d   1      10.002   3.653 -16.978  0.00  0.00     0.026 C 
ATOM      2  C   UNL d   1      10.115   2.552 -15.907  0.00  0.00     0.105 C 
ATOM      3  C   UNL d   1      11.033   2.930 -14.754  0.00  0.00     0.093 C 
ATOM      4  C   UNL d   1      10.387   3.928 -13.842  0.00  0.00     0.177 C 
ATOM      5  O   UNL d   1      11.131   4.784 -13.358  0.00  0.00    -0.291 OA
ATOM      6  C   UNL d   1       8.921   3.778 -13.602  0.00  0.00     0.061 A 
ATOM      7  C   UNL d   1       8.231   4.535 -12.612  0.00  0.00     0.041 A 
ATOM      8  C   UNL d   1       6.841   4.375 -12.417  0.00  0.00     0.011 A 
ATOM      9  C   UNL d   1       6.121   3.463 -13.196  0.00  0.00     0.003 A 
ATOM     10  C   UNL d   1       6.791   2.714 -14.165  0.00  0.00     0.018 A 
ATOM     11  C   UNL d   1       8.184   2.874 -14.406  0.00  0.00     0.074 A 
ATOM     12  N   UNL d   1       8.763   2.136 -15.473  0.00  0.00    -0.255 N 
ENDROOT
BRANCH  12  13
ATOM     13  S   UNL d   1       7.802   1.090 -16.506  0.00  0.00     0.268 S 
ATOM     14  O   UNL d   1       7.392  -0.022 -15.643  0.00  0.00    -0.200 OA
ATOM     15  O   UNL d   1       6.800   1.964 -17.134  0.00  0.00    -0.200 OA
BRANCH  13  16
ATOM     16  C   UNL d   1       8.848   0.485 -17.801  0.00  0.00     0.104 A 
ATOM     17  C   UNL d   1       8.479   0.749 -19.131  0.00  0.00     0.013 A 
ATOM     18  C   UNL d   1       9.325   0.349 -20.180  0.00  0.00     0.001 A 
ATOM     19  C   UNL d   1      10.548  -0.303 -19.878  0.00  0.00     0.000 A 
ATOM     20  C   UNL d   1       8.961   0.594 -21.521  0.00  0.00     0.000 A 
ATOM     21  C   UNL d   1      10.904  -0.568 -18.537  0.00  0.00     0.001 A 
ATOM     22  C   UNL d   1      11.406  -0.689 -20.923  0.00  0.00     0.000 A 
ATOM     23  C   UNL d   1      10.028  -0.213 -17.500  0.00  0.00     0.013 A 
ATOM     24  C   UNL d   1      11.031  -0.472 -22.262  0.00  0.00     0.000 A 
ATOM     25  C   UNL d   1       9.810   0.165 -22.560  0.00  0.00     0.000 A 
ENDBRANCH  13  16
ENDBRANCH  12  13
BRANCH   7  26
ATOM     26  N   UNL d   1       8.930   5.445 -11.817  0.00  0.00    -0.248 NA
ATOM     27  C   UNL d   1       9.184   4.958 -10.469  0.00  0.00     0.112 C 
ATOM     28  C   UNL d   1      10.080   5.951  -9.703  0.00  0.00     0.268 C 
ATOM     29  N   UNL d   1       9.485   7.281  -9.713  0.00  0.00     0.142 N 
ATOM     30  C   UNL d   1       9.317   7.747 -11.097  0.00  0.00     0.268 C 
ATOM     31  C   UNL d   1      10.315   8.210  -8.977  0.00  0.00     0.285 C 
ATOM     32  C   UNL d   1       8.393   6.790 -11.864  0.00  0.00     0.112 C 
ENDBRANCH   7  26
TORSDOF 3
