REMARK  0 active torsions:
REMARK  status: ('A' for Active; 'I' for Inactive)
ROOT
ATOM      1  C   UNL d   1       4.410   3.537 -13.069  0.00  0.00     0.285 C 
ATOM      2  N   UNL d   1       5.531   2.744 -12.612  0.00  0.00     0.138 N 
ATOM      3  C   UNL d   1       6.573   3.716 -12.280  0.00  0.00     0.255 C 
ATOM      4  C   UNL d   1       7.268   4.395 -13.465  0.00  0.00     0.061 C 
ATOM      5  C   UNL d   1       8.287   3.494 -14.134  0.00  0.00    -0.023 A 
ATOM      6  C   UNL d   1       9.630   3.898 -14.127  0.00  0.00     0.009 A 
ATOM      7  C   UNL d   1      10.616   3.111 -14.730  0.00  0.00     0.083 A 
ATOM      8 CL   UNL d   1      12.227   3.719 -14.744  0.00  0.00    -0.080 Cl
ATOM      9  C   UNL d   1      10.269   1.879 -15.329  0.00  0.00     0.141 A 
ATOM     10  O   UNL d   1      11.204   1.089 -15.923  0.00  0.00    -0.189 OA
ATOM     11  C   UNL d   1       8.930   1.464 -15.336  0.00  0.00     0.024 A 
ATOM     12  C   UNL d   1       7.926   2.270 -14.755  0.00  0.00    -0.018 A 
ATOM     13  C   UNL d   1       6.462   1.857 -14.822  0.00  0.00     0.075 C 
ATOM     14  C   UNL d   1       6.174   0.787 -15.881  0.00  0.00    -0.018 A 
ATOM     15  C   UNL d   1       6.365   1.078 -17.252  0.00  0.00    -0.004 A 
ATOM     16  C   UNL d   1       6.099   0.111 -18.244  0.00  0.00     0.002 A 
ATOM     17  C   UNL d   1       5.651  -1.164 -17.872  0.00  0.00     0.027 A 
ATOM     18  C   UNL d   1       5.454  -1.478 -16.512  0.00  0.00     0.127 A 
ATOM     19  O   UNL d   1       5.068  -2.732 -16.154  0.00  0.00    -0.191 OA
ATOM     20  C   UNL d   1       5.687  -0.494 -15.520  0.00  0.00    -0.000 A 
ATOM     21  C   UNL d   1       5.365  -0.795 -14.071  0.00  0.00     0.030 C 
ATOM     22  C   UNL d   1       4.815   0.451 -13.361  0.00  0.00     0.039 C 
ATOM     23  C   UNL d   1       5.864   1.554 -13.421  0.00  0.00     0.228 C 
ENDROOT
TORSDOF 0
