REMARK  6 active torsions:
REMARK  status: ('A' for Active; 'I' for Inactive)
REMARK    1  A    between atoms: O_2  and  N_3 
REMARK    2  A    between atoms: C_4  and  C_5 
REMARK    3  A    between atoms: C_4  and  C_19 
REMARK    4  A    between atoms: C_5  and  C_6 
REMARK    5  A    between atoms: C_6  and  N_7 
REMARK    6  A    between atoms: N_10  and  C_11 
ROOT
ATOM      1  C   UNL d   1       7.613   2.025 -14.543  0.00  0.00     0.257 C 
ENDROOT
BRANCH   1   2
ATOM      2  C   UNL d   1       7.311   0.496 -14.467  0.00  0.00     0.083 C 
BRANCH   2   3
ATOM      3  C   UNL d   1       5.822   0.140 -14.667  0.00  0.00     0.087 C 
ATOM      4  N   UNL d   1       4.944   0.294 -13.751  0.00  0.00    -0.136 NA
BRANCH   4   5
ATOM      5  O   UNL d   1       5.457   0.819 -12.556  0.00  0.00    -0.234 OA
ATOM      6  C   UNL d   1       5.171   2.226 -12.514  0.00  0.00     0.211 C 
ENDBRANCH   4   5
BRANCH   3   7
ATOM      7  C   UNL d   1       5.441  -0.418 -15.991  0.00  0.00     0.016 A 
ATOM      8  C   UNL d   1       6.191  -0.127 -17.157  0.00  0.00     0.002 A 
ATOM      9  C   UNL d   1       5.832  -0.670 -18.404  0.00  0.00     0.011 A 
ATOM     10  C   UNL d   1       4.699  -1.496 -18.509  0.00  0.00     0.058 A 
ATOM     11  C   UNL d   1       3.928  -1.770 -17.369  0.00  0.00     0.011 A 
ATOM     12 CL   UNL d   1       4.260  -2.167 -20.034  0.00  0.00    -0.082 Cl
ATOM     13  C   UNL d   1       4.293  -1.237 -16.120  0.00  0.00     0.002 A 
ENDBRANCH   3   7
ENDBRANCH   2   3
ENDBRANCH   1   2
BRANCH   1  14
ATOM     14  N   UNL d   1       9.024   2.335 -14.457  0.00  0.00     0.141 N 
ATOM     15  C   UNL d   1       9.143   3.767 -14.116  0.00  0.00     0.274 C 
ATOM     16  C   UNL d   1      10.619   4.133 -13.966  0.00  0.00     0.138 C 
ATOM     17  N   UNL d   1      11.336   3.755 -15.171  0.00  0.00    -0.330 N 
ATOM     18  C   UNL d   1      11.149   2.384 -15.620  0.00  0.00     0.138 C 
ATOM     19  C   UNL d   1       9.659   2.080 -15.752  0.00  0.00     0.274 C 
BRANCH  17  20
ATOM     20  C   UNL d   1      12.146   4.673 -15.889  0.00  0.00     0.140 A 
ATOM     21  N   UNL d   1      11.951   5.982 -15.638  0.00  0.00    -0.227 NA
ATOM     22  C   UNL d   1      12.705   6.887 -16.306  0.00  0.00     0.101 A 
ATOM     23  C   UNL d   1      13.695   6.523 -17.233  0.00  0.00     0.021 A 
ATOM     24  C   UNL d   1      13.903   5.159 -17.486  0.00  0.00     0.005 A 
ATOM     25  C   UNL d   1      13.111   4.216 -16.799  0.00  0.00     0.037 A 
ENDBRANCH  17  20
ENDBRANCH   1  14
TORSDOF 6
