REMARK  7 active torsions:
REMARK  status: ('A' for Active; 'I' for Inactive)
REMARK    1  A    between atoms: O_2  and  C_3 
REMARK    2  A    between atoms: C_8  and  N_9 
REMARK    3  A    between atoms: N_12  and  C_13 
REMARK    4  A    between atoms: C_13  and  C_14 
REMARK    5  A    between atoms: C_18  and  O_19 
REMARK    6  A    between atoms: O_19  and  C_20 
REMARK    7  A    between atoms: C_20  and  C_21 
ROOT
ATOM      1  N   UNL d   1      11.397   7.154  -7.254  0.00  0.00    -0.343 N 
ATOM      2  C   UNL d   1      12.091   7.848  -8.335  0.00  0.00     0.137 C 
ATOM      3  C   UNL d   1      11.073   8.214  -9.443  0.00  0.00     0.275 C 
ATOM      4  N   UNL d   1      10.368   7.019  -9.941  0.00  0.00     0.145 N 
ATOM      5  C   UNL d   1       9.614   6.438  -8.821  0.00  0.00     0.275 C 
ATOM      6  C   UNL d   1      10.548   6.032  -7.661  0.00  0.00     0.137 C 
ENDROOT
BRANCH   4   7
ATOM      7  C   UNL d   1       9.490   7.369 -11.050  0.00  0.00     0.277 C 
BRANCH   7   8
ATOM      8  C   UNL d   1       8.839   6.189 -11.769  0.00  0.00     0.013 A 
ATOM      9  C   UNL d   1       9.619   5.258 -12.491  0.00  0.00     0.022 A 
ATOM     10  C   UNL d   1       9.031   4.167 -13.169  0.00  0.00     0.094 A 
ATOM     11  C   UNL d   1       7.615   4.030 -13.161  0.00  0.00     0.024 A 
ATOM     12  C   UNL d   1       6.839   4.947 -12.436  0.00  0.00     0.002 A 
ATOM     13  C   UNL d   1       7.443   6.000 -11.742  0.00  0.00    -0.002 A 
BRANCH  10  14
ATOM     14  O   UNL d   1       9.892   3.291 -13.792  0.00  0.00    -0.328 OA
BRANCH  14  15
ATOM     15  C   UNL d   1       9.328   2.152 -14.406  0.00  0.00     0.187 C 
BRANCH  15  16
ATOM     16  C   UNL d   1      10.359   1.144 -14.893  0.00  0.00     0.226 C 
ATOM     17  F   UNL d   1       9.706   0.085 -15.376  0.00  0.00    -0.232 F 
ENDBRANCH  15  16
ENDBRANCH  14  15
ENDBRANCH  10  14
ENDBRANCH   7   8
ENDBRANCH   4   7
BRANCH   1  18
ATOM     18  C   UNL d   1      11.438   7.585  -5.902  0.00  0.00     0.079 A 
ATOM     19  C   UNL d   1      11.358   8.942  -5.536  0.00  0.00     0.110 A 
ATOM     20  C   UNL d   1      11.522   9.296  -4.162  0.00  0.00     0.026 A 
ATOM     21  C   UNL d   1      11.713   8.326  -3.160  0.00  0.00     0.002 A 
ATOM     22  C   UNL d   1      11.724   6.972  -3.537  0.00  0.00     0.002 A 
ATOM     23  C   UNL d   1      11.596   6.625  -4.895  0.00  0.00     0.019 A 
BRANCH  19  24
ATOM     24  O   UNL d   1      11.102   9.867  -6.522  0.00  0.00    -0.327 OA
ATOM     25  C   UNL d   1      11.665  11.133  -6.286  0.00  0.00     0.181 C 
ENDBRANCH  19  24
ENDBRANCH   1  18
TORSDOF 7
