REMARK  8 active torsions:
REMARK  status: ('A' for Active; 'I' for Inactive)
REMARK    1  A    between atoms: O_2  and  C_3 
REMARK    2  A    between atoms: N_16  and  C_17 
REMARK    3  A    between atoms: C_17  and  C_18 
REMARK    4  A    between atoms: C_18  and  C_19 
REMARK    5  A    between atoms: C_19  and  C_20 
REMARK    6  A    between atoms: C_20  and  N_21 
REMARK       I    between atoms: N_21  and  C_22 
REMARK    7  A    between atoms: C_22  and  C_24 
REMARK    8  A    between atoms: C_27  and  C_28 
ROOT
ATOM      1  C   UNL d   1       5.733   1.704 -12.896  0.00  0.00     0.037 C 
ENDROOT
BRANCH   1   2
ATOM      2  C   UNL d   1       6.182   1.595 -14.361  0.00  0.00     0.250 C 
BRANCH   2   3
ATOM      3  N   UNL d   1       5.878   0.294 -14.992  0.00  0.00     0.135 N 
ATOM      4  C   UNL d   1       6.199   0.300 -16.441  0.00  0.00     0.224 C 
ATOM      5  C   UNL d   1       7.690   0.673 -16.699  0.00  0.00     0.038 C 
ATOM      6  C   UNL d   1       5.830  -1.045 -17.128  0.00  0.00     0.053 C 
ATOM      7  C   UNL d   1       8.370   0.004 -17.915  0.00  0.00     0.030 C 
ATOM      8  C   UNL d   1       7.407  -0.450 -19.004  0.00  0.00    -0.004 A 
ATOM      9  C   UNL d   1       7.766  -0.376 -20.372  0.00  0.00     0.090 A 
ATOM     10  C   UNL d   1       6.161  -0.992 -18.617  0.00  0.00    -0.023 A 
ATOM     11  C   UNL d   1       6.847  -0.847 -21.344  0.00  0.00     0.024 A 
ATOM     12  C   UNL d   1       5.610  -1.392 -20.957  0.00  0.00     0.002 A 
ATOM     13  C   UNL d   1       5.268  -1.471 -19.600  0.00  0.00    -0.004 A 
ATOM     14  C   UNL d   1       4.391  -1.492 -16.817  0.00  0.00     0.008 C 
ATOM     15  C   UNL d   1       4.175  -1.467 -15.315  0.00  0.00     0.036 C 
ATOM     16  C   UNL d   1       4.475  -0.078 -14.761  0.00  0.00     0.250 C 
BRANCH   9  17
ATOM     17  O   UNL d   1       9.001   0.153 -20.689  0.00  0.00    -0.328 OA
ATOM     18  C   UNL d   1       9.379   0.210 -22.056  0.00  0.00     0.181 C 
ENDBRANCH   9  17
ENDBRANCH   2   3
ENDBRANCH   1   2
BRANCH   1  19
ATOM     19  C   UNL d   1       5.888   3.134 -12.331  0.00  0.00     0.029 C 
BRANCH  19  20
ATOM     20  C   UNL d   1       7.134   3.890 -12.819  0.00  0.00     0.129 C 
BRANCH  20  21
ATOM     21  N   UNL d   1       7.620   4.791 -11.795  0.00  0.00    -0.234 NA
ATOM     22  C   UNL d   1       8.830   5.368 -11.873  0.00  0.00     0.275 C 
ATOM     23  O   UNL d   1       9.534   5.359 -12.879  0.00  0.00    -0.266 OA
BRANCH  22  24
ATOM     24  C   UNL d   1       9.290   6.007 -10.605  0.00  0.00     0.058 A 
ATOM     25  C   UNL d   1       9.044   5.411  -9.355  0.00  0.00     0.005 A 
ATOM     26  C   UNL d   1       9.504   6.035  -8.180  0.00  0.00     0.000 A 
ATOM     27  C   UNL d   1      10.243   7.242  -8.226  0.00  0.00     0.000 A 
ATOM     28  C   UNL d   1      10.488   7.816  -9.489  0.00  0.00     0.000 A 
ATOM     29  C   UNL d   1      10.001   7.218 -10.666  0.00  0.00     0.005 A 
BRANCH  27  30
ATOM     30  C   UNL d   1      10.735   7.876  -6.979  0.00  0.00     0.000 A 
ATOM     31  C   UNL d   1      11.025   7.112  -5.826  0.00  0.00     0.000 A 
ATOM     32  C   UNL d   1      11.476   7.723  -4.641  0.00  0.00     0.000 A 
ATOM     33  C   UNL d   1      11.660   9.117  -4.588  0.00  0.00     0.000 A 
ATOM     34  C   UNL d   1      11.382   9.894  -5.726  0.00  0.00     0.000 A 
ATOM     35  C   UNL d   1      10.923   9.274  -6.905  0.00  0.00     0.000 A 
ENDBRANCH  27  30
ENDBRANCH  22  24
ENDBRANCH  20  21
ENDBRANCH  19  20
ENDBRANCH   1  19
TORSDOF 8
