REMARK  6 active torsions:
REMARK  status: ('A' for Active; 'I' for Inactive)
REMARK    1  A    between atoms: N_11  and  C_12 
REMARK    2  A    between atoms: C_12  and  C_13 
REMARK    3  A    between atoms: C_13  and  C_14 
REMARK    4  A    between atoms: C_14  and  C_15 
REMARK    5  A    between atoms: C_15  and  N_16 
REMARK    6  A    between atoms: N_19  and  C_20 
ROOT
ATOM      1  C   UNL d   1       8.476   6.340 -11.572  0.00  0.00     0.037 C 
ENDROOT
BRANCH   1   2
ATOM      2  C   UNL d   1       8.589   5.540 -12.878  0.00  0.00     0.027 C 
BRANCH   2   3
ATOM      3  C   UNL d   1       8.925   4.051 -12.637  0.00  0.00     0.111 C 
BRANCH   3   4
ATOM      4  N   UNL d   1       9.154   3.318 -13.888  0.00  0.00    -0.279 N 
ATOM      5  C   UNL d   1      10.376   3.327 -14.488  0.00  0.00     0.263 A 
ATOM      6  O   UNL d   1      11.350   3.947 -14.054  0.00  0.00    -0.267 OA
ATOM      7  C   UNL d   1      10.472   2.532 -15.757  0.00  0.00     0.074 A 
ATOM      8  C   UNL d   1       9.312   1.877 -16.235  0.00  0.00     0.088 A 
ATOM      9  C   UNL d   1      11.685   2.438 -16.476  0.00  0.00     0.006 A 
ATOM     10  C   UNL d   1       9.376   1.131 -17.427  0.00  0.00     0.019 A 
ATOM     11  N   UNL d   1       8.091   1.958 -15.544  0.00  0.00    -0.225 NA
ATOM     12  C   UNL d   1      10.586   1.036 -18.142  0.00  0.00     0.002 A 
ATOM     13  C   UNL d   1      11.739   1.689 -17.667  0.00  0.00     0.000 A 
ATOM     14  C   UNL d   1       8.050   2.639 -14.443  0.00  0.00     0.181 A 
ENDBRANCH   3   4
ENDBRANCH   2   3
ENDBRANCH   1   2
BRANCH   1  15
ATOM     15  C   UNL d   1       9.819   6.511 -10.840  0.00  0.00     0.251 C 
BRANCH  15  16
ATOM     16  N   UNL d   1       9.767   7.453  -9.721  0.00  0.00     0.141 N 
ATOM     17  C   UNL d   1      11.095   7.982  -9.378  0.00  0.00     0.274 C 
ATOM     18  C   UNL d   1      10.975   8.980  -8.215  0.00  0.00     0.137 C 
ATOM     19  N   UNL d   1      10.252   8.401  -7.089  0.00  0.00    -0.344 N 
ATOM     20  C   UNL d   1       8.992   7.750  -7.397  0.00  0.00     0.137 C 
ATOM     21  C   UNL d   1       9.164   6.779  -8.582  0.00  0.00     0.274 C 
BRANCH  19  22
ATOM     22  C   UNL d   1      10.827   8.328  -5.824  0.00  0.00     0.056 A 
ATOM     23  C   UNL d   1      11.074   7.087  -5.208  0.00  0.00     0.018 A 
ATOM     24  C   UNL d   1      11.670   7.033  -3.919  0.00  0.00     0.013 A 
ATOM     25  C   UNL d   1      11.973   8.239  -3.248  0.00  0.00     0.058 A 
ATOM     26  C   UNL d   1      11.703   9.473  -3.853  0.00  0.00     0.013 A 
ATOM     27 CL   UNL d   1      12.638   8.243  -1.667  0.00  0.00    -0.082 Cl
ATOM     28  C   UNL d   1      11.148   9.519  -5.151  0.00  0.00     0.018 A 
ENDBRANCH  19  22
ENDBRANCH  15  16
ENDBRANCH   1  15
TORSDOF 6
