REMARK  3 active torsions:
REMARK  status: ('A' for Active; 'I' for Inactive)
REMARK    1  A    between atoms: C_2  and  C_3 
REMARK    2  A    between atoms: C_3  and  N_4 
REMARK    3  A    between atoms: C_7  and  C_8 
ROOT
ATOM      1  N   UNL d   1       5.816  -0.910 -16.401  0.00  0.00     0.137 N 
ATOM      2  C   UNL d   1       5.634  -0.810 -14.949  0.00  0.00     0.251 C 
ATOM      3  C   UNL d   1       6.713   0.110 -14.326  0.00  0.00     0.040 C 
ATOM      4  C   UNL d   1       6.687   1.496 -14.979  0.00  0.00     0.027 C 
ATOM      5  C   UNL d   1       6.745   1.363 -16.505  0.00  0.00     0.040 C 
ATOM      6  C   UNL d   1       5.649   0.410 -17.008  0.00  0.00     0.251 C 
ENDROOT
BRANCH   4   7
ATOM      7  C   UNL d   1       7.814   2.390 -14.468  0.00  0.00    -0.015 A 
ATOM      8  C   UNL d   1       7.638   3.560 -13.644  0.00  0.00     0.003 A 
ATOM      9  C   UNL d   1       8.895   4.184 -13.327  0.00  0.00     0.029 A 
ATOM     10  C   UNL d   1       6.473   4.174 -13.100  0.00  0.00     0.000 A 
ATOM     11  S   UNL d   1      10.233   3.317 -14.059  0.00  0.00    -0.087 SA
ATOM     12  C   UNL d   1       8.973   5.331 -12.520  0.00  0.00     0.006 A 
ATOM     13  C   UNL d   1       9.123   2.169 -14.762  0.00  0.00     0.031 A 
ATOM     14  C   UNL d   1       7.795   5.904 -12.007  0.00  0.00     0.001 A 
ATOM     15  C   UNL d   1       6.548   5.324 -12.292  0.00  0.00     0.000 A 
ENDBRANCH   4   7
BRANCH   1  16
ATOM     16  C   UNL d   1       4.837  -1.865 -16.961  0.00  0.00     0.250 C 
BRANCH  16  17
ATOM     17  C   UNL d   1       5.409  -2.643 -18.163  0.00  0.00     0.035 C 
ATOM     18  C   UNL d   1       5.454  -1.887 -19.502  0.00  0.00     0.002 C 
ENDBRANCH  16  17
ENDBRANCH   1  16
TORSDOF 3
