REMARK  4 active torsions:
REMARK  status: ('A' for Active; 'I' for Inactive)
REMARK    1  A    between atoms: C_8  and  N_9 
REMARK    2  A    between atoms: N_12  and  C_13 
REMARK    3  A    between atoms: C_13  and  C_14 
REMARK    4  A    between atoms: C_16  and  C_17 
ROOT
ATOM      1  N   UNL d   1       8.651   5.444 -11.971  0.00  0.00    -0.343 N 
ATOM      2  C   UNL d   1       7.623   4.580 -12.578  0.00  0.00     0.137 C 
ATOM      3  C   UNL d   1       8.303   3.617 -13.575  0.00  0.00     0.275 C 
ATOM      4  N   UNL d   1       9.035   4.358 -14.611  0.00  0.00     0.147 N 
ATOM      5  C   UNL d   1      10.077   5.135 -13.943  0.00  0.00     0.275 C 
ATOM      6  C   UNL d   1       9.432   6.125 -12.971  0.00  0.00     0.137 C 
ENDROOT
BRANCH   4   7
ATOM      7  C   UNL d   1       9.644   3.421 -15.545  0.00  0.00     0.296 C 
BRANCH   7   8
ATOM      8  C   UNL d   1      10.406   4.098 -16.669  0.00  0.00     0.092 A 
ATOM      9  N   UNL d   1      11.717   3.800 -16.754  0.00  0.00    -0.246 NA
ATOM     10  C   UNL d   1      12.426   4.400 -17.726  0.00  0.00     0.099 A 
ATOM     11  C   UNL d   1      11.871   5.313 -18.643  0.00  0.00     0.021 A 
ATOM     12  C   UNL d   1      10.500   5.649 -18.551  0.00  0.00     0.003 A 
ATOM     13  C   UNL d   1       9.764   5.015 -17.525  0.00  0.00     0.017 A 
BRANCH  12  14
ATOM     14  C   UNL d   1       9.867   6.611 -19.483  0.00  0.00     0.000 A 
ATOM     15  C   UNL d   1      10.627   7.612 -20.133  0.00  0.00     0.002 A 
ATOM     16  C   UNL d   1      10.027   8.513 -21.032  0.00  0.00     0.030 A 
ATOM     17  C   UNL d   1       8.646   8.441 -21.288  0.00  0.00     0.140 A 
ATOM     18  C   UNL d   1       7.870   7.460 -20.649  0.00  0.00     0.030 A 
ATOM     19  F   UNL d   1       8.065   9.319 -22.139  0.00  0.00    -0.204 F 
ATOM     20  C   UNL d   1       8.480   6.554 -19.761  0.00  0.00     0.002 A 
ENDBRANCH  12  14
ENDBRANCH   7   8
ENDBRANCH   4   7
BRANCH   1  21
ATOM     21  C   UNL d   1       8.851   5.686 -10.606  0.00  0.00     0.081 A 
ATOM     22  C   UNL d   1       8.297   4.799  -9.677  0.00  0.00     0.019 A 
ATOM     23  C   UNL d   1       8.465   4.947  -8.310  0.00  0.00     0.003 A 
ATOM     24  C   UNL d   1       9.192   6.009  -7.757  0.00  0.00     0.021 A 
ATOM     25  C   UNL d   1       9.755   6.945  -8.638  0.00  0.00     0.110 A 
ATOM     26  N   UNL d   1      10.521   8.063  -8.384  0.00  0.00    -0.196 NA
ATOM     27  C   UNL d   1       9.570   6.777 -10.031  0.00  0.00     0.137 A 
ATOM     28  C   UNL d   1      10.726   8.527  -9.611  0.00  0.00     0.323 A 
ATOM     29  O   UNL d   1      11.468   9.600  -9.948  0.00  0.00    -0.141 OA
ATOM     30  O   UNL d   1      10.172   7.850 -10.654  0.00  0.00    -0.266 OA
ENDBRANCH   1  21
TORSDOF 4
