REMARK  8 active torsions:
REMARK  status: ('A' for Active; 'I' for Inactive)
REMARK    1  A    between atoms: O_2  and  C_3 
REMARK    2  A    between atoms: C_8  and  C_9 
REMARK    3  A    between atoms: C_11  and  C_12 
REMARK    4  A    between atoms: C_12  and  N_13 
REMARK    5  A    between atoms: N_13  and  C_14 
REMARK    6  A    between atoms: C_14  and  C_15 
REMARK    7  A    between atoms: C_15  and  C_16 
REMARK    8  A    between atoms: C_19  and  N_20 
REMARK       I    between atoms: N_20  and  C_21 
REMARK       I    between atoms: C_21  and  N_23 
ROOT
ATOM      1  C   UNL d   1       8.547   5.306 -11.863  0.00  0.00     0.038 C 
ENDROOT
BRANCH   1   2
ATOM      2  C   UNL d   1       9.066   4.976 -10.462  0.00  0.00     0.290 C 
BRANCH   2   3
ATOM      3  N   UNL d   1       9.395   6.225  -9.816  0.00  0.00     0.339 N 
BRANCH   3   4
ATOM      4  C   UNL d   1       9.963   5.962  -8.511  0.00  0.00     0.290 C 
BRANCH   4   5
ATOM      5  C   UNL d   1      10.431   7.281  -7.958  0.00  0.00     0.041 A 
ATOM      6  C   UNL d   1      11.482   7.277  -6.865  0.00  0.00     0.026 A 
ATOM      7  C   UNL d   1      11.826   7.817  -8.231  0.00  0.00     0.007 A 
BRANCH   6   8
ATOM      8  C   UNL d   1      11.358   8.202  -5.696  0.00  0.00    -0.000 A 
ATOM      9  C   UNL d   1      11.764   7.810  -4.396  0.00  0.00     0.090 A 
ATOM     10  C   UNL d   1      11.672   8.748  -3.349  0.00  0.00     0.024 A 
ATOM     11  C   UNL d   1      11.162  10.013  -3.614  0.00  0.00     0.002 A 
ATOM     12  C   UNL d   1      10.707  10.380  -4.889  0.00  0.00    -0.000 A 
ATOM     13  C   UNL d   1      10.836   9.484  -5.934  0.00  0.00    -0.002 A 
BRANCH   9  14
ATOM     14  O   UNL d   1      12.228   6.536  -4.164  0.00  0.00    -0.328 OA
ATOM     15  C   UNL d   1      12.644   6.220  -2.850  0.00  0.00     0.181 C 
ENDBRANCH   9  14
ENDBRANCH   6   8
ENDBRANCH   4   5
ENDBRANCH   3   4
ENDBRANCH   2   3
ENDBRANCH   1   2
BRANCH   1  16
ATOM     16  C   UNL d   1       8.064   4.043 -12.603  0.00  0.00     0.002 C 
ATOM     17  C   UNL d   1       9.233   3.201 -13.216  0.00  0.00     0.002 C 
ATOM     18  C   UNL d   1       8.817   1.976 -14.087  0.00  0.00     0.025 C 
ATOM     19  C   UNL d   1       7.771   2.384 -15.127  0.00  0.00     0.108 C 
ATOM     20  C   UNL d   1       6.602   3.136 -14.451  0.00  0.00     0.025 C 
ATOM     21  C   UNL d   1       7.064   4.382 -13.688  0.00  0.00     0.002 C 
BRANCH  19  22
ATOM     22  N   UNL d   1       7.271   1.217 -15.815  0.00  0.00    -0.221 NA
ATOM     23  C   UNL d   1       6.990   1.117 -17.113  0.00  0.00     0.342 C 
ATOM     24  O   UNL d   1       7.305   1.968 -17.953  0.00  0.00    -0.245 OA
ATOM     25  N   UNL d   1       6.343  -0.030 -17.437  0.00  0.00    -0.301 N 
ATOM     26  C   UNL d   1       5.688  -0.937 -16.491  0.00  0.00     0.106 C 
ATOM     27  C   UNL d   1       6.053  -0.424 -18.808  0.00  0.00     0.106 C 
ATOM     28  C   UNL d   1       5.237  -2.139 -17.319  0.00  0.00     0.026 C 
ATOM     29  C   UNL d   1       5.030  -1.564 -18.715  0.00  0.00     0.026 C 
ENDBRANCH  19  22
ENDBRANCH   1  16
TORSDOF 8
