REMARK  2 active torsions:
REMARK  status: ('A' for Active; 'I' for Inactive)
REMARK    1  A    between atoms: N_10  and  C_11 
REMARK    2  A    between atoms: N_14  and  C_15 
ROOT
ATOM      1  C   UNL d   1      11.178   7.679  -6.674  0.00  0.00     0.094 C 
ATOM      2  C   UNL d   1      11.483   8.415  -8.012  0.00  0.00     0.058 C 
ATOM      3  C   UNL d   1      11.111   7.609  -9.239  0.00  0.00     0.252 C 
ATOM      4  N   UNL d   1       9.726   7.105  -9.167  0.00  0.00     0.135 N 
ATOM      5  C   UNL d   1       9.504   6.327  -7.934  0.00  0.00     0.252 C 
ATOM      6  C   UNL d   1       9.746   7.153  -6.682  0.00  0.00     0.058 C 
ENDROOT
BRANCH   1   7
ATOM      7  N   UNL d   1      11.356   8.540  -5.503  0.00  0.00    -0.281 N 
ATOM      8  C   UNL d   1      11.066   9.854  -5.395  0.00  0.00     0.350 A 
ATOM      9  O   UNL d   1      10.721  10.608  -6.285  0.00  0.00    -0.244 OA
ATOM     10  N   UNL d   1      11.280  10.248  -4.144  0.00  0.00    -0.191 NA
ATOM     11  C   UNL d   1      11.824   9.202  -3.435  0.00  0.00     0.102 A 
ATOM     12  C   UNL d   1      11.824   8.104  -4.260  0.00  0.00     0.082 A 
ATOM     13  C   UNL d   1      12.259   9.172  -2.113  0.00  0.00     0.021 A 
ATOM     14  C   UNL d   1      12.193   6.833  -3.795  0.00  0.00     0.019 A 
ATOM     15  C   UNL d   1      12.616   6.763  -2.449  0.00  0.00     0.002 A 
ATOM     16  C   UNL d   1      12.667   7.921  -1.641  0.00  0.00     0.002 A 
ENDBRANCH   1   7
BRANCH   4  17
ATOM     17  C   UNL d   1       9.447   6.318 -10.383  0.00  0.00     0.219 C 
ATOM     18  C   UNL d   1       8.266   5.332 -10.214  0.00  0.00     0.033 C 
ATOM     19  C   UNL d   1       7.922   4.556 -11.480  0.00  0.00     0.002 C 
ATOM     20  C   UNL d   1       7.638   5.491 -12.632  0.00  0.00     0.000 C 
ATOM     21  C   UNL d   1       8.815   6.442 -12.832  0.00  0.00     0.002 C 
ATOM     22  C   UNL d   1       9.159   7.252 -11.577  0.00  0.00     0.033 C 
ENDBRANCH   4  17
TORSDOF 2
