REMARK  5 active torsions:
REMARK  status: ('A' for Active; 'I' for Inactive)
REMARK    1  A    between atoms: C_5  and  C_6 
REMARK    2  A    between atoms: C_8  and  C_9 
REMARK    3  A    between atoms: C_9  and  N_10 
REMARK    4  A    between atoms: N_10  and  C_12 
REMARK    5  A    between atoms: C_12  and  C_13 
ROOT
ATOM      1  C   UNL d   1       9.138   4.340 -14.568  0.00  0.00     0.297 C 
ENDROOT
BRANCH   1   2
ATOM      2  C   UNL d   1       8.821   4.816 -13.179  0.00  0.00     0.113 A 
ATOM      3  N   UNL d   1       9.737   5.520 -12.410  0.00  0.00    -0.222 NA
ATOM      4  C   UNL d   1       9.112   5.749 -11.254  0.00  0.00     0.188 A 
ATOM      5  O   UNL d   1       7.838   5.274 -11.230  0.00  0.00    -0.292 OA
ATOM      6  C   UNL d   1       7.659   4.704 -12.460  0.00  0.00     0.095 A 
ATOM      7  C   UNL d   1       6.325   4.103 -12.748  0.00  0.00     0.060 C 
BRANCH   4   8
ATOM      8  C   UNL d   1       9.601   6.454 -10.075  0.00  0.00     0.070 A 
ATOM      9  C   UNL d   1      10.465   7.515  -9.993  0.00  0.00     0.010 A 
ATOM     10  C   UNL d   1      10.707   7.934  -8.652  0.00  0.00     0.003 A 
ATOM     11  C   UNL d   1      10.028   7.188  -7.726  0.00  0.00     0.008 A 
ATOM     12  C   UNL d   1      10.031   7.340  -6.245  0.00  0.00     0.038 C 
ATOM     13  S   UNL d   1       9.060   5.956  -8.495  0.00  0.00    -0.088 SA
ENDBRANCH   4   8
ENDBRANCH   1   2
BRANCH   1  14
ATOM     14  N   UNL d   1      10.443   3.751 -14.874  0.00  0.00     0.148 N 
ATOM     15  C   UNL d   1      10.561   2.464 -14.192  0.00  0.00     0.286 C 
BRANCH  14  16
ATOM     16  C   UNL d   1      10.566   3.582 -16.323  0.00  0.00     0.281 C 
BRANCH  16  17
ATOM     17  C   UNL d   1      11.951   3.052 -16.755  0.00  0.00     0.159 A 
ATOM     18  O   UNL d   1      11.870   1.617 -16.865  0.00  0.00    -0.331 OA
ATOM     19  C   UNL d   1      12.212   1.258 -18.137  0.00  0.00     0.090 A 
ATOM     20  C   UNL d   1      12.553   2.341 -18.927  0.00  0.00     0.003 A 
ATOM     21  C   UNL d   1      12.242  -0.048 -18.659  0.00  0.00     0.024 A 
ATOM     22  C   UNL d   1      12.415   3.592 -18.134  0.00  0.00     0.060 A 
ATOM     23  C   UNL d   1      12.948   2.197 -20.267  0.00  0.00    -0.002 A 
ATOM     24  C   UNL d   1      12.989   0.890 -20.805  0.00  0.00    -0.000 A 
ATOM     25  C   UNL d   1      12.638  -0.224 -20.004  0.00  0.00     0.002 A 
ENDBRANCH  16  17
ENDBRANCH  14  16
ENDBRANCH   1  14
TORSDOF 5
