REMARK  1 active torsions:
REMARK  status: ('A' for Active; 'I' for Inactive)
REMARK    1  A    between atoms: C_15  and  C_16 
ROOT
ATOM      1  C   UNL d   1       7.766   7.278 -12.822  0.00  0.00     0.285 C 
ATOM      2  N   UNL d   1       7.736   5.849 -12.558  0.00  0.00     0.140 N 
ATOM      3  C   UNL d   1       6.389   5.504 -12.142  0.00  0.00     0.255 C 
ATOM      4  C   UNL d   1       6.365   4.059 -11.694  0.00  0.00     0.061 C 
ATOM      5  C   UNL d   1       6.235   3.075 -12.825  0.00  0.00    -0.022 C 
ATOM      6  C   UNL d   1       5.140   2.198 -12.744  0.00  0.00     0.022 C 
ATOM      7  C   UNL d   1       5.100   1.056 -13.555  0.00  0.00     0.122 C 
ATOM      8  O   UNL d   1       4.115   0.142 -13.668  0.00  0.00    -0.256 OA
ATOM      9  C   UNL d   1       4.285  -0.510 -14.871  0.00  0.00     0.392 C 
ATOM     10  O   UNL d   1       3.482  -1.262 -15.426  0.00  0.00    -0.236 OA
ATOM     11  N   UNL d   1       5.521  -0.094 -15.364  0.00  0.00    -0.184 NA
ATOM     12  C   UNL d   1       6.017   0.931 -14.574  0.00  0.00     0.109 C 
ATOM     13  C   UNL d   1       7.085   1.821 -14.740  0.00  0.00     0.017 C 
ATOM     14  C   UNL d   1       7.257   2.855 -13.777  0.00  0.00    -0.019 C 
ATOM     15  C   UNL d   1       8.553   3.661 -13.657  0.00  0.00     0.078 C 
ATOM     16  C   UNL d   1       8.272   5.161 -13.733  0.00  0.00     0.259 C 
ENDROOT
BRANCH  15  17
ATOM     17  C   UNL d   1       9.609   3.220 -14.692  0.00  0.00    -0.017 A 
ATOM     18  C   UNL d   1      10.140   1.918 -14.559  0.00  0.00    -0.004 A 
ATOM     19  C   UNL d   1      11.065   1.433 -15.497  0.00  0.00    -0.000 A 
ATOM     20  C   UNL d   1      11.551   2.276 -16.513  0.00  0.00    -0.000 A 
ATOM     21  C   UNL d   1      11.034   3.574 -16.650  0.00  0.00    -0.000 A 
ATOM     22  C   UNL d   1      10.041   4.037 -15.775  0.00  0.00    -0.004 A 
ENDBRANCH  15  17
TORSDOF 1
