REMARK  4 active torsions:
REMARK  status: ('A' for Active; 'I' for Inactive)
REMARK    1  A    between atoms: C_2  and  N_3 
REMARK    2  A    between atoms: C_17  and  C_18 
REMARK       I    between atoms: C_18  and  N_20 
REMARK    3  A    between atoms: N_20  and  C_21 
REMARK    4  A    between atoms: C_21  and  C_23 
ROOT
ATOM      1  N   UNL d   1      12.546   5.505 -18.199  0.00  0.00    -0.295 N 
ATOM      2  C   UNL d   1      13.465   4.966 -19.052  0.00  0.00     0.261 C 
ATOM      3  O   UNL d   1      14.401   5.625 -19.539  0.00  0.00    -0.267 OA
ATOM      4  C   UNL d   1      13.459   3.490 -19.370  0.00  0.00     0.065 A 
ATOM      5  C   UNL d   1      14.680   2.791 -19.278  0.00  0.00     0.005 A 
ATOM      6  C   UNL d   1      14.771   1.438 -19.640  0.00  0.00     0.000 A 
ATOM      7  C   UNL d   1      13.630   0.767 -20.110  0.00  0.00     0.001 A 
ATOM      8  C   UNL d   1      12.409   1.451 -20.221  0.00  0.00     0.009 A 
ATOM      9  C   UNL d   1      12.326   2.807 -19.867  0.00  0.00     0.065 A 
ATOM     10  S   UNL d   1      10.764   3.691 -20.038  0.00  0.00     0.090 S 
ATOM     11  O   UNL d   1       9.726   2.614 -20.414  0.00  0.00    -0.247 OA
ATOM     12  C   UNL d   1      10.578   3.933 -18.262  0.00  0.00     0.076 A 
ATOM     13  C   UNL d   1       9.515   3.273 -17.599  0.00  0.00     0.011 A 
ATOM     14  C   UNL d   1       9.328   3.439 -16.222  0.00  0.00     0.005 A 
ATOM     15  C   UNL d   1      10.187   4.303 -15.509  0.00  0.00     0.059 A 
ATOM     16  C   UNL d   1      11.243   4.960 -16.172  0.00  0.00     0.023 A 
ATOM     17  C   UNL d   1      11.478   4.774 -17.561  0.00  0.00     0.071 A 
ENDROOT
BRANCH  15  18
ATOM     18  C   UNL d   1      10.018   4.510 -14.044  0.00  0.00     0.275 C 
ATOM     19  O   UNL d   1      11.006   4.531 -13.299  0.00  0.00    -0.266 OA
ATOM     20  N   UNL d   1       8.774   4.719 -13.630  0.00  0.00    -0.232 NA
BRANCH  20  21
ATOM     21  C   UNL d   1       8.295   4.614 -12.255  0.00  0.00     0.129 C 
ATOM     22  C   UNL d   1       6.763   4.679 -12.241  0.00  0.00     0.031 C 
BRANCH  21  23
ATOM     23  C   UNL d   1       8.894   5.635 -11.296  0.00  0.00    -0.000 A 
ATOM     24  C   UNL d   1       9.088   5.291  -9.941  0.00  0.00    -0.002 A 
ATOM     25  C   UNL d   1       9.666   6.216  -9.047  0.00  0.00     0.006 A 
ATOM     26  C   UNL d   1      10.050   7.493  -9.505  0.00  0.00     0.035 A 
ATOM     27  C   UNL d   1       9.857   7.841 -10.854  0.00  0.00     0.006 A 
ATOM     28 BR   UNL d   1      10.810   8.757  -8.303  0.00  0.00    -0.049 Br
ATOM     29  C   UNL d   1       9.265   6.922 -11.742  0.00  0.00    -0.002 A 
ENDBRANCH  21  23
ENDBRANCH  20  21
ENDBRANCH  15  18
BRANCH   1  30
ATOM     30  C   UNL d   1      12.779   6.893 -17.731  0.00  0.00     0.109 C 
ATOM     31  C   UNL d   1      13.921   6.994 -16.698  0.00  0.00     0.027 C 
ENDBRANCH   1  30
TORSDOF 4
