REMARK  8 active torsions:
REMARK  status: ('A' for Active; 'I' for Inactive)
REMARK    1  A    between atoms: C_2  and  C_3 
REMARK    2  A    between atoms: C_3  and  N_4 
REMARK    3  A    between atoms: N_4  and  C_5 
REMARK    4  A    between atoms: N_4  and  C_8 
REMARK    5  A    between atoms: C_5  and  C_6 
REMARK    6  A    between atoms: C_15  and  O_16 
REMARK    7  A    between atoms: O_16  and  S_17 
REMARK    8  A    between atoms: S_17  and  C_20 
ROOT
ATOM      1  C   UNL d   1       9.496   2.520 -16.198  0.00  0.00     0.224 C 
ATOM      2  C   UNL d   1       9.884   3.386 -14.944  0.00  0.00     0.038 C 
ATOM      3  C   UNL d   1       8.654   3.980 -14.245  0.00  0.00     0.028 C 
ATOM      4  C   UNL d   1       7.521   2.991 -14.062  0.00  0.00    -0.024 A 
ATOM      5  C   UNL d   1       6.494   3.312 -13.156  0.00  0.00    -0.004 A 
ATOM      6  C   UNL d   1       5.463   2.387 -12.909  0.00  0.00     0.002 A 
ATOM      7  C   UNL d   1       5.449   1.171 -13.604  0.00  0.00     0.025 A 
ATOM      8  C   UNL d   1       6.427   0.858 -14.552  0.00  0.00     0.109 A 
ATOM      9  C   UNL d   1       7.513   1.746 -14.764  0.00  0.00    -0.001 A 
ATOM     10  C   UNL d   1       8.641   1.335 -15.701  0.00  0.00     0.055 C 
ATOM     11  C   UNL d   1       9.498   0.234 -15.049  0.00  0.00     0.007 C 
ENDROOT
BRANCH   8  12
ATOM     12  O   UNL d   1       6.375  -0.339 -15.225  0.00  0.00    -0.225 OA
BRANCH  12  13
ATOM     13  S   UNL d   1       5.091  -0.569 -16.291  0.00  0.00     0.374 S 
ATOM     14  O   UNL d   1       3.854  -0.625 -15.473  0.00  0.00    -0.189 OA
ATOM     15  O   UNL d   1       5.251   0.390 -17.393  0.00  0.00    -0.189 OA
BRANCH  13  16
ATOM     16  C   UNL d   1       5.454  -2.267 -16.870  0.00  0.00     0.524 C 
ATOM     17  F   UNL d   1       4.433  -2.687 -17.611  0.00  0.00    -0.155 F 
ATOM     18  F   UNL d   1       6.562  -2.246 -17.618  0.00  0.00    -0.155 F 
ATOM     19  F   UNL d   1       5.565  -3.064 -15.806  0.00  0.00    -0.155 F 
ENDBRANCH  13  16
ENDBRANCH  12  13
ENDBRANCH   8  12
BRANCH   1  20
ATOM     20  N   UNL d   1      10.707   2.094 -16.950  0.00  0.00     0.135 N 
BRANCH  20  21
ATOM     21  C   UNL d   1      10.377   1.195 -18.082  0.00  0.00     0.250 C 
BRANCH  21  22
ATOM     22  C   UNL d   1      11.635   0.519 -18.642  0.00  0.00     0.035 C 
ATOM     23  C   UNL d   1      11.270  -0.462 -19.747  0.00  0.00     0.002 C 
ENDBRANCH  21  22
ENDBRANCH  20  21
BRANCH  20  24
ATOM     24  C   UNL d   1      11.482   3.265 -17.401  0.00  0.00     0.250 C 
BRANCH  24  25
ATOM     25  C   UNL d   1      10.672   4.239 -18.331  0.00  0.00     0.035 C 
ATOM     26  C   UNL d   1       9.776   5.273 -17.562  0.00  0.00     0.002 C 
ENDBRANCH  24  25
ENDBRANCH  20  24
ENDBRANCH   1  20
TORSDOF 8
