REMARK  6 active torsions:
REMARK  status: ('A' for Active; 'I' for Inactive)
REMARK       I    between atoms: C_2  and  N_3 
REMARK    1  A    between atoms: C_2  and  C_27 
REMARK    2  A    between atoms: N_3  and  C_4 
REMARK    3  A    between atoms: C_7  and  C_8 
REMARK    4  A    between atoms: C_8  and  C_9 
REMARK    5  A    between atoms: C_9  and  N_10 
REMARK    6  A    between atoms: N_13  and  C_14 
ROOT
ATOM      1  C   UNL d   1      10.376   3.860 -14.949  0.00  0.00     0.250 C 
ENDROOT
BRANCH   1   2
ATOM      2  C   UNL d   1       8.930   3.762 -14.455  0.00  0.00     0.035 C 
BRANCH   2   3
ATOM      3  C   UNL d   1       8.738   4.499 -13.109  0.00  0.00     0.002 C 
ATOM      4  C   UNL d   1       9.678   3.935 -12.042  0.00  0.00     0.002 C 
ATOM      5  C   UNL d   1       9.489   4.645 -10.675  0.00  0.00     0.024 C 
ATOM      6  C   UNL d   1       9.668   6.171 -10.803  0.00  0.00     0.106 C 
ATOM      7  C   UNL d   1       8.708   6.751 -11.842  0.00  0.00     0.024 C 
ATOM      8  C   UNL d   1       8.899   6.040 -13.187  0.00  0.00     0.002 C 
BRANCH   6   9
ATOM      9  N   UNL d   1       9.500   6.798  -9.496  0.00  0.00    -0.238 NA
ATOM     10  C   UNL d   1      10.397   7.580  -8.880  0.00  0.00     0.279 C 
ATOM     11  O   UNL d   1      11.443   7.962  -9.403  0.00  0.00    -0.268 OA
BRANCH  10  12
ATOM     12  C   UNL d   1      10.068   7.963  -7.408  0.00  0.00     0.198 C 
ATOM     13  C   UNL d   1      10.959   9.088  -6.831  0.00  0.00     0.040 C 
ATOM     14  C   UNL d   1      11.102   8.241  -5.569  0.00  0.00     0.006 C 
ATOM     15  C   UNL d   1      10.770   7.014  -6.420  0.00  0.00     0.040 C 
ATOM     16  O   UNL d   1       8.669   8.103  -7.248  0.00  0.00    -0.216 OA
ENDBRANCH  10  12
ENDBRANCH   6   9
ENDBRANCH   2   3
ENDBRANCH   1   2
BRANCH   1  17
ATOM     17  N   UNL d   1      10.475   3.976 -16.408  0.00  0.00     0.141 N 
ATOM     18  C   UNL d   1      11.669   3.280 -16.905  0.00  0.00     0.274 C 
ATOM     19  C   UNL d   1      12.970   3.973 -16.391  0.00  0.00     0.138 C 
ATOM     20  N   UNL d   1      12.931   5.388 -16.730  0.00  0.00    -0.330 N 
ATOM     21  C   UNL d   1      11.744   6.153 -16.350  0.00  0.00     0.138 C 
ATOM     22  C   UNL d   1      10.490   5.375 -16.869  0.00  0.00     0.274 C 
BRANCH  20  23
ATOM     23  C   UNL d   1      14.001   6.006 -17.405  0.00  0.00     0.138 A 
ATOM     24  C   UNL d   1      13.814   6.974 -18.414  0.00  0.00     0.036 A 
ATOM     25  C   UNL d   1      14.893   7.561 -19.024  0.00  0.00     0.095 A 
ATOM     26  C   UNL d   1      12.558   7.500 -19.053  0.00  0.00     0.064 C 
ATOM     27  C   UNL d   1      16.197   7.213 -18.637  0.00  0.00     0.045 A 
ATOM     28  O   UNL d   1      14.541   8.438 -20.017  0.00  0.00    -0.331 OA
ATOM     29  C   UNL d   1      16.312   6.228 -17.630  0.00  0.00     0.103 A 
ATOM     30  N   UNL d   1      15.255   5.634 -17.036  0.00  0.00    -0.228 NA
ATOM     31  C   UNL d   1      13.119   8.360 -20.187  0.00  0.00     0.154 C 
ENDBRANCH  20  23
ENDBRANCH   1  17
TORSDOF 6
