REMARK  9 active torsions:
REMARK  status: ('A' for Active; 'I' for Inactive)
REMARK    1  A    between atoms: O_2  and  C_3 
REMARK    2  A    between atoms: C_6  and  C_7 
REMARK    3  A    between atoms: C_7  and  C_8 
REMARK    4  A    between atoms: C_8  and  N_9 
REMARK    5  A    between atoms: C_14  and  C_15 
REMARK    6  A    between atoms: C_23  and  O_24 
REMARK    7  A    between atoms: O_24  and  C_25 
REMARK    8  A    between atoms: C_25  and  C_26 
REMARK    9  A    between atoms: C_26  and  C_27 
ROOT
ATOM      1  C   UNL d   1       7.278   2.489 -14.406  0.00  0.00     0.116 A 
ATOM      2  C   UNL d   1       6.243   2.802 -13.487  0.00  0.00     0.026 A 
ATOM      3  C   UNL d   1       6.390   3.855 -12.558  0.00  0.00    -0.002 A 
ATOM      4  C   UNL d   1       7.579   4.609 -12.544  0.00  0.00    -0.018 A 
ATOM      5  C   UNL d   1       8.602   4.322 -13.462  0.00  0.00     0.022 A 
ATOM      6  C   UNL d   1       8.473   3.255 -14.389  0.00  0.00     0.116 A 
ENDROOT
BRANCH   4   7
ATOM      7  C   UNL d   1       7.785   5.737 -11.550  0.00  0.00     0.062 C 
BRANCH   7   8
ATOM      8  C   UNL d   1       8.685   5.345 -10.361  0.00  0.00     0.258 C 
BRANCH   8   9
ATOM      9  N   UNL d   1       8.677   6.374  -9.312  0.00  0.00     0.159 N 
ATOM     10  C   UNL d   1       9.646   7.474  -9.405  0.00  0.00     0.314 C 
ATOM     11  C   UNL d   1      10.992   6.851  -9.163  0.00  0.00     0.061 A 
ATOM     12  O   UNL d   1       9.459   8.199 -10.591  0.00  0.00    -0.192 OA
ATOM     13  C   UNL d   1       9.394   8.275  -8.107  0.00  0.00     0.061 C 
ATOM     14  C   UNL d   1      11.681   7.613  -8.037  0.00  0.00     0.005 A 
ATOM     15  C   UNL d   1      10.650   5.737  -8.188  0.00  0.00     0.036 A 
ATOM     16  C   UNL d   1      11.334   6.489  -7.061  0.00  0.00     0.002 A 
ATOM     17  C   UNL d   1      10.266   7.104  -6.161  0.00  0.00     0.002 C 
ATOM     18  C   UNL d   1       9.037   7.125  -7.112  0.00  0.00     0.036 C 
ATOM     19  C   UNL d   1      10.647   8.583  -6.079  0.00  0.00     0.000 C 
ATOM     20  C   UNL d   1       9.144   5.876  -8.022  0.00  0.00     0.222 C 
ATOM     21  C   UNL d   1      10.777   8.757  -7.592  0.00  0.00     0.004 C 
ENDBRANCH   8   9
ENDBRANCH   7   8
ENDBRANCH   4   7
BRANCH   6  22
ATOM     22  O   UNL d   1       9.460   2.886 -15.278  0.00  0.00    -0.329 OA
BRANCH  22  23
ATOM     23  C   UNL d   1      10.714   3.567 -15.315  0.00  0.00     0.154 C 
BRANCH  23  24
ATOM     24  C   UNL d   1      10.713   4.595 -16.462  0.00  0.00     0.059 C 
BRANCH  24  25
ATOM     25  C   UNL d   1      12.082   5.231 -16.625  0.00  0.00    -0.020 A 
ATOM     26  C   UNL d   1      13.163   4.457 -17.098  0.00  0.00    -0.004 A 
ATOM     27  C   UNL d   1      14.438   5.035 -17.243  0.00  0.00    -0.000 A 
ATOM     28  C   UNL d   1      14.637   6.389 -16.916  0.00  0.00    -0.000 A 
ATOM     29  C   UNL d   1      13.562   7.165 -16.439  0.00  0.00    -0.000 A 
ATOM     30  C   UNL d   1      12.288   6.585 -16.289  0.00  0.00    -0.004 A 
ENDBRANCH  24  25
ENDBRANCH  23  24
ENDBRANCH  22  23
ENDBRANCH   6  22
BRANCH   1  31
ATOM     31  O   UNL d   1       7.188   1.463 -15.330  0.00  0.00    -0.326 OA
ATOM     32  C   UNL d   1       6.199   0.457 -15.136  0.00  0.00     0.181 C 
ENDBRANCH   1  31
TORSDOF 9
