REMARK  1 active torsions:
REMARK  status: ('A' for Active; 'I' for Inactive)
REMARK    1  A    between atoms: C_2  and  C_4 
ROOT
ATOM      1  C   UNL d   1      10.784   8.368  -8.450  0.00  0.00     0.038 C 
ATOM      2  C   UNL d   1       9.409   8.100  -7.823  0.00  0.00     0.185 C 
ATOM      3  O   UNL d   1       9.493   8.386  -6.440  0.00  0.00    -0.221 OA
ENDROOT
BRANCH   2   4
ATOM      4  C   UNL d   1       8.967   6.636  -8.005  0.00  0.00     0.215 C 
ATOM      5  O   UNL d   1       8.668   6.387  -9.361  0.00  0.00    -0.218 OA
ENDBRANCH   2   4
TORSDOF 1
