REMARK  6 active torsions:
REMARK  status: ('A' for Active; 'I' for Inactive)
REMARK    1  A    between atoms: S_2  and  N_5 
REMARK    2  A    between atoms: N_5  and  C_6 
REMARK    3  A    between atoms: C_9  and  C_10 
REMARK    4  A    between atoms: C_10  and  C_11 
REMARK    5  A    between atoms: C_11  and  N_12 
REMARK    6  A    between atoms: N_15  and  C_16 
ROOT
ATOM      1  N   UNL d   1       7.573   4.994 -13.090  0.00  0.00     0.141 N 
ATOM      2  C   UNL d   1       6.250   4.459 -13.426  0.00  0.00     0.274 C 
ATOM      3  C   UNL d   1       6.223   2.934 -13.450  0.00  0.00     0.138 C 
ATOM      4  N   UNL d   1       7.298   2.424 -14.318  0.00  0.00    -0.330 N 
ATOM      5  C   UNL d   1       8.643   2.983 -14.141  0.00  0.00     0.138 C 
ATOM      6  C   UNL d   1       8.559   4.529 -14.078  0.00  0.00     0.274 C 
ENDROOT
BRANCH   1   7
ATOM      7  C   UNL d   1       7.899   4.650 -11.713  0.00  0.00     0.250 C 
BRANCH   7   8
ATOM      8  C   UNL d   1       9.216   5.241 -11.235  0.00  0.00     0.035 C 
BRANCH   8   9
ATOM      9  C   UNL d   1       9.005   6.081  -9.988  0.00  0.00     0.002 C 
ATOM     10  C   UNL d   1       9.213   5.291  -8.691  0.00  0.00     0.002 C 
ATOM     11  C   UNL d   1       9.030   6.223  -7.485  0.00  0.00     0.025 C 
ATOM     12  C   UNL d   1       9.964   7.429  -7.572  0.00  0.00     0.116 C 
ATOM     13  C   UNL d   1       9.721   8.227  -8.847  0.00  0.00     0.025 C 
ATOM     14  C   UNL d   1       9.892   7.330 -10.071  0.00  0.00     0.002 C 
BRANCH  12  15
ATOM     15  N   UNL d   1       9.771   8.309  -6.430  0.00  0.00    -0.190 NA
BRANCH  15  16
ATOM     16  S   UNL d   1      11.118   8.850  -5.506  0.00  0.00     0.262 S 
ATOM     17  C   UNL d   1      12.143   9.631  -6.785  0.00  0.00     0.165 C 
ATOM     18  O   UNL d   1      11.808   7.661  -4.979  0.00  0.00    -0.203 OA
ATOM     19  O   UNL d   1      10.666   9.907  -4.595  0.00  0.00    -0.203 OA
ENDBRANCH  15  16
ENDBRANCH  12  15
ENDBRANCH   8   9
ENDBRANCH   7   8
ENDBRANCH   1   7
BRANCH   4  20
ATOM     20  C   UNL d   1       7.049   1.443 -15.296  0.00  0.00     0.142 A 
ATOM     21  C   UNL d   1       6.005   0.491 -15.171  0.00  0.00     0.059 A 
ATOM     22  C   UNL d   1       5.843  -0.425 -16.258  0.00  0.00     0.104 A 
ATOM     23  C   UNL d   1       4.976   0.123 -14.222  0.00  0.00     0.032 A 
ATOM     24  C   UNL d   1       6.676  -0.397 -17.377  0.00  0.00     0.045 A 
ATOM     25  O   UNL d   1       4.777  -1.259 -16.009  0.00  0.00    -0.305 OA
ATOM     26  C   UNL d   1       7.678   0.568 -17.398  0.00  0.00     0.103 A 
ATOM     27  N   UNL d   1       7.847   1.463 -16.395  0.00  0.00    -0.227 NA
ATOM     28  C   UNL d   1       4.265  -0.898 -14.792  0.00  0.00     0.123 A 
ENDBRANCH   4  20
TORSDOF 6
