REMARK  1 active torsions:
REMARK  status: ('A' for Active; 'I' for Inactive)
REMARK    1  A    between atoms: N_2  and  C_4 
ROOT
ATOM      1  C   UNL d   1      11.486   8.254  -5.134  0.00  0.00     0.246 C 
ATOM      2  C   UNL d   1      12.174   9.073  -6.258  0.00  0.00     0.063 C 
ATOM      3  C   UNL d   1      11.980   8.425  -7.586  0.00  0.00    -0.003 A 
ATOM      4  C   UNL d   1      12.838   8.531  -8.656  0.00  0.00    -0.003 A 
ATOM      5  C   UNL d   1      12.438   7.992  -9.886  0.00  0.00     0.001 A 
ATOM      6  C   UNL d   1      11.213   7.272  -9.960  0.00  0.00     0.021 A 
ATOM      7  C   UNL d   1      10.392   7.088  -8.884  0.00  0.00     0.101 A 
ATOM      8  N   UNL d   1       9.230   6.381  -8.784  0.00  0.00    -0.203 NA
ATOM      9  C   UNL d   1       8.978   6.623  -7.495  0.00  0.00     0.282 A 
ATOM     10  O   UNL d   1       7.854   6.284  -6.828  0.00  0.00    -0.149 OA
ATOM     11  N   UNL d   1       9.917   7.341  -6.833  0.00  0.00    -0.288 N 
ATOM     12  C   UNL d   1      10.795   7.666  -7.724  0.00  0.00     0.077 A 
ATOM     13  C   UNL d   1      10.033   7.902  -5.547  0.00  0.00     0.143 C 
ENDROOT
BRANCH   1  14
ATOM     14  N   UNL d   1      11.527   8.945  -3.844  0.00  0.00     0.141 N 
ATOM     15  C   UNL d   1      10.940  10.275  -3.839  0.00  0.00     0.285 C 
ATOM     16  C   UNL d   1      12.891   9.065  -3.352  0.00  0.00     0.285 C 
ENDBRANCH   1  14
TORSDOF 1
