REMARK  9 active torsions:
REMARK  status: ('A' for Active; 'I' for Inactive)
REMARK    1  A    between atoms: C_2  and  C_3 
REMARK    2  A    between atoms: N_5  and  C_6 
REMARK    3  A    between atoms: C_6  and  C_7 
REMARK    4  A    between atoms: C_7  and  C_8 
REMARK    5  A    between atoms: C_8  and  C_9 
REMARK    6  A    between atoms: C_9  and  N_10 
REMARK    7  A    between atoms: N_13  and  C_14 
REMARK    8  A    between atoms: C_16  and  C_17 
REMARK    9  A    between atoms: C_22  and  C_23 
ROOT
ATOM      1  N   UNL d   1       9.379   4.868 -11.528  0.00  0.00     0.141 N 
ATOM      2  C   UNL d   1       9.833   3.562 -12.002  0.00  0.00     0.274 C 
ATOM      3  C   UNL d   1      10.712   3.642 -13.259  0.00  0.00     0.138 C 
ATOM      4  N   UNL d   1       9.949   4.317 -14.287  0.00  0.00    -0.330 N 
ATOM      5  C   UNL d   1       9.338   5.568 -13.848  0.00  0.00     0.138 C 
ATOM      6  C   UNL d   1       8.513   5.402 -12.582  0.00  0.00     0.274 C 
ENDROOT
BRANCH   1   7
ATOM      7  C   UNL d   1       8.630   4.671 -10.298  0.00  0.00     0.251 C 
BRANCH   7   8
ATOM      8  C   UNL d   1       8.448   5.964  -9.525  0.00  0.00     0.037 C 
BRANCH   8   9
ATOM      9  C   UNL d   1       9.519   6.226  -8.465  0.00  0.00     0.027 C 
BRANCH   9  10
ATOM     10  C   UNL d   1       9.018   7.192  -7.373  0.00  0.00     0.111 C 
BRANCH  10  11
ATOM     11  N   UNL d   1      10.088   7.713  -6.560  0.00  0.00    -0.279 N 
ATOM     12  C   UNL d   1      10.394   7.225  -5.281  0.00  0.00     0.080 A 
ATOM     13  C   UNL d   1      11.354   7.780  -4.490  0.00  0.00     0.053 A 
ATOM     14  C   UNL d   1      12.111   8.935  -4.992  0.00  0.00     0.280 A 
ATOM     15  N   UNL d   1      11.807   9.336  -6.291  0.00  0.00    -0.153 NA
ATOM     16  O   UNL d   1      13.009   9.518  -4.398  0.00  0.00    -0.265 OA
ATOM     17  C   UNL d   1      10.834   8.775  -7.106  0.00  0.00     0.353 A 
ATOM     18  O   UNL d   1      10.672   9.187  -8.260  0.00  0.00    -0.244 OA
BRANCH  13  19
ATOM     19  C   UNL d   1      11.551   7.340  -3.033  0.00  0.00     0.033 C 
ATOM     20  C   UNL d   1      12.777   6.476  -2.856  0.00  0.00     0.005 C 
ENDBRANCH  13  19
ENDBRANCH  10  11
ENDBRANCH   9  10
ENDBRANCH   8   9
ENDBRANCH   7   8
ENDBRANCH   1   7
BRANCH   4  21
ATOM     21  C   UNL d   1       9.785   3.794 -15.563  0.00  0.00     0.143 A 
ATOM     22  N   UNL d   1       9.732   4.668 -16.598  0.00  0.00    -0.214 NA
ATOM     23  C   UNL d   1       9.519   4.175 -17.825  0.00  0.00     0.140 A 
ATOM     24  N   UNL d   1       9.417   2.879 -18.117  0.00  0.00    -0.227 NA
ATOM     25  C   UNL d   1       9.488   1.985 -17.112  0.00  0.00     0.157 A 
ATOM     26  C   UNL d   1       9.665   2.402 -15.777  0.00  0.00     0.060 A 
BRANCH  23  27
ATOM     27  C   UNL d   1       9.627   5.167 -19.005  0.00  0.00     0.052 C 
ATOM     28  C   UNL d   1      11.097   5.449 -19.324  0.00  0.00     0.008 C 
ATOM     29  C   UNL d   1       8.918   6.493 -18.678  0.00  0.00     0.008 C 
ATOM     30  C   UNL d   1       8.938   4.602 -20.283  0.00  0.00     0.008 C 
ENDBRANCH  23  27
BRANCH  25  31
ATOM     31  C   UNL d   1       9.346   0.506 -17.485  0.00  0.00     0.435 C 
ATOM     32  F   UNL d   1       9.542  -0.284 -16.437  0.00  0.00    -0.165 F 
ATOM     33  F   UNL d   1       8.126   0.277 -17.972  0.00  0.00    -0.165 F 
ATOM     34  F   UNL d   1      10.242   0.183 -18.419  0.00  0.00    -0.165 F 
ENDBRANCH  25  31
ENDBRANCH   4  21
TORSDOF 9
