REMARK  6 active torsions:
REMARK  status: ('A' for Active; 'I' for Inactive)
REMARK       I    between atoms: C_2  and  N_3 
REMARK    1  A    between atoms: C_2  and  C_25 
REMARK    2  A    between atoms: N_3  and  C_4 
REMARK    3  A    between atoms: C_7  and  C_8 
REMARK    4  A    between atoms: C_8  and  C_9 
REMARK    5  A    between atoms: C_9  and  N_10 
REMARK    6  A    between atoms: N_13  and  C_14 
ROOT
ATOM      1  C   UNL d   1       8.082   5.707 -12.280  0.00  0.00     0.035 C 
ENDROOT
BRANCH   1   2
ATOM      2  C   UNL d   1       7.818   4.311 -12.836  0.00  0.00     0.002 C 
ATOM      3  C   UNL d   1       6.314   3.994 -12.909  0.00  0.00     0.002 C 
ATOM      4  C   UNL d   1       6.040   2.605 -13.515  0.00  0.00     0.024 C 
ATOM      5  C   UNL d   1       6.751   2.428 -14.876  0.00  0.00     0.107 C 
ATOM      6  C   UNL d   1       8.264   2.756 -14.774  0.00  0.00     0.024 C 
ATOM      7  C   UNL d   1       8.508   4.146 -14.184  0.00  0.00     0.002 C 
BRANCH   5   8
ATOM      8  N   UNL d   1       6.567   1.077 -15.389  0.00  0.00    -0.236 NA
ATOM      9  C   UNL d   1       6.659   0.771 -16.692  0.00  0.00     0.281 C 
ATOM     10  O   UNL d   1       7.071   1.553 -17.552  0.00  0.00    -0.265 OA
BRANCH   9  11
ATOM     11  C   UNL d   1       6.242  -0.581 -17.076  0.00  0.00     0.087 A 
ATOM     12  S   UNL d   1       4.992  -1.347 -16.122  0.00  0.00    -0.082 SA
ATOM     13  C   UNL d   1       5.060  -2.765 -17.123  0.00  0.00     0.036 A 
ATOM     14  C   UNL d   1       5.969  -2.633 -18.136  0.00  0.00     0.008 A 
ATOM     15  C   UNL d   1       6.640  -1.374 -18.120  0.00  0.00     0.012 A 
ENDBRANCH   9  11
ENDBRANCH   5   8
ENDBRANCH   1   2
BRANCH   1  16
ATOM     16  C   UNL d   1       8.140   5.672 -10.755  0.00  0.00     0.250 C 
BRANCH  16  17
ATOM     17  N   UNL d   1       9.454   5.312 -10.222  0.00  0.00     0.141 N 
ATOM     18  C   UNL d   1      10.399   6.438 -10.269  0.00  0.00     0.274 C 
ATOM     19  C   UNL d   1      10.050   7.645  -9.367  0.00  0.00     0.137 C 
ATOM     20  N   UNL d   1       9.775   7.131  -8.037  0.00  0.00    -0.344 N 
ATOM     21  C   UNL d   1       8.868   5.997  -7.910  0.00  0.00     0.137 C 
ATOM     22  C   UNL d   1       9.342   4.841  -8.843  0.00  0.00     0.274 C 
BRANCH  20  23
ATOM     23  C   UNL d   1      10.376   7.713  -6.905  0.00  0.00     0.056 A 
ATOM     24  C   UNL d   1      10.873   6.902  -5.873  0.00  0.00     0.018 A 
ATOM     25  C   UNL d   1      11.462   7.475  -4.736  0.00  0.00     0.013 A 
ATOM     26  C   UNL d   1      11.548   8.874  -4.635  0.00  0.00     0.058 A 
ATOM     27  C   UNL d   1      11.060   9.695  -5.672  0.00  0.00     0.013 A 
ATOM     28 CL   UNL d   1      12.209   9.564  -3.212  0.00  0.00    -0.082 Cl
ATOM     29  C   UNL d   1      10.471   9.108  -6.810  0.00  0.00     0.018 A 
ENDBRANCH  20  23
ENDBRANCH  16  17
ENDBRANCH   1  16
TORSDOF 6
