REMARK  6 active torsions:
REMARK  status: ('A' for Active; 'I' for Inactive)
REMARK    1  A    between atoms: O_2  and  N_3 
REMARK    2  A    between atoms: C_4  and  C_5 
REMARK    3  A    between atoms: C_4  and  C_19 
REMARK    4  A    between atoms: C_5  and  C_6 
REMARK    5  A    between atoms: C_6  and  N_7 
REMARK    6  A    between atoms: N_10  and  C_11 
ROOT
ATOM      1  C   UNL d   1      11.686   2.416 -15.939  0.00  0.00     0.083 C 
ENDROOT
BRANCH   1   2
ATOM      2  C   UNL d   1      11.476   3.842 -15.439  0.00  0.00     0.087 C 
ATOM      3  N   UNL d   1      10.825   4.047 -14.365  0.00  0.00    -0.136 NA
BRANCH   3   4
ATOM      4  O   UNL d   1      10.661   5.403 -14.059  0.00  0.00    -0.234 OA
ATOM      5  C   UNL d   1       9.626   5.499 -13.098  0.00  0.00     0.211 C 
ENDBRANCH   3   4
BRANCH   2   6
ATOM      6  C   UNL d   1      12.050   4.896 -16.311  0.00  0.00     0.017 A 
ATOM      7  C   UNL d   1      13.450   5.042 -16.395  0.00  0.00     0.013 A 
ATOM      8  C   UNL d   1      14.031   6.041 -17.197  0.00  0.00     0.068 A 
ATOM      9  C   UNL d   1      13.204   6.907 -17.942  0.00  0.00     0.068 A 
ATOM     10 CL   UNL d   1      15.754   6.181 -17.242  0.00  0.00    -0.082 Cl
ATOM     11  C   UNL d   1      11.803   6.753 -17.885  0.00  0.00     0.012 A 
ATOM     12 CL   UNL d   1      13.877   8.157 -18.929  0.00  0.00    -0.082 Cl
ATOM     13  C   UNL d   1      11.229   5.755 -17.071  0.00  0.00     0.002 A 
ENDBRANCH   2   6
ENDBRANCH   1   2
BRANCH   1  14
ATOM     14  C   UNL d   1      10.641   1.399 -15.421  0.00  0.00     0.257 C 
BRANCH  14  15
ATOM     15  N   UNL d   1       9.303   1.679 -15.933  0.00  0.00     0.141 N 
ATOM     16  C   UNL d   1       9.205   1.328 -17.352  0.00  0.00     0.274 C 
ATOM     17  C   UNL d   1       7.808   1.679 -17.884  0.00  0.00     0.138 C 
ATOM     18  N   UNL d   1       6.786   1.030 -17.071  0.00  0.00    -0.330 N 
ATOM     19  C   UNL d   1       6.899   1.254 -15.634  0.00  0.00     0.138 C 
ATOM     20  C   UNL d   1       8.323   0.907 -15.165  0.00  0.00     0.274 C 
BRANCH  18  21
ATOM     21  C   UNL d   1       5.815   0.187 -17.635  0.00  0.00     0.140 A 
ATOM     22  N   UNL d   1       5.406   0.465 -18.895  0.00  0.00    -0.227 NA
ATOM     23  C   UNL d   1       4.438  -0.296 -19.447  0.00  0.00     0.101 A 
ATOM     24  C   UNL d   1       3.841  -1.378 -18.778  0.00  0.00     0.021 A 
ATOM     25  C   UNL d   1       4.279  -1.682 -17.479  0.00  0.00     0.005 A 
ATOM     26  C   UNL d   1       5.285  -0.894 -16.896  0.00  0.00     0.037 A 
ENDBRANCH  18  21
ENDBRANCH  14  15
ENDBRANCH   1  14
TORSDOF 6
