REMARK  5 active torsions:
REMARK  status: ('A' for Active; 'I' for Inactive)
REMARK    1  A    between atoms: C_3  and  C_4 
REMARK    2  A    between atoms: C_3  and  C_18 
REMARK    3  A    between atoms: C_4  and  C_5 
REMARK    4  A    between atoms: C_5  and  N_6 
REMARK    5  A    between atoms: N_9  and  C_10 
ROOT
ATOM      1  C   UNL d   1       9.418   5.216 -10.666  0.00  0.00     0.257 C 
ENDROOT
BRANCH   1   2
ATOM      2  C   UNL d   1       8.182   5.133 -11.589  0.00  0.00     0.084 C 
BRANCH   2   3
ATOM      3  C   UNL d   1       8.486   4.632 -13.028  0.00  0.00     0.090 C 
ATOM      4  N   UNL d   1       9.359   5.146 -13.782  0.00  0.00    -0.101 NA
ATOM      5  O   UNL d   1       9.782   6.366 -13.201  0.00  0.00    -0.061 OA
BRANCH   3   6
ATOM      6  C   UNL d   1       7.776   3.459 -13.568  0.00  0.00     0.020 C 
ATOM      7  C   UNL d   1       6.449   3.196 -13.187  0.00  0.00     0.031 C 
ATOM      8  C   UNL d   1       5.859   1.974 -13.558  0.00  0.00     0.142 C 
ATOM      9  C   UNL d   1       6.485   1.099 -14.453  0.00  0.00     0.059 C 
ATOM     10  F   UNL d   1       4.706   1.603 -12.985  0.00  0.00    -0.204 F 
ATOM     11  C   UNL d   1       7.775   1.391 -14.922  0.00  0.00     0.142 C 
ATOM     12  C   UNL d   1       8.421   2.565 -14.471  0.00  0.00     0.031 C 
ATOM     13  F   UNL d   1       8.403   0.548 -15.774  0.00  0.00    -0.204 F 
ENDBRANCH   3   6
ENDBRANCH   2   3
ENDBRANCH   1   2
BRANCH   1  14
ATOM     14  N   UNL d   1       9.077   5.955  -9.460  0.00  0.00     0.141 N 
ATOM     15  C   UNL d   1       9.499   7.359  -9.559  0.00  0.00     0.274 C 
ATOM     16  C   UNL d   1       9.161   8.152  -8.288  0.00  0.00     0.138 C 
ATOM     17  N   UNL d   1       9.780   7.506  -7.143  0.00  0.00    -0.330 N 
ATOM     18  C   UNL d   1       9.411   6.106  -7.042  0.00  0.00     0.138 C 
ATOM     19  C   UNL d   1       9.767   5.361  -8.327  0.00  0.00     0.274 C 
BRANCH  17  20
ATOM     20  C   UNL d   1      10.519   8.160  -6.162  0.00  0.00     0.140 A 
ATOM     21  N   UNL d   1      11.112   7.422  -5.184  0.00  0.00    -0.227 NA
ATOM     22  C   UNL d   1      11.871   8.035  -4.243  0.00  0.00     0.101 A 
ATOM     23  C   UNL d   1      12.084   9.415  -4.234  0.00  0.00     0.021 A 
ATOM     24  C   UNL d   1      11.460  10.181  -5.225  0.00  0.00     0.005 A 
ATOM     25  C   UNL d   1      10.679   9.556  -6.191  0.00  0.00     0.037 A 
ENDBRANCH  17  20
ENDBRANCH   1  14
TORSDOF 5
