REMARK  4 active torsions:
REMARK  status: ('A' for Active; 'I' for Inactive)
REMARK    1  A    between atoms: C_2  and  O_3 
REMARK    2  A    between atoms: O_3  and  C_4 
REMARK    3  A    between atoms: C_10  and  C_11 
REMARK    4  A    between atoms: N_15  and  C_16 
ROOT
ATOM      1  C   UNL d   1      11.401   7.924  -5.086  0.00  0.00     0.094 A 
ATOM      2  C   UNL d   1      11.949   9.209  -5.291  0.00  0.00     0.026 A 
ATOM      3  C   UNL d   1      11.843   9.848  -6.502  0.00  0.00     0.021 A 
ATOM      4  C   UNL d   1      11.231   9.190  -7.572  0.00  0.00     0.082 A 
ATOM      5  N   UNL d   1      11.066   9.579  -8.862  0.00  0.00    -0.244 NA
ATOM      6  C   UNL d   1      10.458   8.604  -9.582  0.00  0.00     0.100 A 
ATOM      7  C   UNL d   1      10.157   7.536  -8.776  0.00  0.00     0.038 A 
ATOM      8  C   UNL d   1      10.672   7.886  -7.457  0.00  0.00     0.023 A 
ATOM      9  C   UNL d   1      10.748   7.281  -6.169  0.00  0.00     0.026 A 
ENDROOT
BRANCH   7  10
ATOM     10  C   UNL d   1       9.466   6.309  -9.120  0.00  0.00     0.082 A 
ATOM     11  N   UNL d   1       8.901   6.017 -10.355  0.00  0.00    -0.309 N 
ATOM     12  C   UNL d   1       8.350   4.793 -10.178  0.00  0.00     0.179 A 
ATOM     13  N   UNL d   1       8.493   4.294  -8.970  0.00  0.00    -0.223 NA
ATOM     14  C   UNL d   1       9.214   5.252  -8.307  0.00  0.00     0.118 A 
BRANCH  11  15
ATOM     15  C   UNL d   1       8.913   6.777 -11.587  0.00  0.00     0.108 C 
ATOM     16  C   UNL d   1       7.720   6.547 -12.495  0.00  0.00     0.027 C 
ENDBRANCH  11  15
ENDBRANCH   7  10
BRANCH   1  17
ATOM     17  O   UNL d   1      11.504   7.237  -3.906  0.00  0.00    -0.331 OA
BRANCH  17  18
ATOM     18  C   UNL d   1      12.628   7.542  -3.083  0.00  0.00     0.149 C 
ATOM     19  C   UNL d   1      12.554   8.806  -2.175  0.00  0.00     0.035 C 
ENDBRANCH  17  18
ENDBRANCH   1  17
TORSDOF 4
