REMARK  11 active torsions:
REMARK  status: ('A' for Active; 'I' for Inactive)
REMARK       I    between atoms: C_2  and  N_3 
REMARK    1  A    between atoms: C_2  and  C_26 
REMARK    2  A    between atoms: N_3  and  C_4 
REMARK    3  A    between atoms: C_4  and  C_5 
REMARK    4  A    between atoms: C_5  and  C_6 
REMARK    5  A    between atoms: C_6  and  C_7 
REMARK    6  A    between atoms: C_7  and  N_8 
REMARK    7  A    between atoms: C_14  and  O_15 
REMARK    8  A    between atoms: O_15  and  S_16 
REMARK    9  A    between atoms: S_16  and  C_19 
REMARK   10  A    between atoms: C_29  and  C_30 
REMARK   11  A    between atoms: C_33  and  N_34 
ROOT
ATOM      1  C   UNL d   1       8.640   0.761 -17.455  0.00  0.00     0.129 C 
ENDROOT
BRANCH   1   2
ATOM      2  N   UNL d   1       8.824   1.539 -16.230  0.00  0.00    -0.234 NA
ATOM      3  C   UNL d   1       7.844   1.951 -15.409  0.00  0.00     0.275 C 
ATOM      4  O   UNL d   1       6.668   1.617 -15.554  0.00  0.00    -0.266 OA
BRANCH   3   5
ATOM      5  C   UNL d   1       8.254   2.910 -14.319  0.00  0.00     0.058 A 
ATOM      6  C   UNL d   1       9.614   3.119 -13.991  0.00  0.00     0.005 A 
ATOM      7  C   UNL d   1       9.972   3.989 -12.949  0.00  0.00     0.000 A 
ATOM      8  C   UNL d   1       8.992   4.658 -12.183  0.00  0.00     0.000 A 
ATOM      9  C   UNL d   1       7.637   4.464 -12.516  0.00  0.00     0.000 A 
ATOM     10  C   UNL d   1       7.271   3.606 -13.574  0.00  0.00     0.005 A 
BRANCH   8  11
ATOM     11  C   UNL d   1       9.365   5.527 -11.054  0.00  0.00     0.000 A 
ATOM     12  C   UNL d   1       9.427   5.024  -9.743  0.00  0.00     0.002 A 
ATOM     13  C   UNL d   1       9.824   5.840  -8.671  0.00  0.00     0.017 A 
ATOM     14  C   UNL d   1      10.174   7.197  -8.877  0.00  0.00     0.062 A 
ATOM     15  C   UNL d   1      10.113   7.707 -10.193  0.00  0.00     0.017 A 
ATOM     16  C   UNL d   1       9.693   6.880 -11.259  0.00  0.00     0.002 A 
BRANCH  14  17
ATOM     17  N   UNL d   1      10.615   8.030  -7.800  0.00  0.00    -0.299 N 
ATOM     18  C   UNL d   1      10.250   7.919  -6.510  0.00  0.00     0.237 C 
ATOM     19  C   UNL d   1      10.929   8.960  -5.639  0.00  0.00     0.090 C 
ATOM     20  O   UNL d   1       9.462   7.105  -6.042  0.00  0.00    -0.272 OA
ATOM     21  C   UNL d   1      11.901   9.649  -6.591  0.00  0.00     0.034 C 
ATOM     22  C   UNL d   1      11.522   9.160  -7.992  0.00  0.00     0.109 C 
ENDBRANCH  14  17
ENDBRANCH   8  11
ENDBRANCH   3   5
ENDBRANCH   1   2
BRANCH   1  23
ATOM     23  C   UNL d   1       8.265   1.659 -18.652  0.00  0.00     0.029 C 
BRANCH  23  24
ATOM     24  C   UNL d   1       9.381   2.642 -19.058  0.00  0.00     0.037 C 
BRANCH  24  25
ATOM     25  C   UNL d   1       8.860   4.040 -19.448  0.00  0.00     0.251 C 
BRANCH  25  26
ATOM     26  N   UNL d   1       9.940   4.939 -19.848  0.00  0.00     0.142 N 
ATOM     27  C   UNL d   1      10.792   5.272 -18.701  0.00  0.00     0.277 C 
ATOM     28  C   UNL d   1      11.864   6.295 -19.008  0.00  0.00     0.009 A 
ATOM     29  C   UNL d   1      11.716   7.168 -20.105  0.00  0.00    -0.022 A 
ATOM     30  C   UNL d   1      12.998   6.383 -18.181  0.00  0.00     0.023 A 
ATOM     31  C   UNL d   1      10.501   7.028 -21.005  0.00  0.00     0.061 C 
ATOM     32  C   UNL d   1      12.704   8.136 -20.370  0.00  0.00    -0.002 A 
ATOM     33  C   UNL d   1       9.376   6.185 -20.369  0.00  0.00     0.255 C 
ATOM     34  C   UNL d   1      13.837   8.231 -19.536  0.00  0.00     0.025 A 
ATOM     35  C   UNL d   1      13.987   7.345 -18.450  0.00  0.00     0.113 A 
BRANCH  35  36
ATOM     36  O   UNL d   1      15.083   7.406 -17.640  0.00  0.00    -0.224 OA
BRANCH  36  37
ATOM     37  S   UNL d   1      16.512   6.736 -18.239  0.00  0.00     0.374 S 
ATOM     38  O   UNL d   1      16.169   5.575 -19.072  0.00  0.00    -0.189 OA
ATOM     39  O   UNL d   1      17.321   7.841 -18.773  0.00  0.00    -0.189 OA
BRANCH  37  40
ATOM     40  C   UNL d   1      17.244   6.130 -16.648  0.00  0.00     0.524 C 
ATOM     41  F   UNL d   1      17.433   4.815 -16.721  0.00  0.00    -0.155 F 
ATOM     42  F   UNL d   1      18.406   6.747 -16.439  0.00  0.00    -0.155 F 
ATOM     43  F   UNL d   1      16.400   6.390 -15.653  0.00  0.00    -0.155 F 
ENDBRANCH  37  40
ENDBRANCH  36  37
ENDBRANCH  35  36
ENDBRANCH  25  26
ENDBRANCH  24  25
ENDBRANCH  23  24
ENDBRANCH   1  23
TORSDOF 11
