REMARK  4 active torsions:
REMARK  status: ('A' for Active; 'I' for Inactive)
REMARK    1  A    between atoms: C_5  and  C_6 
REMARK    2  A    between atoms: C_6  and  N_7 
REMARK    3  A    between atoms: C_10  and  C_11 
REMARK    4  A    between atoms: C_13  and  C_14 
ROOT
ATOM      1  N   UNL d   1       9.478   7.621 -10.511  0.00  0.00     0.141 N 
ATOM      2  C   UNL d   1      10.137   6.333 -10.391  0.00  0.00     0.251 C 
ATOM      3  C   UNL d   1       9.244   5.198 -10.900  0.00  0.00     0.041 C 
ATOM      4  C   UNL d   1       8.789   5.463 -12.341  0.00  0.00     0.046 C 
ATOM      5  C   UNL d   1       8.184   6.869 -12.440  0.00  0.00     0.041 C 
ATOM      6  C   UNL d   1       9.148   7.930 -11.898  0.00  0.00     0.251 C 
ENDROOT
BRANCH   4   7
ATOM      7  C   UNL d   1       7.809   4.425 -12.831  0.00  0.00     0.082 A 
ATOM      8  N   UNL d   1       6.613   4.346 -12.265  0.00  0.00    -0.152 NA
ATOM      9  N   UNL d   1       5.999   3.336 -12.889  0.00  0.00    -0.148 NA
ATOM     10  C   UNL d   1       6.807   2.743 -13.834  0.00  0.00     0.104 A 
ATOM     11  C   UNL d   1       7.984   3.432 -13.846  0.00  0.00     0.037 A 
BRANCH  10  12
ATOM     12  C   UNL d   1       6.380   1.557 -14.562  0.00  0.00     0.019 A 
ATOM     13  C   UNL d   1       5.420   0.671 -14.022  0.00  0.00     0.002 A 
ATOM     14  C   UNL d   1       4.955  -0.428 -14.773  0.00  0.00     0.011 A 
ATOM     15  C   UNL d   1       5.468  -0.663 -16.061  0.00  0.00     0.058 A 
ATOM     16  C   UNL d   1       6.448   0.195 -16.594  0.00  0.00     0.011 A 
ATOM     17 CL   UNL d   1       4.891  -1.989 -16.993  0.00  0.00    -0.082 Cl
ATOM     18  C   UNL d   1       6.908   1.295 -15.843  0.00  0.00     0.002 A 
ENDBRANCH  10  12
ENDBRANCH   4   7
BRANCH   1  19
ATOM     19  C   UNL d   1      10.290   8.671  -9.924  0.00  0.00     0.277 C 
BRANCH  19  20
ATOM     20  C   UNL d   1      10.534   8.520  -8.441  0.00  0.00     0.011 A 
ATOM     21  C   UNL d   1       9.600   7.913  -7.573  0.00  0.00    -0.002 A 
ATOM     22  C   UNL d   1       9.905   7.766  -6.205  0.00  0.00     0.011 A 
ATOM     23  C   UNL d   1      11.108   8.312  -5.686  0.00  0.00     0.058 A 
ATOM     24 CL   UNL d   1      11.590   8.117  -4.040  0.00  0.00    -0.082 Cl
ATOM     25  C   UNL d   1      11.988   8.979  -6.544  0.00  0.00     0.011 A 
ATOM     26  C   UNL d   1      11.737   9.006  -7.924  0.00  0.00    -0.002 A 
ENDBRANCH  19  20
ENDBRANCH   1  19
TORSDOF 4
