REMARK  11 active torsions:
REMARK  status: ('A' for Active; 'I' for Inactive)
REMARK    1  A    between atoms: O_2  and  C_3 
REMARK    2  A    between atoms: C_6  and  C_7 
REMARK    3  A    between atoms: C_12  and  N_13 
REMARK    4  A    between atoms: N_16  and  C_17 
REMARK    5  A    between atoms: C_17  and  C_18 
REMARK    6  A    between atoms: C_18  and  C_19 
REMARK    7  A    between atoms: C_19  and  C_20 
REMARK    8  A    between atoms: C_20  and  C_21 
REMARK    9  A    between atoms: C_21  and  C_22 
REMARK       I    between atoms: C_22  and  N_24 
REMARK   10  A    between atoms: N_24  and  C_25 
REMARK   11  A    between atoms: C_25  and  C_26 
ROOT
ATOM      1  N   UNL d   1      10.267   1.607 -15.281  0.00  0.00    -0.344 N 
ATOM      2  C   UNL d   1       8.929   1.578 -14.706  0.00  0.00     0.137 C 
ATOM      3  C   UNL d   1       8.551   2.999 -14.228  0.00  0.00     0.274 C 
ATOM      4  N   UNL d   1       9.542   3.521 -13.273  0.00  0.00     0.141 N 
ATOM      5  C   UNL d   1      10.864   3.575 -13.902  0.00  0.00     0.274 C 
ATOM      6  C   UNL d   1      11.296   2.186 -14.425  0.00  0.00     0.137 C 
ENDROOT
BRANCH   4   7
ATOM      7  C   UNL d   1       9.177   4.877 -12.869  0.00  0.00     0.250 C 
BRANCH   7   8
ATOM      8  C   UNL d   1       9.092   4.933 -11.343  0.00  0.00     0.035 C 
BRANCH   8   9
ATOM      9  C   UNL d   1       9.299   6.362 -10.844  0.00  0.00     0.003 C 
BRANCH   9  10
ATOM     10  C   UNL d   1       9.255   6.437  -9.319  0.00  0.00     0.010 C 
BRANCH  10  11
ATOM     11  C   UNL d   1       9.537   7.844  -8.780  0.00  0.00     0.090 C 
BRANCH  11  12
ATOM     12  C   UNL d   1      11.036   8.170  -8.662  0.00  0.00     0.252 C 
ATOM     13  O   UNL d   1      11.829   7.859  -9.548  0.00  0.00    -0.271 OA
ATOM     14  N   UNL d   1      11.480   8.813  -7.588  0.00  0.00    -0.232 NA
BRANCH  14  15
ATOM     15  C   UNL d   1      10.717   9.274  -6.435  0.00  0.00     0.174 C 
BRANCH  15  16
ATOM     16  C   UNL d   1      11.258   8.691  -5.147  0.00  0.00     0.084 A 
ATOM     17  N   UNL d   1      11.563   9.592  -4.195  0.00  0.00    -0.246 NA
ATOM     18  C   UNL d   1      12.027   9.148  -3.015  0.00  0.00     0.099 A 
ATOM     19  C   UNL d   1      12.205   7.783  -2.725  0.00  0.00     0.021 A 
ATOM     20  C   UNL d   1      11.867   6.837  -3.713  0.00  0.00     0.003 A 
ATOM     21  C   UNL d   1      11.395   7.299  -4.956  0.00  0.00     0.017 A 
ENDBRANCH  15  16
ENDBRANCH  14  15
ENDBRANCH  11  12
ENDBRANCH  10  11
ENDBRANCH   9  10
ENDBRANCH   8   9
ENDBRANCH   7   8
ENDBRANCH   4   7
BRANCH   1  22
ATOM     22  C   UNL d   1      10.550   1.115 -16.575  0.00  0.00     0.056 A 
ATOM     23  C   UNL d   1      11.254   1.889 -17.543  0.00  0.00     0.015 A 
ATOM     24  C   UNL d   1      11.555   1.314 -18.797  0.00  0.00     0.001 A 
ATOM     25  C   UNL d   1      11.152   0.009 -19.114  0.00  0.00     0.000 A 
ATOM     26  C   UNL d   1      10.439  -0.750 -18.176  0.00  0.00     0.002 A 
ATOM     27  C   UNL d   1      10.139  -0.199 -16.910  0.00  0.00     0.017 A 
BRANCH  23  28
ATOM     28  C   UNL d   1      11.683   3.280 -17.316  0.00  0.00     0.002 A 
ATOM     29  C   UNL d   1      13.054   3.611 -17.319  0.00  0.00     0.002 A 
ATOM     30  C   UNL d   1      13.475   4.923 -17.038  0.00  0.00     0.024 A 
ATOM     31  C   UNL d   1      12.534   5.940 -16.791  0.00  0.00     0.094 A 
ATOM     32  C   UNL d   1      11.161   5.613 -16.775  0.00  0.00     0.024 A 
ATOM     33  C   UNL d   1      10.744   4.295 -17.064  0.00  0.00     0.002 A 
BRANCH  31  34
ATOM     34  O   UNL d   1      12.903   7.236 -16.508  0.00  0.00    -0.328 OA
ATOM     35  C   UNL d   1      13.937   7.760 -17.332  0.00  0.00     0.181 C 
ENDBRANCH  31  34
ENDBRANCH  23  28
ENDBRANCH   1  22
TORSDOF 11
