REMARK  8 active torsions:
REMARK  status: ('A' for Active; 'I' for Inactive)
REMARK    1  A    between atoms: O_2  and  C_3 
REMARK    2  A    between atoms: C_8  and  N_9 
REMARK    3  A    between atoms: N_12  and  C_13 
REMARK    4  A    between atoms: C_13  and  C_14 
REMARK    5  A    between atoms: C_14  and  C_16 
REMARK    6  A    between atoms: C_16  and  C_17 
REMARK    7  A    between atoms: C_17  and  N_18 
REMARK       I    between atoms: N_18  and  C_19 
REMARK    8  A    between atoms: C_19  and  C_21 
ROOT
ATOM      1  C   UNL d   1       5.986   3.508 -12.909  0.00  0.00     0.188 C 
ATOM      2  O   UNL d   1       5.465   2.227 -12.618  0.00  0.00    -0.221 OA
ENDROOT
BRANCH   1   3
ATOM      3  C   UNL d   1       6.657   3.517 -14.295  0.00  0.00     0.283 C 
BRANCH   3   4
ATOM      4  N   UNL d   1       7.535   2.370 -14.622  0.00  0.00     0.144 N 
ATOM      5  C   UNL d   1       8.941   2.704 -14.439  0.00  0.00     0.274 C 
ATOM      6  C   UNL d   1       9.866   1.502 -14.694  0.00  0.00     0.137 C 
ATOM      7  N   UNL d   1       9.634   0.982 -16.031  0.00  0.00    -0.343 N 
ATOM      8  C   UNL d   1       8.245   0.674 -16.355  0.00  0.00     0.137 C 
ATOM      9  C   UNL d   1       7.347   1.892 -16.009  0.00  0.00     0.274 C 
BRANCH   7  10
ATOM     10  C   UNL d   1      10.660   0.904 -16.991  0.00  0.00     0.079 A 
ATOM     11  C   UNL d   1      11.590   1.959 -17.178  0.00  0.00     0.110 A 
ATOM     12  C   UNL d   1      12.655   1.786 -18.113  0.00  0.00     0.026 A 
ATOM     13  C   UNL d   1      12.765   0.596 -18.849  0.00  0.00     0.002 A 
ATOM     14  C   UNL d   1      11.833  -0.432 -18.680  0.00  0.00     0.002 A 
ATOM     15  C   UNL d   1      10.772  -0.275 -17.750  0.00  0.00     0.019 A 
BRANCH  11  16
ATOM     16  O   UNL d   1      11.415   3.130 -16.470  0.00  0.00    -0.327 OA
ATOM     17  C   UNL d   1      12.402   4.143 -16.540  0.00  0.00     0.181 C 
ENDBRANCH  11  16
ENDBRANCH   7  10
ENDBRANCH   3   4
ENDBRANCH   1   3
BRANCH   1  18
ATOM     18  C   UNL d   1       6.907   3.974 -11.782  0.00  0.00     0.061 C 
BRANCH  18  19
ATOM     19  C   UNL d   1       7.059   5.485 -11.700  0.00  0.00     0.132 C 
BRANCH  19  20
ATOM     20  N   UNL d   1       8.010   5.821 -10.650  0.00  0.00    -0.234 NA
ATOM     21  C   UNL d   1       9.262   6.227 -10.870  0.00  0.00     0.276 C 
ATOM     22  O   UNL d   1       9.841   6.052 -11.944  0.00  0.00    -0.266 OA
BRANCH  21  23
ATOM     23  C   UNL d   1       9.888   7.031  -9.761  0.00  0.00     0.077 A 
ATOM     24  C   UNL d   1       9.951   6.551  -8.437  0.00  0.00     0.008 A 
ATOM     25  C   UNL d   1      10.584   7.346  -7.449  0.00  0.00     0.018 A 
ATOM     26  C   UNL d   1      11.103   8.616  -7.800  0.00  0.00     0.081 A 
ATOM     27  C   UNL d   1      10.698   6.883  -6.130  0.00  0.00    -0.003 A 
ATOM     28  N   UNL d   1      11.015   9.079  -9.067  0.00  0.00    -0.244 NA
ATOM     29  C   UNL d   1      11.716   9.384  -6.771  0.00  0.00     0.019 A 
ATOM     30  C   UNL d   1      10.425   8.311 -10.012  0.00  0.00     0.104 A 
ATOM     31  C   UNL d   1      11.843   8.907  -5.454  0.00  0.00    -0.003 A 
ATOM     32  C   UNL d   1      11.343   7.640  -5.130  0.00  0.00    -0.022 A 
ATOM     33  C   UNL d   1      11.479   7.088  -3.724  0.00  0.00     0.031 C 
ENDBRANCH  21  23
ENDBRANCH  19  20
ENDBRANCH  18  19
ENDBRANCH   1  18
TORSDOF 8
