REMARK  3 active torsions:
REMARK  status: ('A' for Active; 'I' for Inactive)
REMARK    1  A    between atoms: C_13  and  N_14 
REMARK    2  A    between atoms: N_17  and  C_18 
REMARK    3  A    between atoms: C_18  and  C_19 
ROOT
ATOM      1  C   UNL d   1      16.093   1.226 -20.893  0.00  0.00     0.025 C 
ATOM      2  C   UNL d   1      14.949   1.488 -19.903  0.00  0.00     0.093 C 
ATOM      3  C   UNL d   1      14.801   2.971 -19.507  0.00  0.00     0.050 C 
ATOM      4  C   UNL d   1      13.556   3.458 -20.208  0.00  0.00    -0.005 A 
ATOM      5  C   UNL d   1      12.995   4.739 -20.368  0.00  0.00    -0.003 A 
ATOM      6  C   UNL d   1      11.854   4.883 -21.190  0.00  0.00    -0.001 A 
ATOM      7  C   UNL d   1      11.312   3.770 -21.880  0.00  0.00    -0.003 A 
ATOM      8  C   UNL d   1      11.874   2.481 -21.728  0.00  0.00    -0.006 A 
ATOM      9  C   UNL d   1      12.971   2.366 -20.846  0.00  0.00     0.054 A 
ATOM     10  N   UNL d   1      13.657   1.171 -20.508  0.00  0.00    -0.300 N 
ATOM     11  C   UNL d   1      13.088  -0.051 -20.340  0.00  0.00     0.269 C 
ATOM     12  O   UNL d   1      13.756  -1.059 -20.090  0.00  0.00    -0.270 OA
ATOM     13  C   UNL d   1      11.541  -0.161 -20.356  0.00  0.00     0.297 C 
ATOM     14  C   UNL d   1      10.985   0.059 -21.790  0.00  0.00     0.048 C 
ATOM     15  C   UNL d   1      11.583   1.245 -22.564  0.00  0.00     0.030 C 
ENDROOT
BRANCH  13  16
ATOM     16  N   UNL d   1      10.860   0.590 -19.275  0.00  0.00     0.148 N 
ATOM     17  C   UNL d   1       9.455   0.188 -19.106  0.00  0.00     0.286 C 
ATOM     18  C   UNL d   1       8.749   1.033 -18.037  0.00  0.00     0.286 C 
ATOM     19  N   UNL d   1       9.399   0.866 -16.736  0.00  0.00     0.146 N 
ATOM     20  C   UNL d   1      10.790   1.288 -16.872  0.00  0.00     0.286 C 
ATOM     21  C   UNL d   1      11.524   0.484 -17.957  0.00  0.00     0.286 C 
BRANCH  19  22
ATOM     22  C   UNL d   1       8.708   1.575 -15.665  0.00  0.00     0.277 C 
BRANCH  22  23
ATOM     23  C   UNL d   1       7.370   0.969 -15.248  0.00  0.00     0.011 A 
ATOM     24  C   UNL d   1       6.809  -0.119 -15.954  0.00  0.00    -0.002 A 
ATOM     25  C   UNL d   1       5.554  -0.640 -15.580  0.00  0.00     0.011 A 
ATOM     26  C   UNL d   1       4.877  -0.115 -14.465  0.00  0.00     0.058 A 
ATOM     27  C   UNL d   1       5.448   0.941 -13.726  0.00  0.00     0.011 A 
ATOM     28 CL   UNL d   1       3.352  -0.790 -14.043  0.00  0.00    -0.082 Cl
ATOM     29  C   UNL d   1       6.675   1.502 -14.142  0.00  0.00    -0.002 A 
ENDBRANCH  22  23
ENDBRANCH  19  22
ENDBRANCH  13  16
TORSDOF 3
