REMARK  7 active torsions:
REMARK  status: ('A' for Active; 'I' for Inactive)
REMARK    1  A    between atoms: C_2  and  C_4 
REMARK    2  A    between atoms: C_4  and  C_5 
REMARK    3  A    between atoms: C_5  and  N_6 
REMARK       I    between atoms: N_6  and  C_7 
REMARK    4  A    between atoms: C_7  and  C_9 
REMARK    5  A    between atoms: C_12  and  N_13 
REMARK    6  A    between atoms: N_14  and  C_15 
REMARK    7  A    between atoms: C_20  and  C_21 
ROOT
ATOM      1  C   UNL d   1       8.684   5.424 -11.515  0.00  0.00     0.058 A 
ATOM      2  C   UNL d   1       8.244   4.804 -10.337  0.00  0.00     0.006 A 
ATOM      3  C   UNL d   1       8.700   5.211  -9.072  0.00  0.00     0.021 A 
ATOM      4  C   UNL d   1       9.617   6.269  -8.966  0.00  0.00     0.103 A 
ATOM      5  C   UNL d   1      10.082   6.907 -10.144  0.00  0.00     0.021 A 
ATOM      6  C   UNL d   1       9.588   6.494 -11.403  0.00  0.00     0.006 A 
ENDROOT
BRANCH   4   7
ATOM      7  N   UNL d   1      10.021   6.639  -7.661  0.00  0.00    -0.148 NA
ATOM      8  N   UNL d   1      10.427   7.809  -7.524  0.00  0.00    -0.148 NA
BRANCH   8   9
ATOM      9  C   UNL d   1      10.803   8.205  -6.233  0.00  0.00     0.103 A 
ATOM     10  C   UNL d   1      11.156   7.296  -5.200  0.00  0.00     0.029 A 
ATOM     11  C   UNL d   1      11.520   7.781  -3.926  0.00  0.00     0.091 A 
ATOM     12  C   UNL d   1      11.518   9.172  -3.683  0.00  0.00     0.137 A 
ATOM     13  C   UNL d   1      11.130  10.063  -4.699  0.00  0.00     0.029 A 
ATOM     14  O   UNL d   1      11.865   9.655  -2.456  0.00  0.00    -0.190 OA
ATOM     15  C   UNL d   1      10.814   9.587  -5.975  0.00  0.00     0.023 A 
BRANCH  11  16
ATOM     16  C   UNL d   1      11.874   6.829  -2.828  0.00  0.00     0.213 C 
ATOM     17  O   UNL d   1      13.002   6.387  -2.716  0.00  0.00    -0.644 OA
ATOM     18  O   UNL d   1      10.833   6.401  -2.078  0.00  0.00    -0.644 OA
ENDBRANCH  11  16
ENDBRANCH   8   9
ENDBRANCH   4   7
BRANCH   1  19
ATOM     19  C   UNL d   1       8.168   4.936 -12.839  0.00  0.00     0.275 C 
ATOM     20  N   UNL d   1       9.089   4.863 -13.813  0.00  0.00    -0.234 NA
ATOM     21  O   UNL d   1       7.021   4.509 -12.956  0.00  0.00    -0.266 OA
BRANCH  20  22
ATOM     22  C   UNL d   1       8.992   4.055 -15.025  0.00  0.00     0.140 C 
BRANCH  22  23
ATOM     23  C   UNL d   1      10.078   2.969 -15.116  0.00  0.00     0.124 C 
BRANCH  23  24
ATOM     24  C   UNL d   1      11.509   3.514 -15.159  0.00  0.00     0.187 C 
ATOM     25  O   UNL d   1      11.924   4.414 -14.427  0.00  0.00    -0.647 OA
ATOM     26  O   UNL d   1      12.261   2.863 -16.087  0.00  0.00    -0.647 OA
ENDBRANCH  23  24
ENDBRANCH  22  23
ENDBRANCH  20  22
ENDBRANCH   1  19
TORSDOF 7
