REMARK  4 active torsions:
REMARK  status: ('A' for Active; 'I' for Inactive)
REMARK    1  A    between atoms: C_4  and  C_5 
REMARK    2  A    between atoms: C_5  and  N_6 
REMARK    3  A    between atoms: C_9  and  C_10 
REMARK    4  A    between atoms: C_10  and  C_12 
ROOT
ATOM      1  N   UNL d   1       8.401   5.798 -12.207  0.00  0.00     0.137 N 
ATOM      2  C   UNL d   1       8.541   5.367 -10.816  0.00  0.00     0.251 C 
ATOM      3  C   UNL d   1       9.719   6.083 -10.138  0.00  0.00     0.043 C 
ATOM      4  C   UNL d   1       9.544   7.601 -10.152  0.00  0.00     0.066 C 
ATOM      5  C   UNL d   1       9.221   8.052 -11.601  0.00  0.00     0.043 C 
ATOM      6  C   UNL d   1       8.080   7.221 -12.221  0.00  0.00     0.251 C 
ENDROOT
BRANCH   1   7
ATOM      7  C   UNL d   1       7.302   5.060 -12.825  0.00  0.00     0.251 C 
BRANCH   7   8
ATOM      8  C   UNL d   1       7.761   3.743 -13.450  0.00  0.00     0.047 C 
ATOM      9  C   UNL d   1       6.532   2.931 -13.952  0.00  0.00     0.072 C 
ATOM     10  C   UNL d   1       6.873   1.569 -14.603  0.00  0.00     0.176 C 
ATOM     11  O   UNL d   1       6.129   0.601 -14.502  0.00  0.00    -0.291 OA
ATOM     12  C   UNL d   1       8.150   1.603 -15.341  0.00  0.00     0.071 A 
ATOM     13  C   UNL d   1       9.022   2.643 -15.293  0.00  0.00     0.085 A 
ATOM     14  C   UNL d   1       8.742   0.612 -16.156  0.00  0.00     0.126 A 
ATOM     15  C   UNL d   1       8.865   3.915 -14.533  0.00  0.00     0.050 C 
ATOM     16  N   UNL d   1      10.081   2.265 -16.075  0.00  0.00    -0.152 NA
ATOM     17  N   UNL d   1       9.922   1.033 -16.594  0.00  0.00    -0.147 NA
ENDBRANCH   7   8
ENDBRANCH   1   7
BRANCH   4  18
ATOM     18  C   UNL d   1      10.778   8.317  -9.573  0.00  0.00     0.173 C 
ATOM     19  O   UNL d   1      11.608   8.820 -10.323  0.00  0.00    -0.291 OA
BRANCH  18  20
ATOM     20  C   UNL d   1      10.924   8.366  -8.097  0.00  0.00     0.035 A 
ATOM     21  C   UNL d   1      10.025   7.737  -7.215  0.00  0.00     0.005 A 
ATOM     22  C   UNL d   1      10.260   7.806  -5.833  0.00  0.00     0.030 A 
ATOM     23  C   UNL d   1      11.318   8.555  -5.299  0.00  0.00     0.140 A 
ATOM     24  C   UNL d   1      12.201   9.204  -6.175  0.00  0.00     0.030 A 
ATOM     25  F   UNL d   1      11.512   8.642  -3.962  0.00  0.00    -0.204 F 
ATOM     26  C   UNL d   1      12.019   9.062  -7.555  0.00  0.00     0.005 A 
ENDBRANCH  18  20
ENDBRANCH   4  18
TORSDOF 4
