REMARK  7 active torsions:
REMARK  status: ('A' for Active; 'I' for Inactive)
REMARK       I    between atoms: C_2  and  N_3 
REMARK    1  A    between atoms: C_2  and  C_18 
REMARK    2  A    between atoms: N_3  and  C_4 
REMARK    3  A    between atoms: C_4  and  C_5 
REMARK    4  A    between atoms: C_5  and  C_6 
REMARK    5  A    between atoms: C_6  and  C_7 
REMARK    6  A    between atoms: C_7  and  N_8 
REMARK    7  A    between atoms: C_21  and  C_22 
ROOT
ATOM      1  O   UNL d   1       9.301   4.365 -11.713  0.00  0.00    -0.266 OA
ATOM      2  C   UNL d   1       8.668   5.330 -11.250  0.00  0.00     0.275 C 
ATOM      3  N   UNL d   1       7.503   5.776 -11.733  0.00  0.00    -0.234 NA
ENDROOT
BRANCH   3   4
ATOM      4  C   UNL d   1       6.643   5.057 -12.681  0.00  0.00     0.129 C 
BRANCH   4   5
ATOM      5  C   UNL d   1       7.364   4.163 -13.713  0.00  0.00     0.029 C 
BRANCH   5   6
ATOM      6  C   UNL d   1       8.565   4.858 -14.377  0.00  0.00     0.037 C 
BRANCH   6   7
ATOM      7  C   UNL d   1       9.573   3.861 -14.953  0.00  0.00     0.251 C 
BRANCH   7   8
ATOM      8  N   UNL d   1      10.602   4.541 -15.739  0.00  0.00     0.142 N 
ATOM      9  C   UNL d   1      11.457   3.535 -16.370  0.00  0.00     0.276 C 
ATOM     10  C   UNL d   1      12.613   4.135 -17.159  0.00  0.00     0.007 A 
ATOM     11  C   UNL d   1      13.062   5.446 -16.875  0.00  0.00    -0.022 A 
ATOM     12  C   UNL d   1      13.264   3.372 -18.145  0.00  0.00    -0.003 A 
ATOM     13  C   UNL d   1      12.341   6.268 -15.828  0.00  0.00     0.061 C 
ATOM     14  C   UNL d   1      14.151   5.993 -17.578  0.00  0.00    -0.004 A 
ATOM     15  C   UNL d   1      11.458   5.404 -14.917  0.00  0.00     0.255 C 
ATOM     16  C   UNL d   1      14.796   5.226 -18.565  0.00  0.00    -0.000 A 
ATOM     17  C   UNL d   1      14.352   3.920 -18.848  0.00  0.00    -0.000 A 
ENDBRANCH   7   8
ENDBRANCH   6   7
ENDBRANCH   5   6
ENDBRANCH   4   5
ENDBRANCH   3   4
BRANCH   2  18
ATOM     18  C   UNL d   1       9.224   6.062 -10.085  0.00  0.00     0.058 A 
ATOM     19  C   UNL d   1      10.079   7.178 -10.220  0.00  0.00     0.005 A 
ATOM     20  C   UNL d   1      10.638   7.799  -9.088  0.00  0.00     0.000 A 
ATOM     21  C   UNL d   1      10.313   7.326  -7.792  0.00  0.00     0.000 A 
ATOM     22  C   UNL d   1       9.428   6.233  -7.665  0.00  0.00     0.000 A 
ATOM     23  C   UNL d   1       8.895   5.603  -8.799  0.00  0.00     0.005 A 
BRANCH  21  24
ATOM     24  C   UNL d   1      10.865   7.968  -6.595  0.00  0.00     0.000 A 
ATOM     25  C   UNL d   1      10.908   9.371  -6.508  0.00  0.00     0.000 A 
ATOM     26  C   UNL d   1      11.420   9.990  -5.358  0.00  0.00     0.000 A 
ATOM     27  C   UNL d   1      11.895   9.211  -4.288  0.00  0.00     0.000 A 
ATOM     28  C   UNL d   1      11.853   7.809  -4.366  0.00  0.00     0.000 A 
ATOM     29  C   UNL d   1      11.330   7.189  -5.516  0.00  0.00     0.000 A 
ENDBRANCH  21  24
ENDBRANCH   2  18
TORSDOF 7
