REMARK  8 active torsions:
REMARK  status: ('A' for Active; 'I' for Inactive)
REMARK    1  A    between atoms: O_2  and  C_3 
REMARK    2  A    between atoms: C_8  and  N_9 
REMARK    3  A    between atoms: N_14  and  C_15 
REMARK    4  A    between atoms: C_15  and  C_16 
REMARK    5  A    between atoms: C_16  and  C_17 
REMARK    6  A    between atoms: C_17  and  S_18 
REMARK    7  A    between atoms: S_18  and  C_19 
REMARK    8  A    between atoms: C_22  and  C_23 
ROOT
ATOM      1  N   UNL d   1       9.506   6.313 -10.257  0.00  0.00    -0.346 N 
ATOM      2  C   UNL d   1       9.450   7.268 -11.332  0.00  0.00     0.102 C 
ATOM      3  C   UNL d   1       8.803   6.470 -12.445  0.00  0.00     0.030 C 
ATOM      4  C   UNL d   1       9.056   5.009 -12.181  0.00  0.00     0.085 C 
ATOM      5  C   UNL d   1       8.144   4.034 -12.927  0.00  0.00     0.254 C 
ATOM      6  N   UNL d   1       9.328   3.197 -13.043  0.00  0.00     0.137 N 
ATOM      7  C   UNL d   1      10.206   4.339 -12.980  0.00  0.00     0.254 C 
ATOM      8  C   UNL d   1       9.089   4.975 -10.645  0.00  0.00     0.105 C 
ENDROOT
BRANCH   6   9
ATOM      9  C   UNL d   1       9.434   2.434 -14.269  0.00  0.00     0.251 C 
BRANCH   9  10
ATOM     10  C   UNL d   1      10.900   2.061 -14.598  0.00  0.00     0.047 C 
BRANCH  10  11
ATOM     11  C   UNL d   1      11.014   1.122 -15.801  0.00  0.00     0.067 C 
BRANCH  11  12
ATOM     12  S   UNL d   1      10.388   1.892 -17.321  0.00  0.00    -0.075 SA
BRANCH  12  13
ATOM     13  C   UNL d   1       9.499   0.515 -17.967  0.00  0.00     0.193 A 
ATOM     14  N   UNL d   1       8.214   0.253 -17.632  0.00  0.00    -0.289 N 
ATOM     15  C   UNL d   1       7.959  -0.857 -18.382  0.00  0.00     0.167 A 
ATOM     16  C   UNL d   1       7.370   0.986 -16.678  0.00  0.00     0.134 C 
ATOM     17  N   UNL d   1       9.027  -1.250 -19.095  0.00  0.00    -0.128 NA
ATOM     18  N   UNL d   1      10.035  -0.356 -18.825  0.00  0.00    -0.122 NA
BRANCH  15  19
ATOM     19  C   UNL d   1       6.696  -1.611 -18.437  0.00  0.00     0.036 A 
ATOM     20  C   UNL d   1       5.444  -0.948 -18.478  0.00  0.00     0.003 A 
ATOM     21  C   UNL d   1       4.245  -1.688 -18.419  0.00  0.00     0.000 A 
ATOM     22  C   UNL d   1       4.275  -3.098 -18.397  0.00  0.00     0.000 A 
ATOM     23  C   UNL d   1       5.516  -3.770 -18.410  0.00  0.00     0.000 A 
ATOM     24  C   UNL d   1       6.720  -3.031 -18.421  0.00  0.00     0.003 A 
ENDBRANCH  15  19
ENDBRANCH  12  13
ENDBRANCH  11  12
ENDBRANCH  10  11
ENDBRANCH   9  10
ENDBRANCH   6   9
BRANCH   1  25
ATOM     25  C   UNL d   1       9.785   6.730  -8.931  0.00  0.00     0.079 A 
ATOM     26  C   UNL d   1      10.929   7.472  -8.617  0.00  0.00     0.110 A 
ATOM     27  C   UNL d   1      11.143   7.878  -7.264  0.00  0.00     0.026 A 
ATOM     28  C   UNL d   1      10.210   7.522  -6.278  0.00  0.00     0.002 A 
ATOM     29  C   UNL d   1       9.084   6.779  -6.630  0.00  0.00     0.002 A 
ATOM     30  C   UNL d   1       8.856   6.367  -7.949  0.00  0.00     0.019 A 
BRANCH  26  31
ATOM     31  O   UNL d   1      11.806   7.792  -9.629  0.00  0.00    -0.327 OA
ATOM     32  C   UNL d   1      13.104   8.216  -9.275  0.00  0.00     0.181 C 
ENDBRANCH  26  31
ENDBRANCH   1  25
TORSDOF 8
