REMARK  3 active torsions:
REMARK  status: ('A' for Active; 'I' for Inactive)
REMARK    1  A    between atoms: C_3  and  C_4 
REMARK    2  A    between atoms: N_15  and  C_16 
REMARK    3  A    between atoms: C_16  and  C_17 
ROOT
ATOM      1  O   UNL d   1       9.309   3.249 -13.786  0.00  0.00    -0.289 OA
ATOM      2  C   UNL d   1       8.258   3.728 -13.327  0.00  0.00     0.200 A 
ATOM      3  C   UNL d   1       6.911   3.257 -13.494  0.00  0.00     0.061 A 
ATOM      4  C   UNL d   1       6.159   4.107 -12.750  0.00  0.00     0.119 A 
ATOM      5  O   UNL d   1       6.826   5.130 -12.163  0.00  0.00    -0.326 OA
ATOM      6  C   UNL d   1       8.214   4.957 -12.423  0.00  0.00     0.157 A 
ATOM      7  C   UNL d   1       8.957   4.739 -11.113  0.00  0.00     0.071 C 
ATOM      8  C   UNL d   1       9.011   5.997 -10.304  0.00  0.00     0.254 C 
ATOM      9  N   UNL d   1       9.699   7.098 -10.983  0.00  0.00     0.142 N 
ATOM     10  C   UNL d   1       8.946   7.398 -12.209  0.00  0.00     0.254 C 
ATOM     11  C   UNL d   1       8.837   6.165 -13.111  0.00  0.00     0.071 C 
ENDROOT
BRANCH   3  12
ATOM     12  C   UNL d   1       6.475   2.011 -14.149  0.00  0.00     0.005 A 
ATOM     13  C   UNL d   1       5.472   1.188 -13.616  0.00  0.00     0.000 A 
ATOM     14  C   UNL d   1       5.037   0.073 -14.345  0.00  0.00     0.000 A 
ATOM     15  C   UNL d   1       5.601  -0.223 -15.601  0.00  0.00     0.000 A 
ATOM     16  C   UNL d   1       6.630   0.597 -16.114  0.00  0.00     0.000 A 
ATOM     17  C   UNL d   1       7.074   1.706 -15.387  0.00  0.00     0.000 A 
ENDBRANCH   3  12
BRANCH   9  18
ATOM     18  C   UNL d   1       9.783   8.328 -10.175  0.00  0.00     0.277 C 
BRANCH  18  19
ATOM     19  C   UNL d   1      10.204   8.147  -8.714  0.00  0.00     0.011 C 
ATOM     20  C   UNL d   1      11.443   8.656  -8.288  0.00  0.00    -0.000 C 
ATOM     21  C   UNL d   1      11.857   8.481  -6.951  0.00  0.00     0.029 C 
ATOM     22  C   UNL d   1      11.080   7.718  -6.059  0.00  0.00     0.140 C 
ATOM     23  C   UNL d   1       9.832   7.211  -6.479  0.00  0.00     0.029 C 
ATOM     24  F   UNL d   1      11.530   7.445  -4.802  0.00  0.00    -0.204 F 
ATOM     25  C   UNL d   1       9.364   7.500  -7.770  0.00  0.00    -0.000 C 
ENDBRANCH  18  19
ENDBRANCH   9  18
TORSDOF 3
