REMARK  7 active torsions:
REMARK  status: ('A' for Active; 'I' for Inactive)
REMARK       I    between atoms: C_2  and  N_3 
REMARK    1  A    between atoms: C_2  and  C_7 
REMARK    2  A    between atoms: N_3  and  C_4 
REMARK    3  A    between atoms: C_4  and  C_5 
REMARK    4  A    between atoms: N_15  and  C_16 
REMARK    5  A    between atoms: C_18  and  C_19 
REMARK    6  A    between atoms: C_19  and  C_20 
REMARK    7  A    between atoms: C_25  and  C_26 
ROOT
ATOM      1  C   UNL d   1       8.488   5.216 -12.999  0.00  0.00     0.147 A 
ATOM      2  C   UNL d   1       9.596   4.944 -13.817  0.00  0.00     0.052 A 
ATOM      3  C   UNL d   1       9.476   3.852 -14.692  0.00  0.00     0.068 A 
ATOM      4  N   UNL d   1       8.377   3.074 -14.713  0.00  0.00    -0.228 NA
ATOM      5  C   UNL d   1       7.386   3.419 -13.893  0.00  0.00     0.200 A 
ATOM      6  N   UNL d   1       7.379   4.451 -13.056  0.00  0.00    -0.207 NA
ENDROOT
BRANCH   1   7
ATOM      7  N   UNL d   1       8.527   6.227 -12.038  0.00  0.00    -0.313 N 
ATOM      8  C   UNL d   1       8.829   5.993 -10.699  0.00  0.00     0.057 A 
ATOM      9  C   UNL d   1       8.522   4.827  -9.980  0.00  0.00     0.017 A 
ATOM     10  C   UNL d   1       9.498   7.048 -10.097  0.00  0.00     0.000 A 
ATOM     11  C   UNL d   1       8.900   4.761  -8.628  0.00  0.00     0.002 A 
ATOM     12  C   UNL d   1       9.562   5.844  -8.013  0.00  0.00     0.005 A 
ATOM     13  C   UNL d   1       9.866   7.016  -8.738  0.00  0.00     0.055 A 
ATOM     14  C   UNL d   1       9.672   8.162 -11.082  0.00  0.00     0.052 A 
ATOM     15  C   UNL d   1       9.106   7.545 -12.367  0.00  0.00     0.112 A 
BRANCH  13  16
ATOM     16  C   UNL d   1      10.569   8.165  -8.084  0.00  0.00     0.275 C 
ATOM     17  O   UNL d   1      11.480   8.779  -8.637  0.00  0.00    -0.266 OA
ATOM     18  N   UNL d   1      10.118   8.480  -6.866  0.00  0.00    -0.232 NA
BRANCH  18  19
ATOM     19  C   UNL d   1      10.682   9.531  -6.035  0.00  0.00     0.165 C 
BRANCH  19  20
ATOM     20  C   UNL d   1      11.814   8.988  -5.149  0.00  0.00     0.209 C 
ATOM     21  O   UNL d   1      11.738   9.586  -3.873  0.00  0.00    -0.218 OA
ENDBRANCH  19  20
ENDBRANCH  18  19
ENDBRANCH  13  16
ENDBRANCH   1   7
BRANCH   3  22
ATOM     22  C   UNL d   1      10.601   3.515 -15.647  0.00  0.00     0.072 C 
BRANCH  22  23
ATOM     23  C   UNL d   1      10.918   4.666 -16.591  0.00  0.00    -0.014 A 
ATOM     24  C   UNL d   1      12.093   5.431 -16.423  0.00  0.00     0.000 A 
ATOM     25  C   UNL d   1      12.402   6.484 -17.315  0.00  0.00     0.073 A 
ATOM     26  C   UNL d   1      11.515   6.777 -18.373  0.00  0.00     0.034 A 
ATOM     27  C   UNL d   1      10.333   6.030 -18.535  0.00  0.00     0.140 A 
ATOM     28  C   UNL d   1      10.034   4.979 -17.646  0.00  0.00     0.026 A 
ATOM     29  F   UNL d   1       9.481   6.320 -19.546  0.00  0.00    -0.204 F 
BRANCH  25  30
ATOM     30  C   UNL d   1      13.671   7.301 -17.131  0.00  0.00     0.419 C 
ATOM     31  F   UNL d   1      14.187   7.647 -18.311  0.00  0.00    -0.166 F 
ATOM     32  F   UNL d   1      13.385   8.405 -16.443  0.00  0.00    -0.166 F 
ATOM     33  F   UNL d   1      14.592   6.607 -16.460  0.00  0.00    -0.166 F 
ENDBRANCH  25  30
ENDBRANCH  22  23
ENDBRANCH   3  22
TORSDOF 7
