REMARK  1 active torsions:
REMARK  status: ('A' for Active; 'I' for Inactive)
REMARK    1  A    between atoms: N_5  and  C_6 
ROOT
ATOM      1  C   UNL d   1       9.267   2.165 -15.431  0.00  0.00     0.058 C 
ATOM      2  C   UNL d   1       8.320   2.459 -14.514  0.00  0.00     0.019 C 
ATOM      3  C   UNL d   1       8.240   3.626 -13.636  0.00  0.00     0.024 A 
ATOM      4  C   UNL d   1       6.960   4.081 -13.257  0.00  0.00     0.002 A 
ATOM      5  C   UNL d   1       6.821   5.216 -12.437  0.00  0.00     0.000 A 
ATOM      6  C   UNL d   1       7.964   5.902 -11.993  0.00  0.00     0.002 A 
ATOM      7  C   UNL d   1       9.244   5.443 -12.353  0.00  0.00     0.025 A 
ATOM      8  C   UNL d   1       9.389   4.310 -13.180  0.00  0.00     0.100 A 
ATOM      9  O   UNL d   1      10.649   3.844 -13.450  0.00  0.00    -0.307 OA
ATOM     10  C   UNL d   1      11.065   3.842 -14.752  0.00  0.00     0.101 A 
ATOM     11  C   UNL d   1      12.171   4.653 -15.096  0.00  0.00     0.025 A 
ATOM     12  C   UNL d   1      12.681   4.660 -16.404  0.00  0.00     0.002 A 
ATOM     13  C   UNL d   1      12.072   3.853 -17.383  0.00  0.00     0.000 A 
ATOM     14  C   UNL d   1      10.954   3.071 -17.054  0.00  0.00     0.003 A 
ATOM     15  C   UNL d   1      10.446   3.022 -15.732  0.00  0.00     0.038 A 
ENDROOT
BRANCH   1  16
ATOM     16  N   UNL d   1       9.167   0.974 -16.151  0.00  0.00    -0.344 N 
ATOM     17  C   UNL d   1      10.269   0.053 -16.440  0.00  0.00     0.137 C 
ATOM     18  C   UNL d   1      10.319  -0.326 -17.938  0.00  0.00     0.274 C 
ATOM     19  N   UNL d   1       9.033  -0.889 -18.346  0.00  0.00     0.143 N 
ATOM     20  C   UNL d   1       9.073  -1.236 -19.757  0.00  0.00     0.286 C 
ATOM     21  C   UNL d   1       7.979   0.103 -18.133  0.00  0.00     0.274 C 
ATOM     22  C   UNL d   1       7.892   0.447 -16.636  0.00  0.00     0.137 C 
ENDBRANCH   1  16
TORSDOF 1
