REMARK  4 active torsions:
REMARK  status: ('A' for Active; 'I' for Inactive)
REMARK       I    between atoms: C_2  and  N_4 
REMARK    1  A    between atoms: N_4  and  C_5 
REMARK    2  A    between atoms: C_9  and  C_10 
REMARK    3  A    between atoms: N_12  and  S_13 
REMARK    4  A    between atoms: S_13  and  C_16 
ROOT
ATOM      1  C   UNL d   1       8.495   3.327 -14.014  0.00  0.00     0.039 A 
ATOM      2  C   UNL d   1       9.541   3.055 -14.875  0.00  0.00     0.093 A 
ATOM      3  N   UNL d   1       9.251   1.918 -15.624  0.00  0.00    -0.231 N 
ATOM      4  C   UNL d   1       8.000   1.418 -15.266  0.00  0.00     0.075 A 
ATOM      5  C   UNL d   1       7.268   0.287 -15.710  0.00  0.00     0.018 A 
ATOM      6  C   UNL d   1       6.002  -0.027 -15.150  0.00  0.00     0.002 A 
ATOM      7  C   UNL d   1       5.513   0.805 -14.117  0.00  0.00     0.000 A 
ATOM      8  C   UNL d   1       6.257   1.904 -13.660  0.00  0.00     0.002 A 
ATOM      9  C   UNL d   1       7.504   2.282 -14.237  0.00  0.00     0.020 A 
ENDROOT
BRANCH   1  10
ATOM     10  C   UNL d   1       8.370   4.441 -13.047  0.00  0.00     0.115 A 
ATOM     11  C   UNL d   1       7.270   5.043 -12.443  0.00  0.00     0.096 A 
ATOM     12  N   UNL d   1       7.750   6.018 -11.617  0.00  0.00    -0.062 NA
ATOM     13  C   UNL d   1       5.789   4.854 -12.516  0.00  0.00     0.054 C 
ATOM     14  C   UNL d   1       9.068   6.022 -11.719  0.00  0.00     0.752 A 
ATOM     15  N   UNL d   1       9.529   5.119 -12.585  0.00  0.00    -0.058 NA
BRANCH  14  16
ATOM     16  N   UNL d   1       9.861   6.918 -10.967  0.00  0.00    -0.023 NA
ATOM     17  C   UNL d   1       9.840   7.046  -9.625  0.00  0.00     0.273 C 
ATOM     18  C   UNL d   1       8.969   6.117  -8.774  0.00  0.00     0.101 C 
ATOM     19  O   UNL d   1      10.550   7.896  -9.073  0.00  0.00    -0.270 OA
ENDBRANCH  14  16
ENDBRANCH   1  10
BRANCH   3  20
ATOM     20  S   UNL d   1      10.287   1.244 -16.826  0.00  0.00     0.271 S 
ATOM     21  O   UNL d   1      11.563   1.993 -16.715  0.00  0.00    -0.200 OA
ATOM     22  O   UNL d   1      10.235  -0.206 -16.625  0.00  0.00    -0.200 OA
BRANCH  20  23
ATOM     23  C   UNL d   1       9.465   1.704 -18.352  0.00  0.00     0.104 A 
ATOM     24  C   UNL d   1       9.794   2.908 -19.000  0.00  0.00     0.013 A 
ATOM     25  C   UNL d   1       9.144   3.248 -20.206  0.00  0.00     0.001 A 
ATOM     26  C   UNL d   1       8.164   2.393 -20.750  0.00  0.00     0.000 A 
ATOM     27  C   UNL d   1       7.828   1.196 -20.090  0.00  0.00     0.001 A 
ATOM     28  C   UNL d   1       8.485   0.846 -18.898  0.00  0.00     0.013 A 
ENDBRANCH  20  23
ENDBRANCH   3  20
TORSDOF 4
