REMARK  2 active torsions:
REMARK  status: ('A' for Active; 'I' for Inactive)
REMARK    1  A    between atoms: C_8  and  N_9 
REMARK    2  A    between atoms: C_14  and  C_15 
ROOT
ATOM      1  C   UNL d   1       7.584   0.310 -18.470  0.00  0.00     0.285 C 
ATOM      2  N   UNL d   1       7.814   0.560 -17.053  0.00  0.00     0.140 N 
ATOM      3  C   UNL d   1       6.537   0.451 -16.357  0.00  0.00     0.255 C 
ATOM      4  C   UNL d   1       6.714   0.410 -14.835  0.00  0.00     0.061 C 
ATOM      5  C   UNL d   1       6.854   1.786 -14.219  0.00  0.00    -0.024 A 
ATOM      6  C   UNL d   1       5.862   2.204 -13.313  0.00  0.00    -0.003 A 
ATOM      7  C   UNL d   1       5.905   3.472 -12.708  0.00  0.00     0.017 A 
ATOM      8  C   UNL d   1       6.966   4.349 -13.012  0.00  0.00     0.056 A 
ATOM      9  C   UNL d   1       7.968   3.926 -13.909  0.00  0.00     0.013 A 
ATOM     10  C   UNL d   1       7.933   2.644 -14.524  0.00  0.00    -0.019 A 
ATOM     11  C   UNL d   1       9.030   2.184 -15.501  0.00  0.00     0.078 C 
ATOM     12  C   UNL d   1       8.481   1.858 -16.915  0.00  0.00     0.259 C 
ENDROOT
BRANCH  11  13
ATOM     13  C   UNL d   1      10.224   3.144 -15.564  0.00  0.00    -0.017 A 
ATOM     14  C   UNL d   1      11.156   3.140 -14.503  0.00  0.00    -0.004 A 
ATOM     15  C   UNL d   1      12.268   4.003 -14.527  0.00  0.00    -0.000 A 
ATOM     16  C   UNL d   1      12.470   4.861 -15.625  0.00  0.00    -0.000 A 
ATOM     17  C   UNL d   1      11.545   4.876 -16.685  0.00  0.00    -0.000 A 
ATOM     18  C   UNL d   1      10.420   4.032 -16.652  0.00  0.00    -0.004 A 
ENDBRANCH  11  13
BRANCH   8  19
ATOM     19  N   UNL d   1       7.046   5.630 -12.437  0.00  0.00    -0.344 N 
ATOM     20  C   UNL d   1       5.774   6.308 -12.226  0.00  0.00     0.126 C 
ATOM     21  C   UNL d   1       7.978   5.713 -11.327  0.00  0.00     0.126 C 
ENDBRANCH   8  19
TORSDOF 2
