REMARK  4 active torsions:
REMARK  status: ('A' for Active; 'I' for Inactive)
REMARK    1  A    between atoms: C_4  and  C_5 
REMARK    2  A    between atoms: C_5  and  N_6 
REMARK    3  A    between atoms: N_9  and  C_10 
REMARK    4  A    between atoms: C_19  and  C_20 
ROOT
ATOM      1  O   UNL d   1       5.786   5.163 -12.543  0.00  0.00    -0.270 OA
ATOM      2  C   UNL d   1       7.012   5.199 -12.401  0.00  0.00     0.259 C 
ATOM      3  C   UNL d   1       7.886   4.692 -13.524  0.00  0.00     0.116 C 
ATOM      4  C   UNL d   1       9.246   4.187 -12.957  0.00  0.00     0.148 C 
ATOM      5  N   UNL d   1       9.812   5.156 -12.018  0.00  0.00    -0.252 NA
ATOM      6  C   UNL d   1       8.995   5.700 -11.157  0.00  0.00     0.161 C 
ATOM      7  N   UNL d   1       7.602   5.576 -11.281  0.00  0.00    -0.193 NA
ENDROOT
BRANCH   4   8
ATOM      8  C   UNL d   1      10.263   3.891 -14.120  0.00  0.00     0.275 C 
BRANCH   8   9
ATOM      9  N   UNL d   1       9.931   2.792 -15.043  0.00  0.00     0.143 N 
ATOM     10  C   UNL d   1       8.872   3.194 -15.987  0.00  0.00     0.274 C 
ATOM     11  C   UNL d   1       8.472   2.075 -16.966  0.00  0.00     0.137 C 
ATOM     12  N   UNL d   1       8.136   0.887 -16.188  0.00  0.00    -0.344 N 
ATOM     13  C   UNL d   1       9.152   0.430 -15.269  0.00  0.00     0.137 C 
ATOM     14  C   UNL d   1       9.534   1.578 -14.315  0.00  0.00     0.274 C 
BRANCH  12  15
ATOM     15  C   UNL d   1       6.864   0.201 -16.328  0.00  0.00     0.056 A 
ATOM     16  C   UNL d   1       6.251  -0.385 -15.222  0.00  0.00     0.017 A 
ATOM     17  C   UNL d   1       5.048  -1.105 -15.372  0.00  0.00     0.002 A 
ATOM     18  C   UNL d   1       4.444  -1.216 -16.646  0.00  0.00     0.000 A 
ATOM     19  C   UNL d   1       5.062  -0.592 -17.756  0.00  0.00     0.002 A 
ATOM     20  C   UNL d   1       6.269   0.112 -17.594  0.00  0.00     0.017 A 
ENDBRANCH  12  15
ENDBRANCH   8   9
ENDBRANCH   4   8
BRANCH   6  21
ATOM     21  C   UNL d   1       9.491   6.546 -10.069  0.00  0.00     0.036 A 
ATOM     22  C   UNL d   1      10.171   7.728 -10.393  0.00  0.00     0.003 A 
ATOM     23  C   UNL d   1      10.565   8.597  -9.344  0.00  0.00     0.000 A 
ATOM     24  C   UNL d   1      10.269   8.245  -8.015  0.00  0.00     0.000 A 
ATOM     25  C   UNL d   1       9.584   7.056  -7.704  0.00  0.00     0.000 A 
ATOM     26  C   UNL d   1       9.194   6.187  -8.752  0.00  0.00     0.003 A 
ENDBRANCH   6  21
TORSDOF 4
