REMARK  5 active torsions:
REMARK  status: ('A' for Active; 'I' for Inactive)
REMARK    1  A    between atoms: O_2  and  C_3 
REMARK    2  A    between atoms: C_8  and  N_9 
REMARK    3  A    between atoms: N_12  and  C_13 
REMARK    4  A    between atoms: C_13  and  C_14 
REMARK    5  A    between atoms: N_16  and  C_17 
ROOT
ATOM      1  N   UNL d   1       7.657   5.322 -11.905  0.00  0.00    -0.343 N 
ATOM      2  C   UNL d   1       7.757   5.265 -10.451  0.00  0.00     0.137 C 
ATOM      3  C   UNL d   1       9.157   5.660  -9.970  0.00  0.00     0.275 C 
ATOM      4  N   UNL d   1       9.540   6.963 -10.526  0.00  0.00     0.147 N 
ATOM      5  C   UNL d   1       9.519   6.877 -11.989  0.00  0.00     0.275 C 
ATOM      6  C   UNL d   1       8.109   6.557 -12.511  0.00  0.00     0.137 C 
ENDROOT
BRANCH   4   7
ATOM      7  C   UNL d   1      10.857   7.345 -10.041  0.00  0.00     0.299 C 
BRANCH   7   8
ATOM      8  C   UNL d   1      11.017   7.846  -8.650  0.00  0.00     0.135 A 
ATOM      9  N   UNL d   1      10.978   9.207  -8.404  0.00  0.00    -0.131 NA
ATOM     10  N   UNL d   1      11.114   9.429  -7.142  0.00  0.00    -0.060 NA
ATOM     11  N   UNL d   1      11.265   8.228  -6.535  0.00  0.00    -0.209 N 
ATOM     12  C   UNL d   1      11.224   7.198  -7.468  0.00  0.00     0.121 A 
BRANCH  11  13
ATOM     13  C   UNL d   1      11.469   8.154  -5.132  0.00  0.00     0.085 A 
ATOM     14  C   UNL d   1      11.612   9.324  -4.342  0.00  0.00     0.019 A 
ATOM     15  C   UNL d   1      11.866   9.218  -2.962  0.00  0.00     0.002 A 
ATOM     16  C   UNL d   1      11.992   7.954  -2.360  0.00  0.00     0.000 A 
ATOM     17  C   UNL d   1      11.858   6.790  -3.133  0.00  0.00     0.002 A 
ATOM     18  C   UNL d   1      11.600   6.893  -4.512  0.00  0.00     0.019 A 
ENDBRANCH  11  13
ENDBRANCH   7   8
ENDBRANCH   4   7
BRANCH   1  19
ATOM     19  C   UNL d   1       7.203   4.234 -12.658  0.00  0.00     0.079 A 
ATOM     20  C   UNL d   1       7.992   3.699 -13.715  0.00  0.00     0.110 A 
ATOM     21  C   UNL d   1       7.500   2.582 -14.437  0.00  0.00     0.026 A 
ATOM     22  C   UNL d   1       6.264   1.999 -14.108  0.00  0.00     0.002 A 
ATOM     23  C   UNL d   1       5.494   2.524 -13.059  0.00  0.00     0.002 A 
ATOM     24  C   UNL d   1       5.967   3.635 -12.334  0.00  0.00     0.019 A 
BRANCH  20  25
ATOM     25  O   UNL d   1       9.216   4.285 -13.956  0.00  0.00    -0.327 OA
ATOM     26  C   UNL d   1      10.021   3.774 -15.004  0.00  0.00     0.181 C 
ENDBRANCH  20  25
ENDBRANCH   1  19
TORSDOF 5
