REMARK  7 active torsions:
REMARK  status: ('A' for Active; 'I' for Inactive)
REMARK    1  A    between atoms: S_2  and  N_4 
REMARK    2  A    between atoms: S_2  and  C_20 
REMARK    3  A    between atoms: N_4  and  C_5 
REMARK    4  A    between atoms: N_8  and  C_9 
REMARK    5  A    between atoms: C_9  and  C_10 
REMARK    6  A    between atoms: C_10  and  O_11 
REMARK    7  A    between atoms: O_11  and  C_12 
ROOT
ATOM      1  C   UNL d   1       9.448   6.371 -10.673  0.00  0.00     0.151 C 
ATOM      2  C   UNL d   1       8.939   7.168 -11.871  0.00  0.00     0.063 C 
ATOM      3  C   UNL d   1       7.729   6.367 -12.355  0.00  0.00     0.253 C 
ATOM      4  N   UNL d   1       7.970   5.008 -11.889  0.00  0.00     0.142 N 
ATOM      5  C   UNL d   1       8.474   5.208 -10.540  0.00  0.00     0.275 C 
ENDROOT
BRANCH   4   6
ATOM      6  C   UNL d   1       6.755   4.184 -11.887  0.00  0.00     0.283 C 
BRANCH   6   7
ATOM      7  C   UNL d   1       6.696   3.362 -13.189  0.00  0.00     0.184 C 
BRANCH   7   8
ATOM      8  O   UNL d   1       5.779   2.278 -13.091  0.00  0.00    -0.329 OA
BRANCH   8   9
ATOM      9  C   UNL d   1       5.854   1.283 -14.044  0.00  0.00     0.096 A 
ATOM     10  C   UNL d   1       6.801   1.301 -15.106  0.00  0.00     0.054 A 
ATOM     11  C   UNL d   1       6.796   0.277 -16.078  0.00  0.00     0.142 A 
ATOM     12  C   UNL d   1       5.852  -0.765 -16.019  0.00  0.00     0.030 A 
ATOM     13  F   UNL d   1       7.707   0.309 -17.074  0.00  0.00    -0.204 F 
ATOM     14  C   UNL d   1       4.901  -0.785 -14.980  0.00  0.00     0.004 A 
ATOM     15  C   UNL d   1       4.910   0.234 -14.003  0.00  0.00     0.024 A 
ENDBRANCH   8   9
ENDBRANCH   7   8
ENDBRANCH   6   7
ENDBRANCH   4   6
BRANCH   1  16
ATOM     16  N   UNL d   1       9.460   7.153  -9.441  0.00  0.00    -0.184 NA
BRANCH  16  17
ATOM     17  S   UNL d   1      10.806   8.191  -9.103  0.00  0.00     0.287 S 
ATOM     18  O   UNL d   1      12.030   7.593  -9.645  0.00  0.00    -0.198 OA
ATOM     19  O   UNL d   1      10.417   9.568  -9.447  0.00  0.00    -0.198 OA
BRANCH  17  20
ATOM     20  C   UNL d   1      10.996   8.102  -7.343  0.00  0.00     0.134 A 
ATOM     21  S   UNL d   1      11.450   9.484  -6.387  0.00  0.00    -0.073 SA
ATOM     22  C   UNL d   1      11.418   8.517  -4.935  0.00  0.00     0.036 A 
ATOM     23  C   UNL d   1      11.067   7.217  -5.199  0.00  0.00     0.008 A 
ATOM     24  C   UNL d   1      10.828   6.977  -6.580  0.00  0.00     0.020 A 
ENDBRANCH  17  20
ENDBRANCH  16  17
ENDBRANCH   1  16
TORSDOF 7
