REMARK  3 active torsions:
REMARK  status: ('A' for Active; 'I' for Inactive)
REMARK    1  A    between atoms: C_5  and  N_6 
REMARK    2  A    between atoms: N_10  and  C_11 
REMARK    3  A    between atoms: C_11  and  C_12 
ROOT
ATOM      1  N   UNL d   1      10.082   1.435 -15.591  0.00  0.00    -0.347 N 
ATOM      2  C   UNL d   1      11.048   1.433 -16.682  0.00  0.00     0.103 C 
ATOM      3  C   UNL d   1      10.767   0.404 -17.805  0.00  0.00     0.042 C 
ATOM      4  C   UNL d   1       9.356   0.461 -18.417  0.00  0.00     0.079 C 
ATOM      5  N   UNL d   1       8.467  -0.441 -17.715  0.00  0.00    -0.250 NA
ATOM      6  C   UNL d   1       8.240   0.135 -16.438  0.00  0.00     0.101 C 
ATOM      7  C   UNL d   1       9.302   0.231 -15.383  0.00  0.00     0.119 C 
ENDROOT
BRANCH   5   8
ATOM      8  C   UNL d   1       7.182  -0.534 -18.416  0.00  0.00     0.049 C 
BRANCH   8   9
ATOM      9  C   UNL d   1       5.889  -0.974 -17.753  0.00  0.00     0.033 A 
ATOM     10  C   UNL d   1       5.354  -0.577 -16.431  0.00  0.00     0.038 A 
ATOM     11  C   UNL d   1       4.143  -1.280 -16.212  0.00  0.00     0.163 A 
ATOM     12  C   UNL d   1       5.704   0.270 -15.340  0.00  0.00     0.005 A 
ATOM     13  N   UNL d   1       3.906  -1.978 -17.382  0.00  0.00    -0.225 NA
ATOM     14  N   UNL d   1       3.340  -1.212 -15.114  0.00  0.00    -0.225 NA
ATOM     15  C   UNL d   1       4.954  -1.839 -18.285  0.00  0.00     0.102 A 
ATOM     16  C   UNL d   1       3.833  -0.444 -14.103  0.00  0.00     0.101 A 
ATOM     17  C   UNL d   1       5.013   0.297 -14.156  0.00  0.00     0.021 A 
ENDBRANCH   8   9
ENDBRANCH   5   8
BRANCH   1  18
ATOM     18  C   UNL d   1       9.820   2.616 -14.864  0.00  0.00     0.056 A 
ATOM     19  C   UNL d   1      10.780   3.642 -14.818  0.00  0.00     0.018 A 
ATOM     20  C   UNL d   1      10.542   4.801 -14.072  0.00  0.00     0.013 A 
ATOM     21  C   UNL d   1       9.342   4.962 -13.357  0.00  0.00     0.058 A 
ATOM     22 CL   UNL d   1       9.055   6.394 -12.434  0.00  0.00    -0.082 Cl
ATOM     23  C   UNL d   1       8.370   3.952 -13.402  0.00  0.00     0.013 A 
ATOM     24  C   UNL d   1       8.611   2.790 -14.153  0.00  0.00     0.018 A 
ENDBRANCH   1  18
TORSDOF 3
