REMARK  11 active torsions:
REMARK  status: ('A' for Active; 'I' for Inactive)
REMARK       I    between atoms: N_2  and  C_3 
REMARK    1  A    between atoms: C_3  and  C_5 
REMARK    2  A    between atoms: C_9  and  C_10 
REMARK    3  A    between atoms: C_13  and  C_14 
REMARK       I    between atoms: C_14  and  N_16 
REMARK    4  A    between atoms: N_16  and  C_17 
REMARK    5  A    between atoms: C_17  and  C_18 
REMARK    6  A    between atoms: C_18  and  C_19 
REMARK    7  A    between atoms: C_19  and  C_20 
REMARK    8  A    between atoms: C_20  and  N_21 
REMARK    9  A    between atoms: C_27  and  O_28 
REMARK   10  A    between atoms: O_28  and  S_29 
REMARK   11  A    between atoms: S_29  and  C_32 
ROOT
ATOM      1  C   UNL d   1       4.881  -0.469 -15.450  0.00  0.00     0.029 C 
ENDROOT
BRANCH   1   2
ATOM      2  C   UNL d   1       5.297  -0.438 -13.990  0.00  0.00     0.129 C 
BRANCH   2   3
ATOM      3  N   UNL d   1       5.865   0.873 -13.633  0.00  0.00    -0.234 NA
ATOM      4  C   UNL d   1       6.686   1.673 -14.359  0.00  0.00     0.275 C 
ATOM      5  O   UNL d   1       7.080   1.449 -15.498  0.00  0.00    -0.266 OA
BRANCH   4   6
ATOM      6  C   UNL d   1       7.189   2.889 -13.657  0.00  0.00     0.058 A 
ATOM      7  C   UNL d   1       8.534   3.261 -13.838  0.00  0.00     0.005 A 
ATOM      8  C   UNL d   1       9.043   4.396 -13.190  0.00  0.00     0.000 A 
ATOM      9  C   UNL d   1       8.212   5.163 -12.348  0.00  0.00     0.000 A 
ATOM     10  C   UNL d   1       6.862   4.787 -12.177  0.00  0.00     0.000 A 
ATOM     11  C   UNL d   1       6.341   3.651 -12.821  0.00  0.00     0.005 A 
BRANCH   9  12
ATOM     12  C   UNL d   1       8.749   6.343 -11.669  0.00  0.00     0.000 A 
ATOM     13  C   UNL d   1       8.624   7.603 -12.271  0.00  0.00     0.000 A 
ATOM     14  C   UNL d   1       9.128   8.755 -11.643  0.00  0.00     0.000 A 
ATOM     15  C   UNL d   1       9.791   8.657 -10.401  0.00  0.00     0.005 A 
ATOM     16  C   UNL d   1       9.897   7.400  -9.769  0.00  0.00     0.058 A 
ATOM     17  C   UNL d   1       9.383   6.250 -10.412  0.00  0.00     0.005 A 
BRANCH  16  18
ATOM     18  C   UNL d   1      10.574   7.299  -8.440  0.00  0.00     0.275 C 
ATOM     19  N   UNL d   1       9.818   6.850  -7.429  0.00  0.00    -0.232 NA
ATOM     20  C   UNL d   1      10.282   6.765  -6.049  0.00  0.00     0.155 C 
ATOM     21  O   UNL d   1      11.745   7.654  -8.304  0.00  0.00    -0.266 OA
ENDBRANCH  16  18
ENDBRANCH   9  12
ENDBRANCH   4   6
ENDBRANCH   2   3
ENDBRANCH   1   2
BRANCH   1  22
ATOM     22  C   UNL d   1       4.385  -1.815 -15.981  0.00  0.00     0.037 C 
BRANCH  22  23
ATOM     23  C   UNL d   1       4.123  -1.812 -17.514  0.00  0.00     0.251 C 
BRANCH  23  24
ATOM     24  N   UNL d   1       5.346  -1.968 -18.316  0.00  0.00     0.142 N 
ATOM     25  C   UNL d   1       6.094  -0.719 -18.350  0.00  0.00     0.277 C 
ATOM     26  C   UNL d   1       7.312  -0.707 -19.216  0.00  0.00     0.009 A 
ATOM     27  C   UNL d   1       7.427  -1.643 -20.270  0.00  0.00    -0.022 A 
ATOM     28  C   UNL d   1       8.347   0.212 -18.958  0.00  0.00     0.023 A 
ATOM     29  C   UNL d   1       6.322  -2.671 -20.463  0.00  0.00     0.061 C 
ATOM     30  C   UNL d   1       8.575  -1.619 -21.087  0.00  0.00    -0.002 A 
ATOM     31  C   UNL d   1       5.018  -2.318 -19.703  0.00  0.00     0.255 C 
ATOM     32  C   UNL d   1       9.595  -0.675 -20.843  0.00  0.00     0.025 A 
ATOM     33  C   UNL d   1       9.493   0.231 -19.769  0.00  0.00     0.113 A 
BRANCH  33  34
ATOM     34  O   UNL d   1      10.486   1.144 -19.538  0.00  0.00    -0.224 OA
BRANCH  34  35
ATOM     35  S   UNL d   1      11.627   0.726 -18.370  0.00  0.00     0.374 S 
ATOM     36  O   UNL d   1      10.963   0.822 -17.053  0.00  0.00    -0.189 OA
ATOM     37  O   UNL d   1      12.270  -0.518 -18.800  0.00  0.00    -0.189 OA
BRANCH  35  38
ATOM     38  C   UNL d   1      12.798   2.145 -18.577  0.00  0.00     0.524 C 
ATOM     39  F   UNL d   1      12.973   2.743 -17.400  0.00  0.00    -0.155 F 
ATOM     40  F   UNL d   1      13.961   1.685 -19.035  0.00  0.00    -0.155 F 
ATOM     41  F   UNL d   1      12.289   3.019 -19.446  0.00  0.00    -0.155 F 
ENDBRANCH  35  38
ENDBRANCH  34  35
ENDBRANCH  33  34
ENDBRANCH  23  24
ENDBRANCH  22  23
ENDBRANCH   1  22
TORSDOF 11
