REMARK  6 active torsions:
REMARK  status: ('A' for Active; 'I' for Inactive)
REMARK       I    between atoms: C_2  and  N_3 
REMARK    1  A    between atoms: C_2  and  C_27 
REMARK    2  A    between atoms: N_3  and  C_4 
REMARK    3  A    between atoms: C_7  and  C_8 
REMARK    4  A    between atoms: C_8  and  C_9 
REMARK    5  A    between atoms: C_9  and  N_10 
REMARK    6  A    between atoms: C_13  and  C_14 
ROOT
ATOM      1  N   UNL d   1       9.222   6.035  -9.302  0.00  0.00     0.137 N 
ATOM      2  C   UNL d   1      10.656   5.961  -9.039  0.00  0.00     0.251 C 
ATOM      3  C   UNL d   1      11.106   7.003  -8.029  0.00  0.00     0.040 C 
ATOM      4  C   UNL d   1      10.396   6.771  -6.708  0.00  0.00     0.028 C 
ATOM      5  C   UNL d   1       8.881   6.690  -6.956  0.00  0.00     0.040 C 
ATOM      6  C   UNL d   1       8.540   5.677  -8.059  0.00  0.00     0.251 C 
ENDROOT
BRANCH   1   7
ATOM      7  C   UNL d   1       8.848   5.090 -10.340  0.00  0.00     0.250 C 
BRANCH   7   8
ATOM      8  C   UNL d   1       9.306   5.564 -11.729  0.00  0.00     0.035 C 
BRANCH   8   9
ATOM      9  C   UNL d   1       9.560   4.402 -12.706  0.00  0.00     0.002 C 
ATOM     10  C   UNL d   1       8.250   3.959 -13.369  0.00  0.00     0.002 C 
ATOM     11  C   UNL d   1       8.485   2.848 -14.400  0.00  0.00     0.024 C 
ATOM     12  C   UNL d   1       9.517   3.275 -15.465  0.00  0.00     0.107 C 
ATOM     13  C   UNL d   1      10.839   3.685 -14.804  0.00  0.00     0.024 C 
ATOM     14  C   UNL d   1      10.606   4.783 -13.764  0.00  0.00     0.002 C 
BRANCH  12  15
ATOM     15  N   UNL d   1       9.763   2.190 -16.404  0.00  0.00    -0.233 NA
ATOM     16  C   UNL d   1       8.937   1.816 -17.390  0.00  0.00     0.347 C 
ATOM     17  O   UNL d   1       7.866   2.387 -17.618  0.00  0.00    -0.261 OA
BRANCH  16  18
ATOM     18  C   UNL d   1       9.388   0.623 -18.238  0.00  0.00     0.474 C 
ATOM     19  F   UNL d   1       9.478  -0.462 -17.466  0.00  0.00    -0.162 F 
ATOM     20  F   UNL d   1       8.515   0.398 -19.221  0.00  0.00    -0.162 F 
ATOM     21  F   UNL d   1      10.584   0.888 -18.759  0.00  0.00    -0.162 F 
ENDBRANCH  16  18
ENDBRANCH  12  15
ENDBRANCH   8   9
ENDBRANCH   7   8
ENDBRANCH   1   7
BRANCH   4  22
ATOM     22  C   UNL d   1      10.786   7.849  -5.725  0.00  0.00     0.002 A 
ATOM     23  C   UNL d   1      11.469   7.579  -4.529  0.00  0.00     0.115 A 
ATOM     24  C   UNL d   1      11.808   8.578  -3.644  0.00  0.00     0.119 A 
ATOM     25  O   UNL d   1      11.855   6.387  -4.018  0.00  0.00    -0.300 OA
ATOM     26  C   UNL d   1      11.457   9.917  -3.887  0.00  0.00     0.026 A 
ATOM     27  O   UNL d   1      12.422   8.050  -2.555  0.00  0.00    -0.300 OA
ATOM     28  C   UNL d   1      10.816  10.203  -5.103  0.00  0.00     0.002 A 
ATOM     29  C   UNL d   1      10.486   9.190  -6.021  0.00  0.00    -0.002 A 
ATOM     30  C   UNL d   1      12.447   6.665  -2.782  0.00  0.00     0.304 A 
ENDBRANCH   4  22
TORSDOF 6
