REMARK  10 active torsions:
REMARK  status: ('A' for Active; 'I' for Inactive)
REMARK    1  A    between atoms: C_2  and  C_3 
REMARK    2  A    between atoms: C_3  and  N_4 
REMARK    3  A    between atoms: N_4  and  C_5 
REMARK    4  A    between atoms: N_4  and  C_21 
REMARK    5  A    between atoms: C_5  and  C_6 
REMARK    6  A    between atoms: C_6  and  C_7 
REMARK    7  A    between atoms: C_7  and  C_8 
REMARK    8  A    between atoms: C_8  and  O_9 
REMARK    9  A    between atoms: O_9  and  C_10 
REMARK   10  A    between atoms: C_16  and  C_17 
ROOT
ATOM      1  C   UNL d   1      10.290   5.913  -9.033  0.00  0.00     0.097 C 
ENDROOT
BRANCH   1   2
ATOM      2  N   UNL d   1      10.486   7.215  -8.361  0.00  0.00    -0.370 N 
BRANCH   2   3
ATOM      3  C   UNL d   1       9.614   8.279  -8.868  0.00  0.00     0.097 C 
BRANCH   3   4
ATOM      4  C   UNL d   1      10.164   8.959 -10.135  0.00  0.00     0.024 C 
ATOM      5  C   UNL d   1      11.699   8.877 -10.314  0.00  0.00     0.002 C 
ENDBRANCH   3   4
ENDBRANCH   2   3
BRANCH   2   6
ATOM      6  C   UNL d   1      10.608   7.217  -6.907  0.00  0.00     0.082 C 
ATOM      7  C   UNL d   1      11.078   8.614  -6.413  0.00  0.00     0.048 C 
ATOM      8  C   UNL d   1      11.481   8.648  -4.957  0.00  0.00    -0.022 A 
ATOM      9  C   UNL d   1      11.800   7.476  -4.243  0.00  0.00    -0.001 A 
ATOM     10  C   UNL d   1      11.501   9.890  -4.308  0.00  0.00    -0.004 A 
ATOM     11  C   UNL d   1      11.723   6.139  -4.921  0.00  0.00     0.030 C 
ATOM     12  C   UNL d   1      12.155   7.544  -2.883  0.00  0.00     0.127 A 
ATOM     13  C   UNL d   1      11.680   6.204  -6.454  0.00  0.00     0.027 C 
ATOM     14  O   UNL d   1      12.399   6.417  -2.155  0.00  0.00    -0.191 OA
ATOM     15  C   UNL d   1      12.221   8.794  -2.251  0.00  0.00     0.027 A 
ATOM     16  C   UNL d   1      11.870   9.957  -2.961  0.00  0.00     0.002 A 
ENDBRANCH   2   6
ENDBRANCH   1   2
BRANCH   1  17
ATOM     17  C   UNL d   1       8.819   5.439  -9.139  0.00  0.00     0.026 C 
BRANCH  17  18
ATOM     18  C   UNL d   1       8.253   5.675 -10.571  0.00  0.00     0.035 C 
BRANCH  18  19
ATOM     19  C   UNL d   1       9.070   4.958 -11.675  0.00  0.00     0.149 C 
BRANCH  19  20
ATOM     20  O   UNL d   1       8.436   5.058 -12.942  0.00  0.00    -0.331 OA
BRANCH  20  21
ATOM     21  C   UNL d   1       7.729   3.955 -13.303  0.00  0.00     0.097 A 
ATOM     22  C   UNL d   1       8.342   3.009 -14.088  0.00  0.00     0.044 A 
ATOM     23  C   UNL d   1       7.620   1.850 -14.478  0.00  0.00     0.090 A 
ATOM     24  N   UNL d   1       6.289   1.739 -14.014  0.00  0.00    -0.228 N 
ATOM     25  C   UNL d   1       7.847   0.728 -15.230  0.00  0.00     0.081 A 
ATOM     26  C   UNL d   1       5.691   2.670 -13.221  0.00  0.00     0.102 A 
ATOM     27  N   UNL d   1       5.705   0.578 -14.448  0.00  0.00    -0.164 NA
ATOM     28  C   UNL d   1       6.393   3.790 -12.854  0.00  0.00     0.045 A 
ATOM     29  C   UNL d   1       6.634   0.003 -15.180  0.00  0.00     0.125 A 
BRANCH  25  30
ATOM     30  C   UNL d   1       9.086   0.394 -15.909  0.00  0.00     0.237 C 
ATOM     31  O   UNL d   1      10.139   1.025 -15.857  0.00  0.00    -0.283 OA
ENDBRANCH  25  30
ENDBRANCH  20  21
ENDBRANCH  19  20
ENDBRANCH  18  19
ENDBRANCH  17  18
ENDBRANCH   1  17
TORSDOF 10
