REMARK  10 active torsions:
REMARK  status: ('A' for Active; 'I' for Inactive)
REMARK    1  A    between atoms: C_2  and  C_3 
REMARK    2  A    between atoms: C_3  and  N_4 
REMARK    3  A    between atoms: N_4  and  C_5 
REMARK    4  A    between atoms: N_4  and  C_24 
REMARK    5  A    between atoms: C_5  and  C_6 
REMARK    6  A    between atoms: C_6  and  C_7 
REMARK    7  A    between atoms: C_7  and  C_8 
REMARK    8  A    between atoms: C_8  and  N_9 
REMARK       I    between atoms: N_9  and  C_10 
REMARK    9  A    between atoms: C_10  and  C_12 
REMARK   10  A    between atoms: C_15  and  C_16 
ROOT
ATOM      1  C   UNL d   1       9.121   3.244 -14.249  0.00  0.00     0.037 C 
ENDROOT
BRANCH   1   2
ATOM      2  C   UNL d   1       9.647   1.799 -14.199  0.00  0.00     0.250 C 
BRANCH   2   3
ATOM      3  N   UNL d   1       9.518   1.068 -15.480  0.00  0.00     0.135 N 
BRANCH   3   4
ATOM      4  C   UNL d   1       8.118   0.785 -15.860  0.00  0.00     0.250 C 
BRANCH   4   5
ATOM      5  C   UNL d   1       7.290   0.093 -14.780  0.00  0.00     0.035 C 
ATOM      6  C   UNL d   1       5.876  -0.208 -15.266  0.00  0.00     0.002 C 
ENDBRANCH   4   5
ENDBRANCH   3   4
BRANCH   3   7
ATOM      7  C   UNL d   1      10.275   1.702 -16.584  0.00  0.00     0.224 C 
ATOM      8  C   UNL d   1       9.540   2.925 -17.209  0.00  0.00     0.059 C 
ATOM      9  C   UNL d   1      10.144   3.449 -18.479  0.00  0.00    -0.024 A 
ATOM     10  C   UNL d   1      11.024   2.663 -19.273  0.00  0.00    -0.020 A 
ATOM     11  C   UNL d   1       9.771   4.757 -18.857  0.00  0.00    -0.004 A 
ATOM     12  C   UNL d   1      11.446   1.265 -18.812  0.00  0.00     0.029 C 
ATOM     13  C   UNL d   1      11.513   3.222 -20.473  0.00  0.00     0.030 A 
ATOM     14  C   UNL d   1      10.576   0.657 -17.703  0.00  0.00     0.038 C 
ATOM     15 BR   UNL d   1      12.678   2.221 -21.571  0.00  0.00    -0.050 Br
ATOM     16  C   UNL d   1      11.120   4.523 -20.847  0.00  0.00     0.006 A 
ATOM     17  C   UNL d   1      10.260   5.298 -20.046  0.00  0.00     0.000 A 
ENDBRANCH   3   7
ENDBRANCH   2   3
ENDBRANCH   1   2
BRANCH   1  18
ATOM     18  C   UNL d   1       9.228   4.029 -12.952  0.00  0.00     0.029 C 
BRANCH  18  19
ATOM     19  C   UNL d   1       8.226   5.211 -12.930  0.00  0.00     0.129 C 
BRANCH  19  20
ATOM     20  N   UNL d   1       8.384   5.958 -11.703  0.00  0.00    -0.234 NA
ATOM     21  C   UNL d   1       9.162   7.037 -11.536  0.00  0.00     0.275 C 
ATOM     22  O   UNL d   1       9.436   7.796 -12.438  0.00  0.00    -0.266 OA
BRANCH  21  23
ATOM     23  C   UNL d   1       9.697   7.218 -10.137  0.00  0.00     0.058 A 
ATOM     24  C   UNL d   1       9.309   6.368  -9.089  0.00  0.00     0.005 A 
ATOM     25  C   UNL d   1       9.781   6.559  -7.783  0.00  0.00     0.000 A 
ATOM     26  C   UNL d   1      10.684   7.602  -7.471  0.00  0.00     0.000 A 
ATOM     27  C   UNL d   1      11.095   8.438  -8.538  0.00  0.00     0.000 A 
ATOM     28  C   UNL d   1      10.615   8.260  -9.848  0.00  0.00     0.005 A 
BRANCH  26  29
ATOM     29  C   UNL d   1      11.182   7.798  -6.090  0.00  0.00     0.000 A 
ATOM     30  C   UNL d   1      11.848   8.981  -5.708  0.00  0.00     0.000 A 
ATOM     31  C   UNL d   1      12.338   9.132  -4.401  0.00  0.00     0.000 A 
ATOM     32  C   UNL d   1      12.165   8.134  -3.434  0.00  0.00     0.000 A 
ATOM     33  C   UNL d   1      11.511   6.953  -3.792  0.00  0.00     0.000 A 
ATOM     34  C   UNL d   1      11.041   6.799  -5.102  0.00  0.00     0.000 A 
ENDBRANCH  26  29
ENDBRANCH  21  23
ENDBRANCH  19  20
ENDBRANCH  18  19
ENDBRANCH   1  18
TORSDOF 10
