REMARK  9 active torsions:
REMARK  status: ('A' for Active; 'I' for Inactive)
REMARK    1  A    between atoms: C_5  and  C_6 
REMARK    2  A    between atoms: C_8  and  C_9 
REMARK    3  A    between atoms: C_9  and  C_10 
REMARK    4  A    between atoms: C_10  and  C_11 
REMARK    5  A    between atoms: C_11  and  C_12 
REMARK    6  A    between atoms: C_12  and  N_13 
REMARK    7  A    between atoms: N_16  and  C_17 
REMARK    8  A    between atoms: C_17  and  C_18 
REMARK    9  A    between atoms: C_17  and  C_24 
ROOT
ATOM      1  N   UNL d   1       7.900   2.059 -16.134  0.00  0.00     0.141 N 
ATOM      2  C   UNL d   1       7.905   0.614 -15.896  0.00  0.00     0.285 C 
ATOM      3  C   UNL d   1       6.884  -0.106 -16.790  0.00  0.00     0.286 C 
ATOM      4  N   UNL d   1       7.161   0.111 -18.214  0.00  0.00     0.147 N 
ATOM      5  C   UNL d   1       7.143   1.561 -18.442  0.00  0.00     0.286 C 
ATOM      6  C   UNL d   1       8.158   2.295 -17.549  0.00  0.00     0.285 C 
ENDROOT
BRANCH   1   7
ATOM      7  C   UNL d   1       8.859   2.801 -15.316  0.00  0.00     0.250 C 
BRANCH   7   8
ATOM      8  C   UNL d   1       8.642   2.659 -13.813  0.00  0.00     0.036 C 
BRANCH   8   9
ATOM      9  C   UNL d   1       9.318   3.750 -12.956  0.00  0.00     0.009 C 
BRANCH   9  10
ATOM     10  C   UNL d   1       8.317   4.794 -12.426  0.00  0.00     0.054 C 
BRANCH  10  11
ATOM     11  C   UNL d   1       8.913   5.756 -11.453  0.00  0.00     0.104 A 
ATOM     12  C   UNL d   1       9.137   5.701 -10.107  0.00  0.00     0.044 A 
ATOM     13  C   UNL d   1       9.737   6.960  -9.812  0.00  0.00     0.110 A 
ATOM     14  N   UNL d   1       9.856   7.700 -10.901  0.00  0.00    -0.127 NA
ATOM     15  O   UNL d   1       9.353   6.931 -11.955  0.00  0.00    -0.215 OA
BRANCH  13  16
ATOM     16  C   UNL d   1      10.198   7.491  -8.525  0.00  0.00     0.020 A 
ATOM     17  C   UNL d   1      11.249   8.433  -8.459  0.00  0.00     0.004 A 
ATOM     18  C   UNL d   1      11.689   8.926  -7.215  0.00  0.00     0.030 A 
ATOM     19  C   UNL d   1      11.078   8.478  -6.030  0.00  0.00     0.140 A 
ATOM     20  F   UNL d   1      11.491   8.961  -4.836  0.00  0.00    -0.204 F 
ATOM     21  C   UNL d   1      10.045   7.525  -6.091  0.00  0.00     0.030 A 
ATOM     22  C   UNL d   1       9.601   7.037  -7.332  0.00  0.00     0.004 A 
ENDBRANCH  13  16
ENDBRANCH  10  11
ENDBRANCH   9  10
ENDBRANCH   8   9
ENDBRANCH   7   8
ENDBRANCH   1   7
BRANCH   4  23
ATOM     23  C   UNL d   1       6.186  -0.586 -19.071  0.00  0.00     0.264 C 
BRANCH  23  24
ATOM     24  C   UNL d   1       6.106  -2.093 -18.802  0.00  0.00     0.013 A 
ATOM     25  C   UNL d   1       4.854  -2.689 -18.520  0.00  0.00    -0.002 A 
ATOM     26  C   UNL d   1       4.761  -4.076 -18.279  0.00  0.00    -0.000 A 
ATOM     27  C   UNL d   1       5.918  -4.878 -18.317  0.00  0.00    -0.000 A 
ATOM     28  C   UNL d   1       7.168  -4.292 -18.590  0.00  0.00    -0.000 A 
ATOM     29  C   UNL d   1       7.266  -2.903 -18.809  0.00  0.00    -0.002 A 
ENDBRANCH  23  24
BRANCH  23  30
ATOM     30  C   UNL d   1       6.425  -0.341 -20.564  0.00  0.00     0.013 A 
ATOM     31  C   UNL d   1       5.419   0.276 -21.344  0.00  0.00    -0.002 A 
ATOM     32  C   UNL d   1       5.606   0.475 -22.729  0.00  0.00    -0.000 A 
ATOM     33  C   UNL d   1       6.801   0.054 -23.348  0.00  0.00    -0.000 A 
ATOM     34  C   UNL d   1       7.810  -0.553 -22.577  0.00  0.00    -0.000 A 
ATOM     35  C   UNL d   1       7.634  -0.728 -21.190  0.00  0.00    -0.002 A 
ENDBRANCH  23  30
ENDBRANCH   4  23
TORSDOF 9
