REMARK  5 active torsions:
REMARK  status: ('A' for Active; 'I' for Inactive)
REMARK    1  A    between atoms: S_2  and  C_5 
REMARK    2  A    between atoms: C_7  and  C_8 
REMARK    3  A    between atoms: C_11  and  N_12 
REMARK    4  A    between atoms: N_12  and  C_13 
REMARK    5  A    between atoms: C_13  and  C_14 
ROOT
ATOM      1  C   UNL d   1       9.460   6.840 -10.496  0.00  0.00     0.118 A 
ATOM      2  C   UNL d   1      10.287   7.798  -9.905  0.00  0.00     0.021 A 
ATOM      3  C   UNL d   1      10.512   7.760  -8.532  0.00  0.00     0.082 A 
ATOM      4  C   UNL d   1       9.927   6.774  -7.702  0.00  0.00     0.083 A 
ATOM      5  C   UNL d   1       9.118   5.785  -8.330  0.00  0.00     0.031 A 
ATOM      6  C   UNL d   1       8.902   5.814  -9.717  0.00  0.00     0.071 A 
ATOM      7 CL   UNL d   1       7.934   4.631 -10.510  0.00  0.00    -0.082 Cl
ENDROOT
BRANCH   4   8
ATOM      8  N   UNL d   1      10.087   6.739  -6.308  0.00  0.00    -0.264 NA
BRANCH   8   9
ATOM      9  C   UNL d   1      11.450   6.665  -5.756  0.00  0.00     0.177 C 
BRANCH   9  10
ATOM     10  C   UNL d   1      11.658   7.620  -4.620  0.00  0.00     0.102 A 
ATOM     11  O   UNL d   1      12.161   7.088  -3.476  0.00  0.00    -0.307 OA
ATOM     12  C   UNL d   1      12.290   8.109  -2.567  0.00  0.00     0.122 A 
ATOM     13  C   UNL d   1      11.884   9.274  -3.138  0.00  0.00     0.029 A 
ATOM     14  C   UNL d   1      11.445   8.969  -4.447  0.00  0.00     0.024 A 
ENDBRANCH   9  10
ENDBRANCH   8   9
ENDBRANCH   4   8
BRANCH   3  15
ATOM     15  C   UNL d   1      11.332   8.866  -7.968  0.00  0.00     0.212 C 
ATOM     16  O   UNL d   1      10.838   9.788  -7.370  0.00  0.00    -0.644 OA
ATOM     17  O   UNL d   1      12.664   8.719  -8.166  0.00  0.00    -0.644 OA
ENDBRANCH   3  15
BRANCH   1  18
ATOM     18  S   UNL d   1       9.140   6.986 -12.234  0.00  0.00     0.303 S 
ATOM     19  N   UNL d   1       7.465   6.782 -12.447  0.00  0.00    -0.043 N 
ATOM     20  O   UNL d   1       9.815   5.850 -12.893  0.00  0.00    -0.197 OA
ATOM     21  O   UNL d   1       9.458   8.373 -12.555  0.00  0.00    -0.197 OA
ENDBRANCH   1  18
TORSDOF 5
