REMARK  3 active torsions:
REMARK  status: ('A' for Active; 'I' for Inactive)
REMARK    1  A    between atoms: C_5  and  N_6 
REMARK    2  A    between atoms: N_9  and  C_10 
REMARK    3  A    between atoms: C_10  and  C_11 
ROOT
ATOM      1  N   UNL d   1      10.938   6.924  -8.319  0.00  0.00    -0.344 N 
ATOM      2  C   UNL d   1      10.107   5.712  -8.573  0.00  0.00     0.137 C 
ATOM      3  C   UNL d   1       9.059   6.057  -9.645  0.00  0.00     0.275 C 
ATOM      4  N   UNL d   1       9.684   6.647 -10.842  0.00  0.00     0.145 N 
ATOM      5  C   UNL d   1      10.312   7.923 -10.425  0.00  0.00     0.275 C 
ATOM      6  C   UNL d   1      11.488   7.585  -9.497  0.00  0.00     0.137 C 
ENDROOT
BRANCH   1   7
ATOM      7  C   UNL d   1      11.208   7.318  -6.985  0.00  0.00     0.058 A 
ATOM      8  C   UNL d   1      11.532   6.366  -6.015  0.00  0.00     0.018 A 
ATOM      9  C   UNL d   1      11.750   6.709  -4.637  0.00  0.00     0.010 A 
ATOM     10  C   UNL d   1      11.791   8.060  -4.239  0.00  0.00     0.052 A 
ATOM     11 BR   UNL d   1      12.346   8.610  -2.477  0.00  0.00    -0.048 Br
ATOM     12  C   UNL d   1      11.528   8.998  -5.234  0.00  0.00     0.089 A 
ATOM     13  C   UNL d   1      11.254   8.645  -6.600  0.00  0.00     0.035 A 
ATOM     14  N   UNL d   1      11.568  10.361  -5.214  0.00  0.00    -0.243 NA
ATOM     15  C   UNL d   1      11.138   9.794  -7.369  0.00  0.00     0.024 C 
ATOM     16  C   UNL d   1      11.466  10.809  -6.521  0.00  0.00     0.099 C 
ENDBRANCH   1   7
BRANCH   4  17
ATOM     17  C   UNL d   1       8.711   6.933 -11.884  0.00  0.00     0.277 C 
BRANCH  17  18
ATOM     18  C   UNL d   1       8.014   5.712 -12.455  0.00  0.00     0.011 A 
ATOM     19  C   UNL d   1       6.639   5.489 -12.203  0.00  0.00    -0.002 A 
ATOM     20  C   UNL d   1       5.988   4.377 -12.775  0.00  0.00    -0.000 A 
ATOM     21  C   UNL d   1       6.721   3.490 -13.588  0.00  0.00    -0.000 A 
ATOM     22  C   UNL d   1       8.097   3.696 -13.819  0.00  0.00    -0.000 A 
ATOM     23  C   UNL d   1       8.742   4.806 -13.250  0.00  0.00    -0.002 A 
ENDBRANCH  17  18
ENDBRANCH   4  17
TORSDOF 3
