REMARK  8 active torsions:
REMARK  status: ('A' for Active; 'I' for Inactive)
REMARK    1  A    between atoms: C_2  and  O_3 
REMARK    2  A    between atoms: O_3  and  C_4 
REMARK    3  A    between atoms: C_4  and  O_6 
REMARK    4  A    between atoms: O_6  and  C_7 
REMARK    5  A    between atoms: C_7  and  O_9 
REMARK    6  A    between atoms: O_9  and  C_10 
REMARK    7  A    between atoms: C_11  and  C_12 
REMARK       I    between atoms: C_12  and  N_14 
REMARK    8  A    between atoms: N_14  and  C_15 
ROOT
ATOM      1  C   UNL d   1       9.145   3.557 -13.956  0.00  0.00     0.118 C 
ATOM      2  C   UNL d   1       8.525   4.204 -12.924  0.00  0.00     0.150 C 
ATOM      3  N   UNL d   1       7.232   3.766 -12.474  0.00  0.00    -0.245 N 
ATOM      4  C   UNL d   1       6.554   4.225 -11.242  0.00  0.00     0.144 C 
ATOM      5  S   UNL d   1       6.176   2.933 -13.526  0.00  0.00     0.268 S 
ATOM      6  O   UNL d   1       5.323   2.035 -12.761  0.00  0.00    -0.200 OA
ATOM      7  O   UNL d   1       5.574   3.964 -14.378  0.00  0.00    -0.200 OA
ATOM      8  C   UNL d   1       7.273   1.953 -14.494  0.00  0.00     0.106 C 
ATOM      9  C   UNL d   1       6.734   0.817 -15.141  0.00  0.00     0.013 C 
ATOM     10  C   UNL d   1       7.586  -0.003 -15.893  0.00  0.00     0.001 C 
ATOM     11  C   UNL d   1       8.971   0.264 -15.906  0.00  0.00     0.000 C 
ATOM     12  C   UNL d   1       9.502   1.369 -15.225  0.00  0.00     0.003 C 
ATOM     13  C   UNL d   1       8.635   2.303 -14.584  0.00  0.00     0.036 C 
ENDROOT
BRANCH   1  14
ATOM     14  O   UNL d   1      10.325   4.051 -14.474  0.00  0.00    -0.304 OA
BRANCH  14  15
ATOM     15  C   UNL d   1      10.543   4.148 -15.871  0.00  0.00     0.249 C 
ATOM     16  C   UNL d   1      12.084   4.297 -16.067  0.00  0.00     0.068 C 
BRANCH  15  17
ATOM     17  O   UNL d   1       9.867   5.242 -16.410  0.00  0.00    -0.253 OA
BRANCH  17  18
ATOM     18  C   UNL d   1       9.808   5.285 -17.757  0.00  0.00     0.410 C 
ATOM     19  O   UNL d   1      10.139   4.393 -18.547  0.00  0.00    -0.229 OA
BRANCH  18  20
ATOM     20  O   UNL d   1       9.340   6.482 -18.089  0.00  0.00    -0.279 OA
BRANCH  20  21
ATOM     21  C   UNL d   1       9.326   6.888 -19.444  0.00  0.00     0.154 C 
ATOM     22  C   UNL d   1       7.995   6.497 -20.086  0.00  0.00     0.035 C 
ENDBRANCH  20  21
ENDBRANCH  18  20
ENDBRANCH  17  18
ENDBRANCH  15  17
ENDBRANCH  14  15
ENDBRANCH   1  14
BRANCH   2  23
ATOM     23  C   UNL d   1       9.187   5.368 -12.311  0.00  0.00     0.299 C 
ATOM     24  O   UNL d   1       9.680   6.272 -12.966  0.00  0.00    -0.263 OA
ATOM     25  N   UNL d   1       9.199   5.329 -10.969  0.00  0.00    -0.188 NA
BRANCH  25  26
ATOM     26  C   UNL d   1       9.606   6.316 -10.028  0.00  0.00     0.166 A 
ATOM     27  N   UNL d   1      10.283   7.443 -10.358  0.00  0.00    -0.225 NA
ATOM     28  C   UNL d   1      10.646   8.314  -9.394  0.00  0.00     0.101 A 
ATOM     29  C   UNL d   1      10.361   8.123  -8.023  0.00  0.00     0.021 A 
ATOM     30  C   UNL d   1       9.608   6.982  -7.670  0.00  0.00     0.005 A 
ATOM     31  C   UNL d   1       9.247   6.066  -8.682  0.00  0.00     0.039 A 
ENDBRANCH  25  26
ENDBRANCH   2  23
TORSDOF 8
