REMARK  10 active torsions:
REMARK  status: ('A' for Active; 'I' for Inactive)
REMARK    1  A    between atoms: C_6  and  N_7 
REMARK    2  A    between atoms: N_7  and  C_8 
REMARK    3  A    between atoms: N_7  and  C_11 
REMARK    4  A    between atoms: C_8  and  C_9 
REMARK    5  A    between atoms: C_11  and  C_12 
REMARK    6  A    between atoms: C_12  and  C_13 
REMARK    7  A    between atoms: C_13  and  C_14 
REMARK    8  A    between atoms: C_14  and  N_15 
REMARK    9  A    between atoms: C_17  and  C_18 
REMARK   10  A    between atoms: C_21  and  C_22 
ROOT
ATOM      1  C   UNL d   1       3.748  -1.442 -15.735  0.00  0.00     0.081 C 
ATOM      2  C   UNL d   1       4.782  -0.790 -15.851  0.00  0.00    -0.131 C 
ATOM      3  C   UNL d   1       5.977  -0.051 -16.019  0.00  0.00     0.004 C 
ATOM      4  C   UNL d   1       6.828   0.065 -14.985  0.00  0.00    -0.021 C 
ATOM      5  C   UNL d   1       8.155   0.787 -15.056  0.00  0.00     0.059 C 
ATOM      6  C   UNL d   1       8.293   1.641 -16.337  0.00  0.00     0.224 C 
ATOM      7  C   UNL d   1       7.730   0.936 -17.589  0.00  0.00     0.039 C 
ATOM      8  C   UNL d   1       6.253   0.536 -17.400  0.00  0.00     0.035 C 
ENDROOT
BRANCH   6   9
ATOM      9  N   UNL d   1       9.668   2.131 -16.558  0.00  0.00     0.135 N 
BRANCH   9  10
ATOM     10  C   UNL d   1      10.629   1.043 -16.783  0.00  0.00     0.250 C 
BRANCH  10  11
ATOM     11  C   UNL d   1      11.991   1.524 -17.301  0.00  0.00     0.035 C 
ATOM     12  C   UNL d   1      11.879   2.159 -18.691  0.00  0.00     0.002 C 
ENDBRANCH  10  11
ENDBRANCH   9  10
BRANCH   9  13
ATOM     13  C   UNL d   1      10.158   3.028 -15.503  0.00  0.00     0.250 C 
BRANCH  13  14
ATOM     14  C   UNL d   1       9.186   4.133 -15.069  0.00  0.00     0.037 C 
BRANCH  14  15
ATOM     15  C   UNL d   1       9.687   4.903 -13.842  0.00  0.00     0.029 C 
BRANCH  15  16
ATOM     16  C   UNL d   1       8.565   5.714 -13.176  0.00  0.00     0.129 C 
BRANCH  16  17
ATOM     17  N   UNL d   1       9.043   6.505 -12.062  0.00  0.00    -0.231 N 
ATOM     18  N   UNL d   1       9.231   7.835 -12.212  0.00  0.00    -0.064 NA
ATOM     19  N   UNL d   1       9.719   8.281 -11.101  0.00  0.00    -0.129 NA
ATOM     20  C   UNL d   1       9.797   7.241 -10.174  0.00  0.00     0.123 A 
ATOM     21  C   UNL d   1       9.369   6.091 -10.790  0.00  0.00     0.118 A 
BRANCH  20  22
ATOM     22  C   UNL d   1      10.228   7.475  -8.798  0.00  0.00     0.021 A 
ATOM     23  C   UNL d   1      11.010   8.600  -8.463  0.00  0.00     0.002 A 
ATOM     24  C   UNL d   1      11.434   8.805  -7.136  0.00  0.00     0.000 A 
ATOM     25  C   UNL d   1      11.076   7.899  -6.112  0.00  0.00     0.000 A 
ATOM     26  C   UNL d   1      10.276   6.788  -6.457  0.00  0.00     0.000 A 
ATOM     27  C   UNL d   1       9.862   6.571  -7.784  0.00  0.00     0.002 A 
BRANCH  25  28
ATOM     28  C   UNL d   1      11.527   8.086  -4.720  0.00  0.00     0.000 A 
ATOM     29  C   UNL d   1      11.663   9.385  -4.187  0.00  0.00     0.000 A 
ATOM     30  C   UNL d   1      12.083   9.574  -2.859  0.00  0.00     0.000 A 
ATOM     31  C   UNL d   1      12.393   8.473  -2.042  0.00  0.00     0.000 A 
ATOM     32  C   UNL d   1      12.259   7.170  -2.554  0.00  0.00     0.000 A 
ATOM     33  C   UNL d   1      11.838   6.984  -3.885  0.00  0.00     0.000 A 
ENDBRANCH  25  28
ENDBRANCH  20  22
ENDBRANCH  16  17
ENDBRANCH  15  16
ENDBRANCH  14  15
ENDBRANCH  13  14
ENDBRANCH   9  13
ENDBRANCH   6   9
TORSDOF 10
