REMARK  7 active torsions:
REMARK  status: ('A' for Active; 'I' for Inactive)
REMARK    1  A    between atoms: C_3  and  S_4 
REMARK    2  A    between atoms: S_4  and  C_5 
REMARK    3  A    between atoms: C_5  and  C_6 
REMARK    4  A    between atoms: C_6  and  C_7 
REMARK    5  A    between atoms: C_7  and  N_8 
REMARK    6  A    between atoms: N_13  and  C_14 
REMARK    7  A    between atoms: C_27  and  C_28 
ROOT
ATOM      1  N   UNL d   1       9.847   6.159 -10.430  0.00  0.00     0.138 N 
ATOM      2  C   UNL d   1       9.400   7.422 -11.006  0.00  0.00     0.252 C 
ATOM      3  C   UNL d   1       9.846   8.466  -9.969  0.00  0.00     0.052 C 
ATOM      4  C   UNL d   1      11.287   8.981 -10.155  0.00  0.00     0.021 C 
ATOM      5  C   UNL d   1      11.811   9.046  -8.747  0.00  0.00     0.077 C 
ATOM      6  N   UNL d   1      11.198   7.938  -8.056  0.00  0.00    -0.248 NA
ATOM      7  C   UNL d   1       9.881   7.717  -8.638  0.00  0.00     0.097 C 
ATOM      8  C   UNL d   1       9.608   6.248  -8.992  0.00  0.00     0.266 C 
ENDROOT
BRANCH   1   9
ATOM      9  C   UNL d   1       9.184   4.992 -10.999  0.00  0.00     0.251 C 
BRANCH   9  10
ATOM     10  C   UNL d   1       9.429   4.946 -12.513  0.00  0.00     0.047 C 
BRANCH  10  11
ATOM     11  C   UNL d   1       9.080   3.582 -13.134  0.00  0.00     0.067 C 
BRANCH  11  12
ATOM     12  S   UNL d   1       9.096   3.572 -14.951  0.00  0.00    -0.075 SA
BRANCH  12  13
ATOM     13  C   UNL d   1      10.703   4.212 -15.275  0.00  0.00     0.193 A 
ATOM     14  N   UNL d   1      10.973   5.004 -16.336  0.00  0.00    -0.287 N 
ATOM     15  C   UNL d   1      10.080   5.400 -17.419  0.00  0.00     0.134 C 
ATOM     16  C   UNL d   1      12.289   5.292 -16.145  0.00  0.00     0.186 A 
ATOM     17  N   UNL d   1      12.777   4.697 -15.050  0.00  0.00    -0.127 NA
ATOM     18  N   UNL d   1      11.758   3.977 -14.498  0.00  0.00    -0.122 NA
BRANCH  16  19
ATOM     19  C   UNL d   1      13.157   6.110 -17.011  0.00  0.00     0.136 A 
ATOM     20  N   UNL d   1      12.603   6.851 -18.002  0.00  0.00    -0.238 NA
ATOM     21  C   UNL d   1      13.441   7.562 -18.790  0.00  0.00     0.120 A 
ATOM     22  C   UNL d   1      14.840   7.525 -18.606  0.00  0.00     0.120 A 
ATOM     23  N   UNL d   1      15.410   6.777 -17.636  0.00  0.00    -0.239 NA
ATOM     24  C   UNL d   1      14.566   6.079 -16.842  0.00  0.00     0.121 A 
ENDBRANCH  16  19
ENDBRANCH  12  13
ENDBRANCH  11  12
ENDBRANCH  10  11
ENDBRANCH   9  10
ENDBRANCH   1   9
BRANCH   6  25
ATOM     25  C   UNL d   1      11.268   7.905  -6.651  0.00  0.00     0.092 A 
ATOM     26  C   UNL d   1      11.640   6.686  -6.057  0.00  0.00     0.155 A 
ATOM     27  C   UNL d   1      11.819   6.617  -4.657  0.00  0.00     0.060 A 
ATOM     28  F   UNL d   1      11.967   5.624  -6.826  0.00  0.00    -0.203 F 
ATOM     29  C   UNL d   1      11.614   7.753  -3.850  0.00  0.00     0.145 A 
ATOM     30  C   UNL d   1      11.225   8.966  -4.439  0.00  0.00     0.060 A 
ATOM     31  F   UNL d   1      11.779   7.652  -2.505  0.00  0.00    -0.204 F 
ATOM     32  C   UNL d   1      11.045   9.052  -5.835  0.00  0.00     0.155 A 
ATOM     33  F   UNL d   1      10.680  10.253  -6.343  0.00  0.00    -0.203 F 
ENDBRANCH   6  25
TORSDOF 7
