REMARK  7 active torsions:
REMARK  status: ('A' for Active; 'I' for Inactive)
REMARK    1  A    between atoms: C_4  and  N_5 
REMARK    2  A    between atoms: N_5  and  S_6 
REMARK    3  A    between atoms: S_6  and  C_9 
REMARK    4  A    between atoms: N_19  and  C_20 
REMARK    5  A    between atoms: C_20  and  C_21 
REMARK    6  A    between atoms: C_21  and  C_22 
REMARK    7  A    between atoms: C_22  and  C_23 
ROOT
ATOM      1  C   UNL d   1       5.158   1.302 -13.576  0.00  0.00     0.035 C 
ATOM      2  C   UNL d   1       6.040   2.550 -13.813  0.00  0.00     0.221 C 
ATOM      3  C   UNL d   1       6.201   3.423 -12.571  0.00  0.00     0.060 C 
ATOM      4  C   UNL d   1       7.612   3.989 -12.706  0.00  0.00     0.151 C 
ATOM      5  C   UNL d   1       8.158   3.417 -14.005  0.00  0.00     0.275 C 
ATOM      6  N   UNL d   1       7.407   2.172 -14.171  0.00  0.00     0.137 N 
ENDROOT
BRANCH   4   7
ATOM      7  N   UNL d   1       7.602   5.461 -12.691  0.00  0.00    -0.185 NA
BRANCH   7   8
ATOM      8  S   UNL d   1       9.053   6.274 -12.236  0.00  0.00     0.282 S 
ATOM      9  O   UNL d   1      10.151   5.516 -12.843  0.00  0.00    -0.199 OA
ATOM     10  O   UNL d   1       8.879   7.716 -12.464  0.00  0.00    -0.199 OA
BRANCH   8  11
ATOM     11  C   UNL d   1       9.156   6.116 -10.514  0.00  0.00     0.112 A 
ATOM     12  C   UNL d   1       9.956   7.038  -9.730  0.00  0.00     0.019 A 
ATOM     13  C   UNL d   1       9.837   6.751  -8.331  0.00  0.00     0.030 A 
ATOM     14  C   UNL d   1      10.818   8.110 -10.049  0.00  0.00     0.001 A 
ATOM     15  S   UNL d   1       8.648   5.518  -8.074  0.00  0.00    -0.086 SA
ATOM     16  C   UNL d   1      10.574   7.424  -7.346  0.00  0.00     0.006 A 
ATOM     17  C   UNL d   1       8.403   5.276  -9.740  0.00  0.00     0.048 A 
ATOM     18  C   UNL d   1      11.454   8.447  -7.712  0.00  0.00     0.001 A 
ATOM     19  C   UNL d   1      11.565   8.791  -9.071  0.00  0.00     0.000 A 
ENDBRANCH   8  11
ENDBRANCH   7   8
ENDBRANCH   4   7
BRANCH   6  20
ATOM     20  C   UNL d   1       7.512   1.692 -15.530  0.00  0.00     0.251 C 
BRANCH  20  21
ATOM     21  C   UNL d   1       8.589   0.610 -15.706  0.00  0.00     0.042 C 
BRANCH  21  22
ATOM     22  C   UNL d   1       8.791   0.168 -17.180  0.00  0.00     0.050 C 
BRANCH  22  23
ATOM     23  C   UNL d   1       7.559   0.234 -18.058  0.00  0.00     0.088 A 
ATOM     24  C   UNL d   1       6.721  -0.778 -18.570  0.00  0.00     0.041 A 
ATOM     25  C   UNL d   1       5.654  -0.192 -19.257  0.00  0.00     0.129 A 
ATOM     26  C   UNL d   1       6.819  -2.186 -18.516  0.00  0.00     0.006 A 
ATOM     27  O   UNL d   1       5.872   1.172 -19.170  0.00  0.00    -0.211 OA
ATOM     28  C   UNL d   1       4.653  -0.934 -19.894  0.00  0.00     0.057 A 
ATOM     29  N   UNL d   1       7.095   1.415 -18.493  0.00  0.00    -0.131 NA
ATOM     30  C   UNL d   1       4.760  -2.340 -19.858  0.00  0.00     0.142 A 
ATOM     31  F   UNL d   1       3.848  -3.105 -20.504  0.00  0.00    -0.204 F 
ATOM     32  C   UNL d   1       5.833  -2.960 -19.169  0.00  0.00     0.030 A 
ENDBRANCH  22  23
ENDBRANCH  21  22
ENDBRANCH  20  21
ENDBRANCH   6  20
TORSDOF 7
