REMARK  1 active torsions:
REMARK  status: ('A' for Active; 'I' for Inactive)
REMARK    1  A    between atoms: C_7  and  C_8 
ROOT
ATOM      1  O   UNL d   1      10.539  10.466  -4.718  0.00  0.00    -0.264 OA
ATOM      2  C   UNL d   1      11.226   9.598  -4.195  0.00  0.00     0.276 C 
ATOM      3  O   UNL d   1      11.560   9.598  -2.886  0.00  0.00    -0.301 OA
ATOM      4  C   UNL d   1      12.413   8.608  -2.341  0.00  0.00     0.152 C 
ATOM      5  C   UNL d   1      11.954   7.203  -2.753  0.00  0.00     0.034 C 
ATOM      6  C   UNL d   1      11.845   7.089  -4.279  0.00  0.00     0.017 C 
ATOM      7  C   UNL d   1      11.821   8.453  -5.022  0.00  0.00     0.109 C 
ENDROOT
BRANCH   7   8
ATOM      8  C   UNL d   1      11.185   8.360  -6.408  0.00  0.00    -0.013 A 
ATOM      9  C   UNL d   1      11.885   8.782  -7.559  0.00  0.00    -0.004 A 
ATOM     10  C   UNL d   1      11.284   8.697  -8.832  0.00  0.00    -0.000 A 
ATOM     11  C   UNL d   1       9.972   8.195  -8.958  0.00  0.00    -0.000 A 
ATOM     12  C   UNL d   1       9.273   7.777  -7.807  0.00  0.00    -0.000 A 
ATOM     13  C   UNL d   1       9.872   7.868  -6.541  0.00  0.00    -0.004 A 
ENDBRANCH   7   8
TORSDOF 1
