REMARK  5 active torsions:
REMARK  status: ('A' for Active; 'I' for Inactive)
REMARK    1  A    between atoms: S_2  and  C_4 
REMARK    2  A    between atoms: S_2  and  C_11 
REMARK    3  A    between atoms: C_14  and  C_15 
REMARK    4  A    between atoms: C_15  and  C_16 
REMARK    5  A    between atoms: C_16  and  C_17 
ROOT
ATOM      1  C   UNL d   1       9.364   6.302 -10.604  0.00  0.00     0.107 A 
ATOM      2  C   UNL d   1       9.240   5.158  -9.813  0.00  0.00     0.014 A 
ATOM      3  C   UNL d   1       9.364   5.292  -8.439  0.00  0.00     0.015 A 
ATOM      4  C   UNL d   1       9.642   6.567  -7.893  0.00  0.00     0.059 A 
ATOM      5  N   UNL d   1       9.834   7.669  -8.653  0.00  0.00    -0.248 NA
ATOM      6  C   UNL d   1       9.660   7.540  -9.987  0.00  0.00     0.110 A 
ENDROOT
BRANCH   1   7
ATOM      7  S   UNL d   1       9.054   6.176 -12.343  0.00  0.00     0.211 S 
ATOM      8  O   UNL d   1      10.212   5.523 -12.992  0.00  0.00    -0.217 OA
ATOM      9  O   UNL d   1       8.574   7.481 -12.792  0.00  0.00    -0.217 OA
BRANCH   7  10
ATOM     10  C   UNL d   1       7.710   5.076 -12.571  0.00  0.00     0.088 A 
ATOM     11  C   UNL d   1       6.556   5.275 -11.816  0.00  0.00     0.014 A 
ATOM     12  C   UNL d   1       5.514   4.353 -11.978  0.00  0.00     0.030 A 
ATOM     13  C   UNL d   1       5.630   3.249 -12.837  0.00  0.00     0.140 A 
ATOM     14  C   UNL d   1       6.753   3.119 -13.658  0.00  0.00     0.030 A 
ATOM     15  F   UNL d   1       4.686   2.288 -12.797  0.00  0.00    -0.204 F 
ATOM     16  C   UNL d   1       7.808   4.037 -13.525  0.00  0.00     0.014 A 
ENDBRANCH   7  10
ENDBRANCH   1   7
BRANCH   4  17
ATOM     17  C   UNL d   1       9.791   6.772  -6.407  0.00  0.00     0.051 C 
BRANCH  17  18
ATOM     18  C   UNL d   1      11.270   6.676  -6.002  0.00  0.00     0.033 C 
BRANCH  18  19
ATOM     19  C   UNL d   1      11.560   7.435  -4.732  0.00  0.00    -0.022 A 
ATOM     20  C   UNL d   1      11.422   8.840  -4.729  0.00  0.00    -0.002 A 
ATOM     21  C   UNL d   1      11.673   9.557  -3.549  0.00  0.00     0.029 A 
ATOM     22  C   UNL d   1      12.098   8.880  -2.399  0.00  0.00     0.140 A 
ATOM     23  C   UNL d   1      12.287   7.492  -2.409  0.00  0.00     0.029 A 
ATOM     24  F   UNL d   1      12.242   9.565  -1.256  0.00  0.00    -0.204 F 
ATOM     25  C   UNL d   1      12.006   6.765  -3.574  0.00  0.00    -0.002 A 
ENDBRANCH  18  19
ENDBRANCH  17  18
ENDBRANCH   4  17
TORSDOF 5
