REMARK  5 active torsions:
REMARK  status: ('A' for Active; 'I' for Inactive)
REMARK    1  A    between atoms: C_2  and  C_3 
REMARK    2  A    between atoms: C_4  and  C_5 
REMARK    3  A    between atoms: N_8  and  C_9 
REMARK    4  A    between atoms: C_9  and  C_10 
REMARK    5  A    between atoms: C_20  and  C_21 
ROOT
ATOM      1  C   UNL d   1       9.453   5.473 -10.314  0.00  0.00     0.013 A 
ATOM      2  C   UNL d   1       9.730   6.736  -9.870  0.00  0.00     0.078 A 
ATOM      3  N   UNL d   1       9.466   7.557 -10.932  0.00  0.00    -0.153 NA
ATOM      4  N   UNL d   1       9.062   6.924 -12.046  0.00  0.00    -0.149 NA
ATOM      5  C   UNL d   1       9.059   5.658 -11.675  0.00  0.00     0.100 A 
ENDROOT
BRANCH   2   6
ATOM      6  C   UNL d   1      10.190   7.288  -8.540  0.00  0.00     0.046 C 
ATOM      7  C   UNL d   1      11.425   8.206  -8.709  0.00  0.00     0.041 C 
ATOM      8  C   UNL d   1      11.834   8.849  -7.383  0.00  0.00     0.251 C 
ATOM      9  N   UNL d   1      10.675   9.454  -6.708  0.00  0.00     0.141 N 
ATOM     10  C   UNL d   1       9.440   8.669  -6.533  0.00  0.00     0.251 C 
ATOM     11  C   UNL d   1       9.039   8.047  -7.846  0.00  0.00     0.041 C 
BRANCH   9  12
ATOM     12  C   UNL d   1      11.061  10.088  -5.461  0.00  0.00     0.277 C 
BRANCH  12  13
ATOM     13  C   UNL d   1      11.490   9.125  -4.356  0.00  0.00     0.011 A 
ATOM     14  C   UNL d   1      11.525   7.710  -4.537  0.00  0.00    -0.002 A 
ATOM     15  C   UNL d   1      11.905   6.866  -3.489  0.00  0.00    -0.000 A 
ATOM     16  C   UNL d   1      12.284   7.379  -2.235  0.00  0.00    -0.000 A 
ATOM     17  C   UNL d   1      12.282   8.793  -2.050  0.00  0.00    -0.000 A 
ATOM     18  C   UNL d   1      11.854   9.648  -3.088  0.00  0.00    -0.002 A 
ENDBRANCH  12  13
ENDBRANCH   9  12
ENDBRANCH   2   6
BRANCH   1  19
ATOM     19  C   UNL d   1       9.621   4.216  -9.545  0.00  0.00     0.029 C 
ATOM     20  C   UNL d   1       8.345   3.871  -8.768  0.00  0.00     0.005 C 
ENDBRANCH   1  19
BRANCH   5  21
ATOM     21  C   UNL d   1       8.708   4.660 -12.676  0.00  0.00     0.019 A 
ATOM     22  C   UNL d   1       7.350   4.396 -12.925  0.00  0.00     0.002 A 
ATOM     23  C   UNL d   1       6.988   3.453 -13.908  0.00  0.00     0.011 A 
ATOM     24  C   UNL d   1       7.986   2.781 -14.634  0.00  0.00     0.058 A 
ATOM     25  C   UNL d   1       9.345   3.056 -14.402  0.00  0.00     0.011 A 
ATOM     26 CL   UNL d   1       7.535   1.635 -15.843  0.00  0.00    -0.082 Cl
ATOM     27  C   UNL d   1       9.709   3.995 -13.413  0.00  0.00     0.002 A 
ENDBRANCH   5  21
TORSDOF 5
