REMARK  11 active torsions:
REMARK  status: ('A' for Active; 'I' for Inactive)
REMARK    1  A    between atoms: O_2  and  C_3 
REMARK    2  A    between atoms: C_6  and  C_7 
REMARK    3  A    between atoms: C_13  and  N_14 
REMARK    4  A    between atoms: N_17  and  C_18 
REMARK    5  A    between atoms: C_18  and  C_19 
REMARK    6  A    between atoms: C_19  and  C_20 
REMARK    7  A    between atoms: C_20  and  C_21 
REMARK    8  A    between atoms: C_21  and  C_22 
REMARK    9  A    between atoms: C_22  and  C_23 
REMARK       I    between atoms: C_23  and  N_25 
REMARK   10  A    between atoms: N_25  and  C_26 
REMARK   11  A    between atoms: C_26  and  C_27 
ROOT
ATOM      1  C   UNL d   1      10.310   7.053  -8.938  0.00  0.00     0.002 A 
ATOM      2  C   UNL d   1      10.868   8.342  -8.983  0.00  0.00    -0.002 A 
ATOM      3  C   UNL d   1      11.017   9.080  -7.800  0.00  0.00     0.010 A 
ATOM      4  C   UNL d   1      10.612   8.540  -6.567  0.00  0.00     0.068 A 
ATOM      5  C   UNL d   1      10.799   9.349  -5.379  0.00  0.00     0.101 C 
ATOM      6  N   UNL d   1      10.950   9.997  -4.436  0.00  0.00    -0.191 NA
ATOM      7  C   UNL d   1      10.036   7.251  -6.513  0.00  0.00     0.010 A 
ATOM      8  C   UNL d   1       9.882   6.509  -7.706  0.00  0.00    -0.002 A 
ENDROOT
BRANCH   1   9
ATOM      9  C   UNL d   1      10.220   6.250 -10.213  0.00  0.00     0.155 C 
BRANCH   9  10
ATOM     10  N   UNL d   1       9.040   6.518 -11.016  0.00  0.00    -0.233 NA
ATOM     11  C   UNL d   1       8.020   5.657 -11.118  0.00  0.00     0.252 C 
ATOM     12  O   UNL d   1       7.975   4.646 -10.433  0.00  0.00    -0.271 OA
BRANCH  11  13
ATOM     13  C   UNL d   1       6.925   5.969 -12.149  0.00  0.00     0.090 C 
BRANCH  13  14
ATOM     14  C   UNL d   1       5.829   4.884 -12.331  0.00  0.00     0.010 C 
BRANCH  14  15
ATOM     15  C   UNL d   1       6.320   3.493 -12.772  0.00  0.00     0.003 C 
BRANCH  15  16
ATOM     16  C   UNL d   1       6.742   3.436 -14.228  0.00  0.00     0.035 C 
BRANCH  16  17
ATOM     17  C   UNL d   1       7.381   2.080 -14.585  0.00  0.00     0.250 C 
BRANCH  17  18
ATOM     18  N   UNL d   1       7.885   2.062 -15.946  0.00  0.00     0.141 N 
ATOM     19  C   UNL d   1       8.220   0.688 -16.326  0.00  0.00     0.274 C 
ATOM     20  C   UNL d   1       8.711   0.635 -17.790  0.00  0.00     0.137 C 
ATOM     21  N   UNL d   1       9.822   1.553 -17.973  0.00  0.00    -0.344 N 
ATOM     22  C   UNL d   1       9.596   2.902 -17.477  0.00  0.00     0.137 C 
ATOM     23  C   UNL d   1       9.103   2.878 -16.043  0.00  0.00     0.274 C 
BRANCH  21  24
ATOM     24  C   UNL d   1      11.052   1.151 -18.581  0.00  0.00     0.056 A 
ATOM     25  C   UNL d   1      11.809   2.004 -19.430  0.00  0.00     0.018 A 
ATOM     26  C   UNL d   1      13.052   1.557 -19.930  0.00  0.00     0.031 A 
ATOM     27  C   UNL d   1      13.533   0.273 -19.640  0.00  0.00     0.140 A 
ATOM     28  F   UNL d   1      14.734  -0.137 -20.108  0.00  0.00    -0.204 F 
ATOM     29  C   UNL d   1      12.763  -0.587 -18.841  0.00  0.00     0.031 A 
ATOM     30  C   UNL d   1      11.546  -0.141 -18.297  0.00  0.00     0.019 A 
BRANCH  25  31
ATOM     31  C   UNL d   1      11.376   3.351 -19.834  0.00  0.00     0.002 A 
ATOM     32  C   UNL d   1      12.187   4.453 -19.506  0.00  0.00     0.002 A 
ATOM     33  C   UNL d   1      11.789   5.761 -19.811  0.00  0.00     0.024 A 
ATOM     34  C   UNL d   1      10.549   6.007 -20.448  0.00  0.00     0.094 A 
ATOM     35  C   UNL d   1       9.713   4.907 -20.749  0.00  0.00     0.024 A 
ATOM     36  C   UNL d   1      10.130   3.592 -20.465  0.00  0.00     0.002 A 
BRANCH  34  37
ATOM     37  O   UNL d   1      10.081   7.257 -20.767  0.00  0.00    -0.328 OA
ATOM     38  C   UNL d   1      11.047   8.316 -20.800  0.00  0.00     0.181 C 
ENDBRANCH  34  37
ENDBRANCH  25  31
ENDBRANCH  21  24
ENDBRANCH  17  18
ENDBRANCH  16  17
ENDBRANCH  15  16
ENDBRANCH  14  15
ENDBRANCH  13  14
ENDBRANCH  11  13
ENDBRANCH   9  10
ENDBRANCH   1   9
TORSDOF 11
