REMARK  8 active torsions:
REMARK  status: ('A' for Active; 'I' for Inactive)
REMARK    1  A    between atoms: C_2  and  C_3 
REMARK    2  A    between atoms: C_3  and  N_4 
REMARK    3  A    between atoms: N_4  and  C_5 
REMARK    4  A    between atoms: N_4  and  C_8 
REMARK    5  A    between atoms: C_5  and  C_6 
REMARK    6  A    between atoms: C_16  and  C_17 
REMARK    7  A    between atoms: C_17  and  C_19 
REMARK    8  A    between atoms: C_22  and  C_23 
ROOT
ATOM      1  C   UNL d   1      10.060   2.766 -14.546  0.00  0.00     0.253 C 
ATOM      2  C   UNL d   1      10.423   4.230 -14.578  0.00  0.00     0.182 C 
ATOM      3  O   UNL d   1      10.069   5.011 -13.519  0.00  0.00    -0.329 OA
ATOM      4  C   UNL d   1       8.765   4.901 -13.172  0.00  0.00     0.093 A 
ATOM      5  C   UNL d   1       7.962   3.807 -13.587  0.00  0.00     0.002 A 
ATOM      6  C   UNL d   1       6.633   3.720 -13.148  0.00  0.00    -0.002 A 
ATOM      7  C   UNL d   1       6.116   4.712 -12.300  0.00  0.00    -0.000 A 
ATOM      8  C   UNL d   1       6.907   5.792 -11.893  0.00  0.00     0.005 A 
ATOM      9  C   UNL d   1       8.239   5.899 -12.323  0.00  0.00     0.061 A 
ATOM     10  C   UNL d   1       8.532   2.701 -14.473  0.00  0.00     0.064 C 
ENDROOT
BRANCH   9  11
ATOM     11  C   UNL d   1       9.071   7.018 -11.883  0.00  0.00     0.197 C 
ATOM     12  O   UNL d   1       9.402   7.900 -12.684  0.00  0.00    -0.286 OA
BRANCH  11  13
ATOM     13  C   UNL d   1       9.498   7.074 -10.471  0.00  0.00     0.039 A 
ATOM     14  C   UNL d   1       9.963   8.289  -9.938  0.00  0.00     0.003 A 
ATOM     15  C   UNL d   1      10.336   8.383  -8.588  0.00  0.00     0.003 A 
ATOM     16  C   UNL d   1      10.266   7.248  -7.744  0.00  0.00     0.035 A 
ATOM     17  C   UNL d   1       9.830   6.023  -8.289  0.00  0.00     0.003 A 
ATOM     18  C   UNL d   1       9.445   5.927  -9.641  0.00  0.00     0.003 A 
BRANCH  16  19
ATOM     19  C   UNL d   1      10.687   7.358  -6.321  0.00  0.00     0.173 C 
ATOM     20  C   UNL d   1      10.710   8.750  -5.696  0.00  0.00     0.077 C 
ATOM     21  O   UNL d   1      11.017   6.397  -5.625  0.00  0.00    -0.291 OA
ENDBRANCH  16  19
ENDBRANCH  11  13
ENDBRANCH   9  11
BRANCH   1  22
ATOM     22  N   UNL d   1      10.544   2.005 -15.731  0.00  0.00     0.138 N 
BRANCH  22  23
ATOM     23  C   UNL d   1      10.539   0.549 -15.462  0.00  0.00     0.250 C 
BRANCH  23  24
ATOM     24  C   UNL d   1      10.291  -0.256 -16.760  0.00  0.00     0.035 C 
ATOM     25  C   UNL d   1      11.344  -0.091 -17.869  0.00  0.00     0.002 C 
ENDBRANCH  23  24
ENDBRANCH  22  23
BRANCH  22  26
ATOM     26  C   UNL d   1      11.889   2.439 -16.195  0.00  0.00     0.250 C 
BRANCH  26  27
ATOM     27  C   UNL d   1      11.981   3.839 -16.909  0.00  0.00     0.035 C 
ATOM     28  C   UNL d   1      11.118   3.938 -18.175  0.00  0.00     0.002 C 
ENDBRANCH  26  27
ENDBRANCH  22  26
ENDBRANCH   1  22
TORSDOF 8
