REMARK  7 active torsions:
REMARK  status: ('A' for Active; 'I' for Inactive)
REMARK    1  A    between atoms: N_9  and  C_10 
REMARK    2  A    between atoms: C_10  and  C_11 
REMARK    3  A    between atoms: C_11  and  C_12 
REMARK    4  A    between atoms: C_12  and  C_13 
REMARK    5  A    between atoms: C_13  and  C_14 
REMARK    6  A    between atoms: C_14  and  N_15 
REMARK    7  A    between atoms: N_18  and  C_19 
ROOT
ATOM      1  C   UNL d   1       9.621   3.725 -22.778  0.00  0.00     0.139 C 
ATOM      2  N   UNL d   1       9.590   4.146 -21.368  0.00  0.00    -0.246 N 
ATOM      3  C   UNL d   1      10.130   3.308 -20.436  0.00  0.00     0.284 A 
ATOM      4  O   UNL d   1      10.641   2.211 -20.674  0.00  0.00    -0.265 OA
ATOM      5  C   UNL d   1      10.058   3.826 -19.071  0.00  0.00     0.172 A 
ATOM      6  C   UNL d   1       9.485   5.015 -18.752  0.00  0.00     0.187 A 
ATOM      7  N   UNL d   1       9.534   5.252 -17.372  0.00  0.00    -0.043 NA
ATOM      8  C   UNL d   1      10.147   4.156 -16.921  0.00  0.00     0.720 A 
ATOM      9  N   UNL d   1      10.435   3.804 -15.563  0.00  0.00    -0.128 N 
ATOM     10  C   UNL d   1      11.124   2.673 -15.251  0.00  0.00     0.276 A 
ATOM     11  O   UNL d   1      11.397   2.389 -14.080  0.00  0.00    -0.266 OA
ATOM     12  C   UNL d   1      11.519   1.814 -16.376  0.00  0.00     0.081 A 
ATOM     13  C   UNL d   1      11.194   2.097 -17.664  0.00  0.00     0.103 A 
ATOM     14  N   UNL d   1      10.505   3.296 -17.869  0.00  0.00    -0.133 N 
ATOM     15  N   UNL d   1       8.942   5.801 -19.798  0.00  0.00    -0.263 N 
ATOM     16  C   UNL d   1       8.325   7.089 -19.485  0.00  0.00     0.137 C 
ATOM     17  C   UNL d   1       9.008   5.374 -21.101  0.00  0.00     0.335 A 
ATOM     18  O   UNL d   1       8.558   6.077 -22.008  0.00  0.00    -0.246 OA
ENDROOT
BRANCH   9  19
ATOM     19  C   UNL d   1      10.023   4.709 -14.495  0.00  0.00     0.128 C 
BRANCH  19  20
ATOM     20  C   UNL d   1       8.863   4.123 -13.638  0.00  0.00     0.025 C 
BRANCH  20  21
ATOM     21  C   UNL d   1       8.312   5.119 -12.590  0.00  0.00     0.004 C 
BRANCH  21  22
ATOM     22  C   UNL d   1       9.413   5.770 -11.747  0.00  0.00     0.035 C 
BRANCH  22  23
ATOM     23  C   UNL d   1       8.893   6.726 -10.690  0.00  0.00     0.250 C 
BRANCH  23  24
ATOM     24  N   UNL d   1       9.957   7.397  -9.900  0.00  0.00     0.141 N 
ATOM     25  C   UNL d   1       9.387   8.454  -9.053  0.00  0.00     0.274 C 
ATOM     26  C   UNL d   1      10.441   9.202  -8.212  0.00  0.00     0.137 C 
ATOM     27  N   UNL d   1      11.145   8.236  -7.427  0.00  0.00    -0.344 N 
ATOM     28  C   UNL d   1      11.718   7.193  -8.224  0.00  0.00     0.137 C 
ATOM     29  C   UNL d   1      10.586   6.455  -8.976  0.00  0.00     0.274 C 
BRANCH  27  30
ATOM     30  C   UNL d   1      11.315   8.277  -6.019  0.00  0.00     0.056 A 
ATOM     31  C   UNL d   1      11.467   9.510  -5.410  0.00  0.00     0.018 A 
ATOM     32  C   UNL d   1      11.746   9.580  -4.027  0.00  0.00     0.013 A 
ATOM     33  C   UNL d   1      11.958   8.409  -3.297  0.00  0.00     0.058 A 
ATOM     34  C   UNL d   1      11.836   7.145  -3.899  0.00  0.00     0.013 A 
ATOM     35 CL   UNL d   1      12.290   8.539  -1.639  0.00  0.00    -0.082 Cl
ATOM     36  C   UNL d   1      11.457   7.079  -5.256  0.00  0.00     0.018 A 
ENDBRANCH  27  30
ENDBRANCH  23  24
ENDBRANCH  22  23
ENDBRANCH  21  22
ENDBRANCH  20  21
ENDBRANCH  19  20
ENDBRANCH   9  19
TORSDOF 7
