REMARK  1 active torsions:
REMARK  status: ('A' for Active; 'I' for Inactive)
REMARK       I    between atoms: N_4  and  C_5 
REMARK    1  A    between atoms: C_5  and  C_7 
ROOT
ATOM      1  C   UNL d   1      10.112   7.578  -9.274  0.00  0.00     0.058 A 
ATOM      2  C   UNL d   1       9.658   6.512  -8.469  0.00  0.00     0.005 A 
ATOM      3  C   UNL d   1      10.007   6.435  -7.109  0.00  0.00    -0.000 A 
ATOM      4  C   UNL d   1      10.791   7.447  -6.543  0.00  0.00    -0.002 A 
ATOM      5  C   UNL d   1      11.202   8.534  -7.316  0.00  0.00     0.012 A 
ATOM      6  C   UNL d   1      10.896   8.611  -8.693  0.00  0.00     0.003 A 
ATOM      7  C   UNL d   1      12.028   9.496  -6.480  0.00  0.00     0.197 A 
ATOM      8  O   UNL d   1      11.487  10.785  -6.406  0.00  0.00    -0.214 OA
ATOM      9  C   UNL d   1      12.017   8.794  -5.131  0.00  0.00     0.012 A 
ATOM     10  C   UNL d   1      12.659   9.180  -3.943  0.00  0.00    -0.002 A 
ATOM     11  C   UNL d   1      12.516   8.409  -2.778  0.00  0.00    -0.000 A 
ATOM     12  C   UNL d   1      11.810   7.193  -2.837  0.00  0.00    -0.000 A 
ATOM     13  C   UNL d   1      11.226   6.785  -4.055  0.00  0.00    -0.000 A 
ATOM     14  C   UNL d   1      11.319   7.600  -5.195  0.00  0.00    -0.002 A 
ENDROOT
BRANCH   1  15
ATOM     15  C   UNL d   1       9.725   7.619 -10.726  0.00  0.00     0.281 C 
ATOM     16  N   UNL d   1       9.823   6.410 -11.399  0.00  0.00    -0.175 NA
ATOM     17  C   UNL d   1       8.759   5.717 -11.632  0.00  0.00     0.259 C 
ATOM     18  N   UNL d   1       7.455   5.989 -11.237  0.00  0.00    -0.058 NA
ATOM     19  N   UNL d   1       8.861   4.569 -12.374  0.00  0.00    -0.111 N 
ATOM     20  O   UNL d   1       9.455   8.699 -11.253  0.00  0.00    -0.265 OA
ENDBRANCH   1  15
TORSDOF 1
