REMARK  4 active torsions:
REMARK  status: ('A' for Active; 'I' for Inactive)
REMARK    1  A    between atoms: C_2  and  C_3 
REMARK    2  A    between atoms: C_3  and  C_4 
REMARK    3  A    between atoms: C_4  and  N_5 
REMARK    4  A    between atoms: C_16  and  N_17 
ROOT
ATOM      1  N   UNL d   1       8.683   3.834 -13.556  0.00  0.00    -0.280 N 
ATOM      2  C   UNL d   1       9.958   4.168 -14.019  0.00  0.00     0.332 A 
ATOM      3  O   UNL d   1      10.831   4.817 -13.542  0.00  0.00    -0.246 OA
ATOM      4  N   UNL d   1      10.170   3.491 -15.170  0.00  0.00    -0.278 N 
ATOM      5  C   UNL d   1       9.135   2.609 -15.405  0.00  0.00     0.076 A 
ATOM      6  C   UNL d   1       9.097   1.685 -16.447  0.00  0.00    -0.003 A 
ATOM      7  C   UNL d   1       7.950   0.881 -16.491  0.00  0.00    -0.003 A 
ATOM      8  C   UNL d   1       6.953   1.029 -15.492  0.00  0.00     0.001 A 
ATOM      9  C   UNL d   1       7.064   1.978 -14.450  0.00  0.00     0.019 A 
ATOM     10  C   UNL d   1       8.212   2.814 -14.408  0.00  0.00     0.080 A 
ATOM     11  C   UNL d   1      10.283   1.766 -17.387  0.00  0.00     0.066 C 
ATOM     12  C   UNL d   1      11.586   2.296 -16.746  0.00  0.00     0.283 C 
ATOM     13  C   UNL d   1      11.361   3.601 -15.970  0.00  0.00     0.147 C 
ENDROOT
BRANCH   1  14
ATOM     14  C   UNL d   1       7.972   4.346 -12.354  0.00  0.00     0.111 C 
BRANCH  14  15
ATOM     15  C   UNL d   1       7.777   5.888 -12.286  0.00  0.00     0.025 C 
BRANCH  15  16
ATOM     16  C   UNL d   1       9.046   6.713 -12.022  0.00  0.00     0.002 C 
ATOM     17  C   UNL d   1       9.687   6.431 -10.655  0.00  0.00     0.000 C 
ENDBRANCH  15  16
ENDBRANCH  14  15
ENDBRANCH   1  14
BRANCH  12  18
ATOM     18  N   UNL d   1      12.662   2.453 -17.725  0.00  0.00     0.342 N 
ATOM     19  C   UNL d   1      12.312   3.340 -18.829  0.00  0.00     0.328 C 
ENDBRANCH  12  18
TORSDOF 4
