REMARK  7 active torsions:
REMARK  status: ('A' for Active; 'I' for Inactive)
REMARK       I    between atoms: C_2  and  N_3 
REMARK    1  A    between atoms: C_2  and  C_22 
REMARK    2  A    between atoms: N_3  and  C_4 
REMARK    3  A    between atoms: C_4  and  C_5 
REMARK    4  A    between atoms: C_5  and  C_6 
REMARK    5  A    between atoms: C_6  and  C_7 
REMARK    6  A    between atoms: C_7  and  N_8 
REMARK    7  A    between atoms: N_11  and  C_12 
ROOT
ATOM      1  C   UNL d   1       9.447   7.031 -12.205  0.00  0.00     0.037 C 
ENDROOT
BRANCH   1   2
ATOM      2  C   UNL d   1       9.452   7.631 -10.807  0.00  0.00     0.029 C 
BRANCH   2   3
ATOM      3  C   UNL d   1      10.856   7.757 -10.223  0.00  0.00     0.129 C 
BRANCH   3   4
ATOM      4  N   UNL d   1      10.833   8.086  -8.808  0.00  0.00    -0.234 NA
ATOM      5  C   UNL d   1      10.537   7.200  -7.843  0.00  0.00     0.281 C 
ATOM      6  O   UNL d   1      10.081   6.075  -8.060  0.00  0.00    -0.265 OA
BRANCH   5   7
ATOM      7  C   UNL d   1      10.975   7.555  -6.491  0.00  0.00     0.087 A 
ATOM      8  S   UNL d   1      10.886   9.227  -6.008  0.00  0.00    -0.082 SA
ATOM      9  C   UNL d   1      11.510   8.815  -4.414  0.00  0.00     0.030 A 
ATOM     10  C   UNL d   1      11.772   7.412  -4.308  0.00  0.00     0.007 A 
ATOM     11  C   UNL d   1      11.730   9.677  -3.334  0.00  0.00     0.006 A 
ATOM     12  C   UNL d   1      11.449   6.714  -5.523  0.00  0.00     0.012 A 
ATOM     13  C   UNL d   1      12.265   6.934  -3.079  0.00  0.00     0.001 A 
ATOM     14  C   UNL d   1      12.522   7.809  -2.014  0.00  0.00     0.000 A 
ATOM     15  C   UNL d   1      12.256   9.181  -2.139  0.00  0.00     0.001 A 
ENDBRANCH   5   7
ENDBRANCH   3   4
ENDBRANCH   2   3
ENDBRANCH   1   2
BRANCH   1  16
ATOM     16  C   UNL d   1       8.035   6.567 -12.647  0.00  0.00     0.251 C 
BRANCH  16  17
ATOM     17  N   UNL d   1       7.934   5.120 -12.762  0.00  0.00     0.141 N 
ATOM     18  C   UNL d   1       6.525   4.762 -13.025  0.00  0.00     0.274 C 
ATOM     19  C   UNL d   1       6.342   3.245 -13.105  0.00  0.00     0.137 C 
ATOM     20  N   UNL d   1       7.292   2.673 -14.062  0.00  0.00    -0.344 N 
ATOM     21  C   UNL d   1       8.685   3.062 -13.873  0.00  0.00     0.137 C 
ATOM     22  C   UNL d   1       8.791   4.585 -13.833  0.00  0.00     0.274 C 
BRANCH  20  23
ATOM     23  C   UNL d   1       6.933   1.753 -15.057  0.00  0.00     0.068 A 
ATOM     24  C   UNL d   1       6.061   0.650 -14.822  0.00  0.00     0.084 A 
ATOM     25  C   UNL d   1       5.683  -0.194 -15.886  0.00  0.00     0.070 A 
ATOM     26 CL   UNL d   1       5.464   0.303 -13.235  0.00  0.00    -0.080 Cl
ATOM     27  C   UNL d   1       6.181   0.029 -17.177  0.00  0.00     0.012 A 
ATOM     28 CL   UNL d   1       4.590  -1.502 -15.623  0.00  0.00    -0.081 Cl
ATOM     29  C   UNL d   1       7.070   1.087 -17.416  0.00  0.00     0.002 A 
ATOM     30  C   UNL d   1       7.450   1.937 -16.364  0.00  0.00     0.018 A 
ENDBRANCH  20  23
ENDBRANCH  16  17
ENDBRANCH   1  16
TORSDOF 7
