REMARK  8 active torsions:
REMARK  status: ('A' for Active; 'I' for Inactive)
REMARK       I    between atoms: N_2  and  C_3 
REMARK    1  A    between atoms: C_3  and  C_5 
REMARK    2  A    between atoms: C_7  and  O_8 
REMARK    3  A    between atoms: O_8  and  C_9 
REMARK    4  A    between atoms: C_9  and  C_10 
REMARK    5  A    between atoms: C_10  and  C_11 
REMARK    6  A    between atoms: C_11  and  C_12 
REMARK    7  A    between atoms: C_12  and  N_13 
REMARK    8  A    between atoms: C_16  and  C_17 
ROOT
ATOM      1  N   UNL d   1       9.752   5.199 -12.671  0.00  0.00     0.137 N 
ATOM      2  C   UNL d   1       9.259   4.194 -11.720  0.00  0.00     0.251 C 
ATOM      3  C   UNL d   1       9.408   4.690 -10.260  0.00  0.00     0.041 C 
ATOM      4  C   UNL d   1       8.731   6.013 -10.023  0.00  0.00     0.047 C 
ATOM      5  C   UNL d   1       9.178   6.985 -11.136  0.00  0.00     0.041 C 
ATOM      6  C   UNL d   1       8.955   6.415 -12.535  0.00  0.00     0.251 C 
ENDROOT
BRANCH   1   7
ATOM      7  C   UNL d   1       9.636   4.737 -14.046  0.00  0.00     0.250 C 
BRANCH   7   8
ATOM      8  C   UNL d   1      10.764   3.764 -14.425  0.00  0.00     0.038 C 
BRANCH   8   9
ATOM      9  C   UNL d   1      10.512   3.178 -15.814  0.00  0.00     0.035 C 
BRANCH   9  10
ATOM     10  C   UNL d   1      11.295   1.861 -16.053  0.00  0.00     0.149 C 
BRANCH  10  11
ATOM     11  O   UNL d   1      10.908   1.227 -17.269  0.00  0.00    -0.331 OA
BRANCH  11  12
ATOM     12  C   UNL d   1       9.623   0.730 -17.380  0.00  0.00     0.094 A 
ATOM     13  C   UNL d   1       8.716   0.609 -16.293  0.00  0.00     0.031 A 
ATOM     14  C   UNL d   1       7.385   0.179 -16.487  0.00  0.00     0.087 A 
ATOM     15  C   UNL d   1       6.960  -0.164 -17.795  0.00  0.00     0.145 A 
ATOM     16  C   UNL d   1       7.866  -0.089 -18.869  0.00  0.00     0.032 A 
ATOM     17  F   UNL d   1       5.693  -0.581 -18.029  0.00  0.00    -0.204 F 
ATOM     18  C   UNL d   1       9.187   0.358 -18.662  0.00  0.00     0.026 A 
BRANCH  14  19
ATOM     19  C   UNL d   1       6.438   0.160 -15.318  0.00  0.00     0.277 C 
ATOM     20  N   UNL d   1       7.007  -0.111 -14.137  0.00  0.00    -0.232 NA
ATOM     21  C   UNL d   1       6.293  -0.099 -12.878  0.00  0.00     0.155 C 
ATOM     22  O   UNL d   1       5.235   0.374 -15.446  0.00  0.00    -0.266 OA
ENDBRANCH  14  19
ENDBRANCH  11  12
ENDBRANCH  10  11
ENDBRANCH   9  10
ENDBRANCH   8   9
ENDBRANCH   7   8
ENDBRANCH   1   7
BRANCH   4  23
ATOM     23  C   UNL d   1       9.082   6.477  -8.640  0.00  0.00     0.087 C 
ATOM     24  C   UNL d   1      10.107   7.320  -8.129  0.00  0.00     0.041 A 
ATOM     25  C   UNL d   1       9.927   7.460  -6.751  0.00  0.00     0.129 A 
ATOM     26  C   UNL d   1      11.221   7.972  -8.733  0.00  0.00     0.006 A 
ATOM     27  O   UNL d   1       8.834   6.660  -6.450  0.00  0.00    -0.211 OA
ATOM     28  C   UNL d   1      10.753   8.238  -5.931  0.00  0.00     0.057 A 
ATOM     29  N   UNL d   1       8.385   5.988  -7.621  0.00  0.00    -0.131 NA
ATOM     30  C   UNL d   1      11.826   8.901  -6.536  0.00  0.00     0.142 A 
ATOM     31  F   UNL d   1      12.642   9.667  -5.773  0.00  0.00    -0.204 F 
ATOM     32  C   UNL d   1      12.079   8.744  -7.925  0.00  0.00     0.030 A 
ENDBRANCH   4  23
TORSDOF 8
