REMARK  4 active torsions:
REMARK  status: ('A' for Active; 'I' for Inactive)
REMARK    1  A    between atoms: O_2  and  C_3 
REMARK    2  A    between atoms: C_8  and  O_9 
REMARK    3  A    between atoms: O_9  and  C_10 
REMARK    4  A    between atoms: C_12  and  C_13 
ROOT
ATOM      1  C   UNL d   1       9.364  -0.509 -19.985  0.00  0.00     0.116 A 
ATOM      2  C   UNL d   1       9.736   0.847 -20.184  0.00  0.00     0.026 A 
ATOM      3  C   UNL d   1       9.510   1.810 -19.183  0.00  0.00    -0.002 A 
ATOM      4  C   UNL d   1       8.913   1.429 -17.966  0.00  0.00    -0.020 A 
ATOM      5  C   UNL d   1       8.527   0.097 -17.761  0.00  0.00     0.031 A 
ATOM      6  C   UNL d   1       8.757  -0.875 -18.758  0.00  0.00     0.117 A 
ATOM      7  C   UNL d   1       7.878  -0.288 -16.443  0.00  0.00     0.279 C 
ATOM      8  N   UNL d   1       7.282   0.817 -15.706  0.00  0.00     0.144 N 
ATOM      9  C   UNL d   1       6.796   0.300 -14.432  0.00  0.00     0.256 C 
ATOM     10  C   UNL d   1       5.977   1.406 -13.761  0.00  0.00     0.061 C 
ATOM     11  C   UNL d   1       6.738   2.715 -13.656  0.00  0.00    -0.020 A 
ATOM     12  C   UNL d   1       6.351   3.682 -12.697  0.00  0.00     0.022 A 
ATOM     13  C   UNL d   1       7.140   4.834 -12.581  0.00  0.00     0.119 A 
ATOM     14  C   UNL d   1       8.260   5.028 -13.360  0.00  0.00     0.119 A 
ATOM     15  C   UNL d   1       8.666   4.089 -14.322  0.00  0.00     0.024 A 
ATOM     16  C   UNL d   1       7.885   2.916 -14.476  0.00  0.00     0.007 A 
ATOM     17  C   UNL d   1       8.301   1.851 -15.497  0.00  0.00     0.246 C 
ATOM     18  C   UNL d   1       8.632   2.460 -16.892  0.00  0.00     0.064 C 
ATOM     19  O   UNL d   1       8.844   6.207 -13.030  0.00  0.00    -0.300 OA
ATOM     20  C   UNL d   1       8.036   6.772 -12.030  0.00  0.00     0.304 A 
ATOM     21  O   UNL d   1       6.981   5.888 -11.748  0.00  0.00    -0.300 OA
ENDROOT
BRANCH   6  22
ATOM     22  O   UNL d   1       8.368  -2.171 -18.506  0.00  0.00    -0.302 OA
BRANCH  22  23
ATOM     23  C   UNL d   1       7.148  -2.542 -19.065  0.00  0.00     0.274 C 
ATOM     24  C   UNL d   1       6.669  -3.806 -18.302  0.00  0.00     0.241 C 
ATOM     25  C   UNL d   1       5.252  -4.174 -18.794  0.00  0.00     0.220 C 
ATOM     26  O   UNL d   1       7.537  -4.897 -18.547  0.00  0.00    -0.215 OA
ATOM     27  C   UNL d   1       4.313  -2.960 -18.669  0.00  0.00     0.215 C 
ATOM     28  O   UNL d   1       4.705  -5.216 -17.991  0.00  0.00    -0.218 OA
ATOM     29  C   UNL d   1       4.917  -1.764 -19.429  0.00  0.00     0.184 C 
ATOM     30  O   UNL d   1       3.063  -3.301 -19.239  0.00  0.00    -0.218 OA
ATOM     31  O   UNL d   1       6.200  -1.533 -18.877  0.00  0.00    -0.326 OA
BRANCH  29  32
ATOM     32  C   UNL d   1       4.108  -0.466 -19.229  0.00  0.00     0.214 C 
ATOM     33  O   UNL d   1       4.333   0.431 -20.298  0.00  0.00    -0.218 OA
ENDBRANCH  29  32
ENDBRANCH  22  23
ENDBRANCH   6  22
BRANCH   1  34
ATOM     34  O   UNL d   1       9.554  -1.494 -20.931  0.00  0.00    -0.326 OA
ATOM     35  C   UNL d   1      10.209  -1.143 -22.146  0.00  0.00     0.181 C 
ENDBRANCH   1  34
TORSDOF 4
