REMARK  6 active torsions:
REMARK  status: ('A' for Active; 'I' for Inactive)
REMARK    1  A    between atoms: C_7  and  O_8 
REMARK    2  A    between atoms: O_8  and  C_9 
REMARK    3  A    between atoms: C_9  and  C_10 
REMARK    4  A    between atoms: C_10  and  C_11 
REMARK    5  A    between atoms: C_11  and  N_12 
REMARK    6  A    between atoms: N_15  and  C_16 
ROOT
ATOM      1  N   UNL d   1      10.143   7.120  -9.616  0.00  0.00     0.141 N 
ATOM      2  C   UNL d   1      11.026   8.290  -9.491  0.00  0.00     0.274 C 
ATOM      3  C   UNL d   1      11.921   8.164  -8.236  0.00  0.00     0.137 C 
ATOM      4  N   UNL d   1      11.109   7.884  -7.074  0.00  0.00    -0.344 N 
ATOM      5  C   UNL d   1      10.126   6.837  -7.181  0.00  0.00     0.137 C 
ATOM      6  C   UNL d   1       9.277   7.045  -8.429  0.00  0.00     0.274 C 
ENDROOT
BRANCH   1   7
ATOM      7  C   UNL d   1       9.320   7.282 -10.807  0.00  0.00     0.253 C 
BRANCH   7   8
ATOM      8  C   UNL d   1       8.469   6.027 -11.078  0.00  0.00     0.068 C 
BRANCH   8   9
ATOM      9  C   UNL d   1       7.446   6.275 -12.204  0.00  0.00     0.151 C 
BRANCH   9  10
ATOM     10  O   UNL d   1       6.930   5.053 -12.712  0.00  0.00    -0.331 OA
BRANCH  10  11
ATOM     11  C   UNL d   1       7.772   4.265 -13.466  0.00  0.00     0.090 A 
ATOM     12  C   UNL d   1       7.268   3.013 -13.905  0.00  0.00     0.000 A 
ATOM     13  C   UNL d   1       5.860   2.599 -13.518  0.00  0.00     0.033 C 
ATOM     14  C   UNL d   1       8.080   2.124 -14.653  0.00  0.00    -0.004 A 
ATOM     15  C   UNL d   1       9.392   2.526 -14.944  0.00  0.00     0.007 A 
ATOM     16  C   UNL d   1      10.476   1.821 -15.712  0.00  0.00     0.155 A 
ATOM     17  C   UNL d   1       9.886   3.744 -14.523  0.00  0.00     0.057 A 
ATOM     18  N   UNL d   1      11.585   2.788 -15.649  0.00  0.00    -0.229 NA
ATOM     19  C   UNL d   1      11.293   3.898 -14.956  0.00  0.00     0.275 A 
ATOM     20  O   UNL d   1      12.019   4.856 -14.706  0.00  0.00    -0.266 OA
ATOM     21  C   UNL d   1       9.102   4.648 -13.804  0.00  0.00     0.028 A 
ENDBRANCH  10  11
ENDBRANCH   9  10
ENDBRANCH   8   9
ENDBRANCH   7   8
ENDBRANCH   1   7
BRANCH   4  22
ATOM     22  C   UNL d   1      11.229   8.626  -5.887  0.00  0.00     0.058 A 
ATOM     23  C   UNL d   1      11.613   8.101  -4.630  0.00  0.00     0.043 A 
ATOM     24  C   UNL d   1      11.764   8.921  -3.485  0.00  0.00     0.004 A 
ATOM     25  C   UNL d   1      11.951   6.771  -4.452  0.00  0.00     0.141 A 
ATOM     26  C   UNL d   1      11.434  10.246  -3.618  0.00  0.00     0.000 A 
ATOM     27  C   UNL d   1      12.229   8.476  -2.222  0.00  0.00     0.000 A 
ATOM     28  C   UNL d   1      10.989  10.776  -4.841  0.00  0.00     0.002 A 
ATOM     29  C   UNL d   1      10.920   9.984  -5.982  0.00  0.00     0.017 A 
ATOM     30  C   UNL d   1      12.524   7.122  -2.092  0.00  0.00     0.002 A 
ATOM     31  C   UNL d   1      12.366   6.302  -3.199  0.00  0.00     0.030 A 
ATOM     32  F   UNL d   1      12.085   5.980  -5.525  0.00  0.00    -0.204 F 
ENDBRANCH   4  22
TORSDOF 6
