REMARK  9 active torsions:
REMARK  status: ('A' for Active; 'I' for Inactive)
REMARK    1  A    between atoms: O_2  and  C_3 
REMARK    2  A    between atoms: C_9  and  N_10 
REMARK    3  A    between atoms: N_13  and  C_14 
REMARK    4  A    between atoms: C_14  and  C_15 
REMARK    5  A    between atoms: C_15  and  C_16 
REMARK    6  A    between atoms: C_16  and  C_17 
REMARK    7  A    between atoms: C_17  and  N_18 
REMARK       I    between atoms: N_18  and  C_19 
REMARK    8  A    between atoms: C_19  and  C_21 
REMARK    9  A    between atoms: C_25  and  N_26 
ROOT
ATOM      1  C   UNL d   1      10.571   2.641 -14.054  0.00  0.00     0.251 C 
ENDROOT
BRANCH   1   2
ATOM      2  N   UNL d   1      10.351   1.822 -15.243  0.00  0.00     0.141 N 
ATOM      3  C   UNL d   1       9.037   1.179 -15.190  0.00  0.00     0.274 C 
ATOM      4  C   UNL d   1       8.784   0.234 -16.369  0.00  0.00     0.138 C 
ATOM      5  N   UNL d   1       8.937   1.026 -17.598  0.00  0.00    -0.328 N 
ATOM      6  C   UNL d   1      10.210   1.729 -17.733  0.00  0.00     0.138 C 
ATOM      7  C   UNL d   1      10.449   2.610 -16.477  0.00  0.00     0.274 C 
BRANCH   5   8
ATOM      8  C   UNL d   1       7.935   1.087 -18.621  0.00  0.00     0.169 A 
ATOM      9  N   UNL d   1       8.114   1.764 -19.748  0.00  0.00    -0.109 NA
ATOM     10  O   UNL d   1       6.936   1.598 -20.531  0.00  0.00    -0.210 OA
ATOM     11  C   UNL d   1       6.008   0.824 -19.840  0.00  0.00     0.128 A 
ATOM     12  C   UNL d   1       4.718   0.410 -20.162  0.00  0.00     0.029 A 
ATOM     13  C   UNL d   1       6.649   0.492 -18.620  0.00  0.00     0.063 A 
ATOM     14  C   UNL d   1       3.999  -0.386 -19.228  0.00  0.00     0.026 A 
ATOM     15  C   UNL d   1       4.611  -0.748 -17.984  0.00  0.00     0.094 A 
ATOM     16  C   UNL d   1       5.925  -0.328 -17.692  0.00  0.00     0.029 A 
BRANCH  15  17
ATOM     17  O   UNL d   1       3.873  -1.517 -17.099  0.00  0.00    -0.328 OA
ATOM     18  C   UNL d   1       4.479  -1.829 -15.835  0.00  0.00     0.181 C 
ENDBRANCH  15  17
ENDBRANCH   5   8
ENDBRANCH   1   2
BRANCH   1  19
ATOM     19  C   UNL d   1       9.338   3.475 -13.619  0.00  0.00     0.037 C 
BRANCH  19  20
ATOM     20  C   UNL d   1       9.574   4.253 -12.339  0.00  0.00     0.029 C 
BRANCH  20  21
ATOM     21  C   UNL d   1       8.252   4.795 -11.761  0.00  0.00     0.129 C 
BRANCH  21  22
ATOM     22  N   UNL d   1       8.509   5.790 -10.743  0.00  0.00    -0.234 NA
ATOM     23  C   UNL d   1       9.220   5.589  -9.627  0.00  0.00     0.275 C 
ATOM     24  O   UNL d   1       9.427   4.479  -9.135  0.00  0.00    -0.266 OA
BRANCH  23  25
ATOM     25  C   UNL d   1       9.829   6.822  -9.036  0.00  0.00     0.059 A 
ATOM     26  C   UNL d   1      10.236   6.816  -7.686  0.00  0.00     0.022 A 
ATOM     27  C   UNL d   1      10.854   7.940  -7.100  0.00  0.00     0.066 A 
ATOM     28  C   UNL d   1      11.060   9.095  -7.889  0.00  0.00     0.018 A 
ATOM     29  C   UNL d   1      10.686   9.100  -9.249  0.00  0.00     0.002 A 
ATOM     30  C   UNL d   1      10.081   7.972  -9.821  0.00  0.00     0.005 A 
BRANCH  27  31
ATOM     31  N   UNL d   1      11.253   7.945  -5.732  0.00  0.00    -0.287 N 
ATOM     32  C   UNL d   1      11.502   6.804  -5.072  0.00  0.00     0.183 A 
ATOM     33  N   UNL d   1      11.865   6.983  -3.814  0.00  0.00    -0.222 NA
ATOM     34  C   UNL d   1      11.867   8.367  -3.656  0.00  0.00     0.120 A 
ATOM     35  C   UNL d   1      11.504   8.978  -4.839  0.00  0.00     0.102 A 
ENDBRANCH  27  31
ENDBRANCH  23  25
ENDBRANCH  21  22
ENDBRANCH  20  21
ENDBRANCH  19  20
ENDBRANCH   1  19
TORSDOF 9
