REMARK  5 active torsions:
REMARK  status: ('A' for Active; 'I' for Inactive)
REMARK    1  A    between atoms: C_5  and  O_6 
REMARK    2  A    between atoms: O_6  and  C_7 
REMARK    3  A    between atoms: C_7  and  C_8 
REMARK    4  A    between atoms: C_8  and  N_9 
REMARK       I    between atoms: N_12  and  C_13 
REMARK    5  A    between atoms: C_13  and  C_15 
ROOT
ATOM      1  N   UNL d   1       9.819   5.958 -11.533  0.00  0.00     0.144 N 
ATOM      2  C   UNL d   1       9.044   7.200 -11.569  0.00  0.00     0.274 C 
ATOM      3  C   UNL d   1       9.689   8.272 -10.649  0.00  0.00     0.140 C 
ATOM      4  N   UNL d   1       9.915   7.750  -9.264  0.00  0.00    -0.311 N 
ATOM      5  C   UNL d   1       9.589   8.400  -8.155  0.00  0.00     0.275 C 
ATOM      6  O   UNL d   1       8.832   9.354  -8.151  0.00  0.00    -0.266 OA
ATOM      7  C   UNL d   1      10.662   6.475  -9.321  0.00  0.00     0.140 C 
ATOM      8  C   UNL d   1       9.814   5.495 -10.153  0.00  0.00     0.274 C 
ENDROOT
BRANCH   1   9
ATOM      9  C   UNL d   1       9.187   4.903 -12.284  0.00  0.00     0.283 C 
BRANCH   9  10
ATOM     10  C   UNL d   1       9.154   5.211 -13.800  0.00  0.00     0.184 C 
BRANCH  10  11
ATOM     11  O   UNL d   1       9.061   4.039 -14.599  0.00  0.00    -0.329 OA
BRANCH  11  12
ATOM     12  C   UNL d   1       7.991   3.194 -14.427  0.00  0.00     0.094 A 
ATOM     13  C   UNL d   1       8.076   1.926 -15.038  0.00  0.00     0.024 A 
ATOM     14  C   UNL d   1       7.057   0.972 -14.853  0.00  0.00    -0.003 A 
ATOM     15  C   UNL d   1       5.949   1.278 -14.035  0.00  0.00    -0.026 A 
ATOM     16  C   UNL d   1       4.864   0.243 -13.814  0.00  0.00     0.031 C 
ATOM     17  C   UNL d   1       5.858   2.564 -13.425  0.00  0.00    -0.024 A 
ATOM     18  C   UNL d   1       6.843   3.530 -13.662  0.00  0.00     0.020 A 
ATOM     19  C   UNL d   1       4.742   2.908 -12.462  0.00  0.00     0.031 C 
ENDBRANCH  11  12
ENDBRANCH  10  11
ENDBRANCH   9  10
ENDBRANCH   1   9
BRANCH   5  20
ATOM     20  C   UNL d   1      10.280   8.125  -6.859  0.00  0.00     0.137 A 
ATOM     21  N   UNL d   1      10.560   9.243  -6.071  0.00  0.00    -0.241 NA
ATOM     22  C   UNL d   1      11.171   8.875  -4.892  0.00  0.00     0.082 A 
ATOM     23  C   UNL d   1      11.278   7.456  -4.977  0.00  0.00     0.019 A 
ATOM     24  C   UNL d   1      11.609   9.589  -3.759  0.00  0.00     0.019 A 
ATOM     25  C   UNL d   1      10.647   7.006  -6.172  0.00  0.00     0.025 A 
ATOM     26  C   UNL d   1      11.891   6.794  -3.897  0.00  0.00     0.002 A 
ATOM     27  C   UNL d   1      12.354   7.476  -2.769  0.00  0.00     0.000 A 
ATOM     28  C   UNL d   1      12.221   8.883  -2.699  0.00  0.00     0.002 A 
ENDBRANCH   5  20
TORSDOF 5
