REMARK  8 active torsions:
REMARK  status: ('A' for Active; 'I' for Inactive)
REMARK       I    between atoms: N_2  and  C_3 
REMARK    1  A    between atoms: C_3  and  C_5 
REMARK    2  A    between atoms: C_9  and  O_10 
REMARK    3  A    between atoms: O_10  and  C_11 
REMARK    4  A    between atoms: C_11  and  C_12 
REMARK    5  A    between atoms: C_12  and  C_13 
REMARK    6  A    between atoms: C_13  and  C_14 
REMARK    7  A    between atoms: C_14  and  N_15 
REMARK    8  A    between atoms: N_18  and  C_19 
ROOT
ATOM      1  N   UNL d   1       9.839   6.432  -9.324  0.00  0.00     0.141 N 
ATOM      2  C   UNL d   1      11.083   7.196  -9.153  0.00  0.00     0.274 C 
ATOM      3  C   UNL d   1      11.640   6.996  -7.723  0.00  0.00     0.137 C 
ATOM      4  N   UNL d   1      10.636   7.374  -6.772  0.00  0.00    -0.344 N 
ATOM      5  C   UNL d   1       9.341   6.750  -6.913  0.00  0.00     0.137 C 
ATOM      6  C   UNL d   1       8.854   6.937  -8.350  0.00  0.00     0.274 C 
ENDROOT
BRANCH   1   7
ATOM      7  C   UNL d   1       9.346   6.620 -10.682  0.00  0.00     0.251 C 
BRANCH   7   8
ATOM      8  C   UNL d   1       8.196   5.640 -11.014  0.00  0.00     0.038 C 
BRANCH   8   9
ATOM      9  C   UNL d   1       7.951   5.528 -12.529  0.00  0.00     0.035 C 
BRANCH   9  10
ATOM     10  C   UNL d   1       8.042   4.076 -13.040  0.00  0.00     0.149 C 
BRANCH  10  11
ATOM     11  O   UNL d   1       8.379   4.063 -14.422  0.00  0.00    -0.331 OA
BRANCH  11  12
ATOM     12  C   UNL d   1       9.685   4.309 -14.801  0.00  0.00     0.094 A 
ATOM     13  C   UNL d   1      10.802   4.138 -13.944  0.00  0.00     0.024 A 
ATOM     14  C   UNL d   1      12.105   4.370 -14.411  0.00  0.00     0.002 A 
ATOM     15  C   UNL d   1      12.318   4.788 -15.734  0.00  0.00     0.005 A 
ATOM     16  C   UNL d   1      11.223   4.985 -16.601  0.00  0.00     0.059 A 
ATOM     17  C   UNL d   1       9.913   4.728 -16.132  0.00  0.00     0.029 A 
BRANCH  16  18
ATOM     18  C   UNL d   1      11.470   5.414 -18.017  0.00  0.00     0.275 C 
ATOM     19  N   UNL d   1      10.524   6.193 -18.562  0.00  0.00    -0.232 NA
ATOM     20  C   UNL d   1      10.606   6.753 -19.903  0.00  0.00     0.155 C 
ATOM     21  O   UNL d   1      12.513   5.110 -18.595  0.00  0.00    -0.266 OA
ENDBRANCH  16  18
ENDBRANCH  11  12
ENDBRANCH  10  11
ENDBRANCH   9  10
ENDBRANCH   8   9
ENDBRANCH   7   8
ENDBRANCH   1   7
BRANCH   4  22
ATOM     22  C   UNL d   1      10.949   8.210  -5.722  0.00  0.00     0.057 A 
ATOM     23  C   UNL d   1      11.500   7.743  -4.498  0.00  0.00     0.022 A 
ATOM     24  C   UNL d   1      11.756   8.688  -3.478  0.00  0.00     0.031 A 
ATOM     25  C   UNL d   1      11.863   6.433  -4.074  0.00  0.00     0.009 A 
ATOM     26  C   UNL d   1      11.453  10.019  -3.645  0.00  0.00     0.007 A 
ATOM     27  S   UNL d   1      12.385   7.982  -2.037  0.00  0.00    -0.086 SA
ATOM     28  C   UNL d   1      10.903  10.461  -4.849  0.00  0.00     0.002 A 
ATOM     29  C   UNL d   1      10.676   9.581  -5.906  0.00  0.00     0.017 A 
ATOM     30  C   UNL d   1      12.348   6.427  -2.789  0.00  0.00     0.035 A 
ENDBRANCH   4  22
TORSDOF 8
