REMARK  6 active torsions:
REMARK  status: ('A' for Active; 'I' for Inactive)
REMARK    1  A    between atoms: C_6  and  N_7 
REMARK    2  A    between atoms: N_10  and  C_11 
REMARK    3  A    between atoms: C_11  and  C_12 
REMARK    4  A    between atoms: C_12  and  C_13 
REMARK    5  A    between atoms: C_13  and  C_14 
REMARK    6  A    between atoms: C_14  and  N_15 
ROOT
ATOM      1  C   UNL d   1       7.880   5.503 -12.882  0.00  0.00     0.124 C 
ENDROOT
BRANCH   1   2
ATOM      2  C   UNL d   1       9.088   5.491 -11.924  0.00  0.00     0.027 C 
BRANCH   2   3
ATOM      3  C   UNL d   1       9.032   6.597 -10.867  0.00  0.00     0.037 C 
BRANCH   3   4
ATOM      4  C   UNL d   1      10.355   6.753 -10.098  0.00  0.00     0.251 C 
BRANCH   4   5
ATOM      5  N   UNL d   1      10.292   7.789  -9.071  0.00  0.00     0.141 N 
ATOM      6  C   UNL d   1      11.656   8.086  -8.593  0.00  0.00     0.274 C 
ATOM      7  C   UNL d   1      11.639   9.172  -7.502  0.00  0.00     0.137 C 
ATOM      8  N   UNL d   1      10.761   8.770  -6.416  0.00  0.00    -0.344 N 
ATOM      9  C   UNL d   1       9.423   8.327  -6.810  0.00  0.00     0.137 C 
ATOM     10  C   UNL d   1       9.487   7.287  -7.952  0.00  0.00     0.274 C 
BRANCH   8  11
ATOM     11  C   UNL d   1      11.227   8.757  -5.106  0.00  0.00     0.052 A 
ATOM     12  C   UNL d   1      11.366   9.969  -4.402  0.00  0.00     0.017 A 
ATOM     13  C   UNL d   1      11.844   9.987  -3.084  0.00  0.00     0.001 A 
ATOM     14  C   UNL d   1      12.218   8.791  -2.430  0.00  0.00    -0.004 A 
ATOM     15  C   UNL d   1      12.081   7.572  -3.109  0.00  0.00    -0.024 A 
ATOM     16  C   UNL d   1      12.438   6.297  -2.361  0.00  0.00     0.031 C 
ATOM     17  C   UNL d   1      11.595   7.559  -4.436  0.00  0.00    -0.010 A 
ATOM     18  C   UNL d   1      11.419   6.247  -5.131  0.00  0.00     0.032 C 
ENDBRANCH   8  11
ENDBRANCH   4   5
ENDBRANCH   3   4
ENDBRANCH   2   3
ENDBRANCH   1   2
BRANCH   1  19
ATOM     19  N   UNL d   1       7.703   4.232 -13.572  0.00  0.00    -0.165 N 
ATOM     20  C   UNL d   1       8.676   3.771 -14.401  0.00  0.00     0.718 A 
ATOM     21  N   UNL d   1       8.274   2.575 -14.925  0.00  0.00    -0.132 N 
ATOM     22  N   UNL d   1       9.851   4.186 -14.805  0.00  0.00    -0.043 NA
ATOM     23  C   UNL d   1       7.047   2.294 -14.435  0.00  0.00     0.112 A 
ATOM     24  C   UNL d   1       9.305   2.169 -15.745  0.00  0.00     0.172 A 
ATOM     25  C   UNL d   1       6.641   3.300 -13.588  0.00  0.00     0.073 A 
ATOM     26  C   UNL d   1       5.384   3.461 -12.796  0.00  0.00     0.052 C 
ATOM     27  C   UNL d   1      10.233   3.142 -15.654  0.00  0.00     0.187 A 
ATOM     28  C   UNL d   1       9.431   0.975 -16.565  0.00  0.00     0.284 A 
ATOM     29  N   UNL d   1      11.421   2.975 -16.414  0.00  0.00    -0.263 N 
ATOM     30  C   UNL d   1      11.610   1.864 -17.204  0.00  0.00     0.335 A 
ATOM     31  C   UNL d   1      12.458   4.008 -16.348  0.00  0.00     0.137 C 
ATOM     32  N   UNL d   1      10.616   0.902 -17.244  0.00  0.00    -0.246 N 
ATOM     33  O   UNL d   1      12.646   1.745 -17.865  0.00  0.00    -0.246 OA
ATOM     34  C   UNL d   1      10.795  -0.297 -18.086  0.00  0.00     0.139 C 
ATOM     35  O   UNL d   1       8.528   0.143 -16.616  0.00  0.00    -0.265 OA
ENDBRANCH   1  19
TORSDOF 6
