REMARK  10 active torsions:
REMARK  status: ('A' for Active; 'I' for Inactive)
REMARK    1  A    between atoms: C_2  and  O_4 
REMARK    2  A    between atoms: O_4  and  C_5 
REMARK    3  A    between atoms: C_10  and  N_11 
REMARK    4  A    between atoms: N_14  and  C_15 
REMARK    5  A    between atoms: C_15  and  C_16 
REMARK    6  A    between atoms: C_16  and  C_18 
REMARK    7  A    between atoms: C_18  and  N_19 
REMARK       I    between atoms: N_19  and  C_20 
REMARK    8  A    between atoms: C_20  and  C_22 
REMARK    9  A    between atoms: N_30  and  C_31 
REMARK   10  A    between atoms: C_34  and  N_35 
ROOT
ATOM      1  N   UNL d   1       9.974   0.745 -17.196  0.00  0.00    -0.232 NA
ATOM      2  C   UNL d   1       8.800   1.384 -17.273  0.00  0.00     0.275 C 
ATOM      3  O   UNL d   1       8.077   1.410 -18.269  0.00  0.00    -0.266 OA
ENDROOT
BRANCH   2   4
ATOM      4  C   UNL d   1       8.402   2.088 -16.014  0.00  0.00     0.058 A 
ATOM      5  C   UNL d   1       9.337   2.906 -15.321  0.00  0.00     0.010 A 
ATOM      6  C   UNL d   1       8.883   3.565 -14.168  0.00  0.00     0.061 A 
ATOM      7  C   UNL d   1       7.599   3.435 -13.714  0.00  0.00     0.061 A 
ATOM      8  C   UNL d   1       9.596   4.453 -13.221  0.00  0.00     0.267 A 
ATOM      9  C   UNL d   1       6.656   2.625 -14.359  0.00  0.00     0.005 A 
ATOM     10  C   UNL d   1       7.474   4.233 -12.473  0.00  0.00     0.267 A 
ATOM     11  C   UNL d   1       7.072   1.957 -15.532  0.00  0.00     0.005 A 
ATOM     12  N   UNL d   1       8.701   4.784 -12.249  0.00  0.00    -0.242 N 
ATOM     13  O   UNL d   1       6.448   4.311 -11.805  0.00  0.00    -0.267 OA
ATOM     14  O   UNL d   1      10.775   4.794 -13.344  0.00  0.00    -0.267 OA
BRANCH  12  15
ATOM     15  C   UNL d   1       9.006   5.607 -11.118  0.00  0.00     0.070 A 
ATOM     16  C   UNL d   1       8.725   5.183  -9.799  0.00  0.00     0.019 A 
ATOM     17  C   UNL d   1       9.049   6.001  -8.699  0.00  0.00     0.018 A 
ATOM     18  C   UNL d   1       9.664   7.262  -8.884  0.00  0.00     0.056 A 
ATOM     19  C   UNL d   1       9.938   7.681 -10.207  0.00  0.00     0.018 A 
ATOM     20  C   UNL d   1       9.600   6.870 -11.303  0.00  0.00     0.019 A 
BRANCH  18  21
ATOM     21  N   UNL d   1       9.977   8.088  -7.783  0.00  0.00    -0.344 N 
ATOM     22  C   UNL d   1      11.016   9.101  -7.909  0.00  0.00     0.126 C 
ATOM     23  C   UNL d   1       9.214   7.954  -6.548  0.00  0.00     0.126 C 
ENDBRANCH  18  21
ENDBRANCH  12  15
ENDBRANCH   2   4
BRANCH   1  24
ATOM     24  C   UNL d   1      10.674   0.089 -18.292  0.00  0.00     0.164 C 
BRANCH  24  25
ATOM     25  C   UNL d   1      11.670   1.021 -19.012  0.00  0.00     0.210 C 
ATOM     26  O   UNL d   1      12.758   0.221 -19.452  0.00  0.00    -0.219 OA
BRANCH  25  27
ATOM     27  C   UNL d   1      12.213   2.154 -18.111  0.00  0.00     0.285 C 
BRANCH  27  28
ATOM     28  N   UNL d   1      13.274   2.971 -18.694  0.00  0.00     0.144 N 
ATOM     29  C   UNL d   1      12.762   3.821 -19.778  0.00  0.00     0.274 C 
ATOM     30  C   UNL d   1      13.876   4.671 -20.408  0.00  0.00     0.137 C 
ATOM     31  N   UNL d   1      14.574   5.422 -19.374  0.00  0.00    -0.343 N 
ATOM     32  C   UNL d   1      15.039   4.652 -18.225  0.00  0.00     0.137 C 
ATOM     33  C   UNL d   1      13.881   3.816 -17.659  0.00  0.00     0.274 C 
BRANCH  31  34
ATOM     34  C   UNL d   1      14.754   6.813 -19.451  0.00  0.00     0.079 A 
ATOM     35  C   UNL d   1      16.031   7.384 -19.232  0.00  0.00     0.109 A 
ATOM     36  C   UNL d   1      16.191   8.781 -19.285  0.00  0.00     0.026 A 
ATOM     37  C   UNL d   1      15.086   9.608 -19.580  0.00  0.00     0.002 A 
ATOM     38  C   UNL d   1      13.823   9.038 -19.840  0.00  0.00     0.002 A 
ATOM     39  C   UNL d   1      13.652   7.644 -19.770  0.00  0.00     0.019 A 
BRANCH  35  40
ATOM     40  O   UNL d   1      17.098   6.521 -19.031  0.00  0.00    -0.332 OA
BRANCH  40  41
ATOM     41  C   UNL d   1      18.430   6.991 -18.890  0.00  0.00     0.122 C 
ATOM     42  C   UNL d   1      18.605   7.738 -17.543  0.00  0.00     0.033 C 
ATOM     43  C   UNL d   1      18.902   7.725 -20.164  0.00  0.00     0.033 C 
ENDBRANCH  40  41
ENDBRANCH  35  40
ENDBRANCH  31  34
ENDBRANCH  27  28
ENDBRANCH  25  27
ENDBRANCH  24  25
ENDBRANCH   1  24
TORSDOF 10
