REMARK  7 active torsions:
REMARK  status: ('A' for Active; 'I' for Inactive)
REMARK       I    between atoms: C_2  and  N_3 
REMARK    1  A    between atoms: C_2  and  C_22 
REMARK    2  A    between atoms: N_3  and  C_4 
REMARK    3  A    between atoms: C_4  and  C_5 
REMARK    4  A    between atoms: C_5  and  C_6 
REMARK    5  A    between atoms: C_6  and  C_7 
REMARK    6  A    between atoms: C_7  and  N_8 
REMARK    7  A    between atoms: N_11  and  C_12 
ROOT
ATOM      1  C   UNL d   1       9.397   6.246 -11.232  0.00  0.00     0.037 C 
ENDROOT
BRANCH   1   2
ATOM      2  C   UNL d   1       9.724   6.957  -9.920  0.00  0.00     0.029 C 
BRANCH   2   3
ATOM      3  C   UNL d   1       9.640   6.020  -8.694  0.00  0.00     0.129 C 
BRANCH   3   4
ATOM      4  N   UNL d   1       9.825   6.790  -7.481  0.00  0.00    -0.234 NA
ATOM      5  C   UNL d   1      10.937   6.803  -6.735  0.00  0.00     0.275 C 
ATOM      6  O   UNL d   1      11.852   6.004  -6.841  0.00  0.00    -0.266 OA
BRANCH   5   7
ATOM      7  C   UNL d   1      11.018   7.916  -5.745  0.00  0.00     0.060 A 
ATOM      8  C   UNL d   1      11.565   7.778  -4.435  0.00  0.00     0.022 A 
ATOM      9  C   UNL d   1      11.643   8.932  -3.615  0.00  0.00     0.082 A 
ATOM     10  C   UNL d   1      12.014   6.553  -3.910  0.00  0.00     0.002 A 
ATOM     11  N   UNL d   1      11.140  10.103  -4.013  0.00  0.00    -0.244 NA
ATOM     12  C   UNL d   1      12.208   8.863  -2.332  0.00  0.00     0.019 A 
ATOM     13  C   UNL d   1      10.658  10.234  -5.241  0.00  0.00     0.099 A 
ATOM     14  C   UNL d   1      10.582   9.189  -6.152  0.00  0.00     0.025 A 
ATOM     15  C   UNL d   1      12.659   7.647  -1.830  0.00  0.00     0.002 A 
ATOM     16  C   UNL d   1      12.568   6.501  -2.622  0.00  0.00     0.000 A 
ENDBRANCH   5   7
ENDBRANCH   3   4
ENDBRANCH   2   3
ENDBRANCH   1   2
BRANCH   1  17
ATOM     17  C   UNL d   1       8.010   5.556 -11.236  0.00  0.00     0.251 C 
BRANCH  17  18
ATOM     18  N   UNL d   1       7.644   5.013 -12.526  0.00  0.00     0.141 N 
ATOM     19  C   UNL d   1       8.613   3.984 -12.959  0.00  0.00     0.274 C 
ATOM     20  C   UNL d   1       8.213   3.410 -14.307  0.00  0.00     0.137 C 
ATOM     21  N   UNL d   1       6.862   2.883 -14.245  0.00  0.00    -0.344 N 
ATOM     22  C   UNL d   1       5.846   3.778 -13.697  0.00  0.00     0.137 C 
ATOM     23  C   UNL d   1       6.321   4.372 -12.367  0.00  0.00     0.274 C 
BRANCH  21  24
ATOM     24  C   UNL d   1       6.566   1.592 -14.715  0.00  0.00     0.068 A 
ATOM     25  C   UNL d   1       7.004   1.079 -15.985  0.00  0.00     0.084 A 
ATOM     26  C   UNL d   1       6.621  -0.206 -16.386  0.00  0.00     0.070 A 
ATOM     27 CL   UNL d   1       7.941   2.002 -17.114  0.00  0.00    -0.080 Cl
ATOM     28  C   UNL d   1       5.823  -0.996 -15.553  0.00  0.00     0.012 A 
ATOM     29 CL   UNL d   1       7.121  -0.821 -17.923  0.00  0.00    -0.081 Cl
ATOM     30  C   UNL d   1       5.390  -0.518 -14.314  0.00  0.00     0.002 A 
ATOM     31  C   UNL d   1       5.753   0.766 -13.893  0.00  0.00     0.018 A 
ENDBRANCH  21  24
ENDBRANCH  17  18
ENDBRANCH   1  17
TORSDOF 7
