REMARK  8 active torsions:
REMARK  status: ('A' for Active; 'I' for Inactive)
REMARK    1  A    between atoms: O_2  and  C_3 
REMARK    2  A    between atoms: C_8  and  N_9 
REMARK    3  A    between atoms: N_12  and  C_13 
REMARK    4  A    between atoms: C_13  and  C_14 
REMARK    5  A    between atoms: C_14  and  C_15 
REMARK    6  A    between atoms: C_15  and  C_16 
REMARK    7  A    between atoms: C_16  and  N_17 
REMARK       I    between atoms: N_17  and  C_18 
REMARK    8  A    between atoms: C_18  and  C_20 
ROOT
ATOM      1  C   UNL d   1       9.234   5.152 -11.173  0.00  0.00     0.251 C 
ENDROOT
BRANCH   1   2
ATOM      2  N   UNL d   1       8.642   4.781 -12.456  0.00  0.00     0.141 N 
ATOM      3  C   UNL d   1       7.242   4.392 -12.225  0.00  0.00     0.274 C 
ATOM      4  C   UNL d   1       6.559   3.931 -13.524  0.00  0.00     0.137 C 
ATOM      5  N   UNL d   1       7.344   2.892 -14.182  0.00  0.00    -0.344 N 
ATOM      6  C   UNL d   1       8.749   3.216 -14.394  0.00  0.00     0.137 C 
ATOM      7  C   UNL d   1       9.378   3.652 -13.055  0.00  0.00     0.274 C 
BRANCH   5   8
ATOM      8  C   UNL d   1       6.770   1.685 -14.630  0.00  0.00     0.060 A 
ATOM      9  C   UNL d   1       5.717   1.111 -13.883  0.00  0.00     0.047 A 
ATOM     10  C   UNL d   1       5.100  -0.067 -14.315  0.00  0.00     0.143 A 
ATOM     11  C   UNL d   1       5.528  -0.710 -15.471  0.00  0.00     0.054 A 
ATOM     12  F   UNL d   1       4.059  -0.592 -13.637  0.00  0.00    -0.204 F 
ATOM     13  C   UNL d   1       6.569  -0.162 -16.264  0.00  0.00     0.098 A 
ATOM     14  C   UNL d   1       7.193   1.030 -15.825  0.00  0.00     0.041 A 
BRANCH  13  15
ATOM     15  O   UNL d   1       7.035  -0.719 -17.442  0.00  0.00    -0.328 OA
ATOM     16  C   UNL d   1       6.314  -1.852 -17.938  0.00  0.00     0.181 C 
ENDBRANCH  13  15
ENDBRANCH   5   8
ENDBRANCH   1   2
BRANCH   1  17
ATOM     17  C   UNL d   1       9.475   6.668 -11.102  0.00  0.00     0.037 C 
BRANCH  17  18
ATOM     18  C   UNL d   1      10.182   7.085  -9.796  0.00  0.00     0.029 C 
BRANCH  18  19
ATOM     19  C   UNL d   1       9.223   7.455  -8.648  0.00  0.00     0.129 C 
BRANCH  19  20
ATOM     20  N   UNL d   1       9.913   7.586  -7.377  0.00  0.00    -0.234 NA
ATOM     21  C   UNL d   1      10.665   8.633  -7.005  0.00  0.00     0.275 C 
ATOM     22  O   UNL d   1      10.969   9.578  -7.725  0.00  0.00    -0.266 OA
BRANCH  21  23
ATOM     23  C   UNL d   1      11.099   8.614  -5.580  0.00  0.00     0.059 A 
ATOM     24  C   UNL d   1      11.457   7.398  -4.965  0.00  0.00     0.028 A 
ATOM     25  C   UNL d   1      11.890   7.405  -3.652  0.00  0.00     0.130 A 
ATOM     26  C   UNL d   1      11.999   8.631  -2.930  0.00  0.00     0.130 A 
ATOM     27  N   UNL d   1      12.249   6.390  -2.876  0.00  0.00    -0.102 NA
ATOM     28  C   UNL d   1      11.647   9.825  -3.523  0.00  0.00     0.023 A 
ATOM     29  N   UNL d   1      12.444   8.389  -1.698  0.00  0.00    -0.102 NA
ATOM     30  C   UNL d   1      11.198   9.826  -4.861  0.00  0.00     0.006 A 
ATOM     31  O   UNL d   1      12.544   6.997  -1.655  0.00  0.00    -0.106 OA
ENDBRANCH  21  23
ENDBRANCH  19  20
ENDBRANCH  18  19
ENDBRANCH  17  18
ENDBRANCH   1  17
TORSDOF 8
