REMARK  4 active torsions:
REMARK  status: ('A' for Active; 'I' for Inactive)
REMARK    1  A    between atoms: C_5  and  C_6 
REMARK    2  A    between atoms: C_8  and  C_9 
REMARK    3  A    between atoms: N_14  and  C_15 
REMARK    4  A    between atoms: C_15  and  C_16 
ROOT
ATOM      1  C   UNL d   1      10.371   4.500 -16.814  0.00  0.00     0.261 C 
ATOM      2  C   UNL d   1       9.880   4.228 -15.366  0.00  0.00     0.040 C 
ATOM      3  C   UNL d   1      10.932   3.477 -14.541  0.00  0.00     0.004 C 
ATOM      4  C   UNL d   1      12.243   4.257 -14.581  0.00  0.00     0.035 C 
ATOM      5  C   UNL d   1      12.638   4.604 -16.014  0.00  0.00     0.251 C 
ATOM      6  N   UNL d   1      11.579   5.340 -16.752  0.00  0.00     0.145 N 
ENDROOT
BRANCH   1   7
ATOM      7  C   UNL d   1      10.597   3.201 -17.599  0.00  0.00     0.113 A 
ATOM      8  C   UNL d   1      11.718   2.788 -18.392  0.00  0.00     0.039 A 
ATOM      9  C   UNL d   1      11.405   1.561 -18.821  0.00  0.00     0.104 A 
ATOM     10  N   UNL d   1      10.186   1.212 -18.265  0.00  0.00    -0.148 NA
ATOM     11  N   UNL d   1       9.659   2.244 -17.574  0.00  0.00    -0.150 NA
BRANCH   9  12
ATOM     12  C   UNL d   1      12.174   0.659 -19.653  0.00  0.00     0.019 A 
ATOM     13  C   UNL d   1      12.729  -0.508 -19.078  0.00  0.00     0.002 A 
ATOM     14  C   UNL d   1      13.503  -1.368 -19.861  0.00  0.00     0.011 A 
ATOM     15  C   UNL d   1      13.754  -1.070 -21.212  0.00  0.00     0.058 A 
ATOM     16 CL   UNL d   1      14.658  -2.173 -22.169  0.00  0.00    -0.082 Cl
ATOM     17  C   UNL d   1      13.264   0.127 -21.773  0.00  0.00     0.011 A 
ATOM     18  C   UNL d   1      12.498   1.002 -20.987  0.00  0.00     0.002 A 
ENDBRANCH   9  12
ENDBRANCH   1   7
BRANCH   6  19
ATOM     19  C   UNL d   1      11.937   5.776 -18.122  0.00  0.00     0.277 C 
BRANCH  19  20
ATOM     20  C   UNL d   1      13.220   6.618 -18.183  0.00  0.00     0.011 A 
ATOM     21  C   UNL d   1      14.514   6.049 -17.988  0.00  0.00    -0.002 A 
ATOM     22  C   UNL d   1      15.673   6.838 -18.086  0.00  0.00    -0.000 A 
ATOM     23  C   UNL d   1      15.551   8.195 -18.446  0.00  0.00    -0.000 A 
ATOM     24  C   UNL d   1      14.292   8.751 -18.739  0.00  0.00    -0.000 A 
ATOM     25  C   UNL d   1      13.133   7.966 -18.606  0.00  0.00    -0.002 A 
ENDBRANCH  19  20
ENDBRANCH   6  19
TORSDOF 4
