REMARK  4 active torsions:
REMARK  status: ('A' for Active; 'I' for Inactive)
REMARK    1  A    between atoms: O_2  and  C_3 
REMARK    2  A    between atoms: C_9  and  C_10 
REMARK    3  A    between atoms: N_17  and  S_18 
REMARK    4  A    between atoms: S_18  and  C_21 
ROOT
ATOM      1  C   UNL d   1       5.307   0.350 -14.265  0.00  0.00     0.094 A 
ATOM      2  C   UNL d   1       5.893  -0.408 -15.309  0.00  0.00     0.026 A 
ATOM      3  C   UNL d   1       7.085   0.033 -15.910  0.00  0.00     0.020 A 
ATOM      4  C   UNL d   1       7.702   1.214 -15.471  0.00  0.00     0.075 A 
ATOM      5  C   UNL d   1       7.164   2.000 -14.406  0.00  0.00     0.022 A 
ATOM      6  C   UNL d   1       5.956   1.520 -13.817  0.00  0.00     0.026 A 
ATOM      7  C   UNL d   1       8.056   3.123 -14.202  0.00  0.00     0.039 A 
ATOM      8  C   UNL d   1       9.074   2.974 -15.109  0.00  0.00     0.093 A 
ATOM      9  N   UNL d   1       8.858   1.845 -15.888  0.00  0.00    -0.231 N 
ENDROOT
BRANCH   9  10
ATOM     10  S   UNL d   1       9.882   1.293 -17.151  0.00  0.00     0.271 S 
ATOM     11  O   UNL d   1      10.676   0.206 -16.564  0.00  0.00    -0.200 OA
ATOM     12  O   UNL d   1       8.988   1.048 -18.298  0.00  0.00    -0.200 OA
BRANCH  10  13
ATOM     13  C   UNL d   1      10.925   2.696 -17.523  0.00  0.00     0.106 A 
ATOM     14  C   UNL d   1      10.382   3.796 -18.214  0.00  0.00     0.043 A 
ATOM     15  C   UNL d   1      11.188   4.924 -18.463  0.00  0.00     0.141 A 
ATOM     16  C   UNL d   1      12.526   4.945 -18.023  0.00  0.00     0.030 A 
ATOM     17  F   UNL d   1      10.673   5.990 -19.119  0.00  0.00    -0.204 F 
ATOM     18  C   UNL d   1      13.062   3.842 -17.329  0.00  0.00     0.003 A 
ATOM     19  C   UNL d   1      12.259   2.713 -17.075  0.00  0.00     0.013 A 
ENDBRANCH  10  13
ENDBRANCH   9  10
BRANCH   7  20
ATOM     20  C   UNL d   1       7.892   4.196 -13.223  0.00  0.00     0.105 A 
ATOM     21  N   UNL d   1       8.904   5.144 -13.030  0.00  0.00    -0.213 NA
ATOM     22  C   UNL d   1       8.436   5.941 -12.081  0.00  0.00     0.238 A 
ATOM     23  N   UNL d   1       7.226   5.602 -11.654  0.00  0.00    -0.211 NA
ATOM     24  N   UNL d   1       9.059   7.040 -11.524  0.00  0.00    -0.060 NA
ATOM     25  C   UNL d   1       6.837   4.487 -12.371  0.00  0.00     0.121 A 
ENDBRANCH   7  20
BRANCH   1  26
ATOM     26  O   UNL d   1       4.123  -0.018 -13.656  0.00  0.00    -0.328 OA
ATOM     27  C   UNL d   1       3.259  -0.892 -14.366  0.00  0.00     0.181 C 
ENDBRANCH   1  26
TORSDOF 4
