REMARK  7 active torsions:
REMARK  status: ('A' for Active; 'I' for Inactive)
REMARK       I    between atoms: C_2  and  N_3 
REMARK    1  A    between atoms: C_2  and  C_22 
REMARK    2  A    between atoms: N_3  and  C_4 
REMARK    3  A    between atoms: C_4  and  C_5 
REMARK    4  A    between atoms: C_6  and  C_7 
REMARK    5  A    between atoms: C_7  and  N_8 
REMARK    6  A    between atoms: N_11  and  C_12 
REMARK    7  A    between atoms: C_25  and  C_26 
ROOT
ATOM      1  C   UNL d   1       6.083   3.399 -12.652  0.00  0.00    -0.003 C 
ATOM      2  C   UNL d   1       6.354   2.390 -13.494  0.00  0.00     0.006 C 
ENDROOT
BRANCH   1   3
ATOM      3  C   UNL d   1       6.662   4.790 -12.800  0.00  0.00     0.155 C 
BRANCH   3   4
ATOM      4  N   UNL d   1       7.407   5.182 -11.607  0.00  0.00    -0.229 NA
ATOM      5  C   UNL d   1       8.702   5.532 -11.584  0.00  0.00     0.275 C 
ATOM      6  O   UNL d   1       9.450   5.454 -12.560  0.00  0.00    -0.266 OA
BRANCH   5   7
ATOM      7  C   UNL d   1       9.198   6.126 -10.301  0.00  0.00     0.058 A 
ATOM      8  C   UNL d   1       8.875   5.563  -9.051  0.00  0.00     0.005 A 
ATOM      9  C   UNL d   1       9.360   6.157  -7.869  0.00  0.00     0.000 A 
ATOM     10  C   UNL d   1      10.183   7.306  -7.897  0.00  0.00     0.002 A 
ATOM     11  C   UNL d   1      10.505   7.857  -9.156  0.00  0.00     0.000 A 
ATOM     12  C   UNL d   1      10.015   7.275 -10.342  0.00  0.00     0.005 A 
BRANCH  10  13
ATOM     13  C   UNL d   1      10.688   7.910  -6.645  0.00  0.00     0.019 A 
ATOM     14  C   UNL d   1      10.821   9.309  -6.495  0.00  0.00     0.099 A 
ATOM     15  N   UNL d   1      11.273   9.919  -5.377  0.00  0.00    -0.242 NA
ATOM     16  C   UNL d   1      11.641   9.139  -4.342  0.00  0.00     0.099 A 
ATOM     17  C   UNL d   1      11.555   7.736  -4.374  0.00  0.00     0.021 A 
ATOM     18  C   UNL d   1      11.062   7.117  -5.538  0.00  0.00     0.003 A 
ENDBRANCH  10  13
ENDBRANCH   5   7
ENDBRANCH   3   4
ENDBRANCH   1   3
BRANCH   2  19
ATOM     19  C   UNL d   1       5.823   0.971 -13.338  0.00  0.00     0.276 C 
BRANCH  19  20
ATOM     20  N   UNL d   1       5.227   0.436 -14.560  0.00  0.00     0.145 N 
ATOM     21  C   UNL d   1       4.638  -0.884 -14.302  0.00  0.00     0.275 C 
ATOM     22  C   UNL d   1       3.932  -1.424 -15.559  0.00  0.00     0.137 C 
ATOM     23  N   UNL d   1       4.854  -1.428 -16.677  0.00  0.00    -0.344 N 
ATOM     24  C   UNL d   1       5.533  -0.172 -16.940  0.00  0.00     0.137 C 
ATOM     25  C   UNL d   1       6.204   0.335 -15.656  0.00  0.00     0.275 C 
BRANCH  23  26
ATOM     26  C   UNL d   1       5.071  -2.572 -17.467  0.00  0.00     0.068 A 
ATOM     27  C   UNL d   1       4.894  -2.553 -18.875  0.00  0.00     0.084 A 
ATOM     28  C   UNL d   1       5.105  -3.728 -19.625  0.00  0.00     0.070 A 
ATOM     29 CL   UNL d   1       4.369  -1.113 -19.690  0.00  0.00    -0.080 Cl
ATOM     30  C   UNL d   1       5.493  -4.923 -18.988  0.00  0.00     0.012 A 
ATOM     31 CL   UNL d   1       4.880  -3.736 -21.337  0.00  0.00    -0.081 Cl
ATOM     32  C   UNL d   1       5.670  -4.947 -17.594  0.00  0.00     0.002 A 
ATOM     33  C   UNL d   1       5.460  -3.775 -16.843  0.00  0.00     0.018 A 
ENDBRANCH  23  26
ENDBRANCH  19  20
ENDBRANCH   2  19
TORSDOF 7
