REMARK  5 active torsions:
REMARK  status: ('A' for Active; 'I' for Inactive)
REMARK    1  A    between atoms: S_2  and  C_4 
REMARK    2  A    between atoms: S_2  and  C_10 
REMARK    3  A    between atoms: N_13  and  C_14 
REMARK    4  A    between atoms: C_14  and  C_15 
REMARK    5  A    between atoms: C_15  and  C_16 
ROOT
ATOM      1  C   UNL d   1      10.305   8.063  -7.695  0.00  0.00     0.116 C 
ATOM      2  C   UNL d   1      10.656   6.590  -7.498  0.00  0.00     0.052 C 
ATOM      3  C   UNL d   1       9.890   5.653  -8.409  0.00  0.00     0.251 C 
ATOM      4  N   UNL d   1      10.181   5.989  -9.796  0.00  0.00     0.137 N 
ATOM      5  C   UNL d   1       9.709   7.347 -10.033  0.00  0.00     0.251 C 
ATOM      6  C   UNL d   1      10.480   8.377  -9.184  0.00  0.00     0.052 C 
ENDROOT
BRANCH   4   7
ATOM      7  C   UNL d   1       9.459   4.984 -10.569  0.00  0.00     0.255 C 
BRANCH   7   8
ATOM      8  C   UNL d   1       9.566   5.286 -12.069  0.00  0.00     0.064 C 
BRANCH   8   9
ATOM      9  C   UNL d   1       8.902   4.238 -12.899  0.00  0.00     0.007 A 
ATOM     10  C   UNL d   1       9.677   3.387 -13.710  0.00  0.00     0.138 A 
ATOM     11  C   UNL d   1       9.035   2.427 -14.503  0.00  0.00     0.059 A 
ATOM     12  F   UNL d   1      11.027   3.502 -13.735  0.00  0.00    -0.204 F 
ATOM     13  C   UNL d   1       7.631   2.327 -14.494  0.00  0.00     0.142 A 
ATOM     14  C   UNL d   1       6.859   3.192 -13.688  0.00  0.00     0.029 A 
ATOM     15  F   UNL d   1       7.021   1.397 -15.256  0.00  0.00    -0.204 F 
ATOM     16  C   UNL d   1       7.495   4.153 -12.893  0.00  0.00     0.000 A 
ENDBRANCH   8   9
ENDBRANCH   7   8
ENDBRANCH   4   7
BRANCH   1  17
ATOM     17  S   UNL d   1      11.439   9.119  -6.686  0.00  0.00     0.189 S 
ATOM     18  O   UNL d   1      10.731  10.378  -6.413  0.00  0.00    -0.222 OA
ATOM     19  O   UNL d   1      12.743   9.150  -7.327  0.00  0.00    -0.222 OA
BRANCH  17  20
ATOM     20  C   UNL d   1      11.571   8.361  -5.080  0.00  0.00     0.084 A 
ATOM     21  C   UNL d   1      11.472   9.211  -3.942  0.00  0.00     0.011 A 
ATOM     22  C   UNL d   1      11.639   8.633  -2.651  0.00  0.00     0.001 A 
ATOM     23  C   UNL d   1      11.851   7.237  -2.497  0.00  0.00     0.000 A 
ATOM     24  C   UNL d   1      11.967   6.462  -3.676  0.00  0.00     0.001 A 
ATOM     25  C   UNL d   1      11.869   7.006  -4.934  0.00  0.00     0.011 A 
ENDBRANCH  17  20
ENDBRANCH   1  17
TORSDOF 5
