REMARK  4 active torsions:
REMARK  status: ('A' for Active; 'I' for Inactive)
REMARK    1  A    between atoms: C_8  and  C_9 
REMARK    2  A    between atoms: C_9  and  C_10 
REMARK    3  A    between atoms: C_10  and  N_11 
REMARK    4  A    between atoms: N_14  and  C_15 
ROOT
ATOM      1  N   UNL d   1      10.186   6.152  -9.685  0.00  0.00     0.141 N 
ATOM      2  C   UNL d   1       9.654   5.898  -8.357  0.00  0.00     0.274 C 
ATOM      3  C   UNL d   1      10.756   6.085  -7.332  0.00  0.00     0.138 C 
ATOM      4  N   UNL d   1      11.368   7.393  -7.440  0.00  0.00    -0.329 N 
ATOM      5  C   UNL d   1      11.778   7.795  -8.791  0.00  0.00     0.138 C 
ATOM      6  C   UNL d   1      10.638   7.532  -9.793  0.00  0.00     0.274 C 
ENDROOT
BRANCH   1   7
ATOM      7  C   UNL d   1       9.164   5.949 -10.673  0.00  0.00     0.255 C 
BRANCH   7   8
ATOM      8  C   UNL d   1       8.860   4.467 -10.761  0.00  0.00     0.063 C 
BRANCH   8   9
ATOM      9  C   UNL d   1       8.131   4.148 -12.047  0.00  0.00    -0.001 A 
ATOM     10  C   UNL d   1       8.838   3.869 -13.236  0.00  0.00     0.076 A 
ATOM     11  N   UNL d   1      10.263   3.968 -13.246  0.00  0.00    -0.212 NA
ATOM     12  C   UNL d   1       8.150   3.449 -14.400  0.00  0.00    -0.002 A 
ATOM     13  C   UNL d   1      11.048   3.533 -14.244  0.00  0.00     0.256 C 
ATOM     14  C   UNL d   1      10.392   2.761 -15.396  0.00  0.00     0.094 C 
ATOM     15  O   UNL d   1      12.261   3.733 -14.238  0.00  0.00    -0.270 OA
ATOM     16  C   UNL d   1       8.954   3.244 -15.696  0.00  0.00     0.033 C 
ATOM     17  C   UNL d   1       8.283   2.348 -16.761  0.00  0.00     0.005 C 
ATOM     18  C   UNL d   1       6.735   3.300 -14.333  0.00  0.00     0.027 A 
ATOM     19  C   UNL d   1       6.040   3.623 -13.163  0.00  0.00     0.140 A 
ATOM     20  C   UNL d   1       6.724   4.013 -11.999  0.00  0.00     0.027 A 
ATOM     21  F   UNL d   1       4.694   3.568 -13.086  0.00  0.00    -0.204 F 
ENDBRANCH   8   9
ENDBRANCH   7   8
ENDBRANCH   1   7
BRANCH   4  22
ATOM     22  C   UNL d   1      11.385   8.264  -6.376  0.00  0.00     0.151 A 
ATOM     23  C   UNL d   1      11.662   7.802  -4.981  0.00  0.00     0.044 A 
ATOM     24  C   UNL d   1      11.822   8.867  -4.146  0.00  0.00     0.081 A 
ATOM     25  C   UNL d   1      11.923   6.513  -4.481  0.00  0.00     0.004 C 
ATOM     26  S   UNL d   1      11.450  10.305  -5.074  0.00  0.00     0.176 S 
ATOM     27  C   UNL d   1      12.017   8.783  -2.748  0.00  0.00     0.011 C 
ATOM     28  N   UNL d   1      11.264   9.528  -6.506  0.00  0.00    -0.164 NA
ATOM     29  O   UNL d   1      10.107  10.601  -4.460  0.00  0.00    -0.228 OA
ATOM     30  C   UNL d   1      12.260   7.492  -2.257  0.00  0.00     0.001 C 
ATOM     31  C   UNL d   1      12.254   6.391  -3.122  0.00  0.00     0.000 C 
ENDBRANCH   4  22
TORSDOF 4
