REMARK  9 active torsions:
REMARK  status: ('A' for Active; 'I' for Inactive)
REMARK    1  A    between atoms: C_2  and  C_3 
REMARK    2  A    between atoms: C_3  and  N_4 
REMARK    3  A    between atoms: N_4  and  C_5 
REMARK    4  A    between atoms: N_4  and  C_25 
REMARK    5  A    between atoms: C_5  and  C_6 
REMARK    6  A    between atoms: C_6  and  C_7 
REMARK    7  A    between atoms: C_10  and  N_11 
REMARK       I    between atoms: N_11  and  C_12 
REMARK    8  A    between atoms: C_12  and  C_14 
REMARK    9  A    between atoms: C_27  and  C_28 
ROOT
ATOM      1  C   UNL d   1       7.947   6.047 -11.873  0.00  0.00     0.133 C 
ATOM      2  O   UNL d   1       6.752   6.742 -12.125  0.00  0.00    -0.226 OA
ATOM      3  C   UNL d   1       9.120   6.974 -11.537  0.00  0.00     0.055 C 
ATOM      4  C   UNL d   1       9.468   6.024 -10.384  0.00  0.00     0.112 C 
ATOM      5  C   UNL d   1       8.052   5.506 -10.441  0.00  0.00     0.055 C 
ENDROOT
BRANCH   1   6
ATOM      6  C   UNL d   1       8.160   5.074 -13.037  0.00  0.00     0.066 C 
BRANCH   6   7
ATOM      7  C   UNL d   1       9.440   4.173 -12.879  0.00  0.00     0.253 C 
BRANCH   7   8
ATOM      8  N   UNL d   1      10.109   3.842 -14.118  0.00  0.00     0.135 N 
BRANCH   8   9
ATOM      9  C   UNL d   1      10.540   5.065 -14.801  0.00  0.00     0.250 C 
BRANCH   9  10
ATOM     10  C   UNL d   1      11.518   4.812 -15.953  0.00  0.00     0.035 C 
ATOM     11  C   UNL d   1      11.936   6.109 -16.637  0.00  0.00     0.002 C 
ENDBRANCH   9  10
ENDBRANCH   8   9
BRANCH   8  12
ATOM     12  C   UNL d   1       9.214   3.088 -14.976  0.00  0.00     0.224 A 
ATOM     13  C   UNL d   1       9.131   1.590 -14.811  0.00  0.00     0.056 A 
ATOM     14  C   UNL d   1       9.870   2.176 -15.989  0.00  0.00     0.040 A 
BRANCH  13  15
ATOM     15  C   UNL d   1       7.827   0.893 -15.015  0.00  0.00    -0.021 A 
ATOM     16  C   UNL d   1       7.056   1.126 -16.180  0.00  0.00    -0.003 A 
ATOM     17  C   UNL d   1       5.849   0.443 -16.382  0.00  0.00     0.011 A 
ATOM     18  C   UNL d   1       5.367  -0.441 -15.403  0.00  0.00     0.058 A 
ATOM     19  C   UNL d   1       6.116  -0.674 -14.235  0.00  0.00     0.011 A 
ATOM     20 CL   UNL d   1       3.845  -1.208 -15.627  0.00  0.00    -0.082 Cl
ATOM     21  C   UNL d   1       7.339  -0.007 -14.041  0.00  0.00    -0.003 A 
ENDBRANCH  13  15
ENDBRANCH   8  12
ENDBRANCH   7   8
ENDBRANCH   6   7
ENDBRANCH   1   6
BRANCH   4  22
ATOM     22  N   UNL d   1       9.811   6.691  -9.139  0.00  0.00    -0.236 NA
ATOM     23  C   UNL d   1      10.798   7.593  -9.014  0.00  0.00     0.275 C 
ATOM     24  O   UNL d   1      11.456   8.060  -9.937  0.00  0.00    -0.266 OA
BRANCH  23  25
ATOM     25  C   UNL d   1      11.056   8.034  -7.619  0.00  0.00     0.058 A 
ATOM     26  C   UNL d   1      11.197   7.107  -6.576  0.00  0.00     0.005 A 
ATOM     27  C   UNL d   1      11.448   7.571  -5.277  0.00  0.00     0.000 A 
ATOM     28  C   UNL d   1      11.547   8.964  -5.014  0.00  0.00     0.000 A 
ATOM     29  C   UNL d   1      11.611   6.656  -4.222  0.00  0.00     0.000 A 
ATOM     30  C   UNL d   1      11.407   9.884  -6.075  0.00  0.00     0.000 A 
ATOM     31  C   UNL d   1      11.795   9.409  -3.708  0.00  0.00     0.000 A 
ATOM     32  C   UNL d   1      11.179   9.408  -7.371  0.00  0.00     0.005 A 
ATOM     33  C   UNL d   1      11.958   8.487  -2.661  0.00  0.00     0.000 A 
ATOM     34  C   UNL d   1      11.859   7.109  -2.918  0.00  0.00     0.000 A 
ENDBRANCH  23  25
ENDBRANCH   4  22
TORSDOF 9
