REMARK  5 active torsions:
REMARK  status: ('A' for Active; 'I' for Inactive)
REMARK       I    between atoms: C_2  and  N_3 
REMARK    1  A    between atoms: C_2  and  C_23 
REMARK    2  A    between atoms: N_3  and  C_4 
REMARK    3  A    between atoms: C_4  and  C_5 
REMARK    4  A    between atoms: C_5  and  N_6 
REMARK    5  A    between atoms: C_9  and  N_10 
ROOT
ATOM      1  N   UNL d   1       9.322   4.451 -13.139  0.00  0.00     0.139 N 
ATOM      2  C   UNL d   1       8.739   4.691 -14.454  0.00  0.00     0.252 C 
ATOM      3  C   UNL d   1       9.827   4.615 -15.524  0.00  0.00     0.058 C 
ATOM      4  C   UNL d   1      10.536   3.243 -15.499  0.00  0.00     0.094 C 
ATOM      5  C   UNL d   1      11.013   2.924 -14.073  0.00  0.00     0.058 C 
ATOM      6  C   UNL d   1       9.861   3.100 -13.078  0.00  0.00     0.252 C 
ENDROOT
BRANCH   1   7
ATOM      7  C   UNL d   1       8.277   4.572 -12.135  0.00  0.00     0.276 C 
BRANCH   7   8
ATOM      8  C   UNL d   1       8.104   6.034 -11.719  0.00  0.00     0.164 C 
BRANCH   8   9
ATOM      9  N   UNL d   1       9.114   6.476 -10.768  0.00  0.00    -0.232 NA
ATOM     10  C   UNL d   1       9.290   6.002  -9.523  0.00  0.00     0.275 C 
ATOM     11  O   UNL d   1       8.792   4.959  -9.093  0.00  0.00    -0.266 OA
BRANCH  10  12
ATOM     12  C   UNL d   1      10.052   6.907  -8.603  0.00  0.00     0.058 A 
ATOM     13  C   UNL d   1       9.726   6.909  -7.232  0.00  0.00     0.007 A 
ATOM     14  C   UNL d   1      10.422   7.733  -6.330  0.00  0.00     0.030 A 
ATOM     15  C   UNL d   1      11.458   8.563  -6.800  0.00  0.00     0.140 A 
ATOM     16  C   UNL d   1      11.803   8.557  -8.168  0.00  0.00     0.030 A 
ATOM     17  F   UNL d   1      12.120   9.366  -5.934  0.00  0.00    -0.204 F 
ATOM     18  C   UNL d   1      11.103   7.732  -9.070  0.00  0.00     0.007 A 
ENDBRANCH  10  12
ENDBRANCH   8   9
ENDBRANCH   7   8
ENDBRANCH   1   7
BRANCH   4  19
ATOM     19  N   UNL d   1      11.649   3.177 -16.457  0.00  0.00    -0.281 N 
ATOM     20  C   UNL d   1      11.808   2.152 -17.409  0.00  0.00     0.082 A 
ATOM     21  C   UNL d   1      12.953   2.442 -18.115  0.00  0.00     0.103 A 
ATOM     22  C   UNL d   1      11.036   1.006 -17.693  0.00  0.00     0.020 A 
ATOM     23  N   UNL d   1      13.467   3.622 -17.582  0.00  0.00    -0.191 NA
ATOM     24  C   UNL d   1      13.433   1.625 -19.148  0.00  0.00     0.032 A 
ATOM     25  C   UNL d   1      12.699   4.034 -16.565  0.00  0.00     0.350 A 
ATOM     26  O   UNL d   1      12.946   5.006 -15.850  0.00  0.00    -0.244 OA
ATOM     27  C   UNL d   1      12.679   0.467 -19.453  0.00  0.00     0.059 A 
ATOM     28 CL   UNL d   1      13.212  -0.588 -20.711  0.00  0.00    -0.082 Cl
ATOM     29  C   UNL d   1      11.491   0.167 -18.736  0.00  0.00     0.013 A 
ENDBRANCH   4  19
TORSDOF 5
