REMARK  6 active torsions:
REMARK  status: ('A' for Active; 'I' for Inactive)
REMARK    1  A    between atoms: C_2  and  C_3 
REMARK    2  A    between atoms: N_16  and  C_17 
REMARK    3  A    between atoms: C_17  and  C_18 
REMARK    4  A    between atoms: C_18  and  C_20 
REMARK    5  A    between atoms: C_20  and  N_21 
REMARK    6  A    between atoms: N_24  and  C_25 
ROOT
ATOM      1  C   UNL d   1       7.570   8.737 -21.608  0.00  0.00     0.066 A 
ATOM      2  C   UNL d   1       6.338   8.915 -20.939  0.00  0.00     0.018 A 
ATOM      3  C   UNL d   1       5.414   9.882 -21.363  0.00  0.00     0.002 A 
ATOM      4  C   UNL d   1       5.705  10.703 -22.474  0.00  0.00     0.001 A 
ATOM      5  C   UNL d   1       6.928  10.529 -23.158  0.00  0.00     0.012 A 
ATOM      6  C   UNL d   1       7.850   9.555 -22.749  0.00  0.00     0.084 A 
ATOM      7  C   UNL d   1       9.080   9.416 -23.528  0.00  0.00     0.102 C 
ATOM      8  N   UNL d   1      10.051   9.315 -24.147  0.00  0.00    -0.191 NA
ENDROOT
BRANCH   1   9
ATOM      9  N   UNL d   1       8.477   7.784 -21.114  0.00  0.00    -0.344 N 
ATOM     10  C   UNL d   1       8.068   6.433 -20.732  0.00  0.00     0.137 C 
ATOM     11  C   UNL d   1       8.617   6.106 -19.327  0.00  0.00     0.274 C 
ATOM     12  N   UNL d   1      10.071   6.304 -19.233  0.00  0.00     0.144 N 
ATOM     13  C   UNL d   1      10.378   7.695 -19.565  0.00  0.00     0.274 C 
ATOM     14  C   UNL d   1       9.902   8.068 -20.970  0.00  0.00     0.137 C 
BRANCH  12  15
ATOM     15  C   UNL d   1      10.571   5.983 -17.899  0.00  0.00     0.285 C 
BRANCH  15  16
ATOM     16  C   UNL d   1      10.652   4.466 -17.610  0.00  0.00     0.208 C 
ATOM     17  O   UNL d   1      12.023   4.143 -17.496  0.00  0.00    -0.219 OA
BRANCH  16  18
ATOM     18  C   UNL d   1       9.990   4.088 -16.266  0.00  0.00     0.148 C 
BRANCH  18  19
ATOM     19  N   UNL d   1       9.689   2.651 -16.172  0.00  0.00    -0.247 N 
ATOM     20  C   UNL d   1      10.362   1.815 -15.372  0.00  0.00     0.348 A 
ATOM     21  N   UNL d   1       9.915   0.571 -15.582  0.00  0.00    -0.209 NA
ATOM     22  O   UNL d   1      11.254   2.121 -14.583  0.00  0.00    -0.245 OA
ATOM     23  C   UNL d   1       8.810   0.491 -16.541  0.00  0.00     0.179 A 
ATOM     24  C   UNL d   1       9.274  -0.410 -17.758  0.00  0.00     0.039 C 
ATOM     25  C   UNL d   1       8.789   1.978 -16.916  0.00  0.00     0.265 A 
ATOM     26  O   UNL d   1       8.075   2.436 -17.808  0.00  0.00    -0.269 OA
BRANCH  23  27
ATOM     27  C   UNL d   1       7.467   0.075 -15.841  0.00  0.00     0.006 A 
ATOM     28  C   UNL d   1       6.285  -0.307 -16.573  0.00  0.00    -0.002 A 
ATOM     29  C   UNL d   1       5.155  -0.805 -15.847  0.00  0.00    -0.000 A 
ATOM     30  C   UNL d   1       6.174  -0.214 -17.995  0.00  0.00    -0.000 A 
ATOM     31  C   UNL d   1       5.153  -0.843 -14.439  0.00  0.00    -0.000 A 
ATOM     32  C   UNL d   1       3.989  -1.240 -16.526  0.00  0.00    -0.000 A 
ATOM     33  C   UNL d   1       6.280  -0.417 -13.718  0.00  0.00    -0.000 A 
ATOM     34  C   UNL d   1       7.418   0.031 -14.412  0.00  0.00    -0.002 A 
ATOM     35  C   UNL d   1       3.929  -1.229 -17.932  0.00  0.00    -0.000 A 
ATOM     36  C   UNL d   1       5.045  -0.738 -18.655  0.00  0.00    -0.000 A 
ENDBRANCH  23  27
ENDBRANCH  18  19
ENDBRANCH  16  18
ENDBRANCH  15  16
ENDBRANCH  12  15
ENDBRANCH   1   9
TORSDOF 6
