REMARK  7 active torsions:
REMARK  status: ('A' for Active; 'I' for Inactive)
REMARK    1  A    between atoms: C_6  and  C_7 
REMARK    2  A    between atoms: C_10  and  S_11 
REMARK    3  A    between atoms: S_11  and  C_12 
REMARK    4  A    between atoms: C_12  and  C_13 
REMARK    5  A    between atoms: C_13  and  C_14 
REMARK    6  A    between atoms: C_14  and  N_15 
REMARK    7  A    between atoms: C_22  and  C_23 
ROOT
ATOM      1  C   UNL d   1      10.215   1.088 -19.872  0.00  0.00     0.067 C 
ENDROOT
BRANCH   1   2
ATOM      2  S   UNL d   1       9.274  -0.380 -19.344  0.00  0.00    -0.075 SA
BRANCH   2   3
ATOM      3  C   UNL d   1       9.074   0.035 -17.647  0.00  0.00     0.193 A 
ATOM      4  N   UNL d   1      10.013  -0.169 -16.723  0.00  0.00    -0.122 NA
ATOM      5  N   UNL d   1       9.490   0.339 -15.553  0.00  0.00    -0.128 NA
ATOM      6  C   UNL d   1       8.271   0.788 -15.868  0.00  0.00     0.167 A 
ATOM      7  N   UNL d   1       7.954   0.608 -17.169  0.00  0.00    -0.289 N 
ATOM      8  C   UNL d   1       6.724   0.935 -17.875  0.00  0.00     0.134 C 
BRANCH   6   9
ATOM      9  C   UNL d   1       7.389   1.383 -14.879  0.00  0.00     0.037 A 
ATOM     10  C   UNL d   1       7.603   2.677 -14.335  0.00  0.00     0.021 A 
ATOM     11  C   UNL d   1       8.716   3.463 -14.711  0.00  0.00     0.003 A 
ATOM     12  C   UNL d   1       6.696   3.210 -13.373  0.00  0.00     0.081 A 
ATOM     13  C   UNL d   1       8.894   4.726 -14.124  0.00  0.00     0.015 A 
ATOM     14  C   UNL d   1       7.949   5.167 -13.179  0.00  0.00     0.059 A 
ATOM     15  C   UNL d   1       8.087   6.514 -12.505  0.00  0.00     0.052 C 
ATOM     16  N   UNL d   1       6.871   4.435 -12.825  0.00  0.00    -0.250 NA
ATOM     17  C   UNL d   1       5.603   2.419 -12.956  0.00  0.00     0.019 A 
ATOM     18  C   UNL d   1       5.406   1.128 -13.482  0.00  0.00     0.002 A 
ATOM     19  C   UNL d   1       6.285   0.621 -14.450  0.00  0.00     0.003 A 
ENDBRANCH   6   9
ENDBRANCH   2   3
ENDBRANCH   1   2
BRANCH   1  20
ATOM     20  C   UNL d   1      11.634   1.143 -19.272  0.00  0.00     0.047 C 
BRANCH  20  21
ATOM     21  C   UNL d   1      12.432   2.329 -19.819  0.00  0.00     0.251 C 
BRANCH  21  22
ATOM     22  N   UNL d   1      13.795   2.313 -19.285  0.00  0.00     0.138 N 
ATOM     23  C   UNL d   1      14.010   3.102 -18.069  0.00  0.00     0.255 C 
ATOM     24  C   UNL d   1      13.888   4.630 -18.221  0.00  0.00     0.061 C 
ATOM     25  C   UNL d   1      15.103   5.280 -18.867  0.00  0.00    -0.022 A 
ATOM     26  C   UNL d   1      15.530   4.926 -20.175  0.00  0.00    -0.022 A 
ATOM     27  C   UNL d   1      15.813   6.268 -18.146  0.00  0.00     0.022 A 
ATOM     28  C   UNL d   1      14.807   3.861 -20.983  0.00  0.00     0.061 C 
ATOM     29  C   UNL d   1      16.651   5.568 -20.758  0.00  0.00     0.017 A 
ATOM     30  C   UNL d   1      14.813   2.474 -20.317  0.00  0.00     0.255 C 
ATOM     31  C   UNL d   1      17.358   6.559 -20.049  0.00  0.00     0.106 A 
ATOM     32  C   UNL d   1      16.922   6.880 -18.750  0.00  0.00     0.119 A 
ATOM     33  N   UNL d   1      18.458   7.331 -20.368  0.00  0.00    -0.224 NA
ATOM     34  O   UNL d   1      17.755   7.859 -18.245  0.00  0.00    -0.292 OA
ATOM     35  C   UNL d   1      18.659   8.053 -19.255  0.00  0.00     0.158 A 
BRANCH  35  36
ATOM     36  C   UNL d   1      19.671   9.142 -19.084  0.00  0.00     0.064 C 
ATOM     37  C   UNL d   1      19.225  10.434 -19.780  0.00  0.00     0.009 C 
ATOM     38  C   UNL d   1      21.075   8.701 -19.527  0.00  0.00     0.009 C 
ENDBRANCH  35  36
ENDBRANCH  21  22
ENDBRANCH  20  21
ENDBRANCH   1  20
TORSDOF 7
