REMARK  2 active torsions:
REMARK  status: ('A' for Active; 'I' for Inactive)
REMARK    1  A    between atoms: C_8  and  N_9 
REMARK       I    between atoms: N_9  and  C_10 
REMARK    2  A    between atoms: C_10  and  C_12 
ROOT
ATOM      1  N   UNL d   1       9.794   3.939 -13.067  0.00  0.00    -0.211 NA
ATOM      2  C   UNL d   1      10.636   3.621 -14.054  0.00  0.00     0.287 C 
ATOM      3  O   UNL d   1      11.842   3.630 -13.843  0.00  0.00    -0.268 OA
ENDROOT
BRANCH   1   4
ATOM      4  C   UNL d   1       8.373   3.997 -13.170  0.00  0.00     0.076 A 
ATOM      5  C   UNL d   1       7.681   5.159 -12.733  0.00  0.00    -0.004 A 
ATOM      6  C   UNL d   1       8.392   6.392 -12.188  0.00  0.00     0.033 C 
ATOM      7  C   UNL d   1       6.276   5.186 -12.822  0.00  0.00    -0.003 A 
ATOM      8  C   UNL d   1       5.567   4.068 -13.302  0.00  0.00    -0.001 A 
ATOM      9  C   UNL d   1       6.248   2.924 -13.722  0.00  0.00    -0.003 A 
ATOM     10  C   UNL d   1       7.639   2.897 -13.603  0.00  0.00    -0.004 A 
ATOM     11  C   UNL d   1       8.277   1.523 -13.954  0.00  0.00     0.033 C 
ENDBRANCH   1   4
BRANCH   2  12
ATOM     12  C   UNL d   1      10.081   3.320 -15.489  0.00  0.00     0.299 C 
ATOM     13  N   UNL d   1      10.185   4.380 -16.473  0.00  0.00     0.146 N 
ATOM     14  C   UNL d   1      11.595   4.602 -16.709  0.00  0.00     0.251 C 
ATOM     15  C   UNL d   1       9.551   5.564 -15.929  0.00  0.00     0.286 C 
ATOM     16  C   UNL d   1      12.234   3.328 -17.291  0.00  0.00     0.035 C 
ATOM     17  C   UNL d   1      12.085   2.102 -16.395  0.00  0.00     0.005 C 
ATOM     18  C   UNL d   1      10.633   1.966 -16.041  0.00  0.00     0.043 C 
ENDBRANCH   2  12
TORSDOF 2
