REMARK  8 active torsions:
REMARK  status: ('A' for Active; 'I' for Inactive)
REMARK    1  A    between atoms: C_3  and  S_4 
REMARK    2  A    between atoms: S_4  and  C_5 
REMARK    3  A    between atoms: C_5  and  C_6 
REMARK    4  A    between atoms: C_6  and  C_7 
REMARK    5  A    between atoms: C_7  and  N_8 
REMARK    6  A    between atoms: N_13  and  C_14 
REMARK    7  A    between atoms: C_19  and  C_20 
REMARK    8  A    between atoms: C_28  and  C_29 
ROOT
ATOM      1  N   UNL d   1       7.608  -0.131 -18.863  0.00  0.00     0.138 N 
ATOM      2  C   UNL d   1       7.007   0.255 -17.587  0.00  0.00     0.252 C 
ATOM      3  C   UNL d   1       5.607  -0.301 -17.526  0.00  0.00     0.052 C 
ATOM      4  C   UNL d   1       5.194  -0.900 -16.160  0.00  0.00     0.021 C 
ATOM      5  C   UNL d   1       4.522  -2.204 -16.591  0.00  0.00     0.077 C 
ATOM      6  N   UNL d   1       5.319  -2.671 -17.716  0.00  0.00    -0.252 NA
ATOM      7  C   UNL d   1       5.762  -1.491 -18.457  0.00  0.00     0.097 C 
ATOM      8  C   UNL d   1       7.253  -1.542 -18.852  0.00  0.00     0.266 C 
ENDROOT
BRANCH   1   9
ATOM      9  C   UNL d   1       9.069   0.025 -18.817  0.00  0.00     0.251 C 
BRANCH   9  10
ATOM     10  C   UNL d   1       9.525   1.505 -18.673  0.00  0.00     0.047 C 
BRANCH  10  11
ATOM     11  C   UNL d   1      10.914   1.691 -18.032  0.00  0.00     0.067 C 
BRANCH  11  12
ATOM     12  S   UNL d   1      11.071   0.894 -16.392  0.00  0.00    -0.075 SA
BRANCH  12  13
ATOM     13  C   UNL d   1       9.713   1.500 -15.504  0.00  0.00     0.193 C 
ATOM     14  N   UNL d   1       9.720   2.674 -14.892  0.00  0.00    -0.287 N 
ATOM     15  C   UNL d   1      10.842   3.542 -14.596  0.00  0.00     0.134 C 
ATOM     16  C   UNL d   1       8.430   2.782 -14.478  0.00  0.00     0.186 C 
ATOM     17  N   UNL d   1       7.713   1.718 -14.836  0.00  0.00    -0.127 NA
ATOM     18  N   UNL d   1       8.600   0.864 -15.355  0.00  0.00    -0.122 NA
BRANCH  16  19
ATOM     19  C   UNL d   1       7.811   3.829 -13.632  0.00  0.00     0.136 A 
ATOM     20  N   UNL d   1       8.586   4.849 -13.183  0.00  0.00    -0.238 NA
ATOM     21  C   UNL d   1       7.995   5.755 -12.373  0.00  0.00     0.120 A 
ATOM     22  C   UNL d   1       6.638   5.654 -12.021  0.00  0.00     0.120 A 
ATOM     23  N   UNL d   1       5.843   4.650 -12.441  0.00  0.00    -0.239 NA
ATOM     24  C   UNL d   1       6.428   3.728 -13.246  0.00  0.00     0.121 A 
ENDBRANCH  16  19
ENDBRANCH  12  13
ENDBRANCH  11  12
ENDBRANCH  10  11
ENDBRANCH   9  10
ENDBRANCH   1   9
BRANCH   6  25
ATOM     25  C   UNL d   1       4.716  -3.674 -18.485  0.00  0.00     0.040 A 
ATOM     26  C   UNL d   1       5.097  -5.029 -18.313  0.00  0.00     0.082 A 
ATOM     27  C   UNL d   1       4.482  -6.016 -19.115  0.00  0.00     0.005 A 
ATOM     28  C   UNL d   1       3.497  -5.674 -20.059  0.00  0.00     0.000 A 
ATOM     29  C   UNL d   1       3.114  -4.333 -20.217  0.00  0.00     0.001 A 
ATOM     30  C   UNL d   1       3.719  -3.339 -19.432  0.00  0.00     0.011 A 
BRANCH  26  31
ATOM     31  C   UNL d   1       6.166  -5.440 -17.297  0.00  0.00     0.420 C 
ATOM     32  F   UNL d   1       7.354  -4.962 -17.666  0.00  0.00    -0.166 F 
ATOM     33  F   UNL d   1       5.876  -4.993 -16.076  0.00  0.00    -0.166 F 
ATOM     34  F   UNL d   1       6.272  -6.765 -17.208  0.00  0.00    -0.166 F 
ENDBRANCH  26  31
ENDBRANCH   6  25
TORSDOF 8
