REMARK  7 active torsions:
REMARK  status: ('A' for Active; 'I' for Inactive)
REMARK    1  A    between atoms: C_7  and  C_8 
REMARK       I    between atoms: C_8  and  N_10 
REMARK    2  A    between atoms: N_10  and  C_11 
REMARK    3  A    between atoms: C_11  and  C_12 
REMARK    4  A    between atoms: C_12  and  C_13 
REMARK    5  A    between atoms: C_13  and  C_14 
REMARK    6  A    between atoms: C_14  and  N_15 
REMARK    7  A    between atoms: N_18  and  C_19 
ROOT
ATOM      1  C   UNL d   1       8.800   2.397 -14.155  0.00  0.00     0.251 C 
ENDROOT
BRANCH   1   2
ATOM      2  C   UNL d   1       8.059   3.664 -13.664  0.00  0.00     0.037 C 
BRANCH   2   3
ATOM      3  C   UNL d   1       8.825   4.432 -12.608  0.00  0.00     0.029 C 
BRANCH   3   4
ATOM      4  C   UNL d   1       8.013   5.647 -12.120  0.00  0.00     0.129 C 
BRANCH   4   5
ATOM      5  N   UNL d   1       8.722   6.321 -11.056  0.00  0.00    -0.234 NA
ATOM      6  C   UNL d   1       8.947   5.801  -9.840  0.00  0.00     0.275 C 
ATOM      7  O   UNL d   1       8.537   4.703  -9.487  0.00  0.00    -0.266 OA
BRANCH   6   8
ATOM      8  C   UNL d   1       9.812   6.663  -8.965  0.00  0.00     0.053 A 
ATOM      9  C   UNL d   1       9.565   6.873  -7.575  0.00  0.00    -0.017 A 
ATOM     10  C   UNL d   1      10.493   7.609  -6.808  0.00  0.00    -0.004 A 
ATOM     11  C   UNL d   1       8.354   6.335  -6.850  0.00  0.00     0.031 C 
ATOM     12  C   UNL d   1      11.657   8.136  -7.399  0.00  0.00    -0.005 A 
ATOM     13  C   UNL d   1      11.909   7.896  -8.755  0.00  0.00    -0.022 A 
ATOM     14  C   UNL d   1      13.240   8.245  -9.351  0.00  0.00     0.031 C 
ATOM     15  C   UNL d   1      10.972   7.196  -9.537  0.00  0.00     0.000 A 
ENDBRANCH   6   8
ENDBRANCH   4   5
ENDBRANCH   3   4
ENDBRANCH   2   3
ENDBRANCH   1   2
BRANCH   1  16
ATOM     16  N   UNL d   1       7.997   1.527 -15.027  0.00  0.00     0.141 N 
ATOM     17  C   UNL d   1       7.309   2.293 -16.061  0.00  0.00     0.274 C 
ATOM     18  C   UNL d   1       6.476   1.439 -16.999  0.00  0.00     0.137 C 
ATOM     19  N   UNL d   1       7.342   0.485 -17.610  0.00  0.00    -0.344 N 
ATOM     20  C   UNL d   1       8.070  -0.312 -16.660  0.00  0.00     0.137 C 
ATOM     21  C   UNL d   1       8.886   0.574 -15.691  0.00  0.00     0.274 C 
BRANCH  19  22
ATOM     22  C   UNL d   1       7.324   0.216 -18.989  0.00  0.00     0.052 A 
ATOM     23  C   UNL d   1       6.136  -0.076 -19.692  0.00  0.00    -0.006 A 
ATOM     24  C   UNL d   1       6.219  -0.298 -21.090  0.00  0.00    -0.003 A 
ATOM     25  C   UNL d   1       4.778  -0.215 -19.015  0.00  0.00     0.033 C 
ATOM     26  C   UNL d   1       7.463  -0.228 -21.744  0.00  0.00    -0.004 A 
ATOM     27  C   UNL d   1       8.640   0.063 -21.031  0.00  0.00    -0.020 A 
ATOM     28  C   UNL d   1       8.563   0.276 -19.641  0.00  0.00     0.012 A 
ATOM     29  C   UNL d   1       9.975   0.152 -21.732  0.00  0.00     0.031 C 
ENDBRANCH  19  22
ENDBRANCH   1  16
TORSDOF 7
