REMARK  3 active torsions:
REMARK  status: ('A' for Active; 'I' for Inactive)
REMARK    1  A    between atoms: C_4  and  C_5 
REMARK    2  A    between atoms: C_8  and  C_9 
REMARK    3  A    between atoms: C_9  and  N_10 
ROOT
ATOM      1  N   UNL d   1       6.780   3.223 -12.867  0.00  0.00     0.145 N 
ATOM      2  C   UNL d   1       7.428   3.772 -14.042  0.00  0.00     0.275 C 
ATOM      3  C   UNL d   1       7.986   2.690 -14.998  0.00  0.00     0.137 C 
ATOM      4  N   UNL d   1       6.955   1.723 -15.353  0.00  0.00    -0.346 N 
ATOM      5  C   UNL d   1       7.190   0.821 -16.425  0.00  0.00     0.057 A 
ATOM      6  C   UNL d   1       8.189   0.950 -17.423  0.00  0.00     0.017 A 
ATOM      7  C   UNL d   1       8.402  -0.065 -18.382  0.00  0.00     0.003 A 
ATOM      8  C   UNL d   1       7.568  -1.199 -18.386  0.00  0.00     0.019 A 
ATOM      9  C   UNL d   1       6.531  -1.298 -17.494  0.00  0.00     0.083 A 
ATOM     10  N   UNL d   1       5.646  -2.312 -17.218  0.00  0.00    -0.244 NA
ATOM     11  C   UNL d   1       4.922  -2.033 -16.077  0.00  0.00     0.095 A 
ATOM     12  C   UNL d   1       5.368  -0.806 -15.654  0.00  0.00     0.002 A 
ATOM     13  C   UNL d   1       6.379  -0.329 -16.499  0.00  0.00     0.031 A 
ATOM     14  C   UNL d   1       5.103   0.179 -14.545  0.00  0.00     0.052 C 
ATOM     15  C   UNL d   1       6.255   1.169 -14.184  0.00  0.00     0.119 C 
ATOM     16  C   UNL d   1       5.734   2.325 -13.283  0.00  0.00     0.273 C 
ENDROOT
BRANCH   1  17
ATOM     17  C   UNL d   1       6.335   4.295 -12.011  0.00  0.00     0.277 C 
BRANCH  17  18
ATOM     18  C   UNL d   1       7.489   4.986 -11.344  0.00  0.00     0.011 C 
ATOM     19  C   UNL d   1       8.091   6.146 -11.868  0.00  0.00    -0.002 C 
ATOM     20  C   UNL d   1       9.120   6.785 -11.158  0.00  0.00    -0.000 C 
ATOM     21  C   UNL d   1       9.501   6.338  -9.866  0.00  0.00    -0.000 C 
ATOM     22  C   UNL d   1       8.945   5.151  -9.376  0.00  0.00    -0.000 C 
ATOM     23  C   UNL d   1       7.962   4.482 -10.121  0.00  0.00    -0.002 C 
BRANCH  21  24
ATOM     24  C   UNL d   1      10.463   7.091  -9.054  0.00  0.00    -0.000 C 
ATOM     25  C   UNL d   1      10.421   7.154  -7.644  0.00  0.00    -0.000 C 
ATOM     26  C   UNL d   1      11.418   7.874  -6.942  0.00  0.00     0.000 C 
ATOM     27  C   UNL d   1      12.457   8.502  -7.653  0.00  0.00     0.000 C 
ATOM     28  C   UNL d   1      12.550   8.351  -9.044  0.00  0.00     0.000 C 
ATOM     29  C   UNL d   1      11.518   7.728  -9.729  0.00  0.00    -0.000 C 
ENDBRANCH  21  24
ENDBRANCH  17  18
ENDBRANCH   1  17
TORSDOF 3
