REMARK  7 active torsions:
REMARK  status: ('A' for Active; 'I' for Inactive)
REMARK    1  A    between atoms: N_12  and  C_13 
REMARK    2  A    between atoms: C_13  and  C_14 
REMARK    3  A    between atoms: C_14  and  C_15 
REMARK    4  A    between atoms: C_15  and  C_16 
REMARK    5  A    between atoms: C_16  and  C_17 
REMARK    6  A    between atoms: C_17  and  N_18 
REMARK    7  A    between atoms: N_21  and  C_22 
ROOT
ATOM      1  C   UNL d   1       9.369   4.197 -13.201  0.00  0.00     0.004 C 
ENDROOT
BRANCH   1   2
ATOM      2  C   UNL d   1       8.087   3.499 -13.674  0.00  0.00     0.025 C 
BRANCH   2   3
ATOM      3  C   UNL d   1       8.420   2.214 -14.444  0.00  0.00     0.122 C 
BRANCH   3   4
ATOM      4  N   UNL d   1       7.214   1.591 -15.002  0.00  0.00    -0.221 N 
ATOM      5  C   UNL d   1       7.058   1.391 -16.382  0.00  0.00     0.271 A 
ATOM      6  O   UNL d   1       7.698   1.953 -17.271  0.00  0.00    -0.266 OA
ATOM      7  C   UNL d   1       6.006   0.359 -16.616  0.00  0.00     0.069 A 
ATOM      8  C   UNL d   1       5.454  -0.175 -15.450  0.00  0.00     0.108 A 
ATOM      9  C   UNL d   1       5.566  -0.085 -17.878  0.00  0.00     0.005 A 
ATOM     10  C   UNL d   1       4.453  -1.161 -15.474  0.00  0.00     0.013 A 
ATOM     11  S   UNL d   1       6.210   0.570 -14.034  0.00  0.00     0.270 S 
ATOM     12  C   UNL d   1       4.014  -1.610 -16.739  0.00  0.00     0.001 A 
ATOM     13  C   UNL d   1       4.560  -1.076 -17.930  0.00  0.00     0.000 A 
ATOM     14  O   UNL d   1       5.250   1.382 -13.275  0.00  0.00    -0.200 OA
ATOM     15  O   UNL d   1       7.062  -0.414 -13.351  0.00  0.00    -0.200 OA
ENDBRANCH   3   4
ENDBRANCH   2   3
ENDBRANCH   1   2
BRANCH   1  16
ATOM     16  C   UNL d   1       9.116   5.320 -12.193  0.00  0.00     0.035 C 
BRANCH  16  17
ATOM     17  C   UNL d   1       9.156   4.827 -10.731  0.00  0.00     0.250 C 
BRANCH  17  18
ATOM     18  N   UNL d   1       9.027   5.905  -9.758  0.00  0.00     0.141 N 
ATOM     19  C   UNL d   1       9.030   5.340  -8.397  0.00  0.00     0.274 C 
ATOM     20  C   UNL d   1       8.849   6.445  -7.332  0.00  0.00     0.137 C 
ATOM     21  N   UNL d   1       9.870   7.482  -7.505  0.00  0.00    -0.344 N 
ATOM     22  C   UNL d   1       9.951   8.013  -8.864  0.00  0.00     0.137 C 
ATOM     23  C   UNL d   1      10.120   6.881  -9.867  0.00  0.00     0.274 C 
BRANCH  21  24
ATOM     24  C   UNL d   1      10.689   7.960  -6.476  0.00  0.00     0.056 A 
ATOM     25  C   UNL d   1      11.020   7.160  -5.348  0.00  0.00     0.017 A 
ATOM     26  C   UNL d   1      11.857   7.653  -4.329  0.00  0.00     0.002 A 
ATOM     27  C   UNL d   1      12.384   8.951  -4.420  0.00  0.00     0.000 A 
ATOM     28  C   UNL d   1      12.081   9.746  -5.535  0.00  0.00     0.002 A 
ATOM     29  C   UNL d   1      11.237   9.268  -6.543  0.00  0.00     0.017 A 
ENDBRANCH  21  24
ENDBRANCH  17  18
ENDBRANCH  16  17
ENDBRANCH   1  16
TORSDOF 7
