REMARK  1 active torsions:
REMARK  status: ('A' for Active; 'I' for Inactive)
REMARK    1  A    between atoms: N_13  and  C_14 
ROOT
ATOM      1  N   UNL d   1       7.227   4.783 -13.018  0.00  0.00    -0.120 N 
ATOM      2  C   UNL d   1       8.038   5.445 -12.122  0.00  0.00     0.215 A 
ATOM      3  N   UNL d   1       8.478   4.885 -10.995  0.00  0.00    -0.219 NA
ATOM      4  C   UNL d   1       9.222   5.813 -10.281  0.00  0.00     0.089 A 
ATOM      5  C   UNL d   1       9.858   5.605  -9.040  0.00  0.00     0.015 A 
ATOM      6  C   UNL d   1      10.600   6.635  -8.413  0.00  0.00    -0.022 A 
ATOM      7  C   UNL d   1      10.697   7.902  -9.005  0.00  0.00    -0.024 A 
ATOM      8  C   UNL d   1      10.074   8.135 -10.244  0.00  0.00     0.004 A 
ATOM      9  C   UNL d   1       9.396   7.089 -10.895  0.00  0.00     0.050 A 
ATOM     10  S   UNL d   1       8.565   7.093 -12.437  0.00  0.00    -0.045 SA
ATOM     11  C   UNL d   1      11.487   8.996  -8.317  0.00  0.00     0.061 C 
ATOM     12  C   UNL d   1      10.999   9.353  -6.890  0.00  0.00     0.255 C 
ATOM     13  N   UNL d   1      11.442   8.424  -5.850  0.00  0.00     0.136 N 
ATOM     14  C   UNL d   1      10.809   7.119  -5.934  0.00  0.00     0.255 C 
ATOM     15  C   UNL d   1      11.354   6.375  -7.139  0.00  0.00     0.061 C 
ENDROOT
BRANCH  13  16
ATOM     16  C   UNL d   1      11.196   9.009  -4.540  0.00  0.00     0.219 A 
ATOM     17  C   UNL d   1      11.765   8.297  -3.316  0.00  0.00     0.035 A 
ATOM     18  C   UNL d   1      12.368   9.582  -3.771  0.00  0.00     0.035 A 
ENDBRANCH  13  16
TORSDOF 1
