REMARK  5 active torsions:
REMARK  status: ('A' for Active; 'I' for Inactive)
REMARK       I    between atoms: C_2  and  N_4 
REMARK    1  A    between atoms: C_9  and  C_10 
REMARK       I    between atoms: C_10  and  N_12 
REMARK    2  A    between atoms: N_12  and  C_13 
REMARK    3  A    between atoms: C_13  and  C_14 
REMARK    4  A    between atoms: C_14  and  C_15 
REMARK    5  A    between atoms: C_15  and  N_16 
ROOT
ATOM      1  C   UNL d   1       9.043   4.941 -12.827  0.00  0.00     0.275 C 
ATOM      2  O   UNL d   1       9.933   5.534 -13.443  0.00  0.00    -0.266 OA
ATOM      3  N   UNL d   1       8.880   5.049 -11.507  0.00  0.00    -0.234 NA
ENDROOT
BRANCH   1   4
ATOM      4  C   UNL d   1       8.166   3.921 -13.500  0.00  0.00     0.057 A 
ATOM      5  C   UNL d   1       8.701   3.118 -14.535  0.00  0.00     0.002 A 
ATOM      6  C   UNL d   1       7.924   2.071 -15.056  0.00  0.00    -0.004 A 
ATOM      7  C   UNL d   1       8.280   1.119 -16.161  0.00  0.00     0.052 A 
ATOM      8  C   UNL d   1       6.658   1.796 -14.537  0.00  0.00     0.058 A 
ATOM      9  C   UNL d   1       7.038   0.185 -16.219  0.00  0.00     0.114 A 
ATOM     10  N   UNL d   1       6.114   0.636 -15.151  0.00  0.00    -0.299 N 
ATOM     11  C   UNL d   1       5.110  -0.133 -14.642  0.00  0.00     0.238 C 
ATOM     12  C   UNL d   1       4.510  -1.233 -15.515  0.00  0.00     0.098 C 
ATOM     13  O   UNL d   1       4.627   0.044 -13.517  0.00  0.00    -0.272 OA
ATOM     14  C   UNL d   1       6.069   2.639 -13.582  0.00  0.00     0.017 A 
ATOM     15  C   UNL d   1       6.826   3.702 -13.062  0.00  0.00     0.006 A 
ENDBRANCH   1   4
BRANCH   3  16
ATOM     16  C   UNL d   1       9.824   5.694 -10.621  0.00  0.00     0.131 C 
BRANCH  16  17
ATOM     17  C   UNL d   1       9.161   6.799  -9.839  0.00  0.00     0.062 C 
BRANCH  17  18
ATOM     18  C   UNL d   1      10.201   7.520  -8.971  0.00  0.00     0.253 C 
BRANCH  18  19
ATOM     19  N   UNL d   1       9.658   8.430  -7.951  0.00  0.00     0.141 N 
ATOM     20  C   UNL d   1      10.710   9.225  -7.313  0.00  0.00     0.285 C 
ATOM     21  C   UNL d   1      11.631   8.374  -6.417  0.00  0.00     0.285 C 
ATOM     22  N   UNL d   1      10.878   7.665  -5.382  0.00  0.00     0.143 N 
ATOM     23  C   UNL d   1       9.814   6.871  -6.000  0.00  0.00     0.285 C 
ATOM     24  C   UNL d   1      11.739   6.833  -4.561  0.00  0.00     0.285 C 
ATOM     25  C   UNL d   1       8.902   7.743  -6.888  0.00  0.00     0.285 C 
ENDBRANCH  18  19
ENDBRANCH  17  18
ENDBRANCH  16  17
ENDBRANCH   3  16
TORSDOF 5
