REMARK  8 active torsions:
REMARK  status: ('A' for Active; 'I' for Inactive)
REMARK    1  A    between atoms: N_12  and  C_13 
REMARK    2  A    between atoms: C_13  and  C_14 
REMARK    3  A    between atoms: C_14  and  C_15 
REMARK    4  A    between atoms: C_15  and  C_16 
REMARK    5  A    between atoms: C_16  and  C_17 
REMARK    6  A    between atoms: C_17  and  C_18 
REMARK    7  A    between atoms: C_18  and  N_19 
REMARK    8  A    between atoms: N_22  and  C_23 
ROOT
ATOM      1  C   UNL d   1       8.410   4.760 -12.608  0.00  0.00     0.002 C 
ENDROOT
BRANCH   1   2
ATOM      2  C   UNL d   1       8.907   3.598 -13.498  0.00  0.00     0.002 C 
BRANCH   2   3
ATOM      3  C   UNL d   1       7.753   2.904 -14.237  0.00  0.00     0.025 C 
BRANCH   3   4
ATOM      4  C   UNL d   1       8.209   1.777 -15.184  0.00  0.00     0.112 C 
BRANCH   4   5
ATOM      5  N   UNL d   1       7.079   1.115 -15.845  0.00  0.00    -0.271 N 
ATOM      6  C   UNL d   1       6.753   1.256 -17.136  0.00  0.00     0.239 A 
ATOM      7  O   UNL d   1       7.345   1.940 -17.977  0.00  0.00    -0.272 OA
ATOM      8  C   UNL d   1       5.490   0.459 -17.488  0.00  0.00     0.088 A 
ATOM      9  C   UNL d   1       5.174  -0.254 -16.158  0.00  0.00     0.088 A 
ATOM     10  C   UNL d   1       5.711  -0.708 -18.480  0.00  0.00     0.009 C 
ATOM     11  C   UNL d   1       5.269  -1.743 -16.561  0.00  0.00     0.009 C 
ATOM     12  C   UNL d   1       6.257   0.239 -15.216  0.00  0.00     0.239 A 
ATOM     13  C   UNL d   1       4.046  -2.089 -17.437  0.00  0.00     0.001 C 
ATOM     14  C   UNL d   1       6.378  -1.766 -17.616  0.00  0.00     0.001 C 
ATOM     15  C   UNL d   1       4.355  -1.377 -18.767  0.00  0.00     0.001 C 
ATOM     16  O   UNL d   1       6.330  -0.104 -14.041  0.00  0.00    -0.272 OA
ENDBRANCH   4   5
ENDBRANCH   3   4
ENDBRANCH   2   3
ENDBRANCH   1   2
BRANCH   1  17
ATOM     17  C   UNL d   1       9.263   4.939 -11.349  0.00  0.00     0.035 C 
BRANCH  17  18
ATOM     18  C   UNL d   1       8.876   6.144 -10.483  0.00  0.00     0.250 C 
BRANCH  18  19
ATOM     19  N   UNL d   1       9.518   6.072  -9.157  0.00  0.00     0.141 N 
ATOM     20  C   UNL d   1       8.611   6.678  -8.192  0.00  0.00     0.274 C 
ATOM     21  C   UNL d   1       9.135   6.663  -6.766  0.00  0.00     0.137 C 
ATOM     22  N   UNL d   1      10.452   7.257  -6.734  0.00  0.00    -0.344 N 
ATOM     23  C   UNL d   1      11.396   6.754  -7.703  0.00  0.00     0.137 C 
ATOM     24  C   UNL d   1      10.769   6.828  -9.121  0.00  0.00     0.274 C 
BRANCH  22  25
ATOM     25  C   UNL d   1      10.801   8.223  -5.809  0.00  0.00     0.068 A 
ATOM     26  C   UNL d   1      11.473   7.918  -4.612  0.00  0.00     0.084 A 
ATOM     27  C   UNL d   1      11.787   8.864  -3.627  0.00  0.00     0.070 A 
ATOM     28 CL   UNL d   1      11.873   6.358  -4.199  0.00  0.00    -0.080 Cl
ATOM     29  C   UNL d   1      11.346  10.138  -3.849  0.00  0.00     0.012 A 
ATOM     30 CL   UNL d   1      12.579   8.457  -2.149  0.00  0.00    -0.081 Cl
ATOM     31  C   UNL d   1      10.697  10.496  -5.042  0.00  0.00     0.002 A 
ATOM     32  C   UNL d   1      10.434   9.534  -6.051  0.00  0.00     0.018 A 
ENDBRANCH  22  25
ENDBRANCH  18  19
ENDBRANCH  17  18
ENDBRANCH   1  17
TORSDOF 8
