REMARK  9 active torsions:
REMARK  status: ('A' for Active; 'I' for Inactive)
REMARK    1  A    between atoms: O_2  and  C_3 
REMARK    2  A    between atoms: C_8  and  C_9 
REMARK    3  A    between atoms: C_9  and  C_10 
REMARK    4  A    between atoms: C_10  and  N_11 
REMARK    5  A    between atoms: N_11  and  C_12 
REMARK    6  A    between atoms: C_17  and  N_18 
REMARK    7  A    between atoms: N_18  and  C_19 
REMARK    8  A    between atoms: C_19  and  C_20 
REMARK    9  A    between atoms: C_20  and  C_21 
ROOT
ATOM      1  C   UNL d   1       9.673   6.481  -9.489  0.00  0.00     0.776 C 
ATOM      2  N   UNL d   1      10.487   7.483  -9.383  0.00  0.00     0.136 NA
ATOM      3  C   UNL d   1      10.484   8.238 -10.435  0.00  0.00     0.799 C 
ATOM      4  N   UNL d   1      11.453   9.163 -10.383  0.00  0.00     0.063 N 
ATOM      5  N   UNL d   1       9.793   8.062 -11.574  0.00  0.00     0.136 NA
ATOM      6  C   UNL d   1       9.076   6.943 -11.537  0.00  0.00     0.776 C 
ATOM      7  N   UNL d   1       8.969   6.051 -10.534  0.00  0.00     0.134 NA
ENDROOT
BRANCH   6   8
ATOM      8  N   UNL d   1       8.376   6.612 -12.671  0.00  0.00    -0.085 NA
BRANCH   8   9
ATOM      9  C   UNL d   1       7.845   5.288 -12.977  0.00  0.00     0.150 C 
BRANCH   9  10
ATOM     10  C   UNL d   1       8.848   4.376 -13.715  0.00  0.00     0.055 C 
BRANCH  10  11
ATOM     11  C   UNL d   1       8.193   3.144 -14.284  0.00  0.00     0.000 A 
ATOM     12  C   UNL d   1       8.781   2.179 -15.175  0.00  0.00     0.015 A 
ATOM     13  C   UNL d   1       7.793   1.197 -15.481  0.00  0.00     0.081 A 
ATOM     14  C   UNL d   1      10.055   2.019 -15.778  0.00  0.00     0.001 A 
ATOM     15  N   UNL d   1       6.660   1.572 -14.785  0.00  0.00    -0.244 NA
ATOM     16  C   UNL d   1       8.052   0.115 -16.333  0.00  0.00     0.019 A 
ATOM     17  C   UNL d   1       6.896   2.733 -14.074  0.00  0.00     0.095 A 
ATOM     18  C   UNL d   1       9.330  -0.023 -16.907  0.00  0.00     0.002 A 
ATOM     19  C   UNL d   1      10.328   0.929 -16.628  0.00  0.00     0.000 A 
ENDBRANCH  10  11
ENDBRANCH   9  10
ENDBRANCH   8   9
ENDBRANCH   6   8
BRANCH   1  20
ATOM     20  N   UNL d   1       9.464   5.824  -8.323  0.00  0.00    -0.085 NA
BRANCH  20  21
ATOM     21  C   UNL d   1      10.319   6.145  -7.190  0.00  0.00     0.150 C 
BRANCH  21  22
ATOM     22  C   UNL d   1       9.939   7.415  -6.424  0.00  0.00     0.055 C 
BRANCH  22  23
ATOM     23  C   UNL d   1      10.919   7.682  -5.296  0.00  0.00     0.002 A 
ATOM     24  C   UNL d   1      11.550   8.931  -5.212  0.00  0.00     0.090 A 
ATOM     25  C   UNL d   1      12.431   9.164  -4.128  0.00  0.00     0.024 A 
ATOM     26  C   UNL d   1      12.655   8.211  -3.132  0.00  0.00     0.002 A 
ATOM     27  C   UNL d   1      12.041   6.962  -3.219  0.00  0.00    -0.000 A 
ATOM     28  C   UNL d   1      11.192   6.707  -4.314  0.00  0.00    -0.002 A 
BRANCH  24  29
ATOM     29  O   UNL d   1      11.299   9.828  -6.226  0.00  0.00    -0.328 OA
ATOM     30  C   UNL d   1      11.860  11.092  -6.136  0.00  0.00     0.181 C 
ENDBRANCH  24  29
ENDBRANCH  22  23
ENDBRANCH  21  22
ENDBRANCH  20  21
ENDBRANCH   1  20
TORSDOF 9
