REMARK  7 active torsions:
REMARK  status: ('A' for Active; 'I' for Inactive)
REMARK    1  A    between atoms: C_2  and  C_3 
REMARK       I    between atoms: C_2  and  N_10 
REMARK    2  A    between atoms: C_3  and  C_4 
REMARK    3  A    between atoms: N_10  and  C_11 
REMARK    4  A    between atoms: C_14  and  C_15 
REMARK    5  A    between atoms: C_15  and  C_16 
REMARK    6  A    between atoms: C_16  and  N_17 
REMARK    7  A    between atoms: N_20  and  C_21 
ROOT
ATOM      1  C   UNL d   1       9.179   3.757 -14.431  0.00  0.00     0.035 C 
ENDROOT
BRANCH   1   2
ATOM      2  C   UNL d   1       8.735   4.427 -13.130  0.00  0.00     0.002 C 
ATOM      3  C   UNL d   1       9.613   3.899 -12.001  0.00  0.00     0.002 C 
ATOM      4  C   UNL d   1       9.261   4.577 -10.666  0.00  0.00     0.024 C 
ATOM      5  C   UNL d   1       9.431   6.109 -10.760  0.00  0.00     0.106 C 
ATOM      6  C   UNL d   1       8.561   6.649 -11.910  0.00  0.00     0.024 C 
ATOM      7  C   UNL d   1       8.882   5.946 -13.230  0.00  0.00     0.002 C 
BRANCH   5   8
ATOM      8  N   UNL d   1       9.056   6.765  -9.509  0.00  0.00    -0.240 NA
ATOM      9  C   UNL d   1       9.660   6.635  -8.344  0.00  0.00     0.254 C 
ATOM     10  O   UNL d   1      10.406   5.681  -8.074  0.00  0.00    -0.271 OA
BRANCH   9  11
ATOM     11  C   UNL d   1       9.509   7.740  -7.311  0.00  0.00     0.119 C 
BRANCH  11  12
ATOM     12  C   UNL d   1      10.730   7.850  -6.372  0.00  0.00     0.128 C 
ATOM     13  O   UNL d   1      10.639   6.918  -5.301  0.00  0.00    -0.353 OA
ATOM     14  C   UNL d   1      11.530   7.350  -4.286  0.00  0.00     0.175 C 
ATOM     15  C   UNL d   1      11.395   8.873  -4.303  0.00  0.00     0.184 C 
ATOM     16  C   UNL d   1      10.850   9.204  -5.685  0.00  0.00     0.066 C 
ATOM     17  O   UNL d   1      12.649   9.488  -4.099  0.00  0.00    -0.221 OA
ENDBRANCH  11  12
ENDBRANCH   9  11
ENDBRANCH   5   8
ENDBRANCH   1   2
BRANCH   1  18
ATOM     18  C   UNL d   1       8.590   2.360 -14.551  0.00  0.00     0.250 C 
BRANCH  18  19
ATOM     19  N   UNL d   1       9.419   1.531 -15.428  0.00  0.00     0.141 N 
ATOM     20  C   UNL d   1       9.518   2.031 -16.805  0.00  0.00     0.274 C 
ATOM     21  C   UNL d   1       8.140   2.071 -17.493  0.00  0.00     0.138 C 
ATOM     22  N   UNL d   1       7.507   0.769 -17.381  0.00  0.00    -0.330 N 
ATOM     23  C   UNL d   1       7.497   0.145 -16.067  0.00  0.00     0.138 C 
ATOM     24  C   UNL d   1       8.905   0.167 -15.456  0.00  0.00     0.274 C 
BRANCH  22  25
ATOM     25  C   UNL d   1       6.925   0.137 -18.507  0.00  0.00     0.138 A 
ATOM     26  C   UNL d   1       5.807  -0.707 -18.409  0.00  0.00     0.036 A 
ATOM     27  C   UNL d   1       5.282  -1.299 -19.551  0.00  0.00     0.095 A 
ATOM     28  C   UNL d   1       4.948  -1.097 -17.241  0.00  0.00     0.064 C 
ATOM     29  C   UNL d   1       5.890  -1.078 -20.796  0.00  0.00     0.045 A 
ATOM     30  O   UNL d   1       4.160  -2.044 -19.304  0.00  0.00    -0.331 OA
ATOM     31  C   UNL d   1       7.004  -0.218 -20.811  0.00  0.00     0.103 A 
ATOM     32  N   UNL d   1       7.505   0.388 -19.702  0.00  0.00    -0.228 NA
ATOM     33  C   UNL d   1       3.801  -1.852 -17.928  0.00  0.00     0.154 C 
ENDBRANCH  22  25
ENDBRANCH  18  19
ENDBRANCH   1  18
TORSDOF 7
