REMARK  7 active torsions:
REMARK  status: ('A' for Active; 'I' for Inactive)
REMARK    1  A    between atoms: C_2  and  C_3 
REMARK       I    between atoms: C_2  and  N_10 
REMARK    2  A    between atoms: C_3  and  C_4 
REMARK    3  A    between atoms: N_10  and  C_11 
REMARK    4  A    between atoms: C_14  and  C_15 
REMARK    5  A    between atoms: C_15  and  C_16 
REMARK    6  A    between atoms: C_16  and  N_17 
REMARK    7  A    between atoms: N_20  and  C_21 
ROOT
ATOM      1  C   UNL d   1       6.806   2.256 -14.037  0.00  0.00     0.084 A 
ATOM      2  C   UNL d   1       8.130   2.711 -14.196  0.00  0.00     0.019 A 
ATOM      3  C   UNL d   1       8.630   3.788 -13.439  0.00  0.00    -0.003 A 
ATOM      4  C   UNL d   1       7.783   4.439 -12.519  0.00  0.00    -0.020 A 
ATOM      5  C   UNL d   1       6.435   4.032 -12.393  0.00  0.00    -0.003 A 
ATOM      6  C   UNL d   1       5.940   2.950 -13.151  0.00  0.00     0.019 A 
ENDROOT
BRANCH   4   7
ATOM      7  C   UNL d   1       8.318   5.562 -11.655  0.00  0.00     0.062 C 
BRANCH   7   8
ATOM      8  C   UNL d   1       8.866   5.076 -10.298  0.00  0.00     0.255 C 
BRANCH   8   9
ATOM      9  N   UNL d   1       9.016   6.199  -9.376  0.00  0.00     0.141 N 
ATOM     10  C   UNL d   1       8.725   5.777  -8.005  0.00  0.00     0.274 C 
ATOM     11  C   UNL d   1       8.815   6.968  -7.028  0.00  0.00     0.137 C 
ATOM     12  N   UNL d   1      10.104   7.622  -7.145  0.00  0.00    -0.344 N 
ATOM     13  C   UNL d   1      10.477   8.001  -8.495  0.00  0.00     0.137 C 
ATOM     14  C   UNL d   1      10.351   6.782  -9.442  0.00  0.00     0.274 C 
BRANCH  12  15
ATOM     15  C   UNL d   1      10.953   7.832  -6.021  0.00  0.00     0.056 A 
ATOM     16  C   UNL d   1      11.030   6.884  -4.990  0.00  0.00     0.017 A 
ATOM     17  C   UNL d   1      11.859   7.083  -3.861  0.00  0.00     0.002 A 
ATOM     18  C   UNL d   1      12.629   8.250  -3.772  0.00  0.00     0.000 A 
ATOM     19  C   UNL d   1      12.593   9.185  -4.819  0.00  0.00     0.002 A 
ATOM     20  C   UNL d   1      11.741   8.993  -5.937  0.00  0.00     0.017 A 
ENDBRANCH  12  15
ENDBRANCH   8   9
ENDBRANCH   7   8
ENDBRANCH   4   7
BRANCH   1  21
ATOM     21  N   UNL d   1       6.410   1.132 -14.786  0.00  0.00    -0.211 NA
ATOM     22  C   UNL d   1       5.453   0.220 -14.598  0.00  0.00     0.260 C 
ATOM     23  O   UNL d   1       4.676   0.197 -13.629  0.00  0.00    -0.270 OA
BRANCH  22  24
ATOM     24  C   UNL d   1       5.385  -0.893 -15.655  0.00  0.00     0.118 C 
BRANCH  24  25
ATOM     25  C   UNL d   1       5.328  -0.389 -17.109  0.00  0.00     0.006 A 
ATOM     26  C   UNL d   1       6.314   0.461 -17.678  0.00  0.00     0.095 A 
ATOM     27  N   UNL d   1       6.250   0.957 -18.925  0.00  0.00    -0.243 NA
ATOM     28  C   UNL d   1       5.217   0.579 -19.715  0.00  0.00     0.099 A 
ATOM     29  C   UNL d   1       4.226  -0.321 -19.286  0.00  0.00     0.020 A 
ATOM     30  C   UNL d   1       4.279  -0.813 -17.965  0.00  0.00    -0.001 A 
ENDBRANCH  24  25
ENDBRANCH  22  24
ENDBRANCH   1  21
TORSDOF 7
