REMARK  10 active torsions:
REMARK  status: ('A' for Active; 'I' for Inactive)
REMARK    1  A    between atoms: O_2  and  C_3 
REMARK    2  A    between atoms: C_8  and  N_9 
REMARK    3  A    between atoms: N_12  and  C_13 
REMARK    4  A    between atoms: C_13  and  C_14 
REMARK    5  A    between atoms: C_14  and  C_15 
REMARK    6  A    between atoms: C_15  and  C_16 
REMARK    7  A    between atoms: C_16  and  C_17 
REMARK    8  A    between atoms: C_17  and  N_18 
REMARK       I    between atoms: N_18  and  C_19 
REMARK    9  A    between atoms: C_19  and  O_21 
REMARK   10  A    between atoms: O_21  and  C_22 
ROOT
ATOM      1  N   UNL d   1       9.417   1.392 -15.321  0.00  0.00    -0.343 N 
ATOM      2  C   UNL d   1       8.252   1.310 -14.450  0.00  0.00     0.137 C 
ATOM      3  C   UNL d   1       7.721   2.733 -14.167  0.00  0.00     0.274 C 
ATOM      4  N   UNL d   1       8.781   3.566 -13.585  0.00  0.00     0.141 N 
ATOM      5  C   UNL d   1       9.896   3.668 -14.536  0.00  0.00     0.274 C 
ATOM      6  C   UNL d   1      10.472   2.274 -14.832  0.00  0.00     0.137 C 
ENDROOT
BRANCH   4   7
ATOM      7  C   UNL d   1       8.253   4.894 -13.282  0.00  0.00     0.250 C 
BRANCH   7   8
ATOM      8  C   UNL d   1       9.120   5.632 -12.244  0.00  0.00     0.035 C 
BRANCH   8   9
ATOM      9  C   UNL d   1       8.803   5.197 -10.805  0.00  0.00     0.004 C 
BRANCH   9  10
ATOM     10  C   UNL d   1       9.357   6.169  -9.755  0.00  0.00     0.027 C 
BRANCH  10  11
ATOM     11  C   UNL d   1       8.862   5.843  -8.337  0.00  0.00     0.131 C 
BRANCH  11  12
ATOM     12  N   UNL d   1       9.042   6.968  -7.428  0.00  0.00    -0.212 NA
ATOM     13  C   UNL d   1      10.262   7.277  -6.857  0.00  0.00     0.383 C 
ATOM     14  O   UNL d   1      11.318   6.672  -7.058  0.00  0.00    -0.236 OA
BRANCH  13  15
ATOM     15  O   UNL d   1      10.117   8.367  -6.047  0.00  0.00    -0.289 OA
BRANCH  15  16
ATOM     16  C   UNL d   1      11.218   8.991  -5.367  0.00  0.00     0.103 C 
ATOM     17  C   UNL d   1      11.871   8.015  -4.362  0.00  0.00     0.030 C 
ATOM     18  C   UNL d   1      10.674  10.216  -4.593  0.00  0.00     0.030 C 
ATOM     19  C   UNL d   1      12.234   9.539  -6.390  0.00  0.00     0.030 C 
ENDBRANCH  15  16
ENDBRANCH  13  15
ENDBRANCH  11  12
ENDBRANCH  10  11
ENDBRANCH   9  10
ENDBRANCH   8   9
ENDBRANCH   7   8
ENDBRANCH   4   7
BRANCH   1  20
ATOM     20  C   UNL d   1       9.555   0.678 -16.527  0.00  0.00     0.079 A 
ATOM     21  C   UNL d   1       8.465   0.459 -17.415  0.00  0.00     0.110 A 
ATOM     22  C   UNL d   1       8.692  -0.284 -18.602  0.00  0.00     0.026 A 
ATOM     23  C   UNL d   1       9.971  -0.775 -18.924  0.00  0.00     0.002 A 
ATOM     24  C   UNL d   1      11.044  -0.538 -18.051  0.00  0.00     0.002 A 
ATOM     25  C   UNL d   1      10.830   0.180 -16.864  0.00  0.00     0.019 A 
BRANCH  21  26
ATOM     26  O   UNL d   1       7.234   1.015 -17.110  0.00  0.00    -0.327 OA
ATOM     27  C   UNL d   1       6.123   0.713 -17.941  0.00  0.00     0.181 C 
ENDBRANCH  21  26
ENDBRANCH   1  20
TORSDOF 10
