REMARK  8 active torsions:
REMARK  status: ('A' for Active; 'I' for Inactive)
REMARK    1  A    between atoms: C_2  and  C_3 
REMARK    2  A    between atoms: C_3  and  N_4 
REMARK    3  A    between atoms: N_4  and  C_5 
REMARK    4  A    between atoms: N_4  and  C_8 
REMARK    5  A    between atoms: C_5  and  C_6 
REMARK    6  A    between atoms: C_13  and  C_14 
REMARK    7  A    between atoms: C_14  and  C_15 
REMARK    8  A    between atoms: C_15  and  C_16 
ROOT
ATOM      1  C   UNL d   1       9.381   4.341 -13.636  0.00  0.00     0.224 C 
ATOM      2  C   UNL d   1       8.459   5.565 -13.764  0.00  0.00     0.038 C 
ATOM      3  C   UNL d   1       8.937   6.713 -12.837  0.00  0.00     0.028 C 
ATOM      4  C   UNL d   1       9.300   6.263 -11.424  0.00  0.00    -0.026 A 
ATOM      5  C   UNL d   1       9.457   7.228 -10.406  0.00  0.00    -0.009 A 
ATOM      6  C   UNL d   1       9.608   6.825  -9.066  0.00  0.00    -0.022 A 
ATOM      7  C   UNL d   1       9.723   5.468  -8.746  0.00  0.00    -0.005 A 
ATOM      8  C   UNL d   1       9.645   4.508  -9.764  0.00  0.00    -0.005 A 
ATOM      9  C   UNL d   1       9.451   4.897 -11.116  0.00  0.00    -0.024 A 
ATOM     10  C   UNL d   1       9.371   3.833 -12.194  0.00  0.00     0.059 C 
ENDROOT
BRANCH   6  11
ATOM     11  C   UNL d   1       9.632   7.829  -7.939  0.00  0.00     0.031 C 
BRANCH  11  12
ATOM     12  C   UNL d   1      11.066   8.268  -7.624  0.00  0.00     0.031 C 
BRANCH  12  13
ATOM     13  C   UNL d   1      11.355   8.272  -6.141  0.00  0.00    -0.022 A 
ATOM     14  C   UNL d   1      11.446   7.044  -5.447  0.00  0.00    -0.003 A 
ATOM     15  C   UNL d   1      11.744   7.028  -4.075  0.00  0.00     0.011 A 
ATOM     16  C   UNL d   1      11.943   8.242  -3.393  0.00  0.00     0.058 A 
ATOM     17  C   UNL d   1      11.833   9.465  -4.074  0.00  0.00     0.011 A 
ATOM     18 CL   UNL d   1      12.310   8.254  -1.717  0.00  0.00    -0.082 Cl
ATOM     19  C   UNL d   1      11.555   9.489  -5.454  0.00  0.00    -0.003 A 
ENDBRANCH  12  13
ENDBRANCH  11  12
ENDBRANCH   6  11
BRANCH   1  20
ATOM     20  N   UNL d   1       9.053   3.266 -14.636  0.00  0.00     0.135 N 
BRANCH  20  21
ATOM     21  C   UNL d   1      10.077   2.237 -14.756  0.00  0.00     0.250 C 
BRANCH  21  22
ATOM     22  C   UNL d   1      11.428   2.763 -15.311  0.00  0.00     0.035 C 
ATOM     23  C   UNL d   1      11.911   1.853 -16.427  0.00  0.00     0.002 C 
ENDBRANCH  21  22
ENDBRANCH  20  21
BRANCH  20  24
ATOM     24  C   UNL d   1       7.697   2.722 -14.533  0.00  0.00     0.250 C 
BRANCH  24  25
ATOM     25  C   UNL d   1       7.342   1.584 -15.500  0.00  0.00     0.035 C 
ATOM     26  C   UNL d   1       7.432   2.013 -16.959  0.00  0.00     0.002 C 
ENDBRANCH  24  25
ENDBRANCH  20  24
ENDBRANCH   1  20
TORSDOF 8
