REMARK  8 active torsions:
REMARK  status: ('A' for Active; 'I' for Inactive)
REMARK    1  A    between atoms: C_3  and  S_4 
REMARK    2  A    between atoms: S_4  and  C_5 
REMARK    3  A    between atoms: C_5  and  C_6 
REMARK    4  A    between atoms: C_6  and  C_7 
REMARK    5  A    between atoms: C_7  and  N_8 
REMARK    6  A    between atoms: C_12  and  C_13 
REMARK    7  A    between atoms: C_16  and  C_17 
REMARK    8  A    between atoms: C_26  and  C_27 
ROOT
ATOM      1  N   UNL d   1       9.432   4.865 -12.929  0.00  0.00     0.143 N 
ATOM      2  C   UNL d   1       8.100   4.310 -12.705  0.00  0.00     0.282 C 
ATOM      3  C   UNL d   1       7.111   5.352 -12.158  0.00  0.00     0.178 C 
ATOM      4  O   UNL d   1       7.642   5.897 -10.970  0.00  0.00    -0.348 OA
ATOM      5  C   UNL d   1       8.899   6.532 -11.136  0.00  0.00     0.171 C 
ATOM      6  C   UNL d   1       9.834   5.460 -11.675  0.00  0.00     0.284 C 
ENDROOT
BRANCH   1   7
ATOM      7  C   UNL d   1      10.382   3.857 -13.381  0.00  0.00     0.251 C 
BRANCH   7   8
ATOM      8  C   UNL d   1      10.276   3.522 -14.875  0.00  0.00     0.047 C 
BRANCH   8   9
ATOM      9  C   UNL d   1      11.252   2.393 -15.299  0.00  0.00     0.067 C 
BRANCH   9  10
ATOM     10  S   UNL d   1      10.687   1.453 -16.757  0.00  0.00    -0.075 SA
BRANCH  10  11
ATOM     11  C   UNL d   1       9.194   0.764 -16.116  0.00  0.00     0.193 A 
ATOM     12  N   UNL d   1       8.174   0.372 -16.898  0.00  0.00    -0.287 N 
ATOM     13  C   UNL d   1       8.116   0.282 -18.355  0.00  0.00     0.134 C 
ATOM     14  C   UNL d   1       7.218   0.067 -15.987  0.00  0.00     0.191 A 
ATOM     15  N   UNL d   1       7.636   0.241 -14.722  0.00  0.00    -0.126 NA
ATOM     16  N   UNL d   1       8.938   0.633 -14.809  0.00  0.00    -0.122 NA
BRANCH  14  17
ATOM     17  C   UNL d   1       5.878  -0.437 -16.274  0.00  0.00     0.147 A 
ATOM     18  S   UNL d   1       4.811  -0.921 -14.956  0.00  0.00    -0.063 SA
ATOM     19  C   UNL d   1       3.622  -1.397 -16.126  0.00  0.00     0.058 A 
ATOM     20  C   UNL d   1       4.053  -1.200 -17.410  0.00  0.00     0.107 A 
ATOM     21  N   UNL d   1       5.336  -0.642 -17.481  0.00  0.00    -0.234 NA
ENDBRANCH  14  17
ENDBRANCH  10  11
ENDBRANCH   9  10
ENDBRANCH   8   9
ENDBRANCH   7   8
ENDBRANCH   1   7
BRANCH   5  22
ATOM     22  C   UNL d   1       9.460   7.139  -9.868  0.00  0.00     0.007 A 
ATOM     23  C   UNL d   1      10.360   8.226  -9.909  0.00  0.00    -0.002 A 
ATOM     24  C   UNL d   1      10.863   8.779  -8.712  0.00  0.00     0.004 A 
ATOM     25  C   UNL d   1      10.476   8.254  -7.460  0.00  0.00     0.071 A 
ATOM     26  C   UNL d   1       9.576   7.175  -7.424  0.00  0.00     0.004 A 
ATOM     27  C   UNL d   1       9.086   6.606  -8.609  0.00  0.00    -0.002 A 
BRANCH  25  28
ATOM     28  C   UNL d   1      11.035   8.840  -6.162  0.00  0.00     0.419 C 
ATOM     29  F   UNL d   1      12.263   9.313  -6.364  0.00  0.00    -0.166 F 
ATOM     30  F   UNL d   1      10.283   9.836  -5.710  0.00  0.00    -0.166 F 
ATOM     31  F   UNL d   1      11.095   7.903  -5.213  0.00  0.00    -0.166 F 
ENDBRANCH  25  28
ENDBRANCH   5  22
TORSDOF 8
