REMARK  4 active torsions:
REMARK  status: ('A' for Active; 'I' for Inactive)
REMARK    1  A    between atoms: C_2  and  C_3 
REMARK       I    between atoms: C_2  and  N_13 
REMARK    2  A    between atoms: C_3  and  N_4 
REMARK    3  A    between atoms: N_16  and  C_17 
REMARK    4  A    between atoms: C_17  and  C_18 
ROOT
ATOM      1  O   UNL d   1       9.021   6.761 -12.664  0.00  0.00    -0.270 OA
ATOM      2  C   UNL d   1       9.022   6.121 -11.607  0.00  0.00     0.256 C 
ATOM      3  N   UNL d   1       9.681   6.563 -10.515  0.00  0.00    -0.314 N 
ATOM      4  C   UNL d   1       9.688   5.887  -9.213  0.00  0.00     0.140 C 
ATOM      5  C   UNL d   1       9.257   6.881  -8.141  0.00  0.00     0.275 C 
ATOM      6  N   UNL d   1      10.170   8.028  -8.111  0.00  0.00     0.145 N 
ATOM      7  C   UNL d   1      10.070   8.723  -9.394  0.00  0.00     0.275 C 
ATOM      8  C   UNL d   1      10.505   7.779 -10.518  0.00  0.00     0.140 C 
ENDROOT
BRANCH   2   9
ATOM      9  C   UNL d   1       8.311   4.761 -11.550  0.00  0.00     0.191 C 
BRANCH   9  10
ATOM     10  N   UNL d   1       7.917   4.283 -12.875  0.00  0.00    -0.340 N 
ATOM     11  C   UNL d   1       8.862   3.574 -13.643  0.00  0.00     0.052 A 
ATOM     12  C   UNL d   1       8.253   2.616 -14.466  0.00  0.00    -0.005 A 
ATOM     13  C   UNL d   1      10.261   3.700 -13.633  0.00  0.00     0.017 A 
ATOM     14  C   UNL d   1       6.765   2.630 -14.251  0.00  0.00     0.052 C 
ATOM     15  C   UNL d   1       9.014   1.791 -15.312  0.00  0.00    -0.003 A 
ATOM     16  C   UNL d   1       6.611   3.664 -13.118  0.00  0.00     0.107 C 
ATOM     17  C   UNL d   1      10.418   1.929 -15.322  0.00  0.00    -0.000 A 
ATOM     18  C   UNL d   1      11.040   2.880 -14.476  0.00  0.00     0.002 A 
ENDBRANCH   9  10
ENDBRANCH   2   9
BRANCH   6  19
ATOM     19  C   UNL d   1       9.802   8.934  -7.030  0.00  0.00     0.277 C 
BRANCH  19  20
ATOM     20  C   UNL d   1      10.569   8.692  -5.736  0.00  0.00     0.011 A 
ATOM     21  C   UNL d   1      10.959   7.393  -5.320  0.00  0.00    -0.002 A 
ATOM     22  C   UNL d   1      11.592   7.196  -4.093  0.00  0.00     0.011 A 
ATOM     23  C   UNL d   1      11.882   8.301  -3.274  0.00  0.00     0.058 A 
ATOM     24  C   UNL d   1      11.528   9.599  -3.684  0.00  0.00     0.011 A 
ATOM     25 CL   UNL d   1      12.648   8.080  -1.756  0.00  0.00    -0.082 Cl
ATOM     26  C   UNL d   1      10.875   9.803  -4.911  0.00  0.00    -0.002 A 
ENDBRANCH  19  20
ENDBRANCH   6  19
TORSDOF 4
