REMARK  8 active torsions:
REMARK  status: ('A' for Active; 'I' for Inactive)
REMARK    1  A    between atoms: C_2  and  C_3 
REMARK       I    between atoms: C_2  and  N_14 
REMARK    2  A    between atoms: C_3  and  C_4 
REMARK    3  A    between atoms: C_4  and  C_5 
REMARK    4  A    between atoms: C_5  and  C_6 
REMARK    5  A    between atoms: C_6  and  C_8 
REMARK    6  A    between atoms: N_14  and  C_15 
REMARK    7  A    between atoms: C_15  and  C_16 
REMARK    8  A    between atoms: C_16  and  C_17 
ROOT
ATOM      1  O   UNL d   1       9.562   4.374  -9.110  0.00  0.00    -0.271 OA
ATOM      2  C   UNL d   1       8.923   5.339  -9.516  0.00  0.00     0.251 C 
ATOM      3  N   UNL d   1       8.663   6.393  -8.750  0.00  0.00    -0.238 NA
ENDROOT
BRANCH   2   4
ATOM      4  C   UNL d   1       8.441   5.435 -10.958  0.00  0.00     0.090 C 
BRANCH   4   5
ATOM      5  C   UNL d   1       9.133   4.437 -11.914  0.00  0.00     0.018 C 
BRANCH   5   6
ATOM      6  C   UNL d   1       9.486   5.058 -13.284  0.00  0.00     0.070 C 
BRANCH   6   7
ATOM      7  C   UNL d   1      10.510   4.211 -14.053  0.00  0.00     0.173 C 
ATOM      8  O   UNL d   1      11.666   4.629 -14.136  0.00  0.00    -0.291 OA
BRANCH   7   9
ATOM      9  C   UNL d   1      10.053   2.917 -14.634  0.00  0.00     0.035 A 
ATOM     10  C   UNL d   1      10.973   2.092 -15.332  0.00  0.00     0.003 A 
ATOM     11  C   UNL d   1      10.555   0.854 -15.875  0.00  0.00     0.000 A 
ATOM     12  C   UNL d   1       9.224   0.416 -15.696  0.00  0.00     0.000 A 
ATOM     13  C   UNL d   1       8.312   1.229 -14.997  0.00  0.00     0.000 A 
ATOM     14  C   UNL d   1       8.712   2.478 -14.501  0.00  0.00     0.003 A 
ENDBRANCH   7   9
ENDBRANCH   6   7
ENDBRANCH   5   6
ENDBRANCH   4   5
ENDBRANCH   2   4
BRANCH   3  15
ATOM     15  C   UNL d   1       9.213   6.610  -7.424  0.00  0.00     0.133 C 
BRANCH  15  16
ATOM     16  C   UNL d   1      10.710   6.995  -7.493  0.00  0.00     0.054 C 
BRANCH  16  17
ATOM     17  C   UNL d   1      11.061   8.050  -6.499  0.00  0.00     0.000 A 
ATOM     18  C   UNL d   1      11.451   7.898  -5.128  0.00  0.00     0.015 A 
ATOM     19  C   UNL d   1      11.685   9.189  -4.577  0.00  0.00     0.081 A 
ATOM     20  C   UNL d   1      11.628   6.785  -4.271  0.00  0.00     0.001 A 
ATOM     21  N   UNL d   1      11.430  10.078  -5.607  0.00  0.00    -0.244 NA
ATOM     22  C   UNL d   1      12.080   9.370  -3.237  0.00  0.00     0.019 A 
ATOM     23  C   UNL d   1      11.064   9.397  -6.754  0.00  0.00     0.095 A 
ATOM     24  C   UNL d   1      12.258   8.241  -2.415  0.00  0.00     0.002 A 
ATOM     25  C   UNL d   1      12.030   6.952  -2.932  0.00  0.00     0.000 A 
ENDBRANCH  16  17
ENDBRANCH  15  16
ENDBRANCH   3  15
TORSDOF 8
