REMARK  9 active torsions:
REMARK  status: ('A' for Active; 'I' for Inactive)
REMARK    1  A    between atoms: O_2  and  C_3 
REMARK    2  A    between atoms: C_6  and  S_7 
REMARK    3  A    between atoms: S_7  and  N_10 
REMARK    4  A    between atoms: N_10  and  C_11 
REMARK    5  A    between atoms: C_14  and  N_15 
REMARK    6  A    between atoms: C_18  and  C_19 
REMARK    7  A    between atoms: C_25  and  O_26 
REMARK    8  A    between atoms: O_26  and  C_27 
REMARK    9  A    between atoms: C_35  and  O_36 
ROOT
ATOM      1  C   UNL d   1       5.868   0.270 -17.102  0.00  0.00     0.116 C 
ATOM      2  C   UNL d   1       5.908  -0.114 -15.612  0.00  0.00     0.027 C 
ATOM      3  C   UNL d   1       6.311   1.077 -14.754  0.00  0.00     0.035 C 
ATOM      4  C   UNL d   1       7.646   1.752 -15.215  0.00  0.00     0.219 C 
ATOM      5  C   UNL d   1       7.591   2.096 -16.701  0.00  0.00     0.035 C 
ATOM      6  C   UNL d   1       7.213   0.897 -17.519  0.00  0.00     0.027 C 
ENDROOT
BRANCH   4   7
ATOM      7  N   UNL d   1       8.028   2.983 -14.496  0.00  0.00     0.135 N 
ATOM      8  C   UNL d   1       6.951   3.531 -13.652  0.00  0.00     0.251 C 
ATOM      9  C   UNL d   1       7.329   4.811 -12.985  0.00  0.00     0.040 C 
ATOM     10  C   UNL d   1       8.609   4.630 -12.188  0.00  0.00     0.028 C 
ATOM     11  C   UNL d   1       9.733   4.059 -13.071  0.00  0.00     0.040 C 
ATOM     12  C   UNL d   1       9.284   2.778 -13.774  0.00  0.00     0.251 C 
BRANCH  10  13
ATOM     13  C   UNL d   1       9.026   5.938 -11.565  0.00  0.00     0.000 A 
ATOM     14  C   UNL d   1       9.465   6.002 -10.234  0.00  0.00     0.092 A 
ATOM     15  C   UNL d   1       9.893   7.254  -9.719  0.00  0.00     0.053 A 
ATOM     16  C   UNL d   1       9.877   8.431 -10.499  0.00  0.00     0.142 A 
ATOM     17  C   UNL d   1       9.428   8.332 -11.831  0.00  0.00     0.029 A 
ATOM     18  F   UNL d   1      10.290   9.568  -9.936  0.00  0.00    -0.204 F 
ATOM     19  C   UNL d   1       9.023   7.093 -12.357  0.00  0.00    -0.000 A 
BRANCH  14  20
ATOM     20  O   UNL d   1       9.496   4.875  -9.464  0.00  0.00    -0.334 OA
BRANCH  20  21
ATOM     21  C   UNL d   1       8.479   4.846  -8.461  0.00  0.00     0.121 C 
ATOM     22  C   UNL d   1       8.839   5.763  -7.272  0.00  0.00     0.033 C 
ATOM     23  C   UNL d   1       8.257   3.335  -8.034  0.00  0.00     0.033 C 
ENDBRANCH  20  21
ENDBRANCH  14  20
ENDBRANCH  10  13
ENDBRANCH   4   7
BRANCH   1  24
ATOM     24  N   UNL d   1       5.615  -0.936 -17.903  0.00  0.00    -0.187 NA
BRANCH  24  25
ATOM     25  S   UNL d   1       4.924  -0.888 -19.488  0.00  0.00     0.281 S 
ATOM     26  O   UNL d   1       3.750  -0.011 -19.408  0.00  0.00    -0.199 OA
ATOM     27  O   UNL d   1       4.798  -2.278 -19.958  0.00  0.00    -0.199 OA
BRANCH  25  28
ATOM     28  C   UNL d   1       6.172  -0.052 -20.471  0.00  0.00     0.107 A 
ATOM     29  C   UNL d   1       5.807   1.014 -21.310  0.00  0.00     0.015 A 
ATOM     30  C   UNL d   1       6.809   1.774 -21.953  0.00  0.00     0.027 A 
ATOM     31  C   UNL d   1       8.188   1.482 -21.744  0.00  0.00     0.116 A 
ATOM     32  C   UNL d   1       8.541   0.431 -20.855  0.00  0.00     0.117 A 
ATOM     33  C   UNL d   1       7.537  -0.360 -20.283  0.00  0.00     0.039 A 
BRANCH  31  34
ATOM     34  O   UNL d   1       9.207   2.166 -22.367  0.00  0.00    -0.326 OA
ATOM     35  C   UNL d   1       8.877   3.221 -23.253  0.00  0.00     0.181 C 
ENDBRANCH  31  34
BRANCH  32  36
ATOM     36  O   UNL d   1       9.837   0.139 -20.487  0.00  0.00    -0.326 OA
ATOM     37  C   UNL d   1      10.625   1.209 -19.949  0.00  0.00     0.181 C 
ENDBRANCH  32  36
ENDBRANCH  25  28
ENDBRANCH  24  25
ENDBRANCH   1  24
TORSDOF 9
