REMARK  7 active torsions:
REMARK  status: ('A' for Active; 'I' for Inactive)
REMARK    1  A    between atoms: C_2  and  C_3 
REMARK    2  A    between atoms: C_3  and  C_5 
REMARK       I    between atoms: C_5  and  N_7 
REMARK    3  A    between atoms: N_7  and  C_8 
REMARK    4  A    between atoms: C_11  and  C_12 
REMARK    5  A    between atoms: C_12  and  C_13 
REMARK    6  A    between atoms: C_13  and  N_14 
REMARK    7  A    between atoms: C_17  and  C_18 
ROOT
ATOM      1  N   UNL d   1       9.674   6.748 -10.123  0.00  0.00     0.137 N 
ATOM      2  C   UNL d   1      10.974   7.411 -10.178  0.00  0.00     0.251 C 
ATOM      3  C   UNL d   1      11.199   8.276  -8.947  0.00  0.00     0.040 C 
ATOM      4  C   UNL d   1      11.069   7.466  -7.644  0.00  0.00     0.028 C 
ATOM      5  C   UNL d   1       9.758   6.668  -7.671  0.00  0.00     0.040 C 
ATOM      6  C   UNL d   1       9.617   5.857  -8.963  0.00  0.00     0.251 C 
ENDROOT
BRANCH   1   7
ATOM      7  C   UNL d   1       9.461   6.015 -11.364  0.00  0.00     0.250 C 
BRANCH   7   8
ATOM      8  C   UNL d   1       8.015   5.519 -11.538  0.00  0.00     0.035 C 
BRANCH   8   9
ATOM      9  C   UNL d   1       7.773   4.738 -12.847  0.00  0.00     0.002 C 
ATOM     10  C   UNL d   1       8.943   3.798 -13.234  0.00  0.00     0.002 C 
ATOM     11  C   UNL d   1       8.671   3.007 -14.511  0.00  0.00     0.024 C 
ATOM     12  C   UNL d   1       7.363   2.210 -14.405  0.00  0.00     0.106 C 
ATOM     13  C   UNL d   1       6.179   3.123 -14.008  0.00  0.00     0.024 C 
ATOM     14  C   UNL d   1       6.463   3.929 -12.733  0.00  0.00     0.002 C 
BRANCH  12  15
ATOM     15  N   UNL d   1       7.108   1.528 -15.665  0.00  0.00    -0.240 NA
ATOM     16  C   UNL d   1       6.266   0.496 -15.812  0.00  0.00     0.251 C 
ATOM     17  O   UNL d   1       5.580   0.059 -14.890  0.00  0.00    -0.271 OA
BRANCH  16  18
ATOM     18  C   UNL d   1       6.209  -0.131 -17.211  0.00  0.00     0.081 C 
ATOM     19  C   UNL d   1       5.486  -1.495 -17.198  0.00  0.00     0.010 C 
BRANCH  18  20
ATOM     20  C   UNL d   1       5.585   0.844 -18.237  0.00  0.00     0.009 C 
ATOM     21  C   UNL d   1       6.039   0.597 -19.680  0.00  0.00     0.001 C 
ENDBRANCH  18  20
ENDBRANCH  16  18
ENDBRANCH  12  15
ENDBRANCH   8   9
ENDBRANCH   7   8
ENDBRANCH   1   7
BRANCH   4  22
ATOM     22  C   UNL d   1      11.146   8.341  -6.429  0.00  0.00     0.004 A 
ATOM     23  C   UNL d   1      11.482   7.962  -5.092  0.00  0.00     0.021 A 
ATOM     24  C   UNL d   1      11.465   9.154  -4.324  0.00  0.00     0.100 A 
ATOM     25  C   UNL d   1      11.846   6.778  -4.410  0.00  0.00     0.002 A 
ATOM     26  O   UNL d   1      11.076  10.203  -5.123  0.00  0.00    -0.305 OA
ATOM     27  C   UNL d   1      11.767   9.198  -2.961  0.00  0.00     0.025 A 
ATOM     28  C   UNL d   1      10.915   9.690  -6.373  0.00  0.00     0.118 A 
ATOM     29  C   UNL d   1      12.096   7.997  -2.298  0.00  0.00     0.002 A 
ATOM     30  C   UNL d   1      12.143   6.786  -3.031  0.00  0.00     0.000 A 
ENDBRANCH   4  22
TORSDOF 7
