REMARK  8 active torsions:
REMARK  status: ('A' for Active; 'I' for Inactive)
REMARK    1  A    between atoms: O_2  and  C_3 
REMARK    2  A    between atoms: C_9  and  S_10 
REMARK    3  A    between atoms: S_10  and  N_13 
REMARK    4  A    between atoms: N_13  and  C_14 
REMARK    5  A    between atoms: C_17  and  N_18 
REMARK    6  A    between atoms: N_21  and  C_22 
REMARK    7  A    between atoms: C_27  and  O_28 
REMARK    8  A    between atoms: O_28  and  C_29 
ROOT
ATOM      1  C   UNL d   1      14.044   7.312 -18.740  0.00  0.00     0.116 C 
ATOM      2  C   UNL d   1      13.891   7.403 -17.214  0.00  0.00     0.027 C 
ATOM      3  C   UNL d   1      13.408   6.091 -16.621  0.00  0.00     0.035 C 
ATOM      4  C   UNL d   1      12.055   5.648 -17.248  0.00  0.00     0.220 C 
ATOM      5  C   UNL d   1      12.231   5.560 -18.788  0.00  0.00     0.035 C 
ATOM      6  C   UNL d   1      12.726   6.871 -19.377  0.00  0.00     0.027 C 
ENDROOT
BRANCH   4   7
ATOM      7  N   UNL d   1      11.605   4.366 -16.674  0.00  0.00     0.139 N 
ATOM      8  C   UNL d   1      10.483   3.801 -17.441  0.00  0.00     0.274 C 
ATOM      9  C   UNL d   1      10.031   2.448 -16.869  0.00  0.00     0.137 C 
ATOM     10  N   UNL d   1       9.690   2.587 -15.460  0.00  0.00    -0.343 N 
ATOM     11  C   UNL d   1      10.716   3.244 -14.653  0.00  0.00     0.137 C 
ATOM     12  C   UNL d   1      11.138   4.579 -15.296  0.00  0.00     0.274 C 
BRANCH  10  13
ATOM     13  C   UNL d   1       8.429   2.209 -14.993  0.00  0.00     0.079 A 
ATOM     14  C   UNL d   1       7.664   3.051 -14.120  0.00  0.00     0.109 A 
ATOM     15  C   UNL d   1       6.377   2.648 -13.688  0.00  0.00     0.026 A 
ATOM     16  C   UNL d   1       5.894   1.361 -14.050  0.00  0.00     0.002 A 
ATOM     17  C   UNL d   1       6.625   0.529 -14.947  0.00  0.00     0.002 A 
ATOM     18  C   UNL d   1       7.868   0.981 -15.425  0.00  0.00     0.019 A 
BRANCH  14  19
ATOM     19  O   UNL d   1       8.260   4.236 -13.721  0.00  0.00    -0.332 OA
BRANCH  19  20
ATOM     20  C   UNL d   1       7.640   5.110 -12.775  0.00  0.00     0.122 C 
ATOM     21  C   UNL d   1       8.655   6.241 -12.517  0.00  0.00     0.033 C 
ATOM     22  C   UNL d   1       7.277   4.432 -11.428  0.00  0.00     0.033 C 
ENDBRANCH  19  20
ENDBRANCH  14  19
ENDBRANCH  10  13
ENDBRANCH   4   7
BRANCH   1  23
ATOM     23  N   UNL d   1      14.427   8.608 -19.285  0.00  0.00    -0.187 NA
BRANCH  23  24
ATOM     24  S   UNL d   1      15.197   8.728 -20.827  0.00  0.00     0.283 S 
ATOM     25  O   UNL d   1      15.386  10.160 -21.098  0.00  0.00    -0.199 OA
ATOM     26  O   UNL d   1      14.462   7.878 -21.778  0.00  0.00    -0.199 OA
BRANCH  24  27
ATOM     27  C   UNL d   1      16.809   7.989 -20.550  0.00  0.00     0.128 A 
ATOM     28  C   UNL d   1      17.622   8.399 -19.466  0.00  0.00     0.106 A 
ATOM     29  C   UNL d   1      18.891   7.783 -19.309  0.00  0.00     0.026 A 
ATOM     30  C   UNL d   1      19.331   6.795 -20.211  0.00  0.00     0.013 A 
ATOM     31  C   UNL d   1      18.509   6.400 -21.281  0.00  0.00     0.059 A 
ATOM     32 CL   UNL d   1      19.052   5.195 -22.387  0.00  0.00    -0.082 Cl
ATOM     33  C   UNL d   1      17.245   6.993 -21.450  0.00  0.00     0.026 A 
BRANCH  28  34
ATOM     34  O   UNL d   1      17.143   9.377 -18.620  0.00  0.00    -0.327 OA
ATOM     35  C   UNL d   1      18.028   9.922 -17.654  0.00  0.00     0.181 C 
ENDBRANCH  28  34
ENDBRANCH  24  27
ENDBRANCH  23  24
ENDBRANCH   1  23
TORSDOF 8
