REMARK  3 active torsions:
REMARK  status: ('A' for Active; 'I' for Inactive)
REMARK    1  A    between atoms: C_2  and  C_3 
REMARK    2  A    between atoms: N_16  and  C_17 
REMARK    3  A    between atoms: C_17  and  C_18 
ROOT
ATOM      1  O   UNL d   1      10.800   9.952  -6.998  0.00  0.00    -0.221 OA
ATOM      2  C   UNL d   1      11.037   8.609  -6.931  0.00  0.00     0.148 C 
ATOM      3  C   UNL d   1       9.725   7.879  -7.304  0.00  0.00     0.051 C 
ATOM      4  C   UNL d   1       9.505   7.849  -8.808  0.00  0.00     0.065 C 
ATOM      5  C   UNL d   1       9.478   9.175  -9.499  0.00  0.00     0.018 C 
ATOM      6  C   UNL d   1      10.941   9.413  -9.848  0.00  0.00     0.018 C 
ATOM      7  C   UNL d   1      11.652   8.149  -9.408  0.00  0.00     0.065 C 
ATOM      8  C   UNL d   1      12.154   8.268  -7.955  0.00  0.00     0.051 C 
ATOM      9  N   UNL d   1      10.600   7.133  -9.425  0.00  0.00    -0.254 NA
ENDROOT
BRANCH   9  10
ATOM     10  C   UNL d   1      10.195   6.795 -10.786  0.00  0.00     0.048 C 
BRANCH  10  11
ATOM     11  C   UNL d   1       9.195   5.730 -11.070  0.00  0.00     0.033 C 
ATOM     12  C   UNL d   1       8.878   5.082 -12.320  0.00  0.00     0.038 C 
ATOM     13  C   UNL d   1       7.702   4.309 -12.116  0.00  0.00     0.163 C 
ATOM     14  C   UNL d   1       9.342   5.054 -13.642  0.00  0.00     0.005 C 
ATOM     15  N   UNL d   1       7.458   4.398 -10.797  0.00  0.00    -0.225 NA
ATOM     16  N   UNL d   1       6.982   3.597 -13.005  0.00  0.00    -0.225 NA
ATOM     17  C   UNL d   1       8.347   5.179 -10.143  0.00  0.00     0.102 C 
ATOM     18  C   UNL d   1       7.577   3.466 -14.194  0.00  0.00     0.101 C 
ATOM     19  C   UNL d   1       8.710   4.215 -14.580  0.00  0.00     0.021 C 
ENDBRANCH  10  11
ENDBRANCH   9  10
BRANCH   2  20
ATOM     20  C   UNL d   1      11.450   8.300  -5.524  0.00  0.00     0.005 A 
ATOM     21  C   UNL d   1      11.464   6.975  -5.039  0.00  0.00    -0.001 A 
ATOM     22  C   UNL d   1      11.837   6.749  -3.715  0.00  0.00     0.011 A 
ATOM     23  C   UNL d   1      12.195   7.863  -2.948  0.00  0.00     0.058 A 
ATOM     24  C   UNL d   1      12.182   9.163  -3.391  0.00  0.00     0.011 A 
ATOM     25 CL   UNL d   1      12.681   7.751  -1.382  0.00  0.00    -0.082 Cl
ATOM     26  C   UNL d   1      11.819   9.381  -4.692  0.00  0.00    -0.001 A 
ENDBRANCH   2  20
TORSDOF 3
