REMARK  1 active torsions:
REMARK  status: ('A' for Active; 'I' for Inactive)
REMARK    1  A    between atoms: C_2  and  C_4 
ROOT
ATOM      1  O   UNL d   1      15.211   7.588 -18.163  0.00  0.00    -0.645 OA
ATOM      2  C   UNL d   1      14.343   8.450 -18.038  0.00  0.00     0.221 C 
ATOM      3  O   UNL d   1      14.265   9.588 -18.785  0.00  0.00    -0.645 OA
ENDROOT
BRANCH   2   4
ATOM      4  C   UNL d   1      13.213   8.389 -17.002  0.00  0.00     0.279 C 
ATOM      5  O   UNL d   1      13.398   7.326 -16.086  0.00  0.00    -0.208 OA
ENDBRANCH   2   4
TORSDOF 1
