REMARK  6 active torsions:
REMARK  status: ('A' for Active; 'I' for Inactive)
REMARK    1  A    between atoms: O_2  and  N_3 
REMARK    2  A    between atoms: C_4  and  C_5 
REMARK    3  A    between atoms: C_4  and  C_12 
REMARK    4  A    between atoms: C_12  and  C_14 
REMARK    5  A    between atoms: C_14  and  N_15 
REMARK    6  A    between atoms: N_18  and  C_19 
ROOT
ATOM      1  C   UNL d   1       8.398   5.323 -12.307  0.00  0.00     0.227 C 
ATOM      2  O   UNL d   1       7.612   6.441 -12.667  0.00  0.00    -0.215 OA
ENDROOT
BRANCH   1   3
ATOM      3  C   UNL d   1       8.641   4.363 -13.511  0.00  0.00     0.118 C 
ATOM      4  N   UNL d   1       9.599   4.459 -14.351  0.00  0.00    -0.133 NA
BRANCH   4   5
ATOM      5  O   UNL d   1      10.456   5.539 -14.137  0.00  0.00    -0.234 OA
ATOM      6  C   UNL d   1      11.443   5.576 -15.136  0.00  0.00     0.211 C 
ENDBRANCH   4   5
BRANCH   3   7
ATOM      7  C   UNL d   1       7.673   3.229 -13.659  0.00  0.00     0.018 A 
ATOM      8  C   UNL d   1       6.345   3.306 -13.165  0.00  0.00     0.002 A 
ATOM      9  C   UNL d   1       5.481   2.200 -13.243  0.00  0.00     0.011 A 
ATOM     10  C   UNL d   1       5.885   1.030 -13.914  0.00  0.00     0.058 A 
ATOM     11  C   UNL d   1       7.184   0.940 -14.445  0.00  0.00     0.011 A 
ATOM     12 CL   UNL d   1       4.785  -0.281 -14.111  0.00  0.00    -0.082 Cl
ATOM     13  C   UNL d   1       8.072   2.035 -14.320  0.00  0.00     0.002 A 
ENDBRANCH   3   7
ENDBRANCH   1   3
BRANCH   1  14
ATOM     14  C   UNL d   1       9.663   5.813 -11.576  0.00  0.00     0.289 C 
BRANCH  14  15
ATOM     15  N   UNL d   1       9.453   6.650 -10.409  0.00  0.00     0.144 N 
ATOM     16  C   UNL d   1       9.218   5.874  -9.195  0.00  0.00     0.274 C 
ATOM     17  C   UNL d   1       9.026   6.790  -7.974  0.00  0.00     0.138 C 
ATOM     18  N   UNL d   1      10.138   7.733  -7.866  0.00  0.00    -0.330 N 
ATOM     19  C   UNL d   1      10.431   8.507  -9.068  0.00  0.00     0.138 C 
ATOM     20  C   UNL d   1      10.605   7.529 -10.221  0.00  0.00     0.274 C 
BRANCH  18  21
ATOM     21  C   UNL d   1      10.822   7.951  -6.659  0.00  0.00     0.140 A 
ATOM     22  N   UNL d   1      11.460   9.129  -6.521  0.00  0.00    -0.227 NA
ATOM     23  C   UNL d   1      12.152   9.349  -5.388  0.00  0.00     0.101 A 
ATOM     24  C   UNL d   1      12.233   8.419  -4.333  0.00  0.00     0.021 A 
ATOM     25  C   UNL d   1      11.560   7.192  -4.479  0.00  0.00     0.005 A 
ATOM     26  C   UNL d   1      10.846   6.957  -5.665  0.00  0.00     0.037 A 
ENDBRANCH  18  21
ENDBRANCH  14  15
ENDBRANCH   1  14
TORSDOF 6
