REMARK  8 active torsions:
REMARK  status: ('A' for Active; 'I' for Inactive)
REMARK    1  A    between atoms: C_8  and  N_9 
REMARK    2  A    between atoms: N_12  and  C_13 
REMARK    3  A    between atoms: C_13  and  C_14 
REMARK    4  A    between atoms: C_14  and  C_15 
REMARK    5  A    between atoms: C_15  and  C_16 
REMARK    6  A    between atoms: C_16  and  C_17 
REMARK    7  A    between atoms: C_17  and  C_18 
REMARK       I    between atoms: C_18  and  N_20 
REMARK    8  A    between atoms: N_20  and  C_21 
ROOT
ATOM      1  N   UNL d   1       4.759  -0.392 -13.680  0.00  0.00    -0.191 NA
ATOM      2  C   UNL d   1       5.349  -0.143 -14.643  0.00  0.00     0.102 C 
ATOM      3  C   UNL d   1       6.075   0.183 -15.864  0.00  0.00     0.084 A 
ATOM      4  C   UNL d   1       5.740  -0.555 -17.012  0.00  0.00     0.012 A 
ATOM      5  C   UNL d   1       6.389  -0.316 -18.243  0.00  0.00     0.001 A 
ATOM      6  C   UNL d   1       7.393   0.672 -18.314  0.00  0.00     0.002 A 
ATOM      7  C   UNL d   1       7.731   1.410 -17.173  0.00  0.00     0.018 A 
ATOM      8  C   UNL d   1       7.089   1.189 -15.931  0.00  0.00     0.066 A 
ENDROOT
BRANCH   8   9
ATOM      9  N   UNL d   1       7.456   1.986 -14.827  0.00  0.00    -0.344 N 
ATOM     10  C   UNL d   1       8.847   2.322 -14.550  0.00  0.00     0.137 C 
ATOM     11  C   UNL d   1       8.980   3.841 -14.322  0.00  0.00     0.274 C 
ATOM     12  N   UNL d   1       8.082   4.281 -13.246  0.00  0.00     0.141 N 
ATOM     13  C   UNL d   1       6.694   3.983 -13.599  0.00  0.00     0.274 C 
ATOM     14  C   UNL d   1       6.497   2.488 -13.846  0.00  0.00     0.137 C 
BRANCH  12  15
ATOM     15  C   UNL d   1       8.206   5.721 -13.056  0.00  0.00     0.250 C 
BRANCH  15  16
ATOM     16  C   UNL d   1       9.292   6.033 -12.016  0.00  0.00     0.035 C 
BRANCH  16  17
ATOM     17  C   UNL d   1       8.934   7.291 -11.226  0.00  0.00     0.003 C 
BRANCH  17  18
ATOM     18  C   UNL d   1      10.067   8.300 -11.079  0.00  0.00     0.010 C 
BRANCH  18  19
ATOM     19  C   UNL d   1       9.932   9.347  -9.958  0.00  0.00     0.090 C 
BRANCH  19  20
ATOM     20  C   UNL d   1      10.262   8.790  -8.607  0.00  0.00     0.252 C 
ATOM     21  O   UNL d   1      11.381   8.301  -8.375  0.00  0.00    -0.271 OA
ATOM     22  N   UNL d   1       9.278   8.868  -7.708  0.00  0.00    -0.235 NA
BRANCH  22  23
ATOM     23  C   UNL d   1       9.200   8.163  -6.478  0.00  0.00     0.128 C 
ATOM     24  C   UNL d   1      10.370   8.501  -5.568  0.00  0.00    -0.004 A 
ATOM     25  C   UNL d   1      11.341   7.545  -5.244  0.00  0.00    -0.024 A 
ATOM     26  C   UNL d   1      10.449   9.746  -4.931  0.00  0.00    -0.003 A 
ATOM     27  C   UNL d   1      11.279   6.153  -5.824  0.00  0.00     0.026 C 
ATOM     28  C   UNL d   1      12.325   7.832  -4.270  0.00  0.00    -0.004 A 
ATOM     29  C   UNL d   1      10.269   5.995  -6.999  0.00  0.00     0.007 C 
ATOM     30  C   UNL d   1       8.963   6.658  -6.694  0.00  0.00     0.029 C 
ATOM     31  C   UNL d   1      12.422   9.095  -3.680  0.00  0.00    -0.000 A 
ATOM     32  C   UNL d   1      11.448  10.023  -3.999  0.00  0.00    -0.000 A 
ENDBRANCH  22  23
ENDBRANCH  19  20
ENDBRANCH  18  19
ENDBRANCH  17  18
ENDBRANCH  16  17
ENDBRANCH  15  16
ENDBRANCH  12  15
ENDBRANCH   8   9
TORSDOF 8
