REMARK  7 active torsions:
REMARK  status: ('A' for Active; 'I' for Inactive)
REMARK    1  A    between atoms: C_2  and  O_3 
REMARK    2  A    between atoms: O_3  and  C_4 
REMARK    3  A    between atoms: C_4  and  C_6 
REMARK    4  A    between atoms: C_15  and  C_16 
REMARK    5  A    between atoms: C_16  and  N_17 
REMARK    6  A    between atoms: C_20  and  C_21 
REMARK    7  A    between atoms: C_21  and  C_23 
ROOT
ATOM      1  C   UNL d   1       9.670   0.624 -16.864  0.00  0.00     0.159 A 
ATOM      2  O   UNL d   1       8.659   1.031 -16.032  0.00  0.00    -0.306 OA
ATOM      3  C   UNL d   1       9.158   2.064 -15.298  0.00  0.00     0.080 A 
ATOM      4  C   UNL d   1      10.425   2.354 -15.682  0.00  0.00     0.051 A 
ATOM      5  C   UNL d   1      10.787   1.404 -16.682  0.00  0.00     0.011 A 
ATOM      6  C   UNL d   1      12.113   1.317 -17.406  0.00  0.00     0.033 C 
ATOM      7  C   UNL d   1      11.126   3.493 -15.040  0.00  0.00     0.174 C 
ATOM      8  O   UNL d   1      12.309   3.760 -15.222  0.00  0.00    -0.291 OA
ATOM      9  C   UNL d   1      10.263   4.373 -14.136  0.00  0.00     0.072 C 
ATOM     10  C   UNL d   1       9.178   3.603 -13.337  0.00  0.00     0.048 C 
ATOM     11  C   UNL d   1       8.311   2.719 -14.257  0.00  0.00     0.054 C 
ENDROOT
BRANCH  10  12
ATOM     12  C   UNL d   1       8.287   4.562 -12.527  0.00  0.00     0.251 C 
BRANCH  12  13
ATOM     13  N   UNL d   1       9.101   5.522 -11.787  0.00  0.00     0.137 N 
ATOM     14  C   UNL d   1       8.436   6.822 -11.759  0.00  0.00     0.251 C 
ATOM     15  C   UNL d   1       9.316   7.872 -11.053  0.00  0.00     0.043 C 
ATOM     16  C   UNL d   1       9.631   7.446  -9.592  0.00  0.00     0.066 C 
ATOM     17  C   UNL d   1      10.210   6.018  -9.646  0.00  0.00     0.043 C 
ATOM     18  C   UNL d   1       9.298   5.062 -10.414  0.00  0.00     0.251 C 
BRANCH  16  19
ATOM     19  C   UNL d   1      10.584   8.457  -8.911  0.00  0.00     0.173 C 
ATOM     20  O   UNL d   1      11.072   9.373  -9.579  0.00  0.00    -0.291 OA
BRANCH  19  21
ATOM     21  C   UNL d   1      10.852   8.315  -7.447  0.00  0.00     0.035 A 
ATOM     22  C   UNL d   1      10.662   7.098  -6.725  0.00  0.00     0.005 A 
ATOM     23  C   UNL d   1      11.022   7.022  -5.371  0.00  0.00     0.030 A 
ATOM     24  C   UNL d   1      11.494   8.149  -4.673  0.00  0.00     0.140 A 
ATOM     25  C   UNL d   1      11.637   9.373  -5.369  0.00  0.00     0.030 A 
ATOM     26  F   UNL d   1      11.788   8.070  -3.351  0.00  0.00    -0.204 F 
ATOM     27  C   UNL d   1      11.342   9.454  -6.752  0.00  0.00     0.005 A 
ENDBRANCH  19  21
ENDBRANCH  16  19
ENDBRANCH  12  13
ENDBRANCH  10  12
BRANCH   1  28
ATOM     28  C   UNL d   1       9.431  -0.489 -17.792  0.00  0.00     0.319 C 
ATOM     29  O   UNL d   1      10.348  -1.149 -18.279  0.00  0.00    -0.257 OA
BRANCH  28  30
ATOM     30  O   UNL d   1       8.126  -0.662 -18.080  0.00  0.00    -0.297 OA
BRANCH  30  31
ATOM     31  C   UNL d   1       7.721  -1.610 -19.064  0.00  0.00     0.152 C 
ATOM     32  C   UNL d   1       7.554  -3.012 -18.465  0.00  0.00     0.035 C 
ENDBRANCH  30  31
ENDBRANCH  28  30
ENDBRANCH   1  28
TORSDOF 7
