REMARK  3 active torsions:
REMARK  status: ('A' for Active; 'I' for Inactive)
REMARK    1  A    between atoms: C_4  and  N_5 
REMARK    2  A    between atoms: N_15  and  S_16 
REMARK    3  A    between atoms: S_16  and  C_19 
ROOT
ATOM      1  C   UNL d   1       4.686   3.661 -13.052  0.00  0.00     0.031 C 
ATOM      2  C   UNL d   1       6.157   3.829 -13.229  0.00  0.00    -0.019 A 
ATOM      3  C   UNL d   1       6.882   4.743 -12.455  0.00  0.00     0.007 A 
ATOM      4  C   UNL d   1       8.261   4.886 -12.696  0.00  0.00     0.040 A 
ATOM      5  C   UNL d   1       8.898   4.153 -13.757  0.00  0.00     0.061 A 
ATOM      6  C   UNL d   1       8.143   3.230 -14.525  0.00  0.00     0.073 A 
ATOM      7  C   UNL d   1       6.778   3.072 -14.217  0.00  0.00     0.014 A 
ATOM      8  N   UNL d   1       8.678   2.487 -15.629  0.00  0.00    -0.255 N 
ATOM      9  C   UNL d   1      10.164   2.385 -15.621  0.00  0.00     0.105 C 
ATOM     10  C   UNL d   1      10.641   1.259 -14.680  0.00  0.00     0.026 C 
ATOM     11  C   UNL d   1      10.868   3.683 -15.313  0.00  0.00     0.093 C 
ATOM     12  C   UNL d   1      10.363   4.274 -14.023  0.00  0.00     0.177 C 
ATOM     13  O   UNL d   1      11.208   4.776 -13.295  0.00  0.00    -0.291 OA
ENDROOT
BRANCH   8  14
ATOM     14  S   UNL d   1       7.770   1.277 -16.533  0.00  0.00     0.268 S 
ATOM     15  O   UNL d   1       7.530   0.183 -15.618  0.00  0.00    -0.200 OA
ATOM     16  O   UNL d   1       6.648   1.956 -17.231  0.00  0.00    -0.200 OA
BRANCH  14  17
ATOM     17  C   UNL d   1       8.843   0.752 -17.828  0.00  0.00     0.104 A 
ATOM     18  C   UNL d   1       8.799   1.444 -19.048  0.00  0.00     0.013 A 
ATOM     19  C   UNL d   1       9.654   1.058 -20.085  0.00  0.00     0.001 A 
ATOM     20  C   UNL d   1      10.568  -0.007 -19.871  0.00  0.00     0.000 A 
ATOM     21  C   UNL d   1       9.601   1.728 -21.321  0.00  0.00     0.000 A 
ATOM     22  C   UNL d   1      10.612  -0.690 -18.635  0.00  0.00     0.001 A 
ATOM     23  C   UNL d   1      11.424  -0.395 -20.909  0.00  0.00     0.000 A 
ATOM     24  C   UNL d   1       9.717  -0.335 -17.616  0.00  0.00     0.013 A 
ATOM     25  C   UNL d   1      11.357   0.254 -22.153  0.00  0.00     0.000 A 
ATOM     26  C   UNL d   1      10.452   1.313 -22.359  0.00  0.00     0.000 A 
ENDBRANCH  14  17
ENDBRANCH   8  14
BRANCH   4  27
ATOM     27  N   UNL d   1       8.992   5.728 -11.849  0.00  0.00    -0.248 NA
ATOM     28  C   UNL d   1       9.034   5.262 -10.468  0.00  0.00     0.112 C 
ATOM     29  C   UNL d   1      10.041   6.116  -9.666  0.00  0.00     0.268 C 
ATOM     30  N   UNL d   1       9.668   7.527  -9.730  0.00  0.00     0.142 N 
ATOM     31  C   UNL d   1       9.634   7.997 -11.126  0.00  0.00     0.268 C 
ATOM     32  C   UNL d   1      10.577   8.337  -8.956  0.00  0.00     0.285 C 
ATOM     33  C   UNL d   1       8.646   7.141 -11.953  0.00  0.00     0.112 C 
ENDBRANCH   4  27
TORSDOF 3
