REMARK  4 active torsions:
REMARK  status: ('A' for Active; 'I' for Inactive)
REMARK    1  A    between atoms: O_2  and  C_3 
REMARK    2  A    between atoms: C_12  and  N_13 
REMARK       I    between atoms: N_13  and  C_14 
REMARK    3  A    between atoms: N_21  and  S_22 
REMARK    4  A    between atoms: S_22  and  C_25 
ROOT
ATOM      1  C   UNL d   1      11.224   2.542 -15.343  0.00  0.00     0.094 A 
ATOM      2  C   UNL d   1      11.779   3.741 -14.879  0.00  0.00     0.026 A 
ATOM      3  C   UNL d   1      10.986   4.653 -14.171  0.00  0.00     0.020 A 
ATOM      4  C   UNL d   1       9.648   4.361 -13.861  0.00  0.00     0.075 A 
ATOM      5  C   UNL d   1       9.054   3.148 -14.323  0.00  0.00     0.022 A 
ATOM      6  C   UNL d   1       9.888   2.238 -15.018  0.00  0.00     0.026 A 
ATOM      7  C   UNL d   1       7.678   3.121 -13.924  0.00  0.00     0.039 A 
ATOM      8  C   UNL d   1       6.755   2.018 -14.068  0.00  0.00     0.115 C 
ATOM      9  N   UNL d   1       7.021   0.866 -14.788  0.00  0.00    -0.058 NA
ATOM     10  C   UNL d   1       5.932   0.092 -14.702  0.00  0.00     0.752 C 
ATOM     11  N   UNL d   1       5.027   0.550 -13.850  0.00  0.00    -0.062 NA
ATOM     12  C   UNL d   1       5.521   1.823 -13.522  0.00  0.00     0.096 C 
ATOM     13  C   UNL d   1       4.669   2.818 -12.798  0.00  0.00     0.054 C 
ATOM     14  C   UNL d   1       7.478   4.294 -13.247  0.00  0.00     0.093 A 
ATOM     15  N   UNL d   1       8.638   5.033 -13.163  0.00  0.00    -0.231 N 
ENDROOT
BRANCH  15  16
ATOM     16  S   UNL d   1       8.687   6.555 -12.336  0.00  0.00     0.271 S 
ATOM     17  O   UNL d   1       9.843   7.261 -12.836  0.00  0.00    -0.200 OA
ATOM     18  O   UNL d   1       7.298   7.052 -12.458  0.00  0.00    -0.200 OA
BRANCH  16  19
ATOM     19  C   UNL d   1       9.060   6.232 -10.644  0.00  0.00     0.104 A 
ATOM     20  C   UNL d   1       9.846   7.139  -9.860  0.00  0.00     0.012 A 
ATOM     21  C   UNL d   1      10.132   6.786  -8.529  0.00  0.00     0.001 A 
ATOM     22  C   UNL d   1      10.350   8.387 -10.291  0.00  0.00     0.001 A 
ATOM     23  C   UNL d   1       9.641   5.584  -8.039  0.00  0.00     0.000 A 
ATOM     24  C   UNL d   1      10.877   7.602  -7.660  0.00  0.00     0.000 A 
ATOM     25  C   UNL d   1       8.934   4.668  -8.814  0.00  0.00     0.001 A 
ATOM     26  C   UNL d   1       8.632   4.997 -10.133  0.00  0.00     0.013 A 
ATOM     27  C   UNL d   1      11.377   8.821  -8.123  0.00  0.00     0.000 A 
ATOM     28  C   UNL d   1      11.117   9.192  -9.446  0.00  0.00     0.000 A 
ENDBRANCH  16  19
ENDBRANCH  15  16
BRANCH   1  29
ATOM     29  O   UNL d   1      12.018   1.765 -16.148  0.00  0.00    -0.328 OA
ATOM     30  C   UNL d   1      11.455   0.611 -16.741  0.00  0.00     0.181 C 
ENDBRANCH   1  29
BRANCH  10  31
ATOM     31  N   UNL d   1       5.860  -1.138 -15.390  0.00  0.00    -0.023 NA
ATOM     32  C   UNL d   1       4.825  -1.658 -16.071  0.00  0.00     0.273 C 
ATOM     33  C   UNL d   1       5.160  -2.932 -16.845  0.00  0.00     0.101 C 
ATOM     34  O   UNL d   1       3.697  -1.177 -16.122  0.00  0.00    -0.270 OA
ENDBRANCH  10  31
TORSDOF 4
