REMARK  4 active torsions:
REMARK  status: ('A' for Active; 'I' for Inactive)
REMARK    1  A    between atoms: C_12  and  C_13 
REMARK    2  A    between atoms: C_13  and  N_14 
REMARK    3  A    between atoms: N_14  and  C_15 
REMARK    4  A    between atoms: C_15  and  C_16 
ROOT
ATOM      1  N   UNL d   1       9.269   6.027 -12.816  0.00  0.00     0.342 N 
ENDROOT
BRANCH   1   2
ATOM      2  C   UNL d   1       9.206   4.656 -12.312  0.00  0.00     0.323 C 
BRANCH   2   3
ATOM      3  C   UNL d   1       9.607   3.580 -13.316  0.00  0.00     0.188 C 
ATOM      4  C   UNL d   1       8.472   3.097 -14.211  0.00  0.00     0.181 C 
ATOM      5  O   UNL d   1       8.907   2.034 -15.074  0.00  0.00    -0.326 OA
ATOM      6  C   UNL d   1      10.143   2.259 -15.647  0.00  0.00     0.114 A 
ATOM      7  C   UNL d   1      10.618   1.486 -16.746  0.00  0.00     0.029 A 
ATOM      8  C   UNL d   1      11.009   3.294 -15.172  0.00  0.00     0.116 A 
ATOM      9  C   UNL d   1      10.018   0.322 -17.488  0.00  0.00     0.120 A 
ATOM     10  C   UNL d   1      11.850   1.805 -17.311  0.00  0.00     0.083 A 
ATOM     11  C   UNL d   1      11.136   0.083 -18.523  0.00  0.00     0.260 A 
ATOM     12  O   UNL d   1      11.088  -0.809 -19.369  0.00  0.00    -0.270 OA
ATOM     13  N   UNL d   1      12.136   0.956 -18.369  0.00  0.00    -0.212 NA
ATOM     14  C   UNL d   1      12.677   2.841 -16.898  0.00  0.00     0.021 A 
ATOM     15  C   UNL d   1      12.236   3.581 -15.801  0.00  0.00     0.028 A 
ATOM     16  O   UNL d   1      10.676   4.065 -14.105  0.00  0.00    -0.327 OA
ENDBRANCH   2   3
ENDBRANCH   1   2
BRANCH   1  17
ATOM     17  C   UNL d   1       8.890   7.014 -11.792  0.00  0.00     0.291 C 
BRANCH  17  18
ATOM     18  C   UNL d   1       9.704   6.897 -10.461  0.00  0.00     0.042 C 
ATOM     19  C   UNL d   1      10.015   8.268  -9.840  0.00  0.00     0.048 C 
ATOM     20  C   UNL d   1      10.476   8.174  -8.442  0.00  0.00     0.055 A 
ATOM     21  C   UNL d   1      10.418   7.075  -7.619  0.00  0.00    -0.007 A 
ATOM     22  N   UNL d   1      11.024   9.230  -7.758  0.00  0.00    -0.250 NA
ATOM     23  C   UNL d   1       9.852   5.780  -8.122  0.00  0.00     0.028 C 
ATOM     24  C   UNL d   1      10.983   7.496  -6.321  0.00  0.00     0.017 A 
ATOM     25  C   UNL d   1       9.018   5.992  -9.392  0.00  0.00     0.007 C 
ATOM     26  C   UNL d   1      11.331   8.879  -6.481  0.00  0.00     0.081 A 
ATOM     27  C   UNL d   1      11.254   6.952  -5.049  0.00  0.00     0.031 A 
ATOM     28  C   UNL d   1      11.888   9.673  -5.472  0.00  0.00     0.021 A 
ATOM     29  C   UNL d   1      12.147   9.091  -4.222  0.00  0.00     0.031 A 
ATOM     30  C   UNL d   1      11.835   7.724  -4.013  0.00  0.00     0.140 A 
ATOM     31  F   UNL d   1      12.064   7.154  -2.794  0.00  0.00    -0.204 F 
ENDBRANCH  17  18
ENDBRANCH   1  17
TORSDOF 4
