REMARK  6 active torsions:
REMARK  status: ('A' for Active; 'I' for Inactive)
REMARK    1  A    between atoms: C_5  and  O_6 
REMARK    2  A    between atoms: O_6  and  C_7 
REMARK    3  A    between atoms: C_7  and  C_8 
REMARK    4  A    between atoms: C_8  and  C_9 
REMARK    5  A    between atoms: C_9  and  N_10 
REMARK    6  A    between atoms: C_13  and  C_14 
ROOT
ATOM      1  N   UNL d   1       9.254   5.396 -10.374  0.00  0.00     0.137 N 
ATOM      2  C   UNL d   1       8.259   5.391  -9.305  0.00  0.00     0.251 C 
ATOM      3  C   UNL d   1       8.887   5.888  -7.997  0.00  0.00     0.040 C 
ATOM      4  C   UNL d   1       9.481   7.306  -8.136  0.00  0.00     0.026 C 
ATOM      5  C   UNL d   1      10.390   7.348  -9.365  0.00  0.00     0.040 C 
ATOM      6  C   UNL d   1       9.665   6.787 -10.594  0.00  0.00     0.251 C 
ENDROOT
BRANCH   1   7
ATOM      7  C   UNL d   1       8.637   4.885 -11.597  0.00  0.00     0.253 C 
BRANCH   7   8
ATOM      8  C   UNL d   1       9.710   4.441 -12.606  0.00  0.00     0.068 C 
BRANCH   8   9
ATOM      9  C   UNL d   1       9.108   4.163 -13.989  0.00  0.00     0.151 C 
BRANCH   9  10
ATOM     10  O   UNL d   1      10.159   3.746 -14.855  0.00  0.00    -0.331 OA
BRANCH  10  11
ATOM     11  C   UNL d   1      10.153   2.494 -15.427  0.00  0.00     0.094 A 
ATOM     12  C   UNL d   1      11.213   2.172 -16.312  0.00  0.00     0.026 A 
ATOM     13  C   UNL d   1      11.267   0.928 -16.968  0.00  0.00     0.032 A 
ATOM     14  C   UNL d   1      10.249  -0.021 -16.744  0.00  0.00     0.140 A 
ATOM     15  F   UNL d   1      10.278  -1.218 -17.373  0.00  0.00    -0.204 F 
ATOM     16  C   UNL d   1       9.198   0.286 -15.854  0.00  0.00     0.032 A 
ATOM     17  C   UNL d   1       9.146   1.520 -15.197  0.00  0.00     0.026 A 
ENDBRANCH  10  11
ENDBRANCH   9  10
ENDBRANCH   8   9
ENDBRANCH   7   8
ENDBRANCH   1   7
BRANCH   4  18
ATOM     18  C   UNL d   1      10.214   7.783  -6.888  0.00  0.00    -0.022 A 
ATOM     19  C   UNL d   1      10.817   6.862  -5.997  0.00  0.00    -0.003 A 
ATOM     20  C   UNL d   1      11.462   7.308  -4.837  0.00  0.00     0.011 A 
ATOM     21  C   UNL d   1      11.557   8.684  -4.567  0.00  0.00     0.058 A 
ATOM     22  C   UNL d   1      10.998   9.621  -5.463  0.00  0.00     0.011 A 
ATOM     23 CL   UNL d   1      12.352   9.190  -3.132  0.00  0.00    -0.082 Cl
ATOM     24  C   UNL d   1      10.319   9.164  -6.612  0.00  0.00    -0.003 A 
ENDBRANCH   4  18
TORSDOF 6
