REMARK  4 active torsions:
REMARK  status: ('A' for Active; 'I' for Inactive)
REMARK    1  A    between atoms: N_5  and  C_6 
REMARK    2  A    between atoms: N_15  and  N_16 
REMARK       I    between atoms: N_16  and  C_17 
REMARK    3  A    between atoms: C_17  and  C_19 
REMARK    4  A    between atoms: C_24  and  N_25 
ROOT
ATOM      1  C   UNL d   1       8.802   2.400 -16.752  0.00  0.00     0.142 C 
ATOM      2  N   UNL d   1       8.027   1.381 -16.992  0.00  0.00    -0.227 NA
ATOM      3  C   UNL d   1       7.677   0.867 -18.253  0.00  0.00     0.101 A 
ATOM      4  C   UNL d   1       6.401   0.252 -18.350  0.00  0.00     0.032 A 
ATOM      5  C   UNL d   1       5.992  -0.390 -19.536  0.00  0.00     0.059 A 
ATOM      6 CL   UNL d   1       4.435  -1.125 -19.630  0.00  0.00    -0.082 Cl
ATOM      7  C   UNL d   1       6.854  -0.444 -20.648  0.00  0.00     0.013 A 
ATOM      8  C   UNL d   1       8.120   0.154 -20.567  0.00  0.00     0.022 A 
ATOM      9  C   UNL d   1       8.546   0.810 -19.390  0.00  0.00     0.101 A 
ATOM     10  N   UNL d   1       9.807   1.435 -19.413  0.00  0.00    -0.225 N 
ATOM     11  C   UNL d   1       9.943   2.779 -19.040  0.00  0.00     0.086 A 
ATOM     12  C   UNL d   1      10.620   3.671 -19.914  0.00  0.00     0.019 A 
ATOM     13  C   UNL d   1      10.709   5.045 -19.627  0.00  0.00     0.002 A 
ATOM     14  C   UNL d   1      10.109   5.552 -18.471  0.00  0.00     0.000 A 
ATOM     15  C   UNL d   1       9.457   4.676 -17.594  0.00  0.00     0.004 A 
ATOM     16  C   UNL d   1       9.396   3.272 -17.828  0.00  0.00     0.051 A 
ENDROOT
BRANCH  10  17
ATOM     17  N   UNL d   1      10.966   0.710 -19.694  0.00  0.00    -0.123 NA
ATOM     18  C   UNL d   1      11.491   0.582 -20.927  0.00  0.00     0.297 C 
ATOM     19  O   UNL d   1      10.972   0.961 -21.976  0.00  0.00    -0.264 OA
BRANCH  18  20
ATOM     20  C   UNL d   1      12.852  -0.050 -20.952  0.00  0.00     0.075 A 
ATOM     21  C   UNL d   1      13.963   0.521 -20.285  0.00  0.00     0.070 A 
ATOM     22  C   UNL d   1      15.237  -0.065 -20.470  0.00  0.00     0.018 A 
ATOM     23  C   UNL d   1      15.388  -1.216 -21.278  0.00  0.00     0.002 A 
ATOM     24  C   UNL d   1      14.284  -1.793 -21.916  0.00  0.00     0.000 A 
ATOM     25  C   UNL d   1      13.014  -1.211 -21.761  0.00  0.00     0.006 A 
BRANCH  21  26
ATOM     26  N   UNL d   1      13.880   1.684 -19.455  0.00  0.00    -0.286 N 
ATOM     27  C   UNL d   1      14.657   2.748 -19.712  0.00  0.00     0.183 A 
ATOM     28  N   UNL d   1      14.454   3.768 -18.883  0.00  0.00    -0.222 NA
ATOM     29  C   UNL d   1      13.455   3.292 -18.018  0.00  0.00     0.120 A 
ATOM     30  C   UNL d   1      13.122   1.991 -18.327  0.00  0.00     0.102 A 
ENDBRANCH  21  26
ENDBRANCH  18  20
ENDBRANCH  10  17
BRANCH   1  31
ATOM     31  N   UNL d   1       9.148   2.767 -15.450  0.00  0.00    -0.330 N 
ATOM     32  C   UNL d   1      10.453   3.307 -15.050  0.00  0.00     0.138 C 
ATOM     33  C   UNL d   1      10.272   4.613 -14.248  0.00  0.00     0.274 C 
ATOM     34  N   UNL d   1       9.446   4.357 -13.063  0.00  0.00     0.143 N 
ATOM     35  C   UNL d   1       9.280   5.606 -12.323  0.00  0.00     0.286 C 
ATOM     36  C   UNL d   1       8.127   3.874 -13.493  0.00  0.00     0.274 C 
ATOM     37  C   UNL d   1       8.278   2.563 -14.290  0.00  0.00     0.138 C 
ENDBRANCH   1  31
TORSDOF 4
