REMARK  10 active torsions:
REMARK  status: ('A' for Active; 'I' for Inactive)
REMARK    1  A    between atoms: O_2  and  C_3 
REMARK    2  A    between atoms: C_7  and  C_8 
REMARK    3  A    between atoms: C_8  and  C_9 
REMARK    4  A    between atoms: C_9  and  C_10 
REMARK    5  A    between atoms: C_15  and  O_16 
REMARK    6  A    between atoms: O_16  and  C_17 
REMARK    7  A    between atoms: C_17  and  C_18 
REMARK    8  A    between atoms: C_18  and  C_19 
REMARK    9  A    between atoms: C_19  and  C_20 
REMARK   10  A    between atoms: C_20  and  N_21 
ROOT
ATOM      1  C   UNL d   1       9.320   2.627 -15.065  0.00  0.00     0.001 A 
ATOM      2  C   UNL d   1      10.206   1.989 -15.964  0.00  0.00    -0.002 A 
ATOM      3  C   UNL d   1      11.535   2.429 -16.092  0.00  0.00    -0.000 A 
ATOM      4  C   UNL d   1      11.977   3.527 -15.344  0.00  0.00     0.002 A 
ATOM      5  C   UNL d   1      11.098   4.181 -14.462  0.00  0.00     0.024 A 
ATOM      6  C   UNL d   1       9.753   3.757 -14.314  0.00  0.00     0.090 A 
ENDROOT
BRANCH   6   7
ATOM      7  O   UNL d   1       8.827   4.392 -13.506  0.00  0.00    -0.331 OA
BRANCH   7   8
ATOM      8  C   UNL d   1       9.159   5.549 -12.742  0.00  0.00     0.149 C 
BRANCH   8   9
ATOM      9  C   UNL d   1       9.036   5.228 -11.254  0.00  0.00     0.035 C 
BRANCH   9  10
ATOM     10  C   UNL d   1       9.575   6.366 -10.388  0.00  0.00     0.038 C 
BRANCH  10  11
ATOM     11  C   UNL d   1       9.510   6.043  -8.888  0.00  0.00     0.251 C 
BRANCH  11  12
ATOM     12  N   UNL d   1      10.244   7.021  -8.079  0.00  0.00     0.142 N 
ATOM     13  C   UNL d   1      10.324   6.516  -6.703  0.00  0.00     0.276 C 
ATOM     14  C   UNL d   1      10.974   7.475  -5.716  0.00  0.00     0.007 A 
ATOM     15  C   UNL d   1      11.020   8.842  -6.026  0.00  0.00    -0.022 A 
ATOM     16  C   UNL d   1      11.474   7.028  -4.481  0.00  0.00    -0.003 A 
ATOM     17  C   UNL d   1      10.475   9.307  -7.343  0.00  0.00     0.061 C 
ATOM     18  C   UNL d   1      11.548   9.771  -5.118  0.00  0.00    -0.004 A 
ATOM     19  C   UNL d   1       9.555   8.306  -8.051  0.00  0.00     0.255 C 
ATOM     20  C   UNL d   1      12.062   9.326  -3.889  0.00  0.00    -0.000 A 
ATOM     21  C   UNL d   1      12.030   7.953  -3.574  0.00  0.00    -0.000 A 
ENDBRANCH  11  12
ENDBRANCH  10  11
ENDBRANCH   9  10
ENDBRANCH   8   9
ENDBRANCH   7   8
ENDBRANCH   6   7
BRANCH   1  22
ATOM     22  C   UNL d   1       7.887   2.099 -14.967  0.00  0.00     0.033 C 
BRANCH  22  23
ATOM     23  C   UNL d   1       7.808   0.571 -14.748  0.00  0.00     0.031 C 
BRANCH  23  24
ATOM     24  C   UNL d   1       6.447   0.013 -15.107  0.00  0.00    -0.020 A 
ATOM     25  C   UNL d   1       5.439  -0.079 -14.128  0.00  0.00    -0.004 A 
ATOM     26  C   UNL d   1       4.192  -0.632 -14.459  0.00  0.00     0.002 A 
ATOM     27  C   UNL d   1       3.952  -1.121 -15.758  0.00  0.00     0.024 A 
ATOM     28  C   UNL d   1       4.969  -1.049 -16.748  0.00  0.00     0.094 A 
ATOM     29  C   UNL d   1       6.193  -0.446 -16.419  0.00  0.00     0.020 A 
BRANCH  28  30
ATOM     30  O   UNL d   1       4.798  -1.531 -18.027  0.00  0.00    -0.328 OA
ATOM     31  C   UNL d   1       4.066  -2.743 -18.161  0.00  0.00     0.181 C 
ENDBRANCH  28  30
ENDBRANCH  23  24
ENDBRANCH  22  23
ENDBRANCH   1  22
TORSDOF 10
