REMARK  8 active torsions:
REMARK  status: ('A' for Active; 'I' for Inactive)
REMARK    1  A    between atoms: O_2  and  C_3 
REMARK    2  A    between atoms: C_7  and  C_8 
REMARK       I    between atoms: C_8  and  N_10 
REMARK    3  A    between atoms: N_10  and  C_11 
REMARK    4  A    between atoms: C_11  and  C_12 
REMARK    5  A    between atoms: C_12  and  C_13 
REMARK    6  A    between atoms: C_13  and  C_14 
REMARK    7  A    between atoms: C_14  and  N_15 
REMARK    8  A    between atoms: N_18  and  C_19 
ROOT
ATOM      1  C   UNL d   1       9.277   5.286 -11.795  0.00  0.00     0.037 C 
ENDROOT
BRANCH   1   2
ATOM      2  C   UNL d   1       9.136   4.002 -12.612  0.00  0.00     0.029 C 
BRANCH   2   3
ATOM      3  C   UNL d   1       9.415   4.215 -14.109  0.00  0.00     0.129 C 
BRANCH   3   4
ATOM      4  N   UNL d   1       9.262   2.991 -14.880  0.00  0.00    -0.234 NA
ATOM      5  C   UNL d   1       8.117   2.309 -15.062  0.00  0.00     0.275 C 
ATOM      6  O   UNL d   1       7.059   2.587 -14.506  0.00  0.00    -0.266 OA
BRANCH   5   7
ATOM      7  C   UNL d   1       8.179   1.223 -16.097  0.00  0.00     0.059 A 
ATOM      8  C   UNL d   1       6.992   0.763 -16.712  0.00  0.00     0.005 A 
ATOM      9  C   UNL d   1       7.045  -0.258 -17.680  0.00  0.00     0.002 A 
ATOM     10  C   UNL d   1       8.282  -0.823 -18.044  0.00  0.00     0.024 A 
ATOM     11  C   UNL d   1       9.477  -0.362 -17.459  0.00  0.00     0.094 A 
ATOM     12  C   UNL d   1       9.411   0.631 -16.453  0.00  0.00     0.029 A 
BRANCH  11  13
ATOM     13  O   UNL d   1      10.660  -0.928 -17.869  0.00  0.00    -0.328 OA
ATOM     14  C   UNL d   1      11.777  -0.051 -17.969  0.00  0.00     0.181 C 
ENDBRANCH  11  13
ENDBRANCH   5   7
ENDBRANCH   3   4
ENDBRANCH   2   3
ENDBRANCH   1   2
BRANCH   1  15
ATOM     15  C   UNL d   1       9.008   5.037 -10.302  0.00  0.00     0.251 C 
BRANCH  15  16
ATOM     16  N   UNL d   1       9.238   6.239  -9.505  0.00  0.00     0.141 N 
ATOM     17  C   UNL d   1       8.534   6.120  -8.226  0.00  0.00     0.274 C 
ATOM     18  C   UNL d   1       8.732   7.394  -7.372  0.00  0.00     0.137 C 
ATOM     19  N   UNL d   1      10.149   7.662  -7.205  0.00  0.00    -0.344 N 
ATOM     20  C   UNL d   1      10.930   7.703  -8.421  0.00  0.00     0.137 C 
ATOM     21  C   UNL d   1      10.661   6.426  -9.238  0.00  0.00     0.274 C 
BRANCH  19  22
ATOM     22  C   UNL d   1      10.741   7.886  -5.957  0.00  0.00     0.056 A 
ATOM     23  C   UNL d   1      10.844   9.193  -5.444  0.00  0.00     0.018 A 
ATOM     24  C   UNL d   1      11.443   9.411  -4.183  0.00  0.00     0.013 A 
ATOM     25  C   UNL d   1      11.948   8.326  -3.439  0.00  0.00     0.058 A 
ATOM     26  C   UNL d   1      11.858   7.022  -3.956  0.00  0.00     0.013 A 
ATOM     27 CL   UNL d   1      12.656   8.580  -1.893  0.00  0.00    -0.082 Cl
ATOM     28  C   UNL d   1      11.254   6.807  -5.214  0.00  0.00     0.018 A 
ENDBRANCH  19  22
ENDBRANCH  15  16
ENDBRANCH   1  15
TORSDOF 8
