REMARK  7 active torsions:
REMARK  status: ('A' for Active; 'I' for Inactive)
REMARK       I    between atoms: C_2  and  N_4 
REMARK    1  A    between atoms: N_4  and  C_5 
REMARK    2  A    between atoms: C_9  and  O_10 
REMARK    3  A    between atoms: O_10  and  C_11 
REMARK    4  A    between atoms: C_11  and  C_12 
REMARK    5  A    between atoms: C_12  and  C_13 
REMARK    6  A    between atoms: C_13  and  N_14 
REMARK    7  A    between atoms: C_17  and  C_18 
ROOT
ATOM      1  N   UNL d   1       8.835   5.989  -9.636  0.00  0.00     0.137 N 
ATOM      2  C   UNL d   1      10.251   6.324  -9.751  0.00  0.00     0.251 C 
ATOM      3  C   UNL d   1      10.677   7.358  -8.706  0.00  0.00     0.041 C 
ATOM      4  C   UNL d   1      10.358   6.875  -7.279  0.00  0.00     0.047 C 
ATOM      5  C   UNL d   1       8.890   6.441  -7.211  0.00  0.00     0.041 C 
ATOM      6  C   UNL d   1       8.559   5.426  -8.316  0.00  0.00     0.251 C 
ENDROOT
BRANCH   1   7
ATOM      7  C   UNL d   1       8.453   5.049 -10.687  0.00  0.00     0.253 C 
BRANCH   7   8
ATOM      8  C   UNL d   1       8.269   5.743 -12.049  0.00  0.00     0.068 C 
BRANCH   8   9
ATOM      9  C   UNL d   1       7.975   4.710 -13.140  0.00  0.00     0.151 C 
BRANCH   9  10
ATOM     10  O   UNL d   1       9.212   4.152 -13.582  0.00  0.00    -0.331 OA
BRANCH  10  11
ATOM     11  C   UNL d   1       9.214   2.929 -14.222  0.00  0.00     0.096 A 
ATOM     12  C   UNL d   1      10.464   2.438 -14.656  0.00  0.00     0.024 A 
ATOM     13  C   UNL d   1      10.563   1.173 -15.267  0.00  0.00     0.004 A 
ATOM     14  C   UNL d   1       9.415   0.378 -15.431  0.00  0.00     0.019 A 
ATOM     15  C   UNL d   1       8.155   0.846 -14.996  0.00  0.00     0.086 A 
ATOM     16  C   UNL d   1       8.057   2.140 -14.437  0.00  0.00     0.043 A 
BRANCH  15  17
ATOM     17  N   UNL d   1       7.032  -0.009 -15.172  0.00  0.00    -0.212 NA
ATOM     18  C   UNL d   1       5.852  -0.023 -14.521  0.00  0.00     0.256 C 
ATOM     19  C   UNL d   1       4.880  -1.117 -14.944  0.00  0.00     0.100 C 
ATOM     20  O   UNL d   1       5.524   0.754 -13.624  0.00  0.00    -0.270 OA
ENDBRANCH  15  17
ENDBRANCH  10  11
ENDBRANCH   9  10
ENDBRANCH   8   9
ENDBRANCH   7   8
ENDBRANCH   1   7
BRANCH   4  21
ATOM     21  C   UNL d   1      10.668   7.947  -6.260  0.00  0.00     0.087 A 
ATOM     22  C   UNL d   1      11.310   7.895  -5.003  0.00  0.00     0.041 A 
ATOM     23  C   UNL d   1      11.334   9.178  -4.446  0.00  0.00     0.129 A 
ATOM     24  C   UNL d   1      11.847   6.815  -4.270  0.00  0.00     0.006 A 
ATOM     25  O   UNL d   1      10.697   9.989  -5.366  0.00  0.00    -0.211 OA
ATOM     26  C   UNL d   1      11.872   9.459  -3.187  0.00  0.00     0.057 A 
ATOM     27  N   UNL d   1      10.266   9.199  -6.468  0.00  0.00    -0.131 NA
ATOM     28  C   UNL d   1      12.412   8.381  -2.455  0.00  0.00     0.142 A 
ATOM     29  F   UNL d   1      12.966   8.602  -1.239  0.00  0.00    -0.204 F 
ATOM     30  C   UNL d   1      12.391   7.068  -2.988  0.00  0.00     0.030 A 
ENDBRANCH   4  21
TORSDOF 7
