REMARK  6 active torsions:
REMARK  status: ('A' for Active; 'I' for Inactive)
REMARK    1  A    between atoms: C_4  and  C_5 
REMARK    2  A    between atoms: C_5  and  C_6 
REMARK    3  A    between atoms: C_6  and  C_7 
REMARK    4  A    between atoms: C_7  and  N_8 
REMARK    5  A    between atoms: N_11  and  C_12 
REMARK    6  A    between atoms: C_12  and  C_13 
ROOT
ATOM      1  N   UNL d   1       9.688   7.583  -9.829  0.00  0.00     0.141 N 
ATOM      2  C   UNL d   1       9.446   8.110 -11.159  0.00  0.00     0.285 C 
ATOM      3  C   UNL d   1       8.611   7.144 -12.030  0.00  0.00     0.286 C 
ATOM      4  N   UNL d   1       9.261   5.848 -12.169  0.00  0.00     0.146 N 
ATOM      5  C   UNL d   1       9.472   5.301 -10.835  0.00  0.00     0.286 C 
ATOM      6  C   UNL d   1      10.305   6.263  -9.950  0.00  0.00     0.285 C 
ENDROOT
BRANCH   1   7
ATOM      7  C   UNL d   1      10.400   8.549  -9.000  0.00  0.00     0.251 C 
BRANCH   7   8
ATOM      8  C   UNL d   1      10.413   8.173  -7.523  0.00  0.00     0.040 C 
BRANCH   8   9
ATOM      9  C   UNL d   1      11.277   9.094  -6.644  0.00  0.00     0.028 C 
BRANCH   9  10
ATOM     10  C   UNL d   1      11.478   8.596  -5.208  0.00  0.00    -0.022 A 
ATOM     11  C   UNL d   1      11.567   9.532  -4.155  0.00  0.00    -0.004 A 
ATOM     12  C   UNL d   1      11.844   9.103  -2.836  0.00  0.00    -0.000 A 
ATOM     13  C   UNL d   1      11.959   7.730  -2.554  0.00  0.00    -0.000 A 
ATOM     14  C   UNL d   1      11.862   6.789  -3.588  0.00  0.00    -0.000 A 
ATOM     15  C   UNL d   1      11.646   7.218  -4.908  0.00  0.00    -0.004 A 
ENDBRANCH   9  10
ENDBRANCH   8   9
ENDBRANCH   7   8
ENDBRANCH   1   7
BRANCH   4  16
ATOM     16  C   UNL d   1       8.506   4.934 -13.024  0.00  0.00     0.277 C 
BRANCH  16  17
ATOM     17  C   UNL d   1       9.387   3.960 -13.788  0.00  0.00     0.011 A 
ATOM     18  C   UNL d   1       8.936   2.646 -14.045  0.00  0.00    -0.002 A 
ATOM     19  C   UNL d   1       9.727   1.751 -14.788  0.00  0.00    -0.000 A 
ATOM     20  C   UNL d   1      10.975   2.165 -15.294  0.00  0.00    -0.000 A 
ATOM     21  C   UNL d   1      11.420   3.483 -15.065  0.00  0.00    -0.000 A 
ATOM     22  C   UNL d   1      10.623   4.375 -14.331  0.00  0.00    -0.002 A 
ENDBRANCH  16  17
ENDBRANCH   4  16
TORSDOF 6
