REMARK  7 active torsions:
REMARK  status: ('A' for Active; 'I' for Inactive)
REMARK    1  A    between atoms: C_6  and  N_7 
REMARK    2  A    between atoms: N_10  and  C_11 
REMARK    3  A    between atoms: C_11  and  C_12 
REMARK    4  A    between atoms: C_12  and  C_13 
REMARK    5  A    between atoms: C_16  and  N_17 
REMARK       I    between atoms: N_17  and  C_18 
REMARK    6  A    between atoms: C_18  and  C_20 
REMARK    7  A    between atoms: C_20  and  C_21 
ROOT
ATOM      1  C   UNL d   1       6.215   4.297 -12.739  0.00  0.00     0.250 C 
ENDROOT
BRANCH   1   2
ATOM      2  N   UNL d   1       6.869   3.127 -13.303  0.00  0.00     0.141 N 
ATOM      3  C   UNL d   1       7.220   3.241 -14.711  0.00  0.00     0.274 C 
ATOM      4  C   UNL d   1       7.920   2.025 -15.326  0.00  0.00     0.138 C 
ATOM      5  N   UNL d   1       7.081   0.873 -15.094  0.00  0.00    -0.330 N 
ATOM      6  C   UNL d   1       6.683   0.643 -13.726  0.00  0.00     0.138 C 
ATOM      7  C   UNL d   1       5.997   1.958 -13.176  0.00  0.00     0.274 C 
BRANCH   5   8
ATOM      8  C   UNL d   1       6.651   0.041 -16.182  0.00  0.00     0.138 A 
ATOM      9  C   UNL d   1       5.404  -0.593 -16.203  0.00  0.00     0.036 A 
ATOM     10  C   UNL d   1       5.052  -1.363 -17.305  0.00  0.00     0.094 A 
ATOM     11  C   UNL d   1       4.224  -0.554 -15.263  0.00  0.00     0.064 C 
ATOM     12  C   UNL d   1       5.961  -1.542 -18.358  0.00  0.00     0.039 A 
ATOM     13  O   UNL d   1       3.780  -1.839 -17.234  0.00  0.00    -0.331 OA
ATOM     14  C   UNL d   1       7.198  -0.867 -18.252  0.00  0.00     0.063 A 
ATOM     15  C   UNL d   1       8.256  -1.055 -19.322  0.00  0.00     0.052 C 
ATOM     16  N   UNL d   1       7.512  -0.058 -17.208  0.00  0.00    -0.233 NA
ATOM     17  C   UNL d   1       3.261  -1.522 -15.937  0.00  0.00     0.154 C 
ENDBRANCH   5   8
ENDBRANCH   1   2
BRANCH   1  18
ATOM     18  C   UNL d   1       7.117   5.570 -12.797  0.00  0.00     0.035 C 
BRANCH  18  19
ATOM     19  C   UNL d   1       8.301   5.631 -11.797  0.00  0.00     0.002 C 
ATOM     20  C   UNL d   1       7.840   5.311 -10.369  0.00  0.00     0.002 C 
ATOM     21  C   UNL d   1       8.894   5.511  -9.285  0.00  0.00     0.024 C 
ATOM     22  C   UNL d   1       9.461   6.923  -9.357  0.00  0.00     0.106 C 
ATOM     23  C   UNL d   1      10.003   7.218 -10.758  0.00  0.00     0.024 C 
ATOM     24  C   UNL d   1       8.941   7.031 -11.848  0.00  0.00     0.002 C 
BRANCH  22  25
ATOM     25  N   UNL d   1      10.531   7.038  -8.399  0.00  0.00    -0.240 NA
ATOM     26  C   UNL d   1      10.379   7.604  -7.200  0.00  0.00     0.251 C 
ATOM     27  O   UNL d   1       9.323   8.090  -6.799  0.00  0.00    -0.271 OA
BRANCH  26  28
ATOM     28  C   UNL d   1      11.646   7.657  -6.365  0.00  0.00     0.090 C 
BRANCH  28  29
ATOM     29  C   UNL d   1      11.426   7.766  -4.837  0.00  0.00     0.014 C 
ATOM     30  C   UNL d   1      11.653   6.428  -4.111  0.00  0.00     0.033 C 
ATOM     31  C   UNL d   1      11.534   6.554  -2.582  0.00  0.00     0.142 C 
ATOM     32  O   UNL d   1      12.391   7.588  -2.118  0.00  0.00    -0.354 OA
ATOM     33  C   UNL d   1      12.094   8.856  -2.675  0.00  0.00     0.142 C 
ATOM     34  C   UNL d   1      12.291   8.852  -4.190  0.00  0.00     0.033 C 
ENDBRANCH  28  29
ENDBRANCH  26  28
ENDBRANCH  22  25
ENDBRANCH  18  19
ENDBRANCH   1  18
TORSDOF 7
