REMARK  7 active torsions:
REMARK  status: ('A' for Active; 'I' for Inactive)
REMARK    1  A    between atoms: C_1  and  C_2 
REMARK    2  A    between atoms: C_3  and  C_4 
REMARK    3  A    between atoms: C_10  and  O_11 
REMARK    4  A    between atoms: O_11  and  C_12 
REMARK    5  A    between atoms: C_12  and  C_13 
REMARK    6  A    between atoms: N_16  and  C_17 
REMARK    7  A    between atoms: C_17  and  C_18 
ROOT
ATOM      1  C   UNL d   1       6.712   1.941 -14.712  0.00  0.00     0.034 C 
ATOM      2  C   UNL d   1       6.266   0.794 -13.785  0.00  0.00     0.038 C 
ATOM      3  C   UNL d   1       5.178  -0.077 -14.438  0.00  0.00     0.251 C 
ATOM      4  N   UNL d   1       5.633  -0.619 -15.721  0.00  0.00     0.141 N 
ATOM      5  C   UNL d   1       5.950   0.475 -16.645  0.00  0.00     0.251 C 
ATOM      6  C   UNL d   1       7.069   1.356 -16.085  0.00  0.00     0.038 C 
ENDROOT
BRANCH   1   7
ATOM      7  C   UNL d   1       7.882   2.760 -14.139  0.00  0.00     0.149 C 
BRANCH   7   8
ATOM      8  O   UNL d   1       7.382   3.605 -13.117  0.00  0.00    -0.329 OA
BRANCH   8   9
ATOM      9  C   UNL d   1       8.351   4.339 -12.494  0.00  0.00     0.116 C 
ATOM     10  C   UNL d   1       8.105   5.023 -11.369  0.00  0.00     0.026 C 
BRANCH  10  11
ATOM     11  C   UNL d   1       9.123   5.805 -10.699  0.00  0.00     0.002 C 
ATOM     12  C   UNL d   1       8.913   6.376  -9.501  0.00  0.00     0.000 C 
BRANCH  12  13
ATOM     13  C   UNL d   1       9.861   7.203  -8.736  0.00  0.00     0.000 A 
ATOM     14  C   UNL d   1       9.516   7.582  -7.421  0.00  0.00     0.000 A 
ATOM     15  C   UNL d   1      10.399   8.358  -6.645  0.00  0.00     0.000 A 
ATOM     16  C   UNL d   1      11.636   8.764  -7.180  0.00  0.00     0.000 A 
ATOM     17  C   UNL d   1      11.989   8.389  -8.489  0.00  0.00     0.000 A 
ATOM     18  C   UNL d   1      11.103   7.616  -9.265  0.00  0.00     0.000 A 
ENDBRANCH  12  13
ENDBRANCH  10  11
ENDBRANCH   8   9
ENDBRANCH   7   8
ENDBRANCH   1   7
BRANCH   4  19
ATOM     19  C   UNL d   1       4.589  -1.492 -16.261  0.00  0.00     0.277 C 
BRANCH  19  20
ATOM     20  C   UNL d   1       4.931  -2.103 -17.609  0.00  0.00     0.011 A 
ATOM     21  C   UNL d   1       4.392  -1.549 -18.787  0.00  0.00    -0.002 A 
ATOM     22  C   UNL d   1       4.739  -2.082 -20.045  0.00  0.00    -0.000 A 
ATOM     23  C   UNL d   1       5.622  -3.177 -20.128  0.00  0.00    -0.000 A 
ATOM     24  C   UNL d   1       6.161  -3.735 -18.952  0.00  0.00    -0.000 A 
ATOM     25  C   UNL d   1       5.816  -3.199 -17.697  0.00  0.00    -0.002 A 
ENDBRANCH  19  20
ENDBRANCH   4  19
TORSDOF 7
