REMARK  7 active torsions:
REMARK  status: ('A' for Active; 'I' for Inactive)
REMARK    1  A    between atoms: O_2  and  C_3 
REMARK    2  A    between atoms: C_3  and  C_4 
REMARK       I    between atoms: C_4  and  N_6 
REMARK    3  A    between atoms: N_6  and  C_7 
REMARK    4  A    between atoms: C_10  and  C_11 
REMARK    5  A    between atoms: C_11  and  C_12 
REMARK    6  A    between atoms: C_12  and  N_13 
REMARK    7  A    between atoms: C_16  and  C_17 
ROOT
ATOM      1  N   UNL d   1       8.115   3.745 -12.896  0.00  0.00     0.137 N 
ATOM      2  C   UNL d   1       8.717   3.424 -14.176  0.00  0.00     0.251 C 
ATOM      3  C   UNL d   1       8.155   2.092 -14.705  0.00  0.00     0.040 C 
ATOM      4  C   UNL d   1       6.619   2.101 -14.811  0.00  0.00     0.026 C 
ATOM      5  C   UNL d   1       6.053   2.645 -13.473  0.00  0.00     0.040 C 
ATOM      6  C   UNL d   1       6.682   3.931 -12.999  0.00  0.00     0.251 C 
ENDROOT
BRANCH   1   7
ATOM      7  C   UNL d   1       8.765   4.860 -12.260  0.00  0.00     0.250 C 
BRANCH   7   8
ATOM      8  C   UNL d   1       8.365   5.001 -10.780  0.00  0.00     0.035 C 
BRANCH   8   9
ATOM      9  C   UNL d   1       9.450   5.709  -9.960  0.00  0.00     0.002 C 
ATOM     10  C   UNL d   1       9.849   7.074 -10.571  0.00  0.00     0.002 C 
ATOM     11  C   UNL d   1      10.898   7.808  -9.746  0.00  0.00     0.024 C 
ATOM     12  C   UNL d   1      10.443   7.971  -8.292  0.00  0.00     0.106 C 
ATOM     13  C   UNL d   1      10.116   6.595  -7.667  0.00  0.00     0.024 C 
ATOM     14  C   UNL d   1       9.053   5.854  -8.480  0.00  0.00     0.002 C 
BRANCH  12  15
ATOM     15  N   UNL d   1      11.501   8.648  -7.552  0.00  0.00    -0.238 NA
ATOM     16  C   UNL d   1      11.339   9.209  -6.356  0.00  0.00     0.282 C 
ATOM     17  O   UNL d   1      10.262   9.256  -5.775  0.00  0.00    -0.268 OA
BRANCH  16  18
ATOM     18  C   UNL d   1      12.577   9.726  -5.639  0.00  0.00     0.232 C 
BRANCH  18  19
ATOM     19  O   UNL d   1      12.470   9.565  -4.219  0.00  0.00    -0.342 OA
ATOM     20  C   UNL d   1      12.492   8.218  -3.748  0.00  0.00     0.175 C 
ENDBRANCH  18  19
ENDBRANCH  16  18
ENDBRANCH  12  15
ENDBRANCH   8   9
ENDBRANCH   7   8
ENDBRANCH   1   7
BRANCH   4  21
ATOM     21  C   UNL d   1       6.040   0.750 -15.274  0.00  0.00    -0.020 A 
ATOM     22  C   UNL d   1       6.450   0.206 -16.519  0.00  0.00     0.021 A 
ATOM     23  C   UNL d   1       5.882  -1.045 -16.895  0.00  0.00     0.100 A 
ATOM     24  C   UNL d   1       7.338   0.568 -17.605  0.00  0.00     0.028 A 
ATOM     25  C   UNL d   1       4.945  -1.740 -16.113  0.00  0.00     0.025 A 
ATOM     26  O   UNL d   1       6.420  -1.442 -18.102  0.00  0.00    -0.305 OA
ATOM     27  C   UNL d   1       4.527  -1.156 -14.911  0.00  0.00     0.002 A 
ATOM     28  C   UNL d   1       5.058   0.069 -14.497  0.00  0.00    -0.004 A 
ATOM     29  C   UNL d   1       7.298  -0.471 -18.497  0.00  0.00     0.123 A 
ENDBRANCH   4  21
TORSDOF 7
