REMARK  5 active torsions:
REMARK  status: ('A' for Active; 'I' for Inactive)
REMARK    1  A    between atoms: C_4  and  C_5 
REMARK    2  A    between atoms: C_5  and  C_6 
REMARK    3  A    between atoms: C_6  and  N_7 
REMARK    4  A    between atoms: C_10  and  C_11 
REMARK    5  A    between atoms: C_13  and  C_14 
ROOT
ATOM      1  N   UNL d   1       8.198   5.841 -11.692  0.00  0.00     0.137 N 
ATOM      2  C   UNL d   1       9.450   6.570 -11.896  0.00  0.00     0.251 C 
ATOM      3  C   UNL d   1       9.836   7.329 -10.619  0.00  0.00     0.041 C 
ATOM      4  C   UNL d   1       9.940   6.387  -9.401  0.00  0.00     0.046 C 
ATOM      5  C   UNL d   1       8.703   5.494  -9.307  0.00  0.00     0.041 C 
ATOM      6  C   UNL d   1       8.391   4.828 -10.651  0.00  0.00     0.251 C 
ENDROOT
BRANCH   4   7
ATOM      7  C   UNL d   1      10.180   7.146  -8.120  0.00  0.00     0.082 A 
ATOM      8  N   UNL d   1       9.521   8.276  -7.898  0.00  0.00    -0.152 NA
ATOM      9  N   UNL d   1       9.957   8.689  -6.700  0.00  0.00    -0.147 NA
ATOM     10  C   UNL d   1      10.841   7.807  -6.133  0.00  0.00     0.122 A 
ATOM     11  C   UNL d   1      11.007   6.781  -7.020  0.00  0.00     0.039 A 
BRANCH  10  12
ATOM     12  C   UNL d   1      11.396   8.046  -4.810  0.00  0.00     0.101 A 
ATOM     13  N   UNL d   1      11.378   9.327  -4.378  0.00  0.00    -0.242 NA
ATOM     14  C   UNL d   1      11.864   9.588  -3.147  0.00  0.00     0.099 A 
ATOM     15  C   UNL d   1      12.372   8.598  -2.292  0.00  0.00     0.021 A 
ATOM     16  C   UNL d   1      12.361   7.260  -2.729  0.00  0.00     0.003 A 
ATOM     17  C   UNL d   1      11.860   6.980  -4.012  0.00  0.00     0.021 A 
ENDBRANCH  10  12
ENDBRANCH   4   7
BRANCH   1  18
ATOM     18  C   UNL d   1       7.840   5.178 -12.935  0.00  0.00     0.255 C 
BRANCH  18  19
ATOM     19  C   UNL d   1       6.404   4.599 -12.918  0.00  0.00     0.062 C 
BRANCH  19  20
ATOM     20  C   UNL d   1       6.348   3.168 -13.430  0.00  0.00    -0.020 A 
ATOM     21  C   UNL d   1       7.210   2.731 -14.459  0.00  0.00    -0.004 A 
ATOM     22  C   UNL d   1       7.186   1.395 -14.899  0.00  0.00    -0.000 A 
ATOM     23  C   UNL d   1       6.293   0.478 -14.315  0.00  0.00    -0.000 A 
ATOM     24  C   UNL d   1       5.434   0.904 -13.285  0.00  0.00    -0.000 A 
ATOM     25  C   UNL d   1       5.454   2.244 -12.840  0.00  0.00    -0.004 A 
ENDBRANCH  19  20
ENDBRANCH  18  19
ENDBRANCH   1  18
TORSDOF 5
