REMARK  3 active torsions:
REMARK  status: ('A' for Active; 'I' for Inactive)
REMARK    1  A    between atoms: C_2  and  C_3 
REMARK    2  A    between atoms: C_3  and  N_4 
REMARK    3  A    between atoms: N_4  and  C_5 
ROOT
ATOM      1  C   UNL d   1      10.704   7.254  -8.194  0.00  0.00     0.258 C 
ATOM      2  C   UNL d   1      10.985   8.778  -8.338  0.00  0.00     0.038 C 
ATOM      3  C   UNL d   1      10.872   9.589  -7.035  0.00  0.00     0.027 C 
ATOM      4  C   UNL d   1      11.659   8.884  -5.947  0.00  0.00     0.116 C 
ATOM      5  N   UNL d   1      11.738   9.582  -4.672  0.00  0.00    -0.247 NA
ATOM      6  C   UNL d   1      11.955   8.710  -3.748  0.00  0.00     0.206 C 
ATOM      7  N   UNL d   1      12.226   8.983  -2.429  0.00  0.00    -0.120 N 
ATOM      8  S   UNL d   1      11.856   6.977  -4.149  0.00  0.00    -0.073 SA
ATOM      9  C   UNL d   1      11.102   7.478  -5.696  0.00  0.00     0.079 C 
ATOM     10  C   UNL d   1      11.366   6.615  -6.935  0.00  0.00     0.049 C 
ENDROOT
BRANCH   1  11
ATOM     11  N   UNL d   1       9.266   6.990  -8.211  0.00  0.00     0.337 N 
BRANCH  11  12
ATOM     12  C   UNL d   1       8.904   5.629  -8.560  0.00  0.00     0.290 C 
BRANCH  12  13
ATOM     13  C   UNL d   1       9.342   5.266  -9.982  0.00  0.00     0.038 C 
ATOM     14  C   UNL d   1       8.575   6.022 -11.069  0.00  0.00     0.002 C 
ENDBRANCH  12  13
ENDBRANCH  11  12
ENDBRANCH   1  11
TORSDOF 3
