REMARK  6 active torsions:
REMARK  status: ('A' for Active; 'I' for Inactive)
REMARK    1  A    between atoms: C_2  and  N_3 
REMARK    2  A    between atoms: N_3  and  C_4 
REMARK    3  A    between atoms: N_3  and  C_6 
REMARK    4  A    between atoms: C_6  and  C_7 
REMARK    5  A    between atoms: C_7  and  N_8 
REMARK       I    between atoms: N_8  and  C_9 
REMARK    6  A    between atoms: C_9  and  C_11 
ROOT
ATOM      1  N   UNL d   1       9.433   5.923  -8.201  0.00  0.00    -0.232 NA
ATOM      2  C   UNL d   1      10.287   6.948  -8.328  0.00  0.00     0.275 C 
ATOM      3  O   UNL d   1      10.779   7.314  -9.395  0.00  0.00    -0.266 OA
ENDROOT
BRANCH   2   4
ATOM      4  C   UNL d   1      10.661   7.637  -7.057  0.00  0.00     0.058 A 
ATOM      5  C   UNL d   1      11.059   6.890  -5.929  0.00  0.00     0.006 A 
ATOM      6  C   UNL d   1      11.453   7.540  -4.747  0.00  0.00     0.014 A 
ATOM      7  C   UNL d   1      11.461   8.949  -4.691  0.00  0.00     0.070 A 
ATOM      8  C   UNL d   1      11.081   9.703  -5.824  0.00  0.00     0.014 A 
ATOM      9  N   UNL d   1      11.840   9.585  -3.514  0.00  0.00    -0.101 NA
ATOM     10  C   UNL d   1      10.697   9.041  -7.007  0.00  0.00     0.006 A 
ENDBRANCH   2   4
BRANCH   1  11
ATOM     11  C   UNL d   1       9.112   4.984  -9.270  0.00  0.00     0.164 C 
BRANCH  11  12
ATOM     12  C   UNL d   1       8.383   5.665 -10.452  0.00  0.00     0.276 C 
BRANCH  12  13
ATOM     13  N   UNL d   1       8.210   4.819 -11.641  0.00  0.00     0.139 N 
BRANCH  13  14
ATOM     14  C   UNL d   1       7.380   5.539 -12.611  0.00  0.00     0.250 C 
ATOM     15  C   UNL d   1       5.924   5.716 -12.164  0.00  0.00     0.037 C 
ENDBRANCH  13  14
BRANCH  13  16
ATOM     16  C   UNL d   1       9.526   4.516 -12.221  0.00  0.00     0.250 C 
ATOM     17  C   UNL d   1       9.490   3.639 -13.479  0.00  0.00     0.037 C 
ENDBRANCH  13  16
ENDBRANCH  12  13
ENDBRANCH  11  12
ENDBRANCH   1  11
TORSDOF 6
