REMARK  8 active torsions:
REMARK  status: ('A' for Active; 'I' for Inactive)
REMARK    1  A    between atoms: O_2  and  C_3 
REMARK    2  A    between atoms: C_8  and  N_9 
REMARK    3  A    between atoms: N_12  and  C_13 
REMARK    4  A    between atoms: C_13  and  C_14 
REMARK    5  A    between atoms: C_14  and  C_16 
REMARK    6  A    between atoms: C_16  and  C_17 
REMARK    7  A    between atoms: C_17  and  N_18 
REMARK       I    between atoms: N_18  and  C_19 
REMARK    8  A    between atoms: C_19  and  C_21 
ROOT
ATOM      1  C   UNL d   1       7.570   4.667 -12.312  0.00  0.00     0.188 C 
ATOM      2  O   UNL d   1       6.159   4.682 -12.396  0.00  0.00    -0.221 OA
ENDROOT
BRANCH   1   3
ATOM      3  C   UNL d   1       8.144   4.917 -13.729  0.00  0.00     0.283 C 
BRANCH   3   4
ATOM      4  N   UNL d   1       9.306   4.106 -14.112  0.00  0.00     0.144 N 
ATOM      5  C   UNL d   1       9.860   4.534 -15.401  0.00  0.00     0.274 C 
ATOM      6  C   UNL d   1      11.105   3.715 -15.813  0.00  0.00     0.137 C 
ATOM      7  N   UNL d   1      10.811   2.283 -15.773  0.00  0.00    -0.343 N 
ATOM      8  C   UNL d   1      10.179   1.804 -14.550  0.00  0.00     0.137 C 
ATOM      9  C   UNL d   1       8.961   2.681 -14.218  0.00  0.00     0.274 C 
BRANCH   7  10
ATOM     10  C   UNL d   1      10.992   1.464 -16.902  0.00  0.00     0.079 A 
ATOM     11  C   UNL d   1       9.980   0.579 -17.362  0.00  0.00     0.110 A 
ATOM     12  C   UNL d   1      10.243  -0.249 -18.483  0.00  0.00     0.026 A 
ATOM     13  C   UNL d   1      11.484  -0.184 -19.148  0.00  0.00     0.002 A 
ATOM     14  C   UNL d   1      12.471   0.710 -18.707  0.00  0.00     0.002 A 
ATOM     15  C   UNL d   1      12.222   1.532 -17.591  0.00  0.00     0.019 A 
BRANCH  11  16
ATOM     16  O   UNL d   1       8.767   0.583 -16.697  0.00  0.00    -0.327 OA
ATOM     17  C   UNL d   1       7.690  -0.162 -17.229  0.00  0.00     0.181 C 
ENDBRANCH  11  16
ENDBRANCH   7  10
ENDBRANCH   3   4
ENDBRANCH   1   3
BRANCH   1  18
ATOM     18  C   UNL d   1       7.953   5.740 -11.293  0.00  0.00     0.061 C 
BRANCH  18  19
ATOM     19  C   UNL d   1       9.474   5.905 -11.153  0.00  0.00     0.132 C 
BRANCH  19  20
ATOM     20  N   UNL d   1       9.829   6.671  -9.970  0.00  0.00    -0.234 NA
ATOM     21  C   UNL d   1       9.813   6.197  -8.714  0.00  0.00     0.276 C 
ATOM     22  O   UNL d   1       9.535   5.029  -8.443  0.00  0.00    -0.266 OA
BRANCH  21  23
ATOM     23  C   UNL d   1      10.230   7.173  -7.651  0.00  0.00     0.077 A 
ATOM     24  C   UNL d   1      10.877   6.741  -6.475  0.00  0.00     0.008 A 
ATOM     25  C   UNL d   1      11.213   7.678  -5.477  0.00  0.00     0.018 A 
ATOM     26  C   UNL d   1      10.902   9.043  -5.706  0.00  0.00     0.081 A 
ATOM     27  C   UNL d   1      11.853   7.269  -4.284  0.00  0.00     0.002 A 
ATOM     28  N   UNL d   1      10.300   9.458  -6.840  0.00  0.00    -0.244 NA
ATOM     29  C   UNL d   1      11.220   9.976  -4.704  0.00  0.00     0.019 A 
ATOM     30  C   UNL d   1       9.941   8.550  -7.767  0.00  0.00     0.104 A 
ATOM     31  C   UNL d   1      11.858   9.581  -3.513  0.00  0.00     0.002 A 
ATOM     32  C   UNL d   1      12.180   8.226  -3.303  0.00  0.00     0.000 A 
ENDBRANCH  21  23
ENDBRANCH  19  20
ENDBRANCH  18  19
ENDBRANCH   1  18
TORSDOF 8
