REMARK  10 active torsions:
REMARK  status: ('A' for Active; 'I' for Inactive)
REMARK    1  A    between atoms: O_2  and  C_3 
REMARK    2  A    between atoms: C_8  and  N_9 
REMARK    3  A    between atoms: N_12  and  C_13 
REMARK    4  A    between atoms: C_13  and  C_14 
REMARK    5  A    between atoms: C_14  and  C_15 
REMARK    6  A    between atoms: C_15  and  N_16 
REMARK       I    between atoms: N_16  and  C_17 
REMARK       I    between atoms: C_17  and  N_19 
REMARK    7  A    between atoms: N_19  and  N_20 
REMARK    8  A    between atoms: N_20  and  C_21 
REMARK    9  A    between atoms: N_20  and  C_29 
REMARK   10  A    between atoms: C_21  and  C_22 
ROOT
ATOM      1  N   UNL d   1       8.844   6.040 -12.933  0.00  0.00    -0.216 NA
ATOM      2  C   UNL d   1       9.494   4.890 -13.146  0.00  0.00     0.381 C 
ATOM      3  O   UNL d   1       9.696   4.051 -12.281  0.00  0.00    -0.241 OA
ATOM      4  N   UNL d   1       9.956   4.794 -14.408  0.00  0.00    -0.110 NA
ENDROOT
BRANCH   1   5
ATOM      5  C   UNL d   1       8.429   6.584 -11.643  0.00  0.00     0.133 C 
BRANCH   5   6
ATOM      6  C   UNL d   1       9.515   6.483 -10.546  0.00  0.00     0.062 C 
BRANCH   6   7
ATOM      7  C   UNL d   1       8.998   6.897  -9.166  0.00  0.00     0.253 C 
BRANCH   7   8
ATOM      8  N   UNL d   1       9.977   6.649  -8.126  0.00  0.00     0.141 N 
ATOM      9  C   UNL d   1      10.896   7.787  -8.082  0.00  0.00     0.274 C 
ATOM     10  C   UNL d   1      11.933   7.566  -7.001  0.00  0.00     0.137 C 
ATOM     11  N   UNL d   1      11.259   7.399  -5.721  0.00  0.00    -0.343 N 
ATOM     12  C   UNL d   1      10.272   6.397  -5.703  0.00  0.00     0.137 C 
ATOM     13  C   UNL d   1       9.261   6.570  -6.848  0.00  0.00     0.274 C 
BRANCH  11  14
ATOM     14  C   UNL d   1      11.670   7.929  -4.519  0.00  0.00     0.079 A 
ATOM     15  C   UNL d   1      11.534   9.317  -4.435  0.00  0.00     0.110 A 
ATOM     16  C   UNL d   1      11.831   9.951  -3.234  0.00  0.00     0.026 A 
ATOM     17  C   UNL d   1      12.253   9.203  -2.110  0.00  0.00     0.002 A 
ATOM     18  C   UNL d   1      12.383   7.819  -2.186  0.00  0.00     0.002 A 
ATOM     19  C   UNL d   1      12.087   7.160  -3.390  0.00  0.00     0.019 A 
BRANCH  15  20
ATOM     20  O   UNL d   1      11.010   9.956  -5.547  0.00  0.00    -0.327 OA
ATOM     21  C   UNL d   1      11.645  11.128  -5.955  0.00  0.00     0.181 C 
ENDBRANCH  15  20
ENDBRANCH  11  14
ENDBRANCH   7   8
ENDBRANCH   6   7
ENDBRANCH   5   6
ENDBRANCH   1   5
BRANCH   4  22
ATOM     22  N   UNL d   1      10.817   3.764 -14.809  0.00  0.00    -0.242 N 
BRANCH  22  23
ATOM     23  C   UNL d   1      12.180   4.240 -15.065  0.00  0.00     0.156 C 
BRANCH  23  24
ATOM     24  C   UNL d   1      12.394   4.856 -16.444  0.00  0.00     0.030 A 
ATOM     25  C   UNL d   1      12.751   4.056 -17.556  0.00  0.00     0.138 A 
ATOM     26  C   UNL d   1      12.863   4.644 -18.836  0.00  0.00     0.029 A 
ATOM     27  F   UNL d   1      13.001   2.736 -17.413  0.00  0.00    -0.204 F 
ATOM     28  C   UNL d   1      12.682   6.030 -19.009  0.00  0.00     0.002 A 
ATOM     29  C   UNL d   1      12.373   6.842 -17.894  0.00  0.00    -0.000 A 
ATOM     30  C   UNL d   1      12.217   6.246 -16.617  0.00  0.00    -0.000 A 
ENDBRANCH  23  24
ENDBRANCH  22  23
BRANCH  22  31
ATOM     31  C   UNL d   1      10.329   2.657 -15.527  0.00  0.00     0.079 A 
ATOM     32  C   UNL d   1      11.186   1.617 -15.924  0.00  0.00     0.020 A 
ATOM     33  C   UNL d   1      10.726   0.578 -16.756  0.00  0.00     0.013 A 
ATOM     34  C   UNL d   1       9.363   0.511 -17.112  0.00  0.00     0.058 A 
ATOM     35  C   UNL d   1       8.475   1.495 -16.660  0.00  0.00     0.013 A 
ATOM     36 CL   UNL d   1       8.813  -0.784 -18.118  0.00  0.00    -0.082 Cl
ATOM     37  C   UNL d   1       8.952   2.555 -15.865  0.00  0.00     0.020 A 
ENDBRANCH  22  31
ENDBRANCH   4  22
TORSDOF 10
