REMARK  6 active torsions:
REMARK  status: ('A' for Active; 'I' for Inactive)
REMARK       I    between atoms: C_2  and  N_3 
REMARK    1  A    between atoms: C_2  and  C_22 
REMARK    2  A    between atoms: N_3  and  C_4 
REMARK    3  A    between atoms: C_4  and  C_5 
REMARK    4  A    between atoms: C_6  and  C_7 
REMARK    5  A    between atoms: C_7  and  N_8 
REMARK    6  A    between atoms: N_11  and  C_12 
ROOT
ATOM      1  C   UNL d   1       9.301   4.827 -10.454  0.00  0.00    -0.003 C 
ATOM      2  C   UNL d   1       9.142   5.118 -11.756  0.00  0.00     0.006 C 
ENDROOT
BRANCH   2   3
ATOM      3  C   UNL d   1      10.088   4.664 -12.848  0.00  0.00     0.276 C 
BRANCH   3   4
ATOM      4  N   UNL d   1       9.432   4.191 -14.057  0.00  0.00     0.145 N 
ATOM      5  C   UNL d   1       8.762   2.928 -13.756  0.00  0.00     0.275 C 
ATOM      6  C   UNL d   1       8.026   2.392 -14.988  0.00  0.00     0.137 C 
ATOM      7  N   UNL d   1       8.934   2.296 -16.122  0.00  0.00    -0.344 N 
ATOM      8  C   UNL d   1       9.745   3.474 -16.398  0.00  0.00     0.137 C 
ATOM      9  C   UNL d   1      10.431   3.974 -15.108  0.00  0.00     0.275 C 
BRANCH   7  10
ATOM     10  C   UNL d   1       9.055   1.112 -16.868  0.00  0.00     0.068 A 
ATOM     11  C   UNL d   1       7.918   0.471 -17.433  0.00  0.00     0.084 A 
ATOM     12  C   UNL d   1       8.072  -0.734 -18.147  0.00  0.00     0.070 A 
ATOM     13 CL   UNL d   1       6.337   1.171 -17.317  0.00  0.00    -0.080 Cl
ATOM     14  C   UNL d   1       9.344  -1.295 -18.319  0.00  0.00     0.012 A 
ATOM     15 CL   UNL d   1       6.709  -1.539 -18.833  0.00  0.00    -0.081 Cl
ATOM     16  C   UNL d   1      10.478  -0.658 -17.792  0.00  0.00     0.002 A 
ATOM     17  C   UNL d   1      10.337   0.540 -17.066  0.00  0.00     0.018 A 
ENDBRANCH   7  10
ENDBRANCH   3   4
ENDBRANCH   2   3
BRANCH   1  18
ATOM     18  C   UNL d   1       8.397   5.324  -9.343  0.00  0.00     0.155 C 
BRANCH  18  19
ATOM     19  N   UNL d   1       9.125   5.991  -8.263  0.00  0.00    -0.228 NA
ATOM     20  C   UNL d   1       9.965   7.033  -8.388  0.00  0.00     0.294 C 
ATOM     21  O   UNL d   1      10.305   7.529  -9.461  0.00  0.00    -0.264 OA
BRANCH  20  22
ATOM     22  C   UNL d   1      10.417   7.645  -7.096  0.00  0.00     0.158 A 
ATOM     23  N   UNL d   1      10.909   6.851  -6.118  0.00  0.00    -0.238 NA
ATOM     24  C   UNL d   1      11.361   7.452  -4.991  0.00  0.00     0.099 A 
ATOM     25  C   UNL d   1      11.328   8.873  -4.846  0.00  0.00     0.099 A 
ATOM     26  C   UNL d   1      11.858   6.671  -3.938  0.00  0.00     0.021 A 
ATOM     27  N   UNL d   1      10.849   9.660  -5.838  0.00  0.00    -0.241 NA
ATOM     28  C   UNL d   1      11.765   9.445  -3.633  0.00  0.00     0.021 A 
ATOM     29  C   UNL d   1      10.398   9.044  -6.953  0.00  0.00     0.123 A 
ATOM     30  C   UNL d   1      12.259   8.649  -2.588  0.00  0.00     0.002 A 
ATOM     31  C   UNL d   1      12.303   7.254  -2.736  0.00  0.00     0.002 A 
ENDBRANCH  20  22
ENDBRANCH  18  19
ENDBRANCH   1  18
TORSDOF 6
