REMARK  10 active torsions:
REMARK  status: ('A' for Active; 'I' for Inactive)
REMARK    1  A    between atoms: O_2  and  C_3 
REMARK    2  A    between atoms: C_9  and  C_10 
REMARK    3  A    between atoms: C_12  and  C_13 
REMARK    4  A    between atoms: C_13  and  N_14 
REMARK    5  A    between atoms: N_14  and  C_15 
REMARK    6  A    between atoms: C_15  and  C_16 
REMARK    7  A    between atoms: C_16  and  C_17 
REMARK    8  A    between atoms: C_17  and  C_18 
REMARK    9  A    between atoms: C_18  and  O_19 
REMARK   10  A    between atoms: O_19  and  C_20 
ROOT
ATOM      1  C   UNL d   1      10.017   5.172 -13.085  0.00  0.00     0.290 C 
ENDROOT
BRANCH   1   2
ATOM      2  N   UNL d   1       9.590   4.061 -13.914  0.00  0.00     0.339 N 
BRANCH   2   3
ATOM      3  C   UNL d   1      10.227   4.172 -15.212  0.00  0.00     0.290 C 
BRANCH   3   4
ATOM      4  C   UNL d   1      10.059   2.874 -15.984  0.00  0.00     0.041 A 
ATOM      5  C   UNL d   1      10.802   2.665 -17.288  0.00  0.00     0.026 A 
ATOM      6  C   UNL d   1      11.192   1.874 -16.059  0.00  0.00     0.007 A 
BRANCH   5   7
ATOM      7  C   UNL d   1      11.701   3.725 -17.849  0.00  0.00     0.002 A 
ATOM      8  C   UNL d   1      11.165   4.953 -18.314  0.00  0.00     0.090 A 
ATOM      9  C   UNL d   1      12.053   5.960 -18.776  0.00  0.00     0.026 A 
ATOM     10  C   UNL d   1      13.441   5.727 -18.800  0.00  0.00     0.032 A 
ATOM     11  C   UNL d   1      13.960   4.490 -18.384  0.00  0.00     0.140 A 
ATOM     12  F   UNL d   1      15.293   4.273 -18.403  0.00  0.00    -0.204 F 
ATOM     13  C   UNL d   1      13.090   3.490 -17.918  0.00  0.00     0.027 A 
BRANCH   8  14
ATOM     14  O   UNL d   1       9.795   5.109 -18.265  0.00  0.00    -0.328 OA
ATOM     15  C   UNL d   1       9.246   6.360 -18.656  0.00  0.00     0.181 C 
ENDBRANCH   8  14
ENDBRANCH   5   7
ENDBRANCH   3   4
ENDBRANCH   2   3
ENDBRANCH   1   2
BRANCH   1  16
ATOM     16  C   UNL d   1       9.292   5.134 -11.739  0.00  0.00     0.041 C 
BRANCH  16  17
ATOM     17  C   UNL d   1       9.750   6.243 -10.778  0.00  0.00     0.035 C 
BRANCH  17  18
ATOM     18  C   UNL d   1       8.838   6.324  -9.550  0.00  0.00     0.149 C 
BRANCH  18  19
ATOM     19  O   UNL d   1       9.164   7.504  -8.814  0.00  0.00    -0.331 OA
BRANCH  19  20
ATOM     20  C   UNL d   1      10.006   7.433  -7.730  0.00  0.00     0.096 C 
ATOM     21  C   UNL d   1      10.067   8.528  -6.832  0.00  0.00     0.043 C 
ATOM     22  C   UNL d   1      10.825   8.426  -5.652  0.00  0.00     0.082 C 
ATOM     23  C   UNL d   1      11.537   7.254  -5.353  0.00  0.00    -0.004 C 
ATOM     24  N   UNL d   1      10.966   9.524  -4.771  0.00  0.00    -0.212 NA
ATOM     25  C   UNL d   1      11.573   6.236  -6.307  0.00  0.00    -0.001 C 
ATOM     26  C   UNL d   1      12.399   7.158  -4.100  0.00  0.00     0.038 C 
ATOM     27  C   UNL d   1      10.792   6.295  -7.469  0.00  0.00     0.024 C 
ATOM     28  C   UNL d   1      11.883   8.031  -2.994  0.00  0.00     0.095 C 
ATOM     29  C   UNL d   1      11.517   9.415  -3.540  0.00  0.00     0.256 C 
ATOM     30  O   UNL d   1      11.729  10.395  -2.845  0.00  0.00    -0.270 OA
ENDBRANCH  19  20
ENDBRANCH  18  19
ENDBRANCH  17  18
ENDBRANCH  16  17
ENDBRANCH   1  16
TORSDOF 10
