REMARK  6 active torsions:
REMARK  status: ('A' for Active; 'I' for Inactive)
REMARK    1  A    between atoms: C_7  and  N_8 
REMARK    2  A    between atoms: N_11  and  C_12 
REMARK    3  A    between atoms: C_12  and  C_13 
REMARK    4  A    between atoms: C_13  and  C_14 
REMARK    5  A    between atoms: C_14  and  C_15 
REMARK    6  A    between atoms: C_15  and  C_17 
ROOT
ATOM      1  N   UNL d   1       7.913   3.268 -14.159  0.00  0.00    -0.344 N 
ATOM      2  C   UNL d   1       9.324   3.567 -13.988  0.00  0.00     0.137 C 
ATOM      3  C   UNL d   1       9.647   3.791 -12.519  0.00  0.00     0.274 C 
ATOM      4  N   UNL d   1       8.789   4.812 -11.925  0.00  0.00     0.141 N 
ATOM      5  C   UNL d   1       7.378   4.404 -12.045  0.00  0.00     0.274 C 
ATOM      6  C   UNL d   1       7.000   4.211 -13.521  0.00  0.00     0.137 C 
ENDROOT
BRANCH   4   7
ATOM      7  C   UNL d   1       9.158   4.923 -10.515  0.00  0.00     0.251 C 
BRANCH   7   8
ATOM      8  C   UNL d   1       8.537   6.159  -9.893  0.00  0.00     0.043 C 
BRANCH   8   9
ATOM      9  C   UNL d   1       9.101   6.473  -8.501  0.00  0.00     0.071 C 
BRANCH   9  10
ATOM     10  C   UNL d   1      10.064   7.673  -8.413  0.00  0.00     0.173 C 
ATOM     11  O   UNL d   1      10.300   8.377  -9.394  0.00  0.00    -0.291 OA
BRANCH  10  12
ATOM     12  C   UNL d   1      10.661   7.939  -7.077  0.00  0.00     0.035 A 
ATOM     13  C   UNL d   1      11.276   9.184  -6.818  0.00  0.00     0.005 A 
ATOM     14  C   UNL d   1      11.864   9.438  -5.562  0.00  0.00     0.030 A 
ATOM     15  C   UNL d   1      11.858   8.444  -4.565  0.00  0.00     0.140 A 
ATOM     16  C   UNL d   1      11.269   7.199  -4.823  0.00  0.00     0.030 A 
ATOM     17  F   UNL d   1      12.427   8.684  -3.358  0.00  0.00    -0.204 F 
ATOM     18  C   UNL d   1      10.666   6.956  -6.068  0.00  0.00     0.005 A 
ENDBRANCH  10  12
ENDBRANCH   9  10
ENDBRANCH   8   9
ENDBRANCH   7   8
ENDBRANCH   4   7
BRANCH   1  19
ATOM     19  C   UNL d   1       7.455   2.191 -14.942  0.00  0.00     0.052 A 
ATOM     20  C   UNL d   1       8.022   1.864 -16.209  0.00  0.00    -0.006 A 
ATOM     21  C   UNL d   1       7.473   0.771 -16.930  0.00  0.00    -0.003 A 
ATOM     22  C   UNL d   1       9.149   2.649 -16.883  0.00  0.00     0.033 C 
ATOM     23  C   UNL d   1       6.402   0.011 -16.420  0.00  0.00    -0.004 A 
ATOM     24  C   UNL d   1       5.845   0.334 -15.173  0.00  0.00    -0.020 A 
ATOM     25  C   UNL d   1       4.695  -0.485 -14.615  0.00  0.00     0.031 C 
ATOM     26  C   UNL d   1       6.371   1.422 -14.441  0.00  0.00     0.012 A 
ENDBRANCH   1  19
TORSDOF 6
