REMARK  7 active torsions:
REMARK  status: ('A' for Active; 'I' for Inactive)
REMARK    1  A    between atoms: C_2  and  C_3 
REMARK    2  A    between atoms: C_2  and  C_18 
REMARK    3  A    between atoms: C_6  and  O_7 
REMARK    4  A    between atoms: O_7  and  C_8 
REMARK    5  A    between atoms: C_8  and  C_9 
REMARK    6  A    between atoms: C_9  and  N_10 
REMARK    7  A    between atoms: C_19  and  C_20 
ROOT
ATOM      1  C   UNL d   1       8.245   2.148 -14.543  0.00  0.00     0.045 A 
ATOM      2  C   UNL d   1       6.907   1.829 -14.529  0.00  0.00     0.033 A 
ATOM      3  S   UNL d   1       5.924   2.936 -13.609  0.00  0.00    -0.087 SA
ATOM      4  C   UNL d   1       7.317   3.903 -13.183  0.00  0.00     0.032 A 
ATOM      5  C   UNL d   1       7.332   5.036 -12.344  0.00  0.00     0.034 A 
ATOM      6  C   UNL d   1       8.558   5.645 -12.045  0.00  0.00     0.132 A 
ATOM      7  O   UNL d   1       8.693   6.742 -11.235  0.00  0.00    -0.190 OA
ATOM      8  C   UNL d   1       9.730   5.109 -12.589  0.00  0.00     0.027 A 
ATOM      9  C   UNL d   1       9.723   3.989 -13.432  0.00  0.00     0.003 A 
ATOM     10  C   UNL d   1       8.511   3.337 -13.757  0.00  0.00     0.010 A 
ENDROOT
BRANCH   1  11
ATOM     11  C   UNL d   1       9.248   1.356 -15.230  0.00  0.00     0.196 C 
ATOM     12  O   UNL d   1       9.570   0.216 -14.897  0.00  0.00    -0.287 OA
BRANCH  11  13
ATOM     13  C   UNL d   1       9.926   2.057 -16.342  0.00  0.00     0.039 A 
ATOM     14  C   UNL d   1       9.230   2.746 -17.362  0.00  0.00     0.005 A 
ATOM     15  C   UNL d   1       9.949   3.347 -18.413  0.00  0.00     0.024 A 
ATOM     16  C   UNL d   1      11.367   3.310 -18.423  0.00  0.00     0.094 A 
ATOM     17  C   UNL d   1      12.055   2.665 -17.372  0.00  0.00     0.024 A 
ATOM     18  C   UNL d   1      11.339   2.018 -16.355  0.00  0.00     0.005 A 
BRANCH  16  19
ATOM     19  O   UNL d   1      12.011   3.921 -19.473  0.00  0.00    -0.329 OA
BRANCH  19  20
ATOM     20  C   UNL d   1      13.419   3.747 -19.607  0.00  0.00     0.184 C 
BRANCH  20  21
ATOM     21  C   UNL d   1      13.733   2.283 -20.022  0.00  0.00     0.283 C 
BRANCH  21  22
ATOM     22  N   UNL d   1      15.154   2.063 -20.259  0.00  0.00     0.140 N 
ATOM     23  C   UNL d   1      15.496   2.586 -21.586  0.00  0.00     0.250 C 
ATOM     24  C   UNL d   1      16.988   2.395 -21.872  0.00  0.00     0.035 C 
ATOM     25  C   UNL d   1      17.364   0.914 -21.794  0.00  0.00     0.004 C 
ATOM     26  C   UNL d   1      16.891   0.328 -20.455  0.00  0.00     0.035 C 
ATOM     27  C   UNL d   1      15.405   0.618 -20.227  0.00  0.00     0.250 C 
ENDBRANCH  21  22
ENDBRANCH  20  21
ENDBRANCH  19  20
ENDBRANCH  16  19
ENDBRANCH  11  13
ENDBRANCH   1  11
BRANCH   2  28
ATOM     28  C   UNL d   1       6.217   0.724 -15.182  0.00  0.00     0.006 A 
ATOM     29  C   UNL d   1       6.482   0.378 -16.529  0.00  0.00     0.003 A 
ATOM     30  C   UNL d   1       5.798  -0.667 -17.152  0.00  0.00     0.027 A 
ATOM     31  C   UNL d   1       4.832  -1.392 -16.445  0.00  0.00     0.131 A 
ATOM     32  C   UNL d   1       4.539  -1.064 -15.110  0.00  0.00     0.027 A 
ATOM     33  O   UNL d   1       4.191  -2.412 -17.099  0.00  0.00    -0.190 OA
ATOM     34  C   UNL d   1       5.233  -0.018 -14.477  0.00  0.00     0.003 A 
ENDBRANCH   2  28
TORSDOF 7
