REMARK  10 active torsions:
REMARK  status: ('A' for Active; 'I' for Inactive)
REMARK    1  A    between atoms: C_2  and  N_3 
REMARK    2  A    between atoms: N_3  and  C_4 
REMARK       I    between atoms: N_3  and  C_6 
REMARK       I    between atoms: C_6  and  N_8 
REMARK    3  A    between atoms: N_8  and  C_9 
REMARK    4  A    between atoms: C_9  and  C_10 
REMARK    5  A    between atoms: C_10  and  C_11 
REMARK    6  A    between atoms: C_11  and  C_12 
REMARK    7  A    between atoms: C_12  and  N_13 
REMARK    8  A    between atoms: N_16  and  C_17 
REMARK    9  A    between atoms: C_19  and  C_20 
REMARK   10  A    between atoms: C_25  and  C_26 
ROOT
ATOM      1  N   UNL d   1       7.443   4.233 -12.706  0.00  0.00     0.141 N 
ATOM      2  C   UNL d   1       8.450   3.981 -13.749  0.00  0.00     0.274 C 
ATOM      3  C   UNL d   1       8.512   2.492 -14.108  0.00  0.00     0.138 C 
ATOM      4  N   UNL d   1       7.187   2.015 -14.477  0.00  0.00    -0.330 N 
ATOM      5  C   UNL d   1       6.112   2.315 -13.543  0.00  0.00     0.138 C 
ATOM      6  C   UNL d   1       6.121   3.820 -13.197  0.00  0.00     0.274 C 
ENDROOT
BRANCH   4   7
ATOM      7  C   UNL d   1       6.960   1.330 -15.691  0.00  0.00     0.143 A 
ATOM      8  N   UNL d   1       7.770   1.629 -16.727  0.00  0.00    -0.214 NA
ATOM      9  C   UNL d   1       7.553   1.016 -17.894  0.00  0.00     0.140 A 
ATOM     10  N   UNL d   1       6.626   0.087 -18.106  0.00  0.00    -0.227 NA
ATOM     11  C   UNL d   1       5.805  -0.237 -17.085  0.00  0.00     0.157 A 
ATOM     12  C   UNL d   1       5.931   0.381 -15.820  0.00  0.00     0.060 A 
BRANCH   9  13
ATOM     13  C   UNL d   1       8.557   1.287 -19.032  0.00  0.00     0.052 C 
ATOM     14  C   UNL d   1       9.604   0.164 -19.091  0.00  0.00     0.008 C 
ATOM     15  C   UNL d   1       9.307   2.628 -18.829  0.00  0.00     0.008 C 
ATOM     16  C   UNL d   1       7.812   1.382 -20.389  0.00  0.00     0.008 C 
ENDBRANCH   9  13
BRANCH  11  17
ATOM     17  C   UNL d   1       4.747  -1.300 -17.355  0.00  0.00     0.435 C 
ATOM     18  F   UNL d   1       3.977  -1.496 -16.285  0.00  0.00    -0.165 F 
ATOM     19  F   UNL d   1       3.970  -0.918 -18.372  0.00  0.00    -0.165 F 
ATOM     20  F   UNL d   1       5.340  -2.451 -17.676  0.00  0.00    -0.165 F 
ENDBRANCH  11  17
ENDBRANCH   4   7
BRANCH   1  21
ATOM     21  C   UNL d   1       7.422   5.649 -12.391  0.00  0.00     0.251 C 
BRANCH  21  22
ATOM     22  C   UNL d   1       8.615   6.022 -11.503  0.00  0.00     0.037 C 
BRANCH  22  23
ATOM     23  C   UNL d   1       9.111   7.470 -11.771  0.00  0.00     0.029 C 
BRANCH  23  24
ATOM     24  C   UNL d   1      10.272   7.922 -10.862  0.00  0.00     0.131 C 
BRANCH  24  25
ATOM     25  N   UNL d   1       9.850   8.258  -9.541  0.00  0.00    -0.219 NA
ATOM     26  C   UNL d   1      10.705   8.463  -8.517  0.00  0.00     0.342 C 
ATOM     27  N   UNL d   1      10.072   8.418  -7.296  0.00  0.00    -0.301 N 
ATOM     28  O   UNL d   1      11.875   8.650  -8.707  0.00  0.00    -0.245 OA
BRANCH  27  29
ATOM     29  C   UNL d   1      10.670   8.985  -6.054  0.00  0.00     0.106 C 
ATOM     30  C   UNL d   1      11.820   9.987  -6.208  0.00  0.00     0.026 C 
ENDBRANCH  27  29
BRANCH  27  31
ATOM     31  C   UNL d   1       8.829   7.668  -7.002  0.00  0.00     0.106 C 
ATOM     32  C   UNL d   1       8.686   6.277  -7.699  0.00  0.00     0.026 C 
ENDBRANCH  27  31
ENDBRANCH  24  25
ENDBRANCH  23  24
ENDBRANCH  22  23
ENDBRANCH  21  22
ENDBRANCH   1  21
TORSDOF 10
