REMARK  12 active torsions:
REMARK  status: ('A' for Active; 'I' for Inactive)
REMARK    1  A    between atoms: C_2  and  C_3 
REMARK    2  A    between atoms: C_3  and  N_4 
REMARK    3  A    between atoms: N_4  and  C_5 
REMARK    4  A    between atoms: N_4  and  C_22 
REMARK    5  A    between atoms: C_5  and  C_6 
REMARK    6  A    between atoms: C_6  and  C_7 
REMARK    7  A    between atoms: C_7  and  C_8 
REMARK    8  A    between atoms: C_8  and  N_9 
REMARK       I    between atoms: N_9  and  C_10 
REMARK    9  A    between atoms: C_10  and  C_12 
REMARK   10  A    between atoms: C_22  and  C_23 
REMARK   11  A    between atoms: C_25  and  C_26 
REMARK   12  A    between atoms: C_32  and  O_33 
ROOT
ATOM      1  N   UNL d   1       6.965   1.014 -15.415  0.00  0.00     0.137 N 
ENDROOT
BRANCH   1   2
ATOM      2  C   UNL d   1       5.903   0.378 -14.624  0.00  0.00     0.250 C 
BRANCH   2   3
ATOM      3  C   UNL d   1       4.907  -0.407 -15.489  0.00  0.00     0.035 C 
ATOM      4  C   UNL d   1       3.630  -0.729 -14.709  0.00  0.00     0.002 C 
ENDBRANCH   2   3
ENDBRANCH   1   2
BRANCH   1   5
ATOM      5  C   UNL d   1       7.780   1.895 -14.580  0.00  0.00     0.250 C 
BRANCH   5   6
ATOM      6  C   UNL d   1       7.001   3.088 -14.008  0.00  0.00     0.037 C 
BRANCH   6   7
ATOM      7  C   UNL d   1       7.897   4.028 -13.225  0.00  0.00     0.029 C 
BRANCH   7   8
ATOM      8  C   UNL d   1       7.081   5.121 -12.499  0.00  0.00     0.129 C 
BRANCH   8   9
ATOM      9  N   UNL d   1       7.708   5.593 -11.269  0.00  0.00    -0.234 NA
ATOM     10  C   UNL d   1       9.009   5.825 -11.076  0.00  0.00     0.275 C 
ATOM     11  O   UNL d   1       9.857   5.703 -11.963  0.00  0.00    -0.266 OA
BRANCH  10  12
ATOM     12  C   UNL d   1       9.386   6.340  -9.727  0.00  0.00     0.058 A 
ATOM     13  C   UNL d   1      10.449   7.258  -9.600  0.00  0.00     0.005 A 
ATOM     14  C   UNL d   1      10.803   7.760  -8.334  0.00  0.00     0.000 A 
ATOM     15  C   UNL d   1      10.107   7.321  -7.184  0.00  0.00     0.000 A 
ATOM     16  C   UNL d   1      11.851   8.694  -8.204  0.00  0.00     0.000 A 
ATOM     17  C   UNL d   1       9.060   6.394  -7.305  0.00  0.00     0.000 A 
ATOM     18  C   UNL d   1      10.464   7.812  -5.918  0.00  0.00     0.000 A 
ATOM     19  C   UNL d   1       8.710   5.887  -8.571  0.00  0.00     0.005 A 
ATOM     20  C   UNL d   1      11.493   8.763  -5.788  0.00  0.00     0.000 A 
ATOM     21  C   UNL d   1      12.190   9.186  -6.931  0.00  0.00     0.000 A 
ENDBRANCH  10  12
ENDBRANCH   8   9
ENDBRANCH   7   8
ENDBRANCH   6   7
ENDBRANCH   5   6
ENDBRANCH   1   5
BRANCH   1  22
ATOM     22  C   UNL d   1       7.842  -0.012 -15.984  0.00  0.00     0.251 C 
BRANCH  22  23
ATOM     23  C   UNL d   1       8.822   0.509 -17.002  0.00  0.00     0.038 A 
ATOM     24  C   UNL d   1      10.308   0.285 -16.835  0.00  0.00     0.026 A 
ATOM     25  C   UNL d   1       9.548  -0.491 -17.884  0.00  0.00     0.007 A 
BRANCH  24  26
ATOM     26  C   UNL d   1      11.285   1.348 -17.183  0.00  0.00     0.001 A 
ATOM     27  C   UNL d   1      12.271   1.096 -18.162  0.00  0.00     0.090 A 
ATOM     28  C   UNL d   1      13.169   2.136 -18.519  0.00  0.00     0.025 A 
ATOM     29  C   UNL d   1      13.084   3.399 -17.900  0.00  0.00     0.013 A 
ATOM     30  C   UNL d   1      12.115   3.638 -16.909  0.00  0.00     0.058 A 
ATOM     31  C   UNL d   1      11.220   2.611 -16.556  0.00  0.00     0.009 A 
ATOM     32 CL   UNL d   1      12.000   5.178 -16.147  0.00  0.00    -0.082 Cl
BRANCH  27  33
ATOM     33  O   UNL d   1      12.331  -0.175 -18.702  0.00  0.00    -0.328 OA
ATOM     34  C   UNL d   1      13.316  -0.457 -19.676  0.00  0.00     0.181 C 
ENDBRANCH  27  33
ENDBRANCH  24  26
ENDBRANCH  22  23
ENDBRANCH   1  22
TORSDOF 12
