REMARK  5 active torsions:
REMARK  status: ('A' for Active; 'I' for Inactive)
REMARK    1  A    between atoms: C_2  and  C_4 
REMARK    2  A    between atoms: C_4  and  S_5 
REMARK    3  A    between atoms: S_5  and  N_8 
REMARK    4  A    between atoms: C_12  and  C_13 
REMARK    5  A    between atoms: C_20  and  N_21 
ROOT
ATOM      1  N   UNL d   1      10.441   2.852 -16.267  0.00  0.00    -0.218 N 
ATOM      2  C   UNL d   1      10.127   1.759 -17.060  0.00  0.00     0.093 A 
ATOM      3  C   UNL d   1       8.958   1.190 -16.628  0.00  0.00     0.023 A 
ATOM      4  C   UNL d   1       8.481   2.006 -15.537  0.00  0.00     0.037 A 
ATOM      5  C   UNL d   1       7.342   2.019 -14.675  0.00  0.00     0.007 A 
ATOM      6  C   UNL d   1       7.273   3.050 -13.709  0.00  0.00     0.037 A 
ATOM      7  C   UNL d   1       8.316   3.991 -13.560  0.00  0.00     0.142 A 
ATOM      8  N   UNL d   1       9.394   4.019 -14.376  0.00  0.00    -0.211 NA
ATOM      9  C   UNL d   1       9.445   3.039 -15.320  0.00  0.00     0.158 A 
ENDROOT
BRANCH   1  10
ATOM     10  S   UNL d   1      11.866   3.780 -16.473  0.00  0.00     0.252 S 
ATOM     11  O   UNL d   1      12.791   2.899 -17.204  0.00  0.00    -0.204 OA
ATOM     12  O   UNL d   1      12.226   4.353 -15.167  0.00  0.00    -0.204 OA
BRANCH  10  13
ATOM     13  C   UNL d   1      11.253   5.094 -17.612  0.00  0.00     0.145 C 
BRANCH  13  14
ATOM     14  C   UNL d   1      12.211   6.301 -17.695  0.00  0.00     0.018 C 
ATOM     15  C   UNL d   1      11.789   7.250 -18.827  0.00  0.00     0.001 C 
ATOM     16  C   UNL d   1      13.689   5.898 -17.858  0.00  0.00     0.001 C 
ENDBRANCH  13  14
ENDBRANCH  10  13
ENDBRANCH   1  10
BRANCH   5  17
ATOM     17  C   UNL d   1       6.257   1.010 -14.760  0.00  0.00     0.019 A 
ATOM     18  C   UNL d   1       5.464   0.655 -13.629  0.00  0.00     0.099 A 
ATOM     19  N   UNL d   1       4.441  -0.228 -13.659  0.00  0.00    -0.242 NA
ATOM     20  C   UNL d   1       4.178  -0.852 -14.826  0.00  0.00     0.099 A 
ATOM     21  C   UNL d   1       4.901  -0.597 -16.005  0.00  0.00     0.021 A 
ATOM     22  C   UNL d   1       5.924   0.369 -15.976  0.00  0.00     0.003 A 
ENDBRANCH   5  17
BRANCH   7  23
ATOM     23  N   UNL d   1       8.278   4.933 -12.523  0.00  0.00    -0.330 N 
ATOM     24  C   UNL d   1       8.853   6.269 -12.645  0.00  0.00     0.138 C 
ATOM     25  C   UNL d   1       9.773   6.588 -11.454  0.00  0.00     0.274 C 
ATOM     26  N   UNL d   1       9.065   6.378 -10.189  0.00  0.00     0.143 N 
ATOM     27  C   UNL d   1       8.578   4.999 -10.082  0.00  0.00     0.274 C 
ATOM     28  C   UNL d   1       9.912   6.703  -9.057  0.00  0.00     0.286 C 
ATOM     29  C   UNL d   1       7.617   4.678 -11.244  0.00  0.00     0.138 C 
ENDBRANCH   7  23
TORSDOF 5
