REMARK  3 active torsions:
REMARK  status: ('A' for Active; 'I' for Inactive)
REMARK    1  A    between atoms: O_2  and  C_3 
REMARK    2  A    between atoms: C_8  and  O_9 
REMARK    3  A    between atoms: C_13  and  N_14 
REMARK       I    between atoms: N_14  and  C_15 
ROOT
ATOM      1  C   UNL d   1       6.623   1.195 -14.791  0.00  0.00     0.116 A 
ATOM      2  C   UNL d   1       6.033   1.996 -13.801  0.00  0.00     0.022 A 
ATOM      3  C   UNL d   1       6.648   3.192 -13.396  0.00  0.00    -0.020 A 
ATOM      4  C   UNL d   1       7.886   3.547 -13.992  0.00  0.00     0.007 A 
ATOM      5  C   UNL d   1       8.522   2.787 -15.007  0.00  0.00     0.022 A 
ATOM      6  C   UNL d   1       7.872   1.558 -15.346  0.00  0.00     0.116 A 
ATOM      7  C   UNL d   1       9.789   3.240 -15.618  0.00  0.00    -0.001 A 
ATOM      8  C   UNL d   1      10.186   2.852 -16.914  0.00  0.00     0.019 A 
ATOM      9  C   UNL d   1      11.441   3.214 -17.445  0.00  0.00     0.084 A 
ATOM     10  C   UNL d   1      12.282   4.062 -16.700  0.00  0.00     0.019 A 
ATOM     11  C   UNL d   1      11.876   4.513 -15.429  0.00  0.00    -0.003 A 
ATOM     12  C   UNL d   1      10.629   4.111 -14.900  0.00  0.00    -0.020 A 
ATOM     13  C   UNL d   1      10.146   4.645 -13.568  0.00  0.00     0.064 C 
ATOM     14  C   UNL d   1       8.609   4.840 -13.558  0.00  0.00     0.246 C 
ATOM     15  N   UNL d   1       8.174   5.391 -12.270  0.00  0.00     0.142 N 
ATOM     16  C   UNL d   1       8.718   6.725 -12.019  0.00  0.00     0.286 C 
ATOM     17  C   UNL d   1       6.726   5.514 -12.294  0.00  0.00     0.255 C 
ATOM     18  C   UNL d   1       6.144   4.103 -12.284  0.00  0.00     0.061 C 
ENDROOT
BRANCH   9  19
ATOM     19  N   UNL d   1      11.847   2.778 -18.737  0.00  0.00    -0.212 NA
ATOM     20  C   UNL d   1      11.608   1.570 -19.287  0.00  0.00     0.256 C 
ATOM     21  C   UNL d   1      12.109   1.352 -20.708  0.00  0.00     0.100 C 
ATOM     22  O   UNL d   1      11.037   0.643 -18.712  0.00  0.00    -0.270 OA
ENDBRANCH   9  19
BRANCH   6  23
ATOM     23  O   UNL d   1       8.452   0.674 -16.220  0.00  0.00    -0.326 OA
ATOM     24  C   UNL d   1       9.565  -0.034 -15.696  0.00  0.00     0.181 C 
ENDBRANCH   6  23
BRANCH   1  25
ATOM     25  O   UNL d   1       5.979   0.027 -15.129  0.00  0.00    -0.326 OA
ATOM     26  C   UNL d   1       5.603  -0.098 -16.499  0.00  0.00     0.181 C 
ENDBRANCH   1  25
TORSDOF 3
