REMARK  5 active torsions:
REMARK  status: ('A' for Active; 'I' for Inactive)
REMARK    1  A    between atoms: N_6  and  C_7 
REMARK    2  A    between atoms: C_7  and  C_8 
REMARK    3  A    between atoms: C_8  and  C_9 
REMARK    4  A    between atoms: C_13  and  C_14 
REMARK    5  A    between atoms: C_14  and  C_16 
ROOT
ATOM      1  C   UNL d   1       9.070   5.599 -12.363  0.00  0.00     0.080 A 
ATOM      2  C   UNL d   1       7.968   4.922 -12.813  0.00  0.00     0.022 A 
ATOM      3  C   UNL d   1       8.469   3.904 -13.688  0.00  0.00     0.025 A 
ATOM      4  C   UNL d   1       7.910   2.885 -14.482  0.00  0.00     0.005 A 
ATOM      5  C   UNL d   1       8.730   1.970 -15.195  0.00  0.00     0.039 A 
ATOM      6  C   UNL d   1      10.137   2.149 -15.183  0.00  0.00     0.005 A 
ATOM      7  C   UNL d   1      10.723   3.191 -14.435  0.00  0.00     0.025 A 
ATOM      8  C   UNL d   1       9.879   4.030 -13.689  0.00  0.00     0.100 A 
ATOM      9  O   UNL d   1      10.236   5.083 -12.872  0.00  0.00    -0.311 OA
ENDROOT
BRANCH   5  10
ATOM     10  C   UNL d   1       8.147   0.833 -15.982  0.00  0.00     0.196 C 
ATOM     11  O   UNL d   1       8.759   0.366 -16.945  0.00  0.00    -0.287 OA
BRANCH  10  12
ATOM     12  C   UNL d   1       6.812   0.282 -15.584  0.00  0.00     0.039 A 
ATOM     13  C   UNL d   1       6.312   0.404 -14.263  0.00  0.00     0.005 A 
ATOM     14  C   UNL d   1       5.027  -0.053 -13.943  0.00  0.00     0.030 A 
ATOM     15  C   UNL d   1       4.264  -0.737 -14.906  0.00  0.00     0.140 A 
ATOM     16  C   UNL d   1       4.766  -0.932 -16.203  0.00  0.00     0.030 A 
ATOM     17  F   UNL d   1       3.051  -1.209 -14.561  0.00  0.00    -0.204 F 
ATOM     18  C   UNL d   1       6.030  -0.411 -16.542  0.00  0.00     0.005 A 
ENDBRANCH  10  12
ENDBRANCH   5  10
BRANCH   1  19
ATOM     19  C   UNL d   1       9.203   6.758 -11.443  0.00  0.00     0.087 C 
BRANCH  19  20
ATOM     20  C   UNL d   1       9.579   6.336 -10.010  0.00  0.00     0.257 C 
BRANCH  20  21
ATOM     21  N   UNL d   1      10.007   7.472  -9.190  0.00  0.00     0.135 N 
ATOM     22  C   UNL d   1      10.234   7.100  -7.796  0.00  0.00     0.219 C 
ATOM     23  C   UNL d   1       8.924   6.865  -7.030  0.00  0.00     0.035 C 
ATOM     24  C   UNL d   1      11.033   8.283  -7.246  0.00  0.00     0.035 C 
ATOM     25  C   UNL d   1      11.739   8.871  -8.462  0.00  0.00     0.037 C 
ATOM     26  C   UNL d   1      11.296   7.999  -9.627  0.00  0.00     0.250 C 
ENDBRANCH  20  21
ENDBRANCH  19  20
ENDBRANCH   1  19
TORSDOF 5
