REMARK  5 active torsions:
REMARK  status: ('A' for Active; 'I' for Inactive)
REMARK    1  A    between atoms: C_2  and  C_3 
REMARK    2  A    between atoms: C_3  and  N_4 
REMARK    3  A    between atoms: N_4  and  C_5 
REMARK    4  A    between atoms: N_4  and  C_8 
REMARK    5  A    between atoms: C_5  and  C_6 
ROOT
ATOM      1  C   UNL d   1      11.734   7.738  -7.431  0.00  0.00     0.254 C 
ATOM      2  C   UNL d   1      11.327   6.338  -6.908  0.00  0.00     0.182 C 
ATOM      3  O   UNL d   1      11.848   6.072  -5.626  0.00  0.00    -0.329 OA
ATOM      4  C   UNL d   1      11.731   7.082  -4.719  0.00  0.00     0.092 A 
ATOM      5  C   UNL d   1      11.942   6.757  -3.373  0.00  0.00     0.024 A 
ATOM      6  C   UNL d   1      11.890   7.756  -2.397  0.00  0.00     0.004 A 
ATOM      7  C   UNL d   1      11.649   9.083  -2.781  0.00  0.00     0.027 A 
ATOM      8  C   UNL d   1      11.390   9.411  -4.119  0.00  0.00     0.129 A 
ATOM      9  O   UNL d   1      11.018  10.662  -4.481  0.00  0.00    -0.190 OA
ATOM     10  C   UNL d   1      11.454   8.425  -5.092  0.00  0.00     0.028 A 
ATOM     11  C   UNL d   1      11.247   8.838  -6.525  0.00  0.00     0.066 C 
ENDROOT
BRANCH   1  12
ATOM     12  N   UNL d   1      11.374   8.073  -8.815  0.00  0.00     0.138 N 
BRANCH  12  13
ATOM     13  C   UNL d   1      12.337   7.728  -9.878  0.00  0.00     0.250 C 
BRANCH  13  14
ATOM     14  C   UNL d   1      13.817   8.007  -9.545  0.00  0.00     0.035 C 
ATOM     15  C   UNL d   1      14.714   8.365 -10.738  0.00  0.00     0.002 C 
ENDBRANCH  13  14
ENDBRANCH  12  13
BRANCH  12  16
ATOM     16  C   UNL d   1      10.062   7.484  -9.142  0.00  0.00     0.250 C 
BRANCH  16  17
ATOM     17  C   UNL d   1       9.474   7.924 -10.484  0.00  0.00     0.035 C 
ATOM     18  C   UNL d   1       9.091   9.384 -10.264  0.00  0.00     0.002 C 
ENDBRANCH  16  17
ENDBRANCH  12  16
ENDBRANCH   1  12
TORSDOF 5
