REMARK  6 active torsions:
REMARK  status: ('A' for Active; 'I' for Inactive)
REMARK    1  A    between atoms: C1_2  and  C2_3 
REMARK    2  A    between atoms: C1_2  and  C11_15 
REMARK    3  A    between atoms: C2_3  and  S1_4 
REMARK    4  A    between atoms: S1_4  and  C3_5 
REMARK    5  A    between atoms: N2_7  and  C4_8 
REMARK    6  A    between atoms: C4_8  and  C5_9 
ROOT
ATOM      1  C3  <1> d   1      10.517   8.130  -7.571  0.00  0.00     0.157 C 
ATOM      2  S2  <1> d   1      12.070   8.387  -8.125  0.00  0.00    -0.051 SA
ATOM      3  N2  <1> d   1       9.941   8.831  -6.567  0.00  0.00    -0.250 NA
ENDROOT
BRANCH   1   4
ATOM      4  S1  <1> d   1       9.412   6.846  -8.079  0.00  0.00    -0.082 SA
BRANCH   4   5
ATOM      5  C2  <1> d   1      10.219   5.987  -9.477  0.00  0.00     0.115 C 
BRANCH   5   6
ATOM      6  C1  <1> d   1       9.462   6.174 -10.810  0.00  0.00     0.398 C 
ATOM      7  N1  <1> d   1       8.127   5.592 -10.728  0.00  0.00     0.629 N 
BRANCH   6   8
ATOM      8  C11 <1> d   1       9.412   7.623 -11.326  0.00  0.00     0.225 C 
ATOM      9  O1  <1> d   1      10.002   8.548 -10.765  0.00  0.00    -0.646 OA
ATOM     10  O2  <1> d   1       8.682   7.836 -12.437  0.00  0.00    -0.646 OA
ENDBRANCH   6   8
ENDBRANCH   5   6
ENDBRANCH   4   5
ENDBRANCH   1   4
BRANCH   3  11
ATOM     11  C4  <1> d   1      10.681   9.666  -5.613  0.00  0.00     0.153 C 
BRANCH  11  12
ATOM     12  C5  <1> d   1      11.335   8.879  -4.478  0.00  0.00     0.002 A 
ATOM     13  C10 <1> d   1      11.476   7.466  -4.526  0.00  0.00    -0.002 A 
ATOM     14  C9  <1> d   1      12.041   6.769  -3.445  0.00  0.00    -0.000 A 
ATOM     15  C8  <1> d   1      12.453   7.457  -2.298  0.00  0.00    -0.000 A 
ATOM     16  C7  <1> d   1      12.318   8.854  -2.237  0.00  0.00    -0.000 A 
ATOM     17  C6  <1> d   1      11.769   9.560  -3.325  0.00  0.00    -0.002 A 
ENDBRANCH  11  12
ENDBRANCH   3  11
TORSDOF 6
