REMARK  8 active torsions:
REMARK  status: ('A' for Active; 'I' for Inactive)
REMARK    1  A    between atoms: O_2  and  C_3 
REMARK    2  A    between atoms: C_8  and  N_9 
REMARK    3  A    between atoms: N_12  and  C_13 
REMARK    4  A    between atoms: C_13  and  C_14 
REMARK    5  A    between atoms: C_14  and  C_15 
REMARK    6  A    between atoms: C_15  and  C_16 
REMARK    7  A    between atoms: C_16  and  N_17 
REMARK       I    between atoms: N_17  and  C_18 
REMARK    8  A    between atoms: C_18  and  C_20 
ROOT
ATOM      1  C   UNL d   1      12.775   2.874 -17.261  0.00  0.00     0.037 C 
ENDROOT
BRANCH   1   2
ATOM      2  C   UNL d   1      12.650   3.799 -16.036  0.00  0.00     0.251 C 
BRANCH   2   3
ATOM      3  N   UNL d   1      11.577   3.393 -15.120  0.00  0.00     0.141 N 
ATOM      4  C   UNL d   1      11.573   4.319 -13.981  0.00  0.00     0.274 C 
ATOM      5  C   UNL d   1      10.478   3.912 -12.972  0.00  0.00     0.137 C 
ATOM      6  N   UNL d   1       9.196   3.850 -13.653  0.00  0.00    -0.343 N 
ATOM      7  C   UNL d   1       9.157   3.029 -14.838  0.00  0.00     0.137 C 
ATOM      8  C   UNL d   1      10.271   3.449 -15.782  0.00  0.00     0.274 C 
BRANCH   6   9
ATOM      9  C   UNL d   1       8.120   4.582 -13.258  0.00  0.00     0.079 C 
ATOM     10  C   UNL d   1       8.268   5.925 -12.793  0.00  0.00     0.110 C 
ATOM     11  C   UNL d   1       7.109   6.616 -12.423  0.00  0.00     0.026 C 
ATOM     12  C   UNL d   1       5.861   5.994 -12.396  0.00  0.00     0.002 C 
ATOM     13  C   UNL d   1       5.681   4.695 -12.919  0.00  0.00     0.002 C 
ATOM     14  C   UNL d   1       6.820   3.985 -13.360  0.00  0.00     0.019 C 
BRANCH  10  15
ATOM     15  O   UNL d   1       9.471   6.598 -12.703  0.00  0.00    -0.327 OA
ATOM     16  C   UNL d   1       9.465   7.846 -11.998  0.00  0.00     0.181 C 
ENDBRANCH  10  15
ENDBRANCH   6   9
ENDBRANCH   2   3
ENDBRANCH   1   2
BRANCH   1  17
ATOM     17  C   UNL d   1      13.830   3.342 -18.273  0.00  0.00     0.029 C 
BRANCH  17  18
ATOM     18  C   UNL d   1      14.089   2.286 -19.375  0.00  0.00     0.129 C 
BRANCH  18  19
ATOM     19  N   UNL d   1      12.896   2.020 -20.190  0.00  0.00    -0.233 NA
ATOM     20  C   UNL d   1      12.467   2.801 -21.190  0.00  0.00     0.298 C 
ATOM     21  O   UNL d   1      13.104   3.759 -21.625  0.00  0.00    -0.263 OA
BRANCH  20  22
ATOM     22  C   UNL d   1      11.103   2.516 -21.678  0.00  0.00     0.157 A 
ATOM     23  O   UNL d   1      10.542   1.289 -21.411  0.00  0.00    -0.302 OA
ATOM     24  C   UNL d   1       9.271   1.298 -21.947  0.00  0.00     0.100 A 
ATOM     25  C   UNL d   1       9.019   2.556 -22.547  0.00  0.00     0.025 A 
ATOM     26  C   UNL d   1       8.335   0.252 -21.932  0.00  0.00     0.025 A 
ATOM     27  C   UNL d   1      10.219   3.321 -22.363  0.00  0.00     0.032 A 
ATOM     28  C   UNL d   1       7.748   2.745 -23.139  0.00  0.00     0.008 A 
ATOM     29  C   UNL d   1       6.791   1.706 -23.137  0.00  0.00     0.030 A 
ATOM     30  I   UNL d   1       4.930   2.006 -24.038  0.00  0.00    -0.043 I 
ATOM     31  C   UNL d   1       7.082   0.461 -22.540  0.00  0.00     0.008 A 
ENDBRANCH  20  22
ENDBRANCH  18  19
ENDBRANCH  17  18
ENDBRANCH   1  17
TORSDOF 8
