REMARK  5 active torsions:
REMARK  status: ('A' for Active; 'I' for Inactive)
REMARK    1  A    between atoms: S_2  and  C_4 
REMARK    2  A    between atoms: S_2  and  N_11 
REMARK    3  A    between atoms: C_14  and  C_15 
REMARK    4  A    between atoms: C_15  and  C_16 
REMARK    5  A    between atoms: C_16  and  C_17 
ROOT
ATOM      1  N   UNL d   1      10.861   7.587  -6.623  0.00  0.00    -0.275 N 
ATOM      2  C   UNL d   1       9.539   7.049  -6.338  0.00  0.00     0.113 C 
ATOM      3  C   UNL d   1       8.761   6.827  -7.625  0.00  0.00     0.025 C 
ATOM      4  C   UNL d   1       9.543   6.022  -8.665  0.00  0.00     0.004 C 
ATOM      5  C   UNL d   1      10.856   6.756  -8.924  0.00  0.00     0.025 C 
ATOM      6  C   UNL d   1      11.653   6.852  -7.617  0.00  0.00     0.113 C 
ENDROOT
BRANCH   1   7
ATOM      7  S   UNL d   1      11.418   9.046  -5.909  0.00  0.00     0.264 S 
ATOM      8  O   UNL d   1      10.271   9.951  -5.670  0.00  0.00    -0.200 OA
ATOM      9  O   UNL d   1      12.589   9.505  -6.645  0.00  0.00    -0.200 OA
BRANCH   7  10
ATOM     10  C   UNL d   1      11.876   8.558  -4.290  0.00  0.00     0.106 A 
ATOM     11  C   UNL d   1      12.220   7.228  -3.988  0.00  0.00     0.043 A 
ATOM     12  C   UNL d   1      12.616   6.933  -2.670  0.00  0.00     0.141 A 
ATOM     13  C   UNL d   1      12.654   7.911  -1.679  0.00  0.00     0.030 A 
ATOM     14  F   UNL d   1      13.039   5.693  -2.375  0.00  0.00    -0.204 F 
ATOM     15  C   UNL d   1      12.246   9.210  -1.975  0.00  0.00     0.003 A 
ATOM     16  C   UNL d   1      11.852   9.544  -3.283  0.00  0.00     0.013 A 
ENDBRANCH   7  10
ENDBRANCH   1   7
BRANCH   4  17
ATOM     17  C   UNL d   1       8.692   5.832  -9.926  0.00  0.00     0.005 C 
BRANCH  17  18
ATOM     18  C   UNL d   1       9.434   5.233 -11.124  0.00  0.00     0.029 C 
BRANCH  18  19
ATOM     19  C   UNL d   1       8.555   4.594 -12.169  0.00  0.00     0.005 A 
ATOM     20  C   UNL d   1       9.188   3.840 -13.190  0.00  0.00     0.138 A 
ATOM     21  C   UNL d   1       8.400   3.105 -14.105  0.00  0.00     0.059 A 
ATOM     22  F   UNL d   1      10.544   3.751 -13.268  0.00  0.00    -0.204 F 
ATOM     23  C   UNL d   1       6.996   3.110 -14.013  0.00  0.00     0.142 A 
ATOM     24  C   UNL d   1       6.359   3.931 -13.048  0.00  0.00     0.029 A 
ATOM     25  F   UNL d   1       6.280   2.311 -14.861  0.00  0.00    -0.204 F 
ATOM     26  C   UNL d   1       7.138   4.704 -12.137  0.00  0.00     0.000 A 
ENDBRANCH  18  19
ENDBRANCH  17  18
ENDBRANCH   4  17
TORSDOF 5
