REMARK  4 active torsions:
REMARK  status: ('A' for Active; 'I' for Inactive)
REMARK    1  A    between atoms: N_5  and  C_6 
REMARK    2  A    between atoms: C_10  and  N_11 
REMARK    3  A    between atoms: N_11  and  S_13 
REMARK    4  A    between atoms: S_13  and  C_16 
ROOT
ATOM      1  N   UNL d   1       7.599   6.245 -12.620  0.00  0.00    -0.252 N 
ATOM      2  C   UNL d   1       6.623   7.338 -12.621  0.00  0.00     0.144 C 
ENDROOT
BRANCH   1   3
ATOM      3  C   UNL d   1       7.080   4.950 -12.809  0.00  0.00     0.072 A 
ATOM      4  C   UNL d   1       5.994   4.493 -12.041  0.00  0.00     0.018 A 
ATOM      5  C   UNL d   1       5.461   3.219 -12.273  0.00  0.00     0.003 A 
ATOM      6  C   UNL d   1       5.989   2.393 -13.267  0.00  0.00     0.017 A 
ATOM      7  C   UNL d   1       7.095   2.811 -14.041  0.00  0.00     0.058 A 
ATOM      8  C   UNL d   1       7.636   4.098 -13.791  0.00  0.00     0.035 A 
BRANCH   7   9
ATOM      9  N   UNL d   1       7.625   1.960 -15.031  0.00  0.00    -0.344 N 
ATOM     10  C   UNL d   1       9.011   2.024 -15.499  0.00  0.00     0.137 C 
ATOM     11  C   UNL d   1       9.034   2.134 -17.036  0.00  0.00     0.274 C 
ATOM     12  N   UNL d   1       8.293   1.017 -17.635  0.00  0.00     0.143 N 
ATOM     13  C   UNL d   1       8.339   1.116 -19.086  0.00  0.00     0.286 C 
ATOM     14  C   UNL d   1       6.896   1.058 -17.193  0.00  0.00     0.274 C 
ATOM     15  C   UNL d   1       6.823   0.915 -15.668  0.00  0.00     0.137 C 
ENDBRANCH   7   9
ENDBRANCH   1   3
BRANCH   1  16
ATOM     16  S   UNL d   1       9.260   6.655 -12.293  0.00  0.00     0.268 S 
ATOM     17  O   UNL d   1      10.068   5.550 -12.836  0.00  0.00    -0.200 OA
ATOM     18  O   UNL d   1       9.457   8.025 -12.783  0.00  0.00    -0.200 OA
BRANCH  16  19
ATOM     19  C   UNL d   1       9.439   6.661 -10.521  0.00  0.00     0.104 A 
ATOM     20  C   UNL d   1      10.296   7.608  -9.915  0.00  0.00     0.013 A 
ATOM     21  C   UNL d   1      10.395   7.658  -8.509  0.00  0.00     0.001 A 
ATOM     22  C   UNL d   1       9.625   6.764  -7.727  0.00  0.00     0.000 A 
ATOM     23  C   UNL d   1      11.253   8.586  -7.874  0.00  0.00     0.000 A 
ATOM     24  C   UNL d   1       8.771   5.822  -8.346  0.00  0.00     0.001 A 
ATOM     25  C   UNL d   1       9.723   6.805  -6.327  0.00  0.00     0.000 A 
ATOM     26  C   UNL d   1       8.698   5.755  -9.746  0.00  0.00     0.013 A 
ATOM     27  C   UNL d   1      10.605   7.706  -5.699  0.00  0.00     0.000 A 
ATOM     28  C   UNL d   1      11.357   8.609  -6.469  0.00  0.00     0.000 A 
ENDBRANCH  16  19
ENDBRANCH   1  16
TORSDOF 4
