REMARK  6 active torsions:
REMARK  status: ('A' for Active; 'I' for Inactive)
REMARK    1  A    between atoms: O_2  and  C_3 
REMARK    2  A    between atoms: C_8  and  N_9 
REMARK    3  A    between atoms: N_12  and  C_13 
REMARK    4  A    between atoms: C_13  and  C_14 
REMARK    5  A    between atoms: C_14  and  N_15 
REMARK    6  A    between atoms: C_21  and  C_22 
ROOT
ATOM      1  N   UNL d   1       9.066   6.499 -11.121  0.00  0.00    -0.245 N 
ATOM      2  C   UNL d   1       9.457   7.803 -11.344  0.00  0.00     0.354 A 
ATOM      3  O   UNL d   1       9.319   8.361 -12.428  0.00  0.00    -0.244 OA
ATOM      4  N   UNL d   1      10.009   8.488 -10.309  0.00  0.00    -0.173 NA
ATOM      5  C   UNL d   1      10.140   7.961  -9.075  0.00  0.00     0.172 A 
ATOM      6  N   UNL d   1      10.644   8.561  -7.949  0.00  0.00    -0.227 NA
ATOM      7  C   UNL d   1      10.593   7.639  -6.915  0.00  0.00     0.083 A 
ATOM      8  C   UNL d   1      10.047   6.486  -7.423  0.00  0.00     0.027 A 
ATOM      9  C   UNL d   1       9.757   6.691  -8.801  0.00  0.00     0.094 A 
ATOM     10  C   UNL d   1       9.173   5.895  -9.899  0.00  0.00     0.267 A 
ATOM     11  O   UNL d   1       8.836   4.730  -9.686  0.00  0.00    -0.267 OA
ENDROOT
BRANCH   1  12
ATOM     12  C   UNL d   1       8.493   5.731 -12.255  0.00  0.00     0.149 C 
BRANCH  12  13
ATOM     13  C   UNL d   1       9.601   5.072 -13.101  0.00  0.00     0.275 C 
BRANCH  13  14
ATOM     14  N   UNL d   1       9.063   4.418 -14.293  0.00  0.00     0.143 N 
ATOM     15  C   UNL d   1       8.630   3.054 -13.967  0.00  0.00     0.274 C 
ATOM     16  C   UNL d   1       8.023   2.327 -15.184  0.00  0.00     0.137 C 
ATOM     17  N   UNL d   1       8.945   2.381 -16.312  0.00  0.00    -0.343 N 
ATOM     18  C   UNL d   1       9.535   3.681 -16.614  0.00  0.00     0.137 C 
ATOM     19  C   UNL d   1      10.096   4.335 -15.333  0.00  0.00     0.274 C 
BRANCH  17  20
ATOM     20  C   UNL d   1       9.367   1.208 -16.970  0.00  0.00     0.079 A 
ATOM     21  C   UNL d   1       8.430   0.211 -17.363  0.00  0.00     0.110 A 
ATOM     22  C   UNL d   1       8.904  -0.943 -18.039  0.00  0.00     0.026 A 
ATOM     23  C   UNL d   1      10.271  -1.110 -18.314  0.00  0.00     0.002 A 
ATOM     24  C   UNL d   1      11.191  -0.125 -17.930  0.00  0.00     0.002 A 
ATOM     25  C   UNL d   1      10.743   1.023 -17.257  0.00  0.00     0.019 A 
BRANCH  21  26
ATOM     26  O   UNL d   1       7.089   0.426 -17.103  0.00  0.00    -0.327 OA
ATOM     27  C   UNL d   1       6.146  -0.567 -17.488  0.00  0.00     0.181 C 
ENDBRANCH  21  26
ENDBRANCH  17  20
ENDBRANCH  13  14
ENDBRANCH  12  13
ENDBRANCH   1  12
BRANCH   7  28
ATOM     28  C   UNL d   1      11.073   7.961  -5.577  0.00  0.00     0.018 A 
ATOM     29  C   UNL d   1      11.558   6.939  -4.730  0.00  0.00     0.001 A 
ATOM     30  C   UNL d   1      12.053   7.236  -3.446  0.00  0.00    -0.004 A 
ATOM     31  C   UNL d   1      12.041   8.564  -2.986  0.00  0.00    -0.022 A 
ATOM     32  C   UNL d   1      11.529   9.587  -3.809  0.00  0.00    -0.004 A 
ATOM     33  C   UNL d   1      12.556   8.887  -1.606  0.00  0.00     0.031 C 
ATOM     34  C   UNL d   1      11.064   9.290  -5.104  0.00  0.00     0.001 A 
ENDBRANCH   7  28
TORSDOF 6
