REMARK  5 active torsions:
REMARK  status: ('A' for Active; 'I' for Inactive)
REMARK    1  A    between atoms: O_2  and  C_3 
REMARK    2  A    between atoms: C_6  and  C_7 
REMARK    3  A    between atoms: C_11  and  C_12 
REMARK    4  A    between atoms: C_12  and  N_13 
REMARK    5  A    between atoms: N_16  and  C_17 
ROOT
ATOM      1  C   UNL d   1      12.009   2.806 -17.784  0.00  0.00    -0.000 A 
ATOM      2  C   UNL d   1      11.750   4.118 -18.252  0.00  0.00    -0.000 A 
ATOM      3  C   UNL d   1      11.191   5.093 -17.401  0.00  0.00    -0.000 A 
ATOM      4  C   UNL d   1      10.870   4.761 -16.071  0.00  0.00    -0.002 A 
ATOM      5  C   UNL d   1      11.117   3.461 -15.587  0.00  0.00     0.011 A 
ATOM      6  C   UNL d   1      11.705   2.504 -16.438  0.00  0.00    -0.002 A 
ENDROOT
BRANCH   5   7
ATOM      7  C   UNL d   1      10.682   3.079 -14.179  0.00  0.00     0.277 C 
BRANCH   7   8
ATOM      8  N   UNL d   1       9.400   2.372 -14.100  0.00  0.00     0.145 N 
ATOM      9  C   UNL d   1       8.342   3.089 -14.821  0.00  0.00     0.275 C 
ATOM     10  C   UNL d   1       6.995   2.365 -14.669  0.00  0.00     0.155 C 
ATOM     11  N   UNL d   1       7.105   0.975 -15.080  0.00  0.00    -0.179 N 
ATOM     12  C   UNL d   1       8.166   0.245 -14.412  0.00  0.00     0.155 C 
ATOM     13  C   UNL d   1       9.499   0.992 -14.595  0.00  0.00     0.275 C 
BRANCH  11  14
ATOM     14  C   UNL d   1       6.299   0.389 -16.038  0.00  0.00     0.727 A 
ATOM     15  N   UNL d   1       5.627  -0.698 -15.655  0.00  0.00    -0.060 NA
ATOM     16  C   UNL d   1       4.835  -1.285 -16.577  0.00  0.00     0.120 A 
ATOM     17  C   UNL d   1       4.714  -0.772 -17.882  0.00  0.00     0.043 A 
ATOM     18  C   UNL d   1       5.468   0.381 -18.170  0.00  0.00     0.120 A 
ATOM     19  N   UNL d   1       6.259   0.965 -17.244  0.00  0.00    -0.060 NA
ENDBRANCH  11  14
ENDBRANCH   7   8
ENDBRANCH   5   7
BRANCH   1  20
ATOM     20  C   UNL d   1      12.578   1.768 -18.672  0.00  0.00     0.000 A 
ATOM     21  C   UNL d   1      12.232   0.404 -18.533  0.00  0.00     0.002 A 
ATOM     22  C   UNL d   1      12.802  -0.578 -19.369  0.00  0.00     0.024 A 
ATOM     23  C   UNL d   1      13.719  -0.219 -20.377  0.00  0.00     0.094 A 
ATOM     24  C   UNL d   1      14.059   1.146 -20.532  0.00  0.00     0.024 A 
ATOM     25  C   UNL d   1      13.494   2.120 -19.688  0.00  0.00     0.002 A 
BRANCH  23  26
ATOM     26  O   UNL d   1      14.223  -1.237 -21.156  0.00  0.00    -0.328 OA
ATOM     27  C   UNL d   1      15.145  -0.892 -22.178  0.00  0.00     0.181 C 
ENDBRANCH  23  26
ENDBRANCH   1  20
TORSDOF 5
