REMARK  2 active torsions:
REMARK  status: ('A' for Active; 'I' for Inactive)
REMARK    1  A    between atoms: C_9  and  C_10 
REMARK    2  A    between atoms: C_10  and  N_11 
ROOT
ATOM      1  N   UNL d   1       8.544   4.582  -9.290  0.00  0.00    -0.101 NA
ATOM      2  C   UNL d   1       9.092   5.829  -9.036  0.00  0.00     0.070 A 
ATOM      3  C   UNL d   1       9.607   6.618 -10.084  0.00  0.00     0.016 A 
ATOM      4  C   UNL d   1      10.272   7.837  -9.796  0.00  0.00     0.026 A 
ATOM      5  C   UNL d   1      10.417   8.277  -8.452  0.00  0.00     0.103 A 
ATOM      6  O   UNL d   1      11.134   9.418  -8.130  0.00  0.00    -0.273 OA
ATOM      7  C   UNL d   1      11.284   9.896  -6.830  0.00  0.00     0.298 A 
ATOM      8  O   UNL d   1      11.877  10.919  -6.521  0.00  0.00    -0.259 OA
ATOM      9  C   UNL d   1      10.655   9.110  -5.786  0.00  0.00     0.074 A 
ATOM     10  C   UNL d   1       9.966   7.990  -6.057  0.00  0.00     0.005 A 
ATOM     11  C   UNL d   1       9.826   7.512  -7.421  0.00  0.00     0.024 A 
ATOM     12  C   UNL d   1       9.167   6.305  -7.712  0.00  0.00     0.016 A 
ENDROOT
BRANCH   9  13
ATOM     13  C   UNL d   1      10.931   9.699  -4.400  0.00  0.00     0.282 C 
BRANCH  13  14
ATOM     14  N   UNL d   1      12.076   9.059  -3.811  0.00  0.00     0.142 N 
ATOM     15  C   UNL d   1      12.020   7.602  -3.834  0.00  0.00     0.251 C 
ATOM     16  C   UNL d   1      13.031   7.218  -2.796  0.00  0.00     0.037 C 
ATOM     17  C   UNL d   1      13.001   8.353  -1.792  0.00  0.00     0.037 C 
ATOM     18  C   UNL d   1      12.032   9.343  -2.385  0.00  0.00     0.251 C 
ENDBRANCH  13  14
ENDBRANCH   9  13
TORSDOF 2
