REMARK  6 active torsions:
REMARK  status: ('A' for Active; 'I' for Inactive)
REMARK    1  A    between atoms: C_2  and  C_3 
REMARK    2  A    between atoms: N_13  and  C_14 
REMARK    3  A    between atoms: C_14  and  C_15 
REMARK    4  A    between atoms: C_15  and  C_17 
REMARK    5  A    between atoms: C_17  and  N_18 
REMARK    6  A    between atoms: N_21  and  C_22 
ROOT
ATOM      1  C   UNL d   1      10.281  -0.311 -18.423  0.00  0.00     0.208 C 
ATOM      2  O   UNL d   1      11.377  -1.103 -18.805  0.00  0.00    -0.219 OA
ENDROOT
BRANCH   1   3
ATOM      3  C   UNL d   1       9.433   0.065 -19.672  0.00  0.00     0.148 C 
BRANCH   3   4
ATOM      4  N   UNL d   1       8.024  -0.362 -19.541  0.00  0.00    -0.247 N 
ATOM      5  C   UNL d   1       7.568  -1.593 -19.826  0.00  0.00     0.348 A 
ATOM      6  N   UNL d   1       6.262  -1.654 -19.517  0.00  0.00    -0.209 NA
ATOM      7  O   UNL d   1       8.224  -2.510 -20.308  0.00  0.00    -0.245 OA
ATOM      8  C   UNL d   1       5.732  -0.399 -19.021  0.00  0.00     0.179 A 
ATOM      9  C   UNL d   1       4.680   0.170 -19.992  0.00  0.00     0.039 C 
ATOM     10  C   UNL d   1       7.022   0.424 -19.151  0.00  0.00     0.265 A 
ATOM     11  O   UNL d   1       7.085   1.641 -18.965  0.00  0.00    -0.269 OA
BRANCH   8  12
ATOM     12  C   UNL d   1       5.186  -0.536 -17.571  0.00  0.00     0.006 A 
ATOM     13  C   UNL d   1       3.997  -1.264 -17.307  0.00  0.00     0.000 A 
ATOM     14  C   UNL d   1       3.513  -1.361 -15.973  0.00  0.00     0.029 A 
ATOM     15  C   UNL d   1       4.205  -0.769 -14.906  0.00  0.00     0.140 A 
ATOM     16  C   UNL d   1       5.402  -0.078 -15.159  0.00  0.00     0.029 A 
ATOM     17  F   UNL d   1       3.704  -0.832 -13.654  0.00  0.00    -0.204 F 
ATOM     18  C   UNL d   1       5.877   0.042 -16.479  0.00  0.00     0.000 A 
ENDBRANCH   8  12
ENDBRANCH   3   4
ENDBRANCH   1   3
BRANCH   1  19
ATOM     19  C   UNL d   1      10.897   0.916 -17.713  0.00  0.00     0.285 C 
BRANCH  19  20
ATOM     20  N   UNL d   1       9.941   1.850 -17.132  0.00  0.00     0.144 N 
ATOM     21  C   UNL d   1       9.164   1.257 -16.043  0.00  0.00     0.274 C 
ATOM     22  C   UNL d   1       8.107   2.244 -15.498  0.00  0.00     0.137 C 
ATOM     23  N   UNL d   1       8.771   3.460 -15.084  0.00  0.00    -0.343 N 
ATOM     24  C   UNL d   1       9.608   4.094 -16.096  0.00  0.00     0.137 C 
ATOM     25  C   UNL d   1      10.611   3.055 -16.618  0.00  0.00     0.274 C 
BRANCH  23  26
ATOM     26  C   UNL d   1       8.549   3.999 -13.807  0.00  0.00     0.084 A 
ATOM     27  C   UNL d   1       9.626   4.557 -13.087  0.00  0.00     0.158 A 
ATOM     28  C   UNL d   1       9.416   5.118 -11.818  0.00  0.00     0.061 A 
ATOM     29  F   UNL d   1      10.891   4.546 -13.574  0.00  0.00    -0.203 F 
ATOM     30  C   UNL d   1       8.141   5.085 -11.233  0.00  0.00     0.142 A 
ATOM     31  C   UNL d   1       7.054   4.516 -11.929  0.00  0.00     0.031 A 
ATOM     32  F   UNL d   1       7.994   5.581  -9.984  0.00  0.00    -0.204 F 
ATOM     33  C   UNL d   1       7.255   3.979 -13.219  0.00  0.00     0.021 A 
ENDBRANCH  23  26
ENDBRANCH  19  20
ENDBRANCH   1  19
TORSDOF 6
