REMARK  4 active torsions:
REMARK  status: ('A' for Active; 'I' for Inactive)
REMARK    1  A    between atoms: C_4  and  C_5 
REMARK    2  A    between atoms: C_5  and  N_6 
REMARK    3  A    between atoms: C_9  and  C_10 
REMARK    4  A    between atoms: C_10  and  C_12 
ROOT
ATOM      1  N   UNL d   1       7.933   3.930 -13.857  0.00  0.00     0.137 N 
ATOM      2  C   UNL d   1       9.323   3.840 -13.419  0.00  0.00     0.251 C 
ATOM      3  C   UNL d   1       9.825   5.192 -12.928  0.00  0.00     0.043 C 
ATOM      4  C   UNL d   1       8.983   5.704 -11.762  0.00  0.00     0.066 C 
ATOM      5  C   UNL d   1       7.508   5.715 -12.194  0.00  0.00     0.043 C 
ATOM      6  C   UNL d   1       7.083   4.333 -12.732  0.00  0.00     0.251 C 
ENDROOT
BRANCH   1   7
ATOM      7  C   UNL d   1       7.464   2.648 -14.384  0.00  0.00     0.251 C 
BRANCH   7   8
ATOM      8  C   UNL d   1       8.128   2.265 -15.727  0.00  0.00     0.045 C 
ATOM      9  C   UNL d   1       7.101   1.631 -16.690  0.00  0.00     0.071 C 
ATOM     10  C   UNL d   1       7.700   1.209 -18.039  0.00  0.00     0.173 C 
ATOM     11  O   UNL d   1       7.008   1.283 -19.050  0.00  0.00    -0.291 OA
ATOM     12  C   UNL d   1       9.122   0.757 -18.029  0.00  0.00     0.031 A 
ATOM     13  C   UNL d   1       9.889   0.813 -16.842  0.00  0.00    -0.019 A 
ATOM     14  C   UNL d   1       9.719   0.299 -19.229  0.00  0.00     0.003 A 
ATOM     15  C   UNL d   1       9.312   1.289 -15.532  0.00  0.00     0.029 C 
ATOM     16  C   UNL d   1      11.247   0.430 -16.875  0.00  0.00    -0.004 A 
ATOM     17  C   UNL d   1      11.832  -0.031 -18.058  0.00  0.00    -0.000 A 
ATOM     18  C   UNL d   1      11.070  -0.105 -19.239  0.00  0.00     0.000 A 
ENDBRANCH   7   8
ENDBRANCH   1   7
BRANCH   4  19
ATOM     19  C   UNL d   1       9.436   7.106 -11.322  0.00  0.00     0.173 C 
ATOM     20  O   UNL d   1       9.456   8.017 -12.153  0.00  0.00    -0.291 OA
BRANCH  19  21
ATOM     21  C   UNL d   1       9.886   7.311  -9.917  0.00  0.00     0.035 A 
ATOM     22  C   UNL d   1       9.512   6.429  -8.874  0.00  0.00     0.005 A 
ATOM     23  C   UNL d   1       9.929   6.680  -7.555  0.00  0.00     0.030 A 
ATOM     24  C   UNL d   1      10.700   7.818  -7.261  0.00  0.00     0.140 A 
ATOM     25  C   UNL d   1      11.061   8.709  -8.287  0.00  0.00     0.030 A 
ATOM     26  F   UNL d   1      11.085   8.060  -5.987  0.00  0.00    -0.204 F 
ATOM     27  C   UNL d   1      10.652   8.459  -9.611  0.00  0.00     0.005 A 
ENDBRANCH  19  21
ENDBRANCH   4  19
TORSDOF 4
