REMARK  6 active torsions:
REMARK  status: ('A' for Active; 'I' for Inactive)
REMARK    1  A    between atoms: C_5  and  C_6 
REMARK    2  A    between atoms: N_14  and  C_15 
REMARK    3  A    between atoms: C_15  and  C_16 
REMARK    4  A    between atoms: C_18  and  C_19 
REMARK    5  A    between atoms: C_19  and  N_20 
REMARK       I    between atoms: N_20  and  C_21 
REMARK    6  A    between atoms: C_21  and  C_23 
ROOT
ATOM      1  C   UNL d   1       5.370   3.742 -12.172  0.00  0.00     0.035 A 
ATOM      2  C   UNL d   1       4.306   3.788 -13.232  0.00  0.00     0.004 A 
ATOM      3  C   UNL d   1       5.542   2.923 -13.433  0.00  0.00     0.026 A 
ENDROOT
BRANCH   1   4
ATOM      4  C   UNL d   1       6.115   5.007 -11.903  0.00  0.00     0.250 C 
BRANCH   4   5
ATOM      5  N   UNL d   1       7.433   4.804 -11.341  0.00  0.00     0.140 N 
ATOM      6  C   UNL d   1       8.479   4.607 -12.356  0.00  0.00     0.249 C 
ATOM      7  C   UNL d   1       8.730   5.789 -13.328  0.00  0.00     0.038 C 
ATOM      8  C   UNL d   1       9.813   4.358 -11.654  0.00  0.00     0.176 C 
ATOM      9  O   UNL d   1       9.973   5.526 -10.855  0.00  0.00    -0.348 OA
ATOM     10  C   UNL d   1       9.141   5.612  -9.722  0.00  0.00     0.172 C 
ATOM     11  C   UNL d   1       7.804   5.861 -10.403  0.00  0.00     0.284 C 
BRANCH  10  12
ATOM     12  C   UNL d   1       9.587   6.771  -8.848  0.00  0.00     0.026 A 
ATOM     13  C   UNL d   1       9.162   6.877  -7.517  0.00  0.00     0.098 A 
ATOM     14  N   UNL d   1       9.545   7.880  -6.692  0.00  0.00    -0.230 NA
ATOM     15  C   UNL d   1      10.352   8.828  -7.197  0.00  0.00     0.151 A 
ATOM     16  C   UNL d   1      10.819   8.836  -8.521  0.00  0.00     0.033 A 
ATOM     17  N   UNL d   1      10.740   9.833  -6.311  0.00  0.00    -0.080 NA
ATOM     18  C   UNL d   1      10.424   7.787  -9.368  0.00  0.00     0.002 A 
ENDBRANCH  10  12
ENDBRANCH   4   5
ENDBRANCH   1   4
BRANCH   3  19
ATOM     19  C   UNL d   1       5.446   1.404 -13.367  0.00  0.00     0.129 C 
BRANCH  19  20
ATOM     20  N   UNL d   1       5.512   0.715 -14.644  0.00  0.00    -0.233 NA
ATOM     21  C   UNL d   1       4.777  -0.365 -14.940  0.00  0.00     0.293 C 
ATOM     22  O   UNL d   1       4.033  -0.917 -14.131  0.00  0.00    -0.264 OA
BRANCH  21  23
ATOM     23  C   UNL d   1       4.886  -0.832 -16.332  0.00  0.00     0.139 A 
ATOM     24  N   UNL d   1       4.262  -2.009 -16.718  0.00  0.00    -0.241 NA
ATOM     25  C   UNL d   1       4.465  -2.262 -18.052  0.00  0.00     0.082 A 
ATOM     26  C   UNL d   1       5.255  -1.174 -18.538  0.00  0.00     0.019 A 
ATOM     27  C   UNL d   1       4.056  -3.311 -18.888  0.00  0.00     0.019 A 
ATOM     28  C   UNL d   1       5.495  -0.282 -17.441  0.00  0.00     0.025 A 
ATOM     29  C   UNL d   1       5.615  -1.193 -19.904  0.00  0.00     0.002 A 
ATOM     30  C   UNL d   1       5.214  -2.249 -20.747  0.00  0.00     0.000 A 
ATOM     31  C   UNL d   1       4.433  -3.308 -20.240  0.00  0.00     0.002 A 
ENDBRANCH  21  23
ENDBRANCH  19  20
ENDBRANCH   3  19
TORSDOF 6
