REMARK  4 active torsions:
REMARK  status: ('A' for Active; 'I' for Inactive)
REMARK    1  A    between atoms: C_12  and  C_13 
REMARK    2  A    between atoms: N_16  and  C_17 
REMARK    3  A    between atoms: C_17  and  C_18 
REMARK    4  A    between atoms: C_18  and  C_19 
ROOT
ATOM      1  C   UNL d   1       9.397   5.623 -11.843  0.00  0.00     0.011 C 
ATOM      2  C   UNL d   1       9.379   4.880 -10.493  0.00  0.00     0.036 C 
ATOM      3  C   UNL d   1      10.075   5.669  -9.401  0.00  0.00     0.250 C 
ATOM      4  N   UNL d   1       9.457   6.977  -9.239  0.00  0.00     0.137 N 
ATOM      5  C   UNL d   1       9.600   7.752 -10.484  0.00  0.00     0.250 C 
ATOM      6  C   UNL d   1       8.882   7.051 -11.652  0.00  0.00     0.036 C 
ENDROOT
BRANCH   1   7
ATOM      7  C   UNL d   1       8.611   4.868 -12.947  0.00  0.00     0.062 C 
ATOM      8  C   UNL d   1       9.431   3.742 -13.608  0.00  0.00     0.172 C 
ATOM      9  O   UNL d   1      10.662   3.801 -13.621  0.00  0.00    -0.291 OA
ATOM     10  C   UNL d   1       8.674   2.657 -14.272  0.00  0.00     0.031 A 
ATOM     11  C   UNL d   1       7.255   2.605 -14.229  0.00  0.00    -0.017 A 
ATOM     12  C   UNL d   1       9.383   1.635 -14.950  0.00  0.00     0.005 A 
ATOM     13  C   UNL d   1       6.579   1.545 -14.854  0.00  0.00     0.025 A 
ATOM     14  C   UNL d   1       6.431   3.663 -13.516  0.00  0.00     0.027 C 
ATOM     15  C   UNL d   1       7.288   0.553 -15.550  0.00  0.00     0.140 A 
ATOM     16  C   UNL d   1       8.698   0.588 -15.589  0.00  0.00     0.030 A 
ATOM     17  F   UNL d   1       6.607  -0.418 -16.191  0.00  0.00    -0.204 F 
ATOM     18  C   UNL d   1       7.240   4.355 -12.432  0.00  0.00     0.012 C 
ENDBRANCH   1   7
BRANCH   4  19
ATOM     19  C   UNL d   1      10.130   7.694  -8.159  0.00  0.00     0.255 C 
BRANCH  19  20
ATOM     20  C   UNL d   1       9.821   7.083  -6.776  0.00  0.00     0.062 C 
BRANCH  20  21
ATOM     21  C   UNL d   1      10.652   7.720  -5.682  0.00  0.00    -0.020 A 
ATOM     22  C   UNL d   1      10.685   9.120  -5.545  0.00  0.00    -0.004 A 
ATOM     23  C   UNL d   1      11.445   9.707  -4.518  0.00  0.00    -0.000 A 
ATOM     24  C   UNL d   1      12.185   8.901  -3.631  0.00  0.00    -0.000 A 
ATOM     25  C   UNL d   1      12.159   7.501  -3.768  0.00  0.00    -0.000 A 
ATOM     26  C   UNL d   1      11.397   6.913  -4.795  0.00  0.00    -0.004 A 
ENDBRANCH  20  21
ENDBRANCH  19  20
ENDBRANCH   4  19
TORSDOF 4
