REMARK  3 active torsions:
REMARK  status: ('A' for Active; 'I' for Inactive)
REMARK    1  A    between atoms: N_3  and  C_4 
REMARK    2  A    between atoms: C_4  and  C_5 
REMARK    3  A    between atoms: N_13  and  C_14 
ROOT
ATOM      1  O   UNL d   1       9.226   7.705  -6.129  0.00  0.00    -0.247 OA
ATOM      2  C   UNL d   1      10.094   8.242  -6.837  0.00  0.00     0.328 C 
ATOM      3  N   UNL d   1      10.890   9.224  -6.421  0.00  0.00    -0.298 N 
ATOM      4  C   UNL d   1      11.768   9.729  -7.412  0.00  0.00     0.131 C 
ATOM      5  C   UNL d   1      11.416   8.870  -8.626  0.00  0.00     0.135 C 
ATOM      6  N   UNL d   1      10.431   7.914  -8.096  0.00  0.00    -0.280 N 
ENDROOT
BRANCH   3   7
ATOM      7  C   UNL d   1      10.919   9.843  -5.111  0.00  0.00     0.142 C 
BRANCH   7   8
ATOM      8  C   UNL d   1      11.874   9.057  -4.183  0.00  0.00     0.279 C 
ATOM      9  N   UNL d   1      11.553   9.494  -2.839  0.00  0.00     0.339 N 
ATOM     10  C   UNL d   1      12.416   8.898  -1.830  0.00  0.00     0.290 C 
ATOM     11  C   UNL d   1      12.265   7.370  -1.854  0.00  0.00     0.038 C 
ATOM     12  C   UNL d   1      12.672   6.872  -3.216  0.00  0.00     0.004 C 
ATOM     13  C   UNL d   1      11.771   7.497  -4.251  0.00  0.00     0.038 C 
ENDBRANCH   7   8
ENDBRANCH   3   7
BRANCH   6  14
ATOM     14  C   UNL d   1       9.881   6.845  -8.874  0.00  0.00     0.065 A 
ATOM     15  C   UNL d   1       9.793   6.943 -10.276  0.00  0.00     0.029 A 
ATOM     16  C   UNL d   1       9.176   5.918 -11.020  0.00  0.00     0.059 A 
ATOM     17  C   UNL d   1       8.676   4.801 -10.344  0.00  0.00     0.011 A 
ATOM     18 CL   UNL d   1       9.018   6.001 -12.733  0.00  0.00    -0.082 Cl
ATOM     19  C   UNL d   1       8.803   4.646  -8.963  0.00  0.00     0.002 A 
ATOM     20  C   UNL d   1       9.414   5.668  -8.230  0.00  0.00     0.017 A 
ENDBRANCH   6  14
TORSDOF 3
