REMARK  4 active torsions:
REMARK  status: ('A' for Active; 'I' for Inactive)
REMARK    1  A    between atoms: O_2  and  C_3 
REMARK    2  A    between atoms: C_10  and  C_11 
REMARK    3  A    between atoms: C_11  and  N_12 
REMARK    4  A    between atoms: C_15  and  N_16 
ROOT
ATOM      1  N   UNL d   1       8.719   4.934 -12.726  0.00  0.00     0.142 N 
ATOM      2  C   UNL d   1       9.103   6.338 -12.640  0.00  0.00     0.253 C 
ATOM      3  C   UNL d   1       9.020   6.826 -11.186  0.00  0.00     0.058 C 
ATOM      4  C   UNL d   1       9.873   5.991 -10.235  0.00  0.00     0.094 C 
ATOM      5  C   UNL d   1       9.568   4.491 -10.488  0.00  0.00     0.058 C 
ATOM      6  C   UNL d   1       9.661   4.112 -11.974  0.00  0.00     0.253 C 
ENDROOT
BRANCH   1   7
ATOM      7  C   UNL d   1       8.754   4.500 -14.117  0.00  0.00     0.278 C 
BRANCH   7   8
ATOM      8  C   UNL d   1       8.163   3.178 -14.479  0.00  0.00     0.033 A 
ATOM      9  C   UNL d   1       6.934   2.704 -14.079  0.00  0.00     0.097 A 
ATOM     10  N   UNL d   1       6.705   1.477 -14.676  0.00  0.00    -0.244 NA
ATOM     11  C   UNL d   1       7.765   1.129 -15.490  0.00  0.00     0.083 A 
ATOM     12  C   UNL d   1       7.996   0.006 -16.303  0.00  0.00     0.019 A 
ATOM     13  C   UNL d   1       8.707   2.193 -15.385  0.00  0.00     0.039 A 
ATOM     14  C   UNL d   1       9.194  -0.083 -17.030  0.00  0.00     0.004 A 
ATOM     15  C   UNL d   1      10.140   0.953 -16.951  0.00  0.00     0.024 A 
ATOM     16  C   UNL d   1       9.903   2.094 -16.145  0.00  0.00     0.095 A 
BRANCH  16  17
ATOM     17  O   UNL d   1      10.791   3.146 -16.051  0.00  0.00    -0.328 OA
ATOM     18  C   UNL d   1      11.989   3.097 -16.808  0.00  0.00     0.181 C 
ENDBRANCH  16  17
ENDBRANCH   7   8
ENDBRANCH   1   7
BRANCH   4  19
ATOM     19  N   UNL d   1       9.703   6.409  -8.845  0.00  0.00    -0.281 N 
ATOM     20  C   UNL d   1      10.570   7.314  -8.182  0.00  0.00     0.082 A 
ATOM     21  C   UNL d   1      10.106   7.449  -6.894  0.00  0.00     0.102 A 
ATOM     22  C   UNL d   1      11.710   7.990  -8.629  0.00  0.00     0.019 A 
ATOM     23  N   UNL d   1       8.974   6.673  -6.791  0.00  0.00    -0.191 NA
ATOM     24  C   UNL d   1      10.718   8.246  -5.929  0.00  0.00     0.021 A 
ATOM     25  C   UNL d   1       8.776   6.033  -7.933  0.00  0.00     0.350 A 
ATOM     26  O   UNL d   1       7.926   5.157  -8.052  0.00  0.00    -0.244 OA
ATOM     27  C   UNL d   1      11.861   8.964  -6.349  0.00  0.00     0.002 A 
ATOM     28  C   UNL d   1      12.372   8.787  -7.666  0.00  0.00     0.002 A 
ENDBRANCH   4  19
TORSDOF 4
