REMARK  5 active torsions:
REMARK  status: ('A' for Active; 'I' for Inactive)
REMARK    1  A    between atoms: C_3  and  C_4 
REMARK    2  A    between atoms: C_3  and  C_18 
REMARK    3  A    between atoms: C_4  and  C_5 
REMARK    4  A    between atoms: C_5  and  N_6 
REMARK    5  A    between atoms: N_9  and  C_10 
ROOT
ATOM      1  N   UNL d   1       9.482   5.879  -8.136  0.00  0.00     0.141 N 
ATOM      2  C   UNL d   1       8.145   5.332  -8.253  0.00  0.00     0.274 C 
ATOM      3  C   UNL d   1       8.233   4.165  -9.232  0.00  0.00     0.138 C 
ATOM      4  N   UNL d   1       8.561   4.759 -10.526  0.00  0.00    -0.330 N 
ATOM      5  C   UNL d   1       9.860   5.333 -10.493  0.00  0.00     0.138 C 
ATOM      6  C   UNL d   1       9.840   6.445  -9.457  0.00  0.00     0.274 C 
ENDROOT
BRANCH   1   7
ATOM      7  C   UNL d   1       9.404   6.946  -7.177  0.00  0.00     0.257 C 
BRANCH   7   8
ATOM      8  C   UNL d   1      10.840   7.132  -6.624  0.00  0.00     0.084 C 
BRANCH   8   9
ATOM      9  C   UNL d   1      11.008   8.346  -5.678  0.00  0.00     0.090 C 
ATOM     10  N   UNL d   1      10.739   9.536  -6.041  0.00  0.00    -0.101 NA
ATOM     11  O   UNL d   1      10.427   9.578  -7.412  0.00  0.00    -0.061 OA
BRANCH   9  12
ATOM     12  C   UNL d   1      11.533   8.147  -4.279  0.00  0.00     0.016 A 
ATOM     13  C   UNL d   1      11.851   6.874  -3.734  0.00  0.00     0.001 A 
ATOM     14  C   UNL d   1      12.364   6.756  -2.432  0.00  0.00     0.000 A 
ATOM     15  C   UNL d   1      12.622   7.893  -1.635  0.00  0.00     0.000 A 
ATOM     16  C   UNL d   1      12.275   9.154  -2.135  0.00  0.00     0.000 A 
ATOM     17  C   UNL d   1      11.748   9.285  -3.433  0.00  0.00     0.001 A 
ENDBRANCH   9  12
ENDBRANCH   8   9
ENDBRANCH   7   8
ENDBRANCH   1   7
BRANCH   4  18
ATOM     18  C   UNL d   1       7.858   4.418 -11.697  0.00  0.00     0.140 A 
ATOM     19  N   UNL d   1       6.527   4.557 -11.643  0.00  0.00    -0.227 NA
ATOM     20  C   UNL d   1       5.781   4.235 -12.740  0.00  0.00     0.101 A 
ATOM     21  C   UNL d   1       6.357   3.849 -13.947  0.00  0.00     0.021 A 
ATOM     22  C   UNL d   1       7.758   3.746 -14.020  0.00  0.00     0.005 A 
ATOM     23  C   UNL d   1       8.530   4.029 -12.887  0.00  0.00     0.037 A 
ENDBRANCH   4  18
TORSDOF 5
