REMARK  7 active torsions:
REMARK  status: ('A' for Active; 'I' for Inactive)
REMARK    1  A    between atoms: C_2  and  C_3 
REMARK       I    between atoms: C_2  and  N_9 
REMARK    2  A    between atoms: C_3  and  C_4 
REMARK    3  A    between atoms: N_9  and  C_10 
REMARK    4  A    between atoms: C_13  and  C_14 
REMARK    5  A    between atoms: C_14  and  C_15 
REMARK    6  A    between atoms: C_15  and  N_16 
REMARK    7  A    between atoms: C_19  and  C_20 
ROOT
ATOM      1  C   UNL d   1       9.646   5.729 -11.810  0.00  0.00     0.035 C 
ENDROOT
BRANCH   1   2
ATOM      2  C   UNL d   1      10.006   6.524 -10.567  0.00  0.00     0.002 C 
ATOM      3  C   UNL d   1       9.704   8.012 -10.753  0.00  0.00     0.002 C 
ATOM      4  C   UNL d   1      10.107   8.802  -9.509  0.00  0.00     0.024 C 
ATOM      5  C   UNL d   1       9.495   8.204  -8.219  0.00  0.00     0.106 C 
ATOM      6  C   UNL d   1       9.788   6.700  -8.040  0.00  0.00     0.024 C 
ATOM      7  C   UNL d   1       9.370   5.938  -9.292  0.00  0.00     0.002 C 
BRANCH   5   8
ATOM      8  N   UNL d   1       9.881   8.946  -7.029  0.00  0.00    -0.240 NA
ATOM      9  C   UNL d   1      11.129   9.157  -6.595  0.00  0.00     0.254 C 
ATOM     10  O   UNL d   1      12.139   8.806  -7.199  0.00  0.00    -0.271 OA
BRANCH   9  11
ATOM     11  C   UNL d   1      11.251   9.822  -5.234  0.00  0.00     0.119 C 
BRANCH  11  12
ATOM     12  C   UNL d   1      12.109   8.979  -4.274  0.00  0.00     0.125 C 
ATOM     13  O   UNL d   1      11.932   9.450  -2.952  0.00  0.00    -0.356 OA
ATOM     14  C   UNL d   1      12.421   8.441  -2.091  0.00  0.00     0.142 C 
ATOM     15  C   UNL d   1      11.929   7.136  -2.712  0.00  0.00     0.035 C 
ATOM     16  C   UNL d   1      11.710   7.491  -4.177  0.00  0.00     0.033 C 
ENDBRANCH  11  12
ENDBRANCH   9  11
ENDBRANCH   5   8
ENDBRANCH   1   2
BRANCH   1  17
ATOM     17  C   UNL d   1       8.148   5.375 -11.961  0.00  0.00     0.250 C 
BRANCH  17  18
ATOM     18  N   UNL d   1       7.860   4.515 -13.113  0.00  0.00     0.137 N 
ATOM     19  C   UNL d   1       8.918   3.526 -13.351  0.00  0.00     0.251 C 
ATOM     20  C   UNL d   1       8.621   2.688 -14.567  0.00  0.00     0.040 C 
ATOM     21  C   UNL d   1       7.288   1.950 -14.444  0.00  0.00     0.028 C 
ATOM     22  C   UNL d   1       6.189   2.949 -14.027  0.00  0.00     0.040 C 
ATOM     23  C   UNL d   1       6.593   3.822 -12.840  0.00  0.00     0.251 C 
BRANCH  21  24
ATOM     24  C   UNL d   1       6.952   1.243 -15.720  0.00  0.00     0.004 A 
ATOM     25  C   UNL d   1       5.917   0.271 -15.938  0.00  0.00     0.021 A 
ATOM     26  C   UNL d   1       5.982  -0.086 -17.309  0.00  0.00     0.100 A 
ATOM     27  C   UNL d   1       4.918  -0.352 -15.154  0.00  0.00     0.002 A 
ATOM     28  O   UNL d   1       6.998   0.619 -17.919  0.00  0.00    -0.305 OA
ATOM     29  C   UNL d   1       5.121  -1.011 -17.903  0.00  0.00     0.025 A 
ATOM     30  C   UNL d   1       7.564   1.395 -16.955  0.00  0.00     0.118 A 
ATOM     31  C   UNL d   1       4.132  -1.614 -17.102  0.00  0.00     0.002 A 
ATOM     32  C   UNL d   1       4.030  -1.283 -15.732  0.00  0.00     0.000 A 
ENDBRANCH  21  24
ENDBRANCH  17  18
ENDBRANCH   1  17
TORSDOF 7
