REMARK  8 active torsions:
REMARK  status: ('A' for Active; 'I' for Inactive)
REMARK    1  A    between atoms: O_2  and  C_3 
REMARK    2  A    between atoms: C_8  and  N_9 
REMARK    3  A    between atoms: N_12  and  C_13 
REMARK    4  A    between atoms: C_13  and  C_14 
REMARK    5  A    between atoms: C_14  and  C_16 
REMARK    6  A    between atoms: C_16  and  C_17 
REMARK    7  A    between atoms: C_17  and  N_18 
REMARK       I    between atoms: N_18  and  C_19 
REMARK    8  A    between atoms: C_19  and  C_21 
ROOT
ATOM      1  C   UNL d   1       7.817   4.508 -12.306  0.00  0.00     0.188 C 
ATOM      2  O   UNL d   1       6.427   4.251 -12.293  0.00  0.00    -0.221 OA
ENDROOT
BRANCH   1   3
ATOM      3  C   UNL d   1       8.255   4.760 -13.767  0.00  0.00     0.283 C 
BRANCH   3   4
ATOM      4  N   UNL d   1       9.469   4.062 -14.198  0.00  0.00     0.144 N 
ATOM      5  C   UNL d   1       9.271   2.603 -14.241  0.00  0.00     0.274 C 
ATOM      6  C   UNL d   1      10.551   1.853 -14.644  0.00  0.00     0.137 C 
ATOM      7  N   UNL d   1      11.056   2.370 -15.913  0.00  0.00    -0.343 N 
ATOM      8  C   UNL d   1      11.181   3.823 -16.010  0.00  0.00     0.137 C 
ATOM      9  C   UNL d   1       9.882   4.505 -15.533  0.00  0.00     0.274 C 
BRANCH   7  10
ATOM     10  C   UNL d   1      11.258   1.550 -17.028  0.00  0.00     0.079 A 
ATOM     11  C   UNL d   1      10.293   0.597 -17.447  0.00  0.00     0.110 A 
ATOM     12  C   UNL d   1      10.570  -0.217 -18.576  0.00  0.00     0.026 A 
ATOM     13  C   UNL d   1      11.784  -0.085 -19.276  0.00  0.00     0.002 A 
ATOM     14  C   UNL d   1      12.728   0.867 -18.867  0.00  0.00     0.002 A 
ATOM     15  C   UNL d   1      12.461   1.687 -17.756  0.00  0.00     0.019 A 
BRANCH  11  16
ATOM     16  O   UNL d   1       9.111   0.525 -16.737  0.00  0.00    -0.327 OA
ATOM     17  C   UNL d   1       8.035  -0.221 -17.276  0.00  0.00     0.181 C 
ENDBRANCH  11  16
ENDBRANCH   7  10
ENDBRANCH   3   4
ENDBRANCH   1   3
BRANCH   1  18
ATOM     18  C   UNL d   1       8.053   5.700 -11.375  0.00  0.00     0.061 C 
BRANCH  18  19
ATOM     19  C   UNL d   1       9.537   6.107 -11.282  0.00  0.00     0.132 C 
BRANCH  19  20
ATOM     20  N   UNL d   1       9.841   6.843 -10.061  0.00  0.00    -0.234 NA
ATOM     21  C   UNL d   1       9.839   6.330  -8.819  0.00  0.00     0.276 C 
ATOM     22  O   UNL d   1       9.594   5.150  -8.572  0.00  0.00    -0.266 OA
BRANCH  21  23
ATOM     23  C   UNL d   1      10.245   7.275  -7.725  0.00  0.00     0.077 A 
ATOM     24  C   UNL d   1      10.835   6.788  -6.540  0.00  0.00     0.008 A 
ATOM     25  C   UNL d   1      11.178   7.697  -5.517  0.00  0.00     0.020 A 
ATOM     26  C   UNL d   1      10.927   9.076  -5.725  0.00  0.00     0.082 A 
ATOM     27  C   UNL d   1      11.766   7.241  -4.315  0.00  0.00     0.031 A 
ATOM     28  N   UNL d   1      10.377   9.539  -6.864  0.00  0.00    -0.244 NA
ATOM     29  C   UNL d   1      11.252   9.982  -4.699  0.00  0.00     0.021 A 
ATOM     30  C   UNL d   1      10.015   8.662  -7.822  0.00  0.00     0.104 A 
ATOM     31  C   UNL d   1      11.842   9.537  -3.499  0.00  0.00     0.031 A 
ATOM     32  C   UNL d   1      12.096   8.168  -3.306  0.00  0.00     0.140 A 
ATOM     33  F   UNL d   1      12.650   7.743  -2.146  0.00  0.00    -0.204 F 
ENDBRANCH  21  23
ENDBRANCH  19  20
ENDBRANCH  18  19
ENDBRANCH   1  18
TORSDOF 8
