REMARK  7 active torsions:
REMARK  status: ('A' for Active; 'I' for Inactive)
REMARK    1  A    between atoms: O_2  and  C_3 
REMARK    2  A    between atoms: C_7  and  O_8 
REMARK    3  A    between atoms: O_8  and  C_9 
REMARK    4  A    between atoms: C_9  and  C_10 
REMARK    5  A    between atoms: C_10  and  N_11 
REMARK       I    between atoms: N_14  and  C_15 
REMARK    6  A    between atoms: C_15  and  C_17 
REMARK    7  A    between atoms: C_21  and  O_22 
ROOT
ATOM      1  N   UNL d   1       8.594   4.988 -11.981  0.00  0.00     0.144 N 
ATOM      2  C   UNL d   1       9.185   6.149 -12.647  0.00  0.00     0.274 C 
ATOM      3  C   UNL d   1       8.998   7.437 -11.817  0.00  0.00     0.140 C 
ATOM      4  N   UNL d   1       9.499   7.246 -10.421  0.00  0.00    -0.311 N 
ATOM      5  C   UNL d   1      10.365   8.122  -9.834  0.00  0.00     0.275 C 
ATOM      6  O   UNL d   1      10.821   9.100 -10.409  0.00  0.00    -0.266 OA
ATOM      7  C   UNL d   1       8.858   6.091  -9.801  0.00  0.00     0.140 C 
ATOM      8  C   UNL d   1       9.153   4.851 -10.633  0.00  0.00     0.274 C 
ENDROOT
BRANCH   5   9
ATOM      9  C   UNL d   1      10.725   7.977  -8.418  0.00  0.00     0.137 A 
ATOM     10  N   UNL d   1      11.002   9.186  -7.753  0.00  0.00    -0.241 NA
ATOM     11  C   UNL d   1      11.320   8.950  -6.446  0.00  0.00     0.082 A 
ATOM     12  C   UNL d   1      11.226   7.532  -6.283  0.00  0.00     0.021 A 
ATOM     13  C   UNL d   1      11.692   9.806  -5.405  0.00  0.00     0.021 A 
ATOM     14  C   UNL d   1      10.929   6.952  -7.550  0.00  0.00     0.025 A 
ATOM     15  C   UNL d   1      11.481   7.014  -5.008  0.00  0.00     0.026 A 
ATOM     16  C   UNL d   1      11.875   7.853  -3.937  0.00  0.00     0.094 A 
ATOM     17  C   UNL d   1      11.969   9.249  -4.145  0.00  0.00     0.026 A 
BRANCH  16  18
ATOM     18  O   UNL d   1      12.131   7.245  -2.736  0.00  0.00    -0.328 OA
ATOM     19  C   UNL d   1      12.589   8.100  -1.715  0.00  0.00     0.181 C 
ENDBRANCH  16  18
ENDBRANCH   5   9
BRANCH   1  20
ATOM     20  C   UNL d   1       8.859   3.806 -12.797  0.00  0.00     0.283 C 
BRANCH  20  21
ATOM     21  C   UNL d   1       7.575   3.475 -13.589  0.00  0.00     0.184 C 
BRANCH  21  22
ATOM     22  O   UNL d   1       7.908   2.503 -14.574  0.00  0.00    -0.329 OA
BRANCH  22  23
ATOM     23  C   UNL d   1       6.981   1.564 -14.976  0.00  0.00     0.096 A 
ATOM     24  C   UNL d   1       6.973   1.186 -16.345  0.00  0.00     0.024 A 
ATOM     25  C   UNL d   1       6.010   0.262 -16.819  0.00  0.00     0.004 A 
ATOM     26  C   UNL d   1       5.064  -0.290 -15.943  0.00  0.00     0.024 A 
ATOM     27  C   UNL d   1       5.085   0.058 -14.567  0.00  0.00     0.096 A 
ATOM     28  C   UNL d   1       6.075   0.955 -14.088  0.00  0.00     0.048 A 
BRANCH  27  29
ATOM     29  O   UNL d   1       4.183  -0.408 -13.649  0.00  0.00    -0.328 OA
ATOM     30  C   UNL d   1       3.037  -1.091 -14.141  0.00  0.00     0.181 C 
ENDBRANCH  27  29
ENDBRANCH  22  23
ENDBRANCH  21  22
ENDBRANCH  20  21
ENDBRANCH   1  20
TORSDOF 7
