REMARK  10 active torsions:
REMARK  status: ('A' for Active; 'I' for Inactive)
REMARK    1  A    between atoms: O_2  and  C_3 
REMARK    2  A    between atoms: C_6  and  C_7 
REMARK    3  A    between atoms: C_10  and  C_11 
REMARK    4  A    between atoms: C_11  and  C_12 
REMARK    5  A    between atoms: C_12  and  C_13 
REMARK    6  A    between atoms: C_13  and  N_14 
REMARK    7  A    between atoms: N_17  and  C_18 
REMARK    8  A    between atoms: C_18  and  C_19 
REMARK    9  A    between atoms: C_18  and  C_26 
REMARK   10  A    between atoms: C_37  and  O_38 
ROOT
ATOM      1  N   UNL d   1      11.884   3.745 -15.984  0.00  0.00     0.141 N 
ATOM      2  C   UNL d   1      12.313   4.652 -14.931  0.00  0.00     0.285 C 
ATOM      3  C   UNL d   1      11.462   4.474 -13.671  0.00  0.00     0.286 C 
ATOM      4  N   UNL d   1      10.036   4.708 -13.909  0.00  0.00     0.147 N 
ATOM      5  C   UNL d   1       9.664   3.776 -14.989  0.00  0.00     0.286 C 
ATOM      6  C   UNL d   1      10.476   3.981 -16.244  0.00  0.00     0.285 C 
ENDROOT
BRANCH   1   7
ATOM      7  C   UNL d   1      12.700   3.923 -17.163  0.00  0.00     0.251 C 
BRANCH   7   8
ATOM      8  C   UNL d   1      12.337   3.061 -18.364  0.00  0.00     0.038 C 
BRANCH   8   9
ATOM      9  C   UNL d   1      12.109   1.550 -18.066  0.00  0.00     0.035 C 
BRANCH   9  10
ATOM     10  C   UNL d   1      12.079   0.633 -19.311  0.00  0.00     0.153 C 
ATOM     11  O   UNL d   1      12.949  -0.458 -19.083  0.00  0.00    -0.239 OA
ATOM     12  N   UNL d   1      14.197  -0.166 -19.687  0.00  0.00    -0.136 NA
ATOM     13  C   UNL d   1      14.061   0.769 -20.520  0.00  0.00     0.088 C 
ATOM     14  C   UNL d   1      12.629   1.206 -20.628  0.00  0.00     0.081 C 
BRANCH  13  15
ATOM     15  C   UNL d   1      15.188   1.379 -21.264  0.00  0.00     0.018 A 
ATOM     16  C   UNL d   1      16.455   0.762 -21.284  0.00  0.00     0.003 A 
ATOM     17  C   UNL d   1      17.505   1.323 -22.031  0.00  0.00     0.026 A 
ATOM     18  C   UNL d   1      17.315   2.522 -22.760  0.00  0.00     0.116 A 
ATOM     19  C   UNL d   1      16.057   3.162 -22.726  0.00  0.00     0.116 A 
ATOM     20  C   UNL d   1      15.002   2.591 -21.976  0.00  0.00     0.028 A 
BRANCH  18  21
ATOM     21  O   UNL d   1      18.296   3.118 -23.522  0.00  0.00    -0.326 OA
ATOM     22  C   UNL d   1      19.609   2.578 -23.470  0.00  0.00     0.181 C 
ENDBRANCH  18  21
BRANCH  19  23
ATOM     23  O   UNL d   1      15.925   4.331 -23.446  0.00  0.00    -0.326 OA
ATOM     24  C   UNL d   1      14.707   5.056 -23.356  0.00  0.00     0.181 C 
ENDBRANCH  19  23
ENDBRANCH  13  15
ENDBRANCH   9  10
ENDBRANCH   8   9
ENDBRANCH   7   8
ENDBRANCH   1   7
BRANCH   4  25
ATOM     25  C   UNL d   1       9.246   4.518 -12.673  0.00  0.00     0.264 C 
BRANCH  25  26
ATOM     26  C   UNL d   1       7.761   4.447 -12.896  0.00  0.00     0.013 A 
ATOM     27  C   UNL d   1       7.164   3.251 -13.390  0.00  0.00     0.000 A 
ATOM     28  C   UNL d   1       5.789   3.185 -13.590  0.00  0.00     0.029 A 
ATOM     29  C   UNL d   1       5.009   4.332 -13.326  0.00  0.00     0.140 A 
ATOM     30  C   UNL d   1       5.589   5.492 -12.808  0.00  0.00     0.029 A 
ATOM     31  F   UNL d   1       3.703   4.375 -13.635  0.00  0.00    -0.204 F 
ATOM     32  C   UNL d   1       6.945   5.556 -12.598  0.00  0.00     0.000 A 
ENDBRANCH  25  26
BRANCH  25  33
ATOM     33  C   UNL d   1       9.511   5.585 -11.592  0.00  0.00     0.013 A 
ATOM     34  C   UNL d   1       9.751   5.193 -10.261  0.00  0.00     0.000 A 
ATOM     35  C   UNL d   1      10.045   6.148  -9.269  0.00  0.00     0.029 A 
ATOM     36  C   UNL d   1      10.028   7.515  -9.591  0.00  0.00     0.140 A 
ATOM     37  C   UNL d   1       9.728   7.924 -10.898  0.00  0.00     0.029 A 
ATOM     38  F   UNL d   1      10.305   8.445  -8.634  0.00  0.00    -0.204 F 
ATOM     39  C   UNL d   1       9.460   6.961 -11.895  0.00  0.00     0.000 A 
ENDBRANCH  25  33
ENDBRANCH   4  25
TORSDOF 10
