REMARK  4 active torsions:
REMARK  status: ('A' for Active; 'I' for Inactive)
REMARK    1  A    between atoms: O_2  and  C_3 
REMARK    2  A    between atoms: C_9  and  C_10 
REMARK    3  A    between atoms: N_18  and  S_19 
REMARK    4  A    between atoms: S_19  and  C_22 
ROOT
ATOM      1  C   UNL d   1       6.190   1.930 -13.691  0.00  0.00     0.094 A 
ATOM      2  C   UNL d   1       5.641   2.923 -12.866  0.00  0.00     0.026 A 
ATOM      3  C   UNL d   1       6.337   4.141 -12.653  0.00  0.00     0.020 A 
ATOM      4  C   UNL d   1       7.631   4.325 -13.224  0.00  0.00     0.075 A 
ATOM      5  C   UNL d   1       8.211   3.341 -14.069  0.00  0.00     0.022 A 
ATOM      6  C   UNL d   1       7.415   2.206 -14.304  0.00  0.00     0.026 A 
ATOM      7  C   UNL d   1       9.516   3.815 -14.492  0.00  0.00     0.039 A 
ATOM      8  C   UNL d   1       9.673   5.057 -13.921  0.00  0.00     0.093 A 
ATOM      9  N   UNL d   1       8.573   5.349 -13.140  0.00  0.00    -0.231 N 
ENDROOT
BRANCH   9  10
ATOM     10  S   UNL d   1       8.403   6.792 -12.286  0.00  0.00     0.271 S 
ATOM     11  O   UNL d   1       9.461   7.659 -12.825  0.00  0.00    -0.200 OA
ATOM     12  O   UNL d   1       6.967   7.101 -12.485  0.00  0.00    -0.200 OA
BRANCH  10  13
ATOM     13  C   UNL d   1       8.877   6.374 -10.597  0.00  0.00     0.104 A 
ATOM     14  C   UNL d   1       9.723   7.194  -9.777  0.00  0.00     0.012 A 
ATOM     15  C   UNL d   1      10.006   6.777  -8.456  0.00  0.00     0.001 A 
ATOM     16  C   UNL d   1      10.270   8.439 -10.158  0.00  0.00     0.001 A 
ATOM     17  C   UNL d   1       9.467   5.582  -8.002  0.00  0.00     0.000 A 
ATOM     18  C   UNL d   1      10.803   7.536  -7.572  0.00  0.00     0.000 A 
ATOM     19  C   UNL d   1       8.668   4.751  -8.788  0.00  0.00     0.001 A 
ATOM     20  C   UNL d   1       8.384   5.161 -10.086  0.00  0.00     0.013 A 
ATOM     21  C   UNL d   1      11.347   8.751  -8.003  0.00  0.00     0.000 A 
ATOM     22  C   UNL d   1      11.078   9.191  -9.303  0.00  0.00     0.000 A 
ENDBRANCH  10  13
ENDBRANCH   9  10
BRANCH   7  23
ATOM     23  C   UNL d   1      10.480   3.117 -15.374  0.00  0.00     0.099 A 
ATOM     24  N   UNL d   1      11.435   3.862 -16.106  0.00  0.00    -0.213 NA
ATOM     25  C   UNL d   1      12.125   2.961 -16.796  0.00  0.00     0.237 A 
ATOM     26  N   UNL d   1      13.160   3.181 -17.683  0.00  0.00    -0.060 NA
ATOM     27  N   UNL d   1      11.718   1.716 -16.565  0.00  0.00    -0.217 NA
ATOM     28  C   UNL d   1      10.689   1.766 -15.645  0.00  0.00     0.080 A 
ATOM     29  C   UNL d   1      10.077   0.486 -15.164  0.00  0.00     0.054 C 
ENDBRANCH   7  23
BRANCH   1  30
ATOM     30  O   UNL d   1       5.493   0.747 -13.883  0.00  0.00    -0.328 OA
ATOM     31  C   UNL d   1       6.111  -0.309 -14.642  0.00  0.00     0.181 C 
ENDBRANCH   1  30
TORSDOF 4
