REMARK  4 active torsions:
REMARK  status: ('A' for Active; 'I' for Inactive)
REMARK    1  A    between atoms: C_5  and  N_6 
REMARK    2  A    between atoms: N_9  and  C_10 
REMARK    3  A    between atoms: C_10  and  C_11 
REMARK    4  A    between atoms: C_13  and  C_14 
ROOT
ATOM      1  N   UNL d   1      10.097   8.559  -6.438  0.00  0.00    -0.344 N 
ATOM      2  C   UNL d   1       9.066   7.582  -6.697  0.00  0.00     0.137 C 
ATOM      3  C   UNL d   1       9.429   6.863  -8.002  0.00  0.00     0.274 C 
ATOM      4  N   UNL d   1       9.616   7.814  -9.109  0.00  0.00     0.141 N 
ATOM      5  C   UNL d   1      10.699   8.746  -8.814  0.00  0.00     0.274 C 
ATOM      6  C   UNL d   1      10.342   9.478  -7.528  0.00  0.00     0.137 C 
ENDROOT
BRANCH   4   7
ATOM      7  C   UNL d   1       9.914   7.187 -10.394  0.00  0.00     0.251 C 
BRANCH   7   8
ATOM      8  C   UNL d   1       8.976   6.027 -10.673  0.00  0.00     0.038 A 
ATOM      9  C   UNL d   1       9.354   4.941 -11.654  0.00  0.00     0.024 A 
ATOM     10  C   UNL d   1       9.331   4.649 -10.166  0.00  0.00     0.007 A 
BRANCH   9  11
ATOM     11  C   UNL d   1       8.368   4.270 -12.547  0.00  0.00    -0.022 A 
ATOM     12  C   UNL d   1       8.851   3.530 -13.652  0.00  0.00    -0.004 A 
ATOM     13  C   UNL d   1       7.961   2.825 -14.489  0.00  0.00    -0.000 A 
ATOM     14  C   UNL d   1       6.575   2.876 -14.216  0.00  0.00    -0.000 A 
ATOM     15  C   UNL d   1       6.091   3.622 -13.111  0.00  0.00    -0.000 A 
ATOM     16  C   UNL d   1       6.988   4.297 -12.273  0.00  0.00    -0.004 A 
ENDBRANCH   9  11
ENDBRANCH   7   8
ENDBRANCH   4   7
BRANCH   1  17
ATOM     17  C   UNL d   1      10.869   8.608  -5.260  0.00  0.00     0.052 A 
ATOM     18  C   UNL d   1      10.848   9.790  -4.519  0.00  0.00     0.016 A 
ATOM     19  C   UNL d   1      11.544   9.863  -3.281  0.00  0.00    -0.003 A 
ATOM     20  C   UNL d   1      12.255   8.739  -2.808  0.00  0.00    -0.022 A 
ATOM     21  C   UNL d   1      12.996   8.783  -1.499  0.00  0.00     0.031 C 
ATOM     22  C   UNL d   1      12.326   7.589  -3.593  0.00  0.00    -0.007 A 
ATOM     23  C   UNL d   1      11.629   7.520  -4.830  0.00  0.00    -0.007 A 
ATOM     24  C   UNL d   1      11.825   6.281  -5.638  0.00  0.00     0.033 C 
ENDBRANCH   1  17
TORSDOF 4
