REMARK  8 active torsions:
REMARK  status: ('A' for Active; 'I' for Inactive)
REMARK    1  A    between atoms: C_2  and  C_3 
REMARK    2  A    between atoms: C_3  and  C_4 
REMARK    3  A    between atoms: C_4  and  S_5 
REMARK    4  A    between atoms: S_5  and  C_6 
REMARK    5  A    between atoms: C_12  and  N_13 
REMARK    6  A    between atoms: C_14  and  N_15 
REMARK    7  A    between atoms: C_20  and  O_21 
REMARK    8  A    between atoms: C_23  and  O_24 
ROOT
ATOM      1  N   UNL d   1       9.544   5.677 -12.630  0.00  0.00    -0.226 NA
ATOM      2  C   UNL d   1       9.508   4.507 -13.158  0.00  0.00     0.175 C 
ENDROOT
BRANCH   1   3
ATOM      3  C   UNL d   1       9.315   5.788 -11.253  0.00  0.00     0.083 A 
ATOM      4  C   UNL d   1       8.562   4.821 -10.512  0.00  0.00     0.019 A 
ATOM      5  C   UNL d   1       8.378   4.965  -9.131  0.00  0.00    -0.003 A 
ATOM      6  C   UNL d   1       8.812   6.145  -8.524  0.00  0.00    -0.025 A 
ATOM      7  C   UNL d   1       8.502   6.563  -7.111  0.00  0.00     0.027 C 
ATOM      8  C   UNL d   1       9.541   7.107  -9.227  0.00  0.00    -0.015 A 
ATOM      9  C   UNL d   1       9.383   7.771  -6.973  0.00  0.00     0.020 C 
ATOM     10  C   UNL d   1       9.876   8.276  -8.345  0.00  0.00     0.070 C 
ATOM     11  C   UNL d   1       9.822   6.945 -10.597  0.00  0.00     0.015 A 
BRANCH  10  12
ATOM     12  S   UNL d   1      11.684   8.513  -8.332  0.00  0.00    -0.137 SA
BRANCH  12  13
ATOM     13  C   UNL d   1      12.003   9.601  -6.897  0.00  0.00     0.058 C 
BRANCH  13  14
ATOM     14  C   UNL d   1      11.653   8.906  -5.582  0.00  0.00     0.012 C 
BRANCH  14  15
ATOM     15  C   UNL d   1      12.233   9.467  -4.307  0.00  0.00     0.001 C 
ATOM     16  C   UNL d   1      12.112   8.389  -3.212  0.00  0.00     0.000 C 
ENDBRANCH  14  15
ENDBRANCH  13  14
ENDBRANCH  12  13
ENDBRANCH  10  12
ENDBRANCH   1   3
BRANCH   2  17
ATOM     17  N   UNL d   1       9.707   4.269 -14.503  0.00  0.00    -0.327 N 
ATOM     18  C   UNL d   1       9.147   3.075 -15.115  0.00  0.00     0.130 C 
ATOM     19  C   UNL d   1      10.111   2.321 -16.010  0.00  0.00    -0.002 A 
ATOM     20  C   UNL d   1      11.361   2.872 -16.348  0.00  0.00    -0.020 A 
ATOM     21  C   UNL d   1       9.736   1.066 -16.511  0.00  0.00     0.024 A 
ATOM     22  C   UNL d   1      11.791   4.228 -15.815  0.00  0.00     0.050 C 
ATOM     23  C   UNL d   1      12.228   2.155 -17.180  0.00  0.00     0.022 A 
ATOM     24  C   UNL d   1      10.600   5.069 -15.333  0.00  0.00     0.108 C 
ATOM     25  C   UNL d   1      11.860   0.890 -17.700  0.00  0.00     0.116 A 
ATOM     26  C   UNL d   1      10.602   0.338 -17.360  0.00  0.00     0.116 A 
BRANCH  25  27
ATOM     27  O   UNL d   1      12.681   0.167 -18.539  0.00  0.00    -0.326 OA
ATOM     28  C   UNL d   1      13.732   0.863 -19.202  0.00  0.00     0.181 C 
ENDBRANCH  25  27
BRANCH  26  29
ATOM     29  O   UNL d   1      10.266  -0.893 -17.879  0.00  0.00    -0.326 OA
ATOM     30  C   UNL d   1       8.887  -1.148 -18.115  0.00  0.00     0.181 C 
ENDBRANCH  26  29
ENDBRANCH   2  17
TORSDOF 8
