REMARK  5 active torsions:
REMARK  status: ('A' for Active; 'I' for Inactive)
REMARK    1  A    between atoms: C_2  and  C_3 
REMARK    2  A    between atoms: C_3  and  C_4 
REMARK    3  A    between atoms: C_4  and  N_5 
REMARK    4  A    between atoms: N_8  and  C_9 
REMARK    5  A    between atoms: C_14  and  O_15 
ROOT
ATOM      1  N   UNL d   1       8.426   5.479 -12.066  0.00  0.00     0.141 N 
ATOM      2  C   UNL d   1       7.077   4.987 -11.759  0.00  0.00     0.274 C 
ATOM      3  C   UNL d   1       6.330   4.516 -13.005  0.00  0.00     0.137 C 
ATOM      4  N   UNL d   1       7.153   3.546 -13.731  0.00  0.00    -0.343 N 
ATOM      5  C   UNL d   1       8.524   3.987 -13.995  0.00  0.00     0.137 C 
ATOM      6  C   UNL d   1       9.227   4.452 -12.716  0.00  0.00     0.274 C 
ENDROOT
BRANCH   4   7
ATOM      7  C   UNL d   1       6.668   2.284 -14.099  0.00  0.00     0.079 A 
ATOM      8  C   UNL d   1       7.082   1.659 -15.318  0.00  0.00     0.110 A 
ATOM      9  C   UNL d   1       6.585   0.356 -15.637  0.00  0.00     0.026 A 
ATOM     10  C   UNL d   1       5.671  -0.291 -14.796  0.00  0.00     0.002 A 
ATOM     11  C   UNL d   1       5.235   0.341 -13.620  0.00  0.00     0.002 A 
ATOM     12  C   UNL d   1       5.753   1.608 -13.271  0.00  0.00     0.019 A 
BRANCH   8  13
ATOM     13  O   UNL d   1       7.908   2.359 -16.166  0.00  0.00    -0.327 OA
ATOM     14  C   UNL d   1       8.432   1.716 -17.317  0.00  0.00     0.181 C 
ENDBRANCH   8  13
ENDBRANCH   4   7
BRANCH   1  15
ATOM     15  C   UNL d   1       9.130   5.995 -10.877  0.00  0.00     0.250 C 
BRANCH  15  16
ATOM     16  C   UNL d   1       8.956   5.117  -9.614  0.00  0.00     0.035 C 
BRANCH  16  17
ATOM     17  C   UNL d   1       9.706   5.630  -8.397  0.00  0.00     0.002 C 
ATOM     18  C   UNL d   1       9.089   6.913  -7.841  0.00  0.00     0.000 C 
ENDBRANCH  16  17
ENDBRANCH  15  16
ENDBRANCH   1  15
TORSDOF 5
