REMARK  10 active torsions:
REMARK  status: ('A' for Active; 'I' for Inactive)
REMARK    1  A    between atoms: C_2  and  N_3 
REMARK    2  A    between atoms: C_2  and  C_29 
REMARK       I    between atoms: N_3  and  C_4 
REMARK    3  A    between atoms: C_4  and  C_6 
REMARK    4  A    between atoms: C_6  and  C_7 
REMARK    5  A    between atoms: C_7  and  C_8 
REMARK    6  A    between atoms: C_8  and  C_9 
REMARK    7  A    between atoms: C_9  and  C_10 
REMARK    8  A    between atoms: C_10  and  N_11 
REMARK    9  A    between atoms: N_14  and  C_15 
REMARK   10  A    between atoms: C_20  and  C_21 
ROOT
ATOM      1  N   UNL d   1       9.593   5.562 -12.538  0.00  0.00     0.141 N 
ATOM      2  C   UNL d   1       8.239   5.867 -13.016  0.00  0.00     0.274 C 
ATOM      3  C   UNL d   1       7.861   4.920 -14.162  0.00  0.00     0.137 C 
ATOM      4  N   UNL d   1       8.107   3.552 -13.832  0.00  0.00    -0.344 N 
ATOM      5  C   UNL d   1       9.390   3.223 -13.285  0.00  0.00     0.137 C 
ATOM      6  C   UNL d   1       9.638   4.163 -12.131  0.00  0.00     0.274 C 
ENDROOT
BRANCH   1   7
ATOM      7  C   UNL d   1       9.910   6.486 -11.455  0.00  0.00     0.250 C 
BRANCH   7   8
ATOM      8  C   UNL d   1       9.111   6.206 -10.176  0.00  0.00     0.035 C 
BRANCH   8   9
ATOM      9  C   UNL d   1       9.477   7.212  -9.136  0.00  0.00     0.003 C 
BRANCH   9  10
ATOM     10  C   UNL d   1       8.944   6.781  -7.757  0.00  0.00     0.010 C 
BRANCH  10  11
ATOM     11  C   UNL d   1       8.881   7.928  -6.742  0.00  0.00     0.090 C 
BRANCH  11  12
ATOM     12  C   UNL d   1      10.208   8.641  -6.595  0.00  0.00     0.252 C 
ATOM     13  N   UNL d   1      10.256   9.581  -5.626  0.00  0.00    -0.235 NA
ATOM     14  O   UNL d   1      11.193   8.248  -7.211  0.00  0.00    -0.271 OA
BRANCH  13  15
ATOM     15  C   UNL d   1      11.460   9.846  -4.851  0.00  0.00     0.129 C 
ATOM     16  C   UNL d   1      12.664  10.156  -5.739  0.00  0.00     0.031 C 
BRANCH  15  17
ATOM     17  C   UNL d   1      11.823   8.742  -3.859  0.00  0.00    -0.000 A 
ATOM     18  C   UNL d   1      12.227   9.094  -2.548  0.00  0.00    -0.002 A 
ATOM     19  C   UNL d   1      12.644   8.096  -1.644  0.00  0.00    -0.000 A 
ATOM     20  C   UNL d   1      12.633   6.744  -2.030  0.00  0.00    -0.000 A 
ATOM     21  C   UNL d   1      12.273   6.390  -3.339  0.00  0.00    -0.000 A 
ATOM     22  C   UNL d   1      11.853   7.372  -4.235  0.00  0.00    -0.002 A 
ENDBRANCH  15  17
ENDBRANCH  13  15
ENDBRANCH  11  12
ENDBRANCH  10  11
ENDBRANCH   9  10
ENDBRANCH   8   9
ENDBRANCH   7   8
ENDBRANCH   1   7
BRANCH   4  23
ATOM     23  C   UNL d   1       7.066   2.586 -13.942  0.00  0.00     0.056 A 
ATOM     24  C   UNL d   1       7.209   1.443 -14.759  0.00  0.00     0.015 A 
ATOM     25  C   UNL d   1       6.198   0.455 -14.777  0.00  0.00     0.001 A 
ATOM     26  C   UNL d   1       5.075   0.610 -13.973  0.00  0.00     0.000 A 
ATOM     27  C   UNL d   1       4.955   1.761 -13.200  0.00  0.00     0.002 A 
ATOM     28  C   UNL d   1       5.918   2.765 -13.158  0.00  0.00     0.017 A 
BRANCH  24  29
ATOM     29  C   UNL d   1       8.379   1.234 -15.601  0.00  0.00     0.001 A 
ATOM     30  C   UNL d   1       8.873   2.224 -16.459  0.00  0.00     0.000 A 
ATOM     31  C   UNL d   1      10.026   1.996 -17.224  0.00  0.00     0.000 A 
ATOM     32  C   UNL d   1      10.675   0.749 -17.145  0.00  0.00     0.000 A 
ATOM     33  C   UNL d   1      10.174  -0.251 -16.296  0.00  0.00     0.000 A 
ATOM     34  C   UNL d   1       9.040  -0.018 -15.513  0.00  0.00     0.000 A 
ENDBRANCH  24  29
ENDBRANCH   4  23
TORSDOF 10
