REMARK  5 active torsions:
REMARK  status: ('A' for Active; 'I' for Inactive)
REMARK    1  A    between atoms: C_2  and  O_3 
REMARK    2  A    between atoms: O_3  and  C_4 
REMARK    3  A    between atoms: C_4  and  C_6 
REMARK    4  A    between atoms: C_6  and  O_9 
REMARK    5  A    between atoms: O_9  and  C_10 
ROOT
ATOM      1  C   UNL d   1       8.769   5.910 -11.815  0.00  0.00     0.175 C 
ATOM      2  C   UNL d   1       9.574   5.076 -12.832  0.00  0.00     0.041 C 
ATOM      3  C   UNL d   1       9.159   7.405 -12.013  0.00  0.00     0.041 C 
ENDROOT
BRANCH   1   4
ATOM      4  C   UNL d   1       7.258   5.704 -12.123  0.00  0.00     0.297 C 
ATOM      5  O   UNL d   1       6.514   6.631 -12.401  0.00  0.00    -0.262 OA
BRANCH   4   6
ATOM      6  O   UNL d   1       6.887   4.396 -12.089  0.00  0.00    -0.300 OA
BRANCH   6   7
ATOM      7  C   UNL d   1       5.554   4.050 -12.439  0.00  0.00     0.152 C 
ATOM      8  C   UNL d   1       5.455   2.535 -12.590  0.00  0.00     0.035 C 
ENDBRANCH   6   7
ENDBRANCH   4   6
ENDBRANCH   1   4
BRANCH   1   9
ATOM      9  O   UNL d   1       8.996   5.318 -10.513  0.00  0.00    -0.326 OA
BRANCH   9  10
ATOM     10  C   UNL d   1       9.436   6.070  -9.436  0.00  0.00     0.095 C 
ATOM     11  C   UNL d   1       8.691   5.997  -8.226  0.00  0.00     0.025 C 
ATOM     12  C   UNL d   1       9.053   6.792  -7.115  0.00  0.00     0.013 C 
ATOM     13  C   UNL d   1      10.172   7.652  -7.197  0.00  0.00     0.058 C 
ATOM     14  C   UNL d   1      10.939   7.673  -8.377  0.00  0.00     0.013 C 
ATOM     15 CL   UNL d   1      10.653   8.615  -5.844  0.00  0.00    -0.082 Cl
ATOM     16  C   UNL d   1      10.610   6.837  -9.455  0.00  0.00     0.025 C 
ENDBRANCH   9  10
ENDBRANCH   1   9
TORSDOF 5
