REMARK  7 active torsions:
REMARK  status: ('A' for Active; 'I' for Inactive)
REMARK    1  A    between atoms: C_2  and  C_3 
REMARK    2  A    between atoms: C_3  and  N_4 
REMARK    3  A    between atoms: N_4  and  C_5 
REMARK    4  A    between atoms: N_4  and  C_19 
REMARK    5  A    between atoms: C_5  and  C_6 
REMARK    6  A    between atoms: C_6  and  N_7 
REMARK    7  A    between atoms: N_10  and  C_11 
ROOT
ATOM      1  N   UNL d   1       8.158   5.126 -11.541  0.00  0.00     0.137 N 
ENDROOT
BRANCH   1   2
ATOM      2  C   UNL d   1       6.880   5.838 -11.757  0.00  0.00     0.250 C 
BRANCH   2   3
ATOM      3  C   UNL d   1       6.973   7.055 -12.720  0.00  0.00     0.035 C 
ATOM      4  C   UNL d   1       5.609   7.585 -13.111  0.00  0.00     0.002 C 
ENDBRANCH   2   3
ENDBRANCH   1   2
BRANCH   1   5
ATOM      5  C   UNL d   1       9.126   5.976 -10.807  0.00  0.00     0.285 C 
BRANCH   5   6
ATOM      6  C   UNL d   1       8.810   6.166  -9.325  0.00  0.00     0.286 C 
BRANCH   6   7
ATOM      7  N   UNL d   1       9.844   6.943  -8.658  0.00  0.00     0.143 N 
ATOM      8  C   UNL d   1      10.655   6.073  -7.829  0.00  0.00     0.274 C 
ATOM      9  C   UNL d   1      11.792   6.792  -7.114  0.00  0.00     0.137 C 
ATOM     10  N   UNL d   1      11.226   7.885  -6.324  0.00  0.00    -0.344 N 
ATOM     11  C   UNL d   1      10.388   8.813  -7.078  0.00  0.00     0.137 C 
ATOM     12  C   UNL d   1       9.303   8.012  -7.810  0.00  0.00     0.274 C 
BRANCH  10  13
ATOM     13  C   UNL d   1      11.520   8.072  -4.965  0.00  0.00     0.056 A 
ATOM     14  C   UNL d   1      11.573   9.375  -4.407  0.00  0.00     0.017 A 
ATOM     15  C   UNL d   1      11.888   9.549  -3.057  0.00  0.00     0.002 A 
ATOM     16  C   UNL d   1      12.200   8.446  -2.241  0.00  0.00     0.000 A 
ATOM     17  C   UNL d   1      12.148   7.145  -2.777  0.00  0.00     0.002 A 
ATOM     18  C   UNL d   1      11.812   6.968  -4.123  0.00  0.00     0.017 A 
ENDBRANCH  10  13
ENDBRANCH   6   7
ENDBRANCH   5   6
ENDBRANCH   1   5
BRANCH   1  19
ATOM     19  C   UNL d   1       8.673   4.496 -12.774  0.00  0.00     0.224 C 
ATOM     20  C   UNL d   1       7.608   3.642 -13.547  0.00  0.00     0.059 C 
ATOM     21  C   UNL d   1       8.231   2.779 -14.666  0.00  0.00    -0.022 A 
ATOM     22  C   UNL d   1       9.621   2.546 -14.816  0.00  0.00    -0.001 A 
ATOM     23  C   UNL d   1       7.350   2.258 -15.621  0.00  0.00    -0.004 A 
ATOM     24  C   UNL d   1      10.572   3.106 -13.795  0.00  0.00     0.030 C 
ATOM     25  C   UNL d   1      10.101   1.807 -15.906  0.00  0.00     0.127 A 
ATOM     26  C   UNL d   1       9.870   3.578 -12.525  0.00  0.00     0.038 C 
ATOM     27  O   UNL d   1      11.441   1.560 -16.056  0.00  0.00    -0.191 OA
ATOM     28  C   UNL d   1       9.203   1.318 -16.878  0.00  0.00     0.027 A 
ATOM     29  C   UNL d   1       7.831   1.577 -16.734  0.00  0.00     0.002 A 
ENDBRANCH   1  19
TORSDOF 7
