REMARK  0 active torsions:
REMARK  status: ('A' for Active; 'I' for Inactive)
ROOT
ATOM      1  C   UNL d   1      12.528   7.989 -10.041  0.00  0.00     0.032 C 
ATOM      2  C   UNL d   1      11.814   8.075  -8.705  0.00  0.00    -0.009 A 
ATOM      3  C   UNL d   1      12.417   8.787  -7.654  0.00  0.00     0.024 A 
ATOM      4  C   UNL d   1      11.782   8.912  -6.407  0.00  0.00     0.130 A 
ATOM      5  O   UNL d   1      12.398   9.592  -5.397  0.00  0.00    -0.190 OA
ATOM      6  C   UNL d   1      10.534   8.303  -6.206  0.00  0.00     0.024 A 
ATOM      7  C   UNL d   1       9.919   7.573  -7.243  0.00  0.00    -0.009 A 
ATOM      8  C   UNL d   1       8.579   6.926  -6.956  0.00  0.00     0.032 C 
ATOM      9  C   UNL d   1      10.559   7.454  -8.506  0.00  0.00     0.050 A 
ATOM     10 CL   UNL d   1       9.855   6.544  -9.802  0.00  0.00    -0.083 Cl
ENDROOT
TORSDOF 0
