REMARK  8 active torsions:
REMARK  status: ('A' for Active; 'I' for Inactive)
REMARK    1  A    between atoms: C_6  and  N_7 
REMARK    2  A    between atoms: N_10  and  C_11 
REMARK    3  A    between atoms: C_11  and  C_12 
REMARK    4  A    between atoms: C_12  and  C_13 
REMARK    5  A    between atoms: C_13  and  C_14 
REMARK    6  A    between atoms: C_14  and  N_15 
REMARK    7  A    between atoms: N_15  and  C_16 
REMARK    8  A    between atoms: C_18  and  C_19 
ROOT
ATOM      1  C   UNL d   1       9.504   5.555 -12.612  0.00  0.00     0.037 C 
ENDROOT
BRANCH   1   2
ATOM      2  C   UNL d   1      10.113   4.403 -13.438  0.00  0.00     0.251 C 
BRANCH   2   3
ATOM      3  N   UNL d   1       9.210   3.259 -13.519  0.00  0.00     0.141 N 
ATOM      4  C   UNL d   1       7.981   3.596 -14.246  0.00  0.00     0.274 C 
ATOM      5  C   UNL d   1       7.025   2.411 -14.317  0.00  0.00     0.137 C 
ATOM      6  N   UNL d   1       7.702   1.277 -14.915  0.00  0.00    -0.344 N 
ATOM      7  C   UNL d   1       8.971   0.908 -14.308  0.00  0.00     0.137 C 
ATOM      8  C   UNL d   1       9.889   2.151 -14.210  0.00  0.00     0.274 C 
BRANCH   6   9
ATOM      9  C   UNL d   1       7.153   0.559 -15.967  0.00  0.00     0.068 A 
ATOM     10  C   UNL d   1       7.866   0.483 -17.184  0.00  0.00     0.018 A 
ATOM     11  C   UNL d   1       7.343  -0.217 -18.285  0.00  0.00     0.002 A 
ATOM     12  C   UNL d   1       6.097  -0.859 -18.170  0.00  0.00     0.012 A 
ATOM     13  C   UNL d   1       5.377  -0.796 -16.967  0.00  0.00     0.070 A 
ATOM     14 CL   UNL d   1       3.854  -1.597 -16.868  0.00  0.00    -0.081 Cl
ATOM     15  C   UNL d   1       5.890  -0.096 -15.856  0.00  0.00     0.084 A 
ATOM     16 CL   UNL d   1       5.005  -0.075 -14.366  0.00  0.00    -0.080 Cl
ENDBRANCH   6   9
ENDBRANCH   2   3
ENDBRANCH   1   2
BRANCH   1  17
ATOM     17  C   UNL d   1       9.683   5.312 -11.112  0.00  0.00     0.028 C 
BRANCH  17  18
ATOM     18  C   UNL d   1       8.520   5.834 -10.287  0.00  0.00     0.127 C 
BRANCH  18  19
ATOM     19  N   UNL d   1       8.857   5.964  -8.876  0.00  0.00    -0.253 NA
BRANCH  19  20
ATOM     20  C   UNL d   1       9.753   6.950  -8.427  0.00  0.00     0.158 A 
ATOM     21  N   UNL d   1      10.343   7.769  -9.324  0.00  0.00    -0.226 NA
ATOM     22  C   UNL d   1      11.312   8.606  -8.906  0.00  0.00     0.101 A 
ATOM     23  C   UNL d   1      11.707   8.699  -7.564  0.00  0.00     0.021 A 
ATOM     24  C   UNL d   1      11.061   7.891  -6.605  0.00  0.00     0.005 A 
ATOM     25  C   UNL d   1      10.066   6.996  -7.057  0.00  0.00     0.038 A 
BRANCH  24  26
ATOM     26  C   UNL d   1      11.429   7.961  -5.185  0.00  0.00     0.000 A 
ATOM     27  C   UNL d   1      11.667   9.210  -4.575  0.00  0.00     0.000 A 
ATOM     28  C   UNL d   1      12.009   9.292  -3.213  0.00  0.00     0.000 A 
ATOM     29  C   UNL d   1      12.129   8.122  -2.442  0.00  0.00     0.000 A 
ATOM     30  C   UNL d   1      11.892   6.870  -3.035  0.00  0.00     0.000 A 
ATOM     31  C   UNL d   1      11.544   6.793  -4.398  0.00  0.00     0.000 A 
ENDBRANCH  24  26
ENDBRANCH  19  20
ENDBRANCH  18  19
ENDBRANCH  17  18
ENDBRANCH   1  17
TORSDOF 8
