REMARK  7 active torsions:
REMARK  status: ('A' for Active; 'I' for Inactive)
REMARK    1  A    between atoms: C_2  and  C_3 
REMARK    2  A    between atoms: C_3  and  C_4 
REMARK    3  A    between atoms: C_4  and  C_5 
REMARK    4  A    between atoms: C_5  and  C_6 
REMARK    5  A    between atoms: C_6  and  C_7 
REMARK    6  A    between atoms: C_7  and  C_8 
REMARK    7  A    between atoms: C_8  and  C_9 
ROOT
ATOM      1  C   UNL d   1       5.337   1.568 -13.011  0.00  0.00     0.026 C 
ENDROOT
BRANCH   1   2
ATOM      2  C   UNL d   1       6.254   2.705 -13.492  0.00  0.00     0.005 C 
BRANCH   2   3
ATOM      3  C   UNL d   1       6.282   3.901 -12.535  0.00  0.00     0.000 C 
BRANCH   3   4
ATOM      4  C   UNL d   1       7.471   4.808 -12.855  0.00  0.00     0.000 C 
BRANCH   4   5
ATOM      5  C   UNL d   1       7.407   6.136 -12.084  0.00  0.00     0.000 C 
BRANCH   5   6
ATOM      6  C   UNL d   1       8.789   6.777 -11.855  0.00  0.00     0.000 C 
BRANCH   6   7
ATOM      7  C   UNL d   1       9.695   5.998 -10.876  0.00  0.00     0.000 C 
ATOM      8  C   UNL d   1       9.121   5.867  -9.456  0.00  0.00     0.000 C 
ENDBRANCH   6   7
ENDBRANCH   5   6
ENDBRANCH   4   5
ENDBRANCH   3   4
ENDBRANCH   2   3
ENDBRANCH   1   2
BRANCH   1   9
ATOM      9  C   UNL d   1       5.111   0.470 -14.040  0.00  0.00    -0.022 A 
ATOM     10  C   UNL d   1       6.104   0.140 -14.988  0.00  0.00    -0.002 A 
ATOM     11  C   UNL d   1       5.853  -0.820 -15.984  0.00  0.00     0.027 A 
ATOM     12  C   UNL d   1       4.603  -1.472 -16.031  0.00  0.00     0.131 A 
ATOM     13  C   UNL d   1       3.616  -1.155 -15.088  0.00  0.00     0.027 A 
ATOM     14  O   UNL d   1       4.335  -2.410 -16.991  0.00  0.00    -0.190 OA
ATOM     15  C   UNL d   1       3.862  -0.189 -14.091  0.00  0.00    -0.002 A 
ENDBRANCH   1   9
TORSDOF 7
