REMARK  6 active torsions:
REMARK  status: ('A' for Active; 'I' for Inactive)
REMARK    1  A    between atoms: C_2  and  C_3 
REMARK    2  A    between atoms: C_3  and  N_4 
REMARK    3  A    between atoms: C_8  and  C_9 
REMARK    4  A    between atoms: C_13  and  O_14 
REMARK    5  A    between atoms: O_14  and  S_15 
REMARK    6  A    between atoms: S_15  and  C_18 
ROOT
ATOM      1  C   UNL d   1       9.309   2.387 -15.713  0.00  0.00    -0.018 A 
ATOM      2  C   UNL d   1       9.969   3.271 -16.598  0.00  0.00    -0.004 A 
ATOM      3  C   UNL d   1      10.516   4.477 -16.125  0.00  0.00     0.002 A 
ATOM      4  C   UNL d   1      10.422   4.805 -14.763  0.00  0.00     0.026 A 
ATOM      5  C   UNL d   1       9.764   3.941 -13.872  0.00  0.00     0.113 A 
ATOM      6  C   UNL d   1       9.215   2.724 -14.343  0.00  0.00     0.021 A 
ENDROOT
BRANCH   5   7
ATOM      7  O   UNL d   1       9.660   4.289 -12.554  0.00  0.00    -0.227 OA
BRANCH   7   8
ATOM      8  S   UNL d   1       8.356   5.267 -12.130  0.00  0.00     0.304 S 
ATOM      9  O   UNL d   1       8.214   6.309 -13.157  0.00  0.00    -0.193 OA
ATOM     10  O   UNL d   1       7.234   4.380 -11.790  0.00  0.00    -0.193 OA
BRANCH   8  11
ATOM     11  C   UNL d   1       9.056   5.990 -10.654  0.00  0.00     0.111 A 
ATOM     12  C   UNL d   1       9.843   7.149 -10.774  0.00  0.00     0.013 A 
ATOM     13  C   UNL d   1      10.421   7.729  -9.627  0.00  0.00    -0.004 A 
ATOM     14  C   UNL d   1      10.187   7.152  -8.360  0.00  0.00    -0.022 A 
ATOM     15  C   UNL d   1       9.386   5.998  -8.248  0.00  0.00    -0.004 A 
ATOM     16  C   UNL d   1      10.787   7.789  -7.124  0.00  0.00     0.031 C 
ATOM     17  C   UNL d   1       8.825   5.403  -9.396  0.00  0.00     0.013 A 
ENDBRANCH   8  11
ENDBRANCH   7   8
ENDBRANCH   5   7
BRANCH   1  18
ATOM     18  C   UNL d   1       8.675   1.072 -16.210  0.00  0.00     0.056 C 
ATOM     19  C   UNL d   1       8.945   0.795 -17.699  0.00  0.00     0.008 C 
ATOM     20  C   UNL d   1       8.216  -0.461 -18.167  0.00  0.00     0.036 C 
ATOM     21  C   UNL d   1       6.717  -0.356 -17.841  0.00  0.00     0.250 C 
ATOM     22  N   UNL d   1       6.523  -0.183 -16.401  0.00  0.00     0.137 N 
ATOM     23  C   UNL d   1       7.152   1.068 -15.949  0.00  0.00     0.255 C 
BRANCH  22  24
ATOM     24  C   UNL d   1       5.097  -0.174 -16.081  0.00  0.00     0.250 C 
BRANCH  24  25
ATOM     25  C   UNL d   1       4.852  -0.450 -14.585  0.00  0.00     0.035 C 
ATOM     26  C   UNL d   1       3.368  -0.505 -14.224  0.00  0.00     0.002 C 
ENDBRANCH  24  25
ENDBRANCH  22  24
ENDBRANCH   1  18
TORSDOF 6
