REMARK  6 active torsions:
REMARK  status: ('A' for Active; 'I' for Inactive)
REMARK    1  A    between atoms: C_2  and  C_3 
REMARK    2  A    between atoms: N_13  and  C_14 
REMARK    3  A    between atoms: C_14  and  C_15 
REMARK    4  A    between atoms: C_15  and  C_17 
REMARK    5  A    between atoms: C_17  and  N_18 
REMARK    6  A    between atoms: N_21  and  C_22 
ROOT
ATOM      1  C   UNL d   1      10.708   6.820 -10.245  0.00  0.00     0.148 C 
ENDROOT
BRANCH   1   2
ATOM      2  N   UNL d   1      10.263   7.438  -9.044  0.00  0.00    -0.247 N 
ATOM      3  C   UNL d   1      10.160   8.770  -8.913  0.00  0.00     0.348 C 
ATOM      4  N   UNL d   1       9.716   9.032  -7.682  0.00  0.00    -0.209 NA
ATOM      5  O   UNL d   1      10.454   9.546  -9.781  0.00  0.00    -0.245 OA
ATOM      6  C   UNL d   1       9.737   7.847  -6.864  0.00  0.00     0.179 C 
ATOM      7  C   UNL d   1       8.351   7.575  -6.427  0.00  0.00     0.039 C 
ATOM      8  C   UNL d   1      10.084   6.800  -7.884  0.00  0.00     0.265 C 
ATOM      9  O   UNL d   1      10.164   5.597  -7.717  0.00  0.00    -0.269 OA
BRANCH   6  10
ATOM     10  C   UNL d   1      10.754   7.926  -5.732  0.00  0.00     0.006 A 
ATOM     11  C   UNL d   1      10.906   6.834  -4.856  0.00  0.00     0.000 A 
ATOM     12  C   UNL d   1      11.797   6.879  -3.770  0.00  0.00     0.029 A 
ATOM     13  C   UNL d   1      12.519   8.059  -3.535  0.00  0.00     0.140 A 
ATOM     14  C   UNL d   1      12.418   9.145  -4.439  0.00  0.00     0.029 A 
ATOM     15  F   UNL d   1      13.212   8.204  -2.415  0.00  0.00    -0.204 F 
ATOM     16  C   UNL d   1      11.528   9.093  -5.512  0.00  0.00     0.000 A 
ENDBRANCH   6  10
ENDBRANCH   1   2
BRANCH   1  17
ATOM     17  C   UNL d   1       9.690   6.800 -11.415  0.00  0.00     0.208 C 
ATOM     18  O   UNL d   1       9.181   8.100 -11.649  0.00  0.00    -0.219 OA
BRANCH  17  19
ATOM     19  C   UNL d   1       8.509   5.826 -11.139  0.00  0.00     0.285 C 
BRANCH  19  20
ATOM     20  N   UNL d   1       7.946   5.244 -12.350  0.00  0.00     0.144 N 
ATOM     21  C   UNL d   1       6.598   4.746 -12.079  0.00  0.00     0.274 C 
ATOM     22  C   UNL d   1       5.949   4.136 -13.329  0.00  0.00     0.137 C 
ATOM     23  N   UNL d   1       6.840   3.149 -13.950  0.00  0.00    -0.344 N 
ATOM     24  C   UNL d   1       8.234   3.534 -14.127  0.00  0.00     0.137 C 
ATOM     25  C   UNL d   1       8.793   4.152 -12.845  0.00  0.00     0.274 C 
BRANCH  23  26
ATOM     26  C   UNL d   1       6.397   1.844 -14.247  0.00  0.00     0.067 A 
ATOM     27  C   UNL d   1       6.786   1.135 -15.411  0.00  0.00     0.073 A 
ATOM     28  C   UNL d   1       6.289  -0.159 -15.654  0.00  0.00     0.013 A 
ATOM     29 CL   UNL d   1       7.806   1.791 -16.647  0.00  0.00    -0.081 Cl
ATOM     30  C   UNL d   1       5.354  -0.741 -14.780  0.00  0.00     0.001 A 
ATOM     31  C   UNL d   1       4.917  -0.011 -13.670  0.00  0.00     0.002 A 
ATOM     32  C   UNL d   1       5.465   1.245 -13.369  0.00  0.00     0.018 A 
ENDBRANCH  23  26
ENDBRANCH  19  20
ENDBRANCH  17  19
ENDBRANCH   1  17
TORSDOF 6
