REMARK  9 active torsions:
REMARK  status: ('A' for Active; 'I' for Inactive)
REMARK       I    between atoms: C_2  and  N_3 
REMARK    1  A    between atoms: C_2  and  C_25 
REMARK    2  A    between atoms: N_3  and  C_4 
REMARK    3  A    between atoms: C_4  and  C_5 
REMARK    4  A    between atoms: C_5  and  C_6 
REMARK    5  A    between atoms: C_6  and  C_7 
REMARK    6  A    between atoms: C_7  and  C_8 
REMARK    7  A    between atoms: C_8  and  C_9 
REMARK    8  A    between atoms: C_9  and  N_10 
REMARK    9  A    between atoms: N_13  and  C_14 
ROOT
ATOM      1  N   UNL d   1       8.945   3.076 -14.249  0.00  0.00     0.141 N 
ATOM      2  C   UNL d   1       7.522   2.742 -14.284  0.00  0.00     0.274 C 
ATOM      3  C   UNL d   1       7.302   1.376 -14.919  0.00  0.00     0.138 C 
ATOM      4  N   UNL d   1       7.869   1.317 -16.259  0.00  0.00    -0.329 N 
ATOM      5  C   UNL d   1       9.271   1.730 -16.305  0.00  0.00     0.138 C 
ATOM      6  C   UNL d   1       9.450   3.102 -15.625  0.00  0.00     0.274 C 
ENDROOT
BRANCH   1   7
ATOM      7  C   UNL d   1       9.147   4.384 -13.630  0.00  0.00     0.250 C 
BRANCH   7   8
ATOM      8  C   UNL d   1       8.879   4.340 -12.119  0.00  0.00     0.035 C 
BRANCH   8   9
ATOM      9  C   UNL d   1       9.208   5.662 -11.428  0.00  0.00     0.002 C 
BRANCH   9  10
ATOM     10  C   UNL d   1       8.864   5.650  -9.929  0.00  0.00     0.002 C 
BRANCH  10  11
ATOM     11  C   UNL d   1       9.508   6.819  -9.169  0.00  0.00     0.026 C 
BRANCH  11  12
ATOM     12  C   UNL d   1       8.820   7.121  -7.828  0.00  0.00     0.129 C 
BRANCH  12  13
ATOM     13  N   UNL d   1       9.749   7.183  -6.719  0.00  0.00    -0.234 NA
ATOM     14  C   UNL d   1      10.528   8.238  -6.444  0.00  0.00     0.275 C 
ATOM     15  O   UNL d   1      10.635   9.216  -7.183  0.00  0.00    -0.266 OA
BRANCH  14  16
ATOM     16  C   UNL d   1      11.191   8.217  -5.099  0.00  0.00     0.058 A 
ATOM     17  C   UNL d   1      11.528   7.001  -4.459  0.00  0.00     0.005 A 
ATOM     18  C   UNL d   1      12.127   7.008  -3.184  0.00  0.00     0.000 A 
ATOM     19  C   UNL d   1      12.383   8.230  -2.534  0.00  0.00     0.000 A 
ATOM     20  C   UNL d   1      12.047   9.441  -3.165  0.00  0.00     0.000 A 
ATOM     21  C   UNL d   1      11.460   9.438  -4.442  0.00  0.00     0.005 A 
ENDBRANCH  14  16
ENDBRANCH  12  13
ENDBRANCH  11  12
ENDBRANCH  10  11
ENDBRANCH   9  10
ENDBRANCH   8   9
ENDBRANCH   7   8
ENDBRANCH   1   7
BRANCH   4  22
ATOM     22  C   UNL d   1       7.128   0.921 -17.408  0.00  0.00     0.148 A 
ATOM     23  C   UNL d   1       6.015  -0.034 -17.364  0.00  0.00     0.042 A 
ATOM     24  C   UNL d   1       5.484  -0.193 -18.681  0.00  0.00     0.050 A 
ATOM     25  C   UNL d   1       5.405  -0.815 -16.342  0.00  0.00     0.004 A 
ATOM     26  S   UNL d   1       6.439   0.785 -19.772  0.00  0.00     0.015 SA
ATOM     27  C   UNL d   1       4.394  -1.034 -18.958  0.00  0.00     0.008 A 
ATOM     28  N   UNL d   1       7.438   1.417 -18.588  0.00  0.00    -0.192 NA
ATOM     29  C   UNL d   1       3.798  -1.755 -17.909  0.00  0.00     0.001 A 
ATOM     30  C   UNL d   1       4.300  -1.631 -16.605  0.00  0.00     0.000 A 
ENDBRANCH   4  22
TORSDOF 9
