REMARK  6 active torsions:
REMARK  status: ('A' for Active; 'I' for Inactive)
REMARK    1  A    between atoms: O_2  and  C_3 
REMARK    2  A    between atoms: C_4  and  C_5 
REMARK       I    between atoms: C_5  and  N_7 
REMARK    3  A    between atoms: N_7  and  C_8 
REMARK    4  A    between atoms: C_8  and  C_9 
REMARK    5  A    between atoms: C_9  and  N_10 
REMARK    6  A    between atoms: N_13  and  C_14 
ROOT
ATOM      1  C   UNL d   1       9.656   4.489 -13.524  0.00  0.00     0.277 C 
ATOM      2  O   UNL d   1      10.672   5.175 -13.566  0.00  0.00    -0.266 OA
ATOM      3  N   UNL d   1       8.665   4.749 -12.658  0.00  0.00    -0.232 NA
ENDROOT
BRANCH   1   4
ATOM      4  C   UNL d   1       9.467   3.296 -14.434  0.00  0.00     0.081 A 
ATOM      5  C   UNL d   1      10.504   2.822 -15.291  0.00  0.00     0.099 A 
ATOM      6  C   UNL d   1      10.290   1.672 -16.094  0.00  0.00     0.023 A 
ATOM      7  C   UNL d   1       9.028   1.018 -16.091  0.00  0.00     0.013 A 
ATOM      8  C   UNL d   1      11.326   1.163 -16.910  0.00  0.00     0.002 A 
ATOM      9  C   UNL d   1       7.995   1.508 -15.264  0.00  0.00     0.058 A 
ATOM     10  C   UNL d   1       8.826  -0.113 -16.913  0.00  0.00     0.001 A 
ATOM     11  C   UNL d   1       8.217   2.633 -14.460  0.00  0.00     0.018 A 
ATOM     12 CL   UNL d   1       6.437   0.756 -15.196  0.00  0.00    -0.082 Cl
ATOM     13  C   UNL d   1       9.867  -0.611 -17.717  0.00  0.00     0.000 A 
ATOM     14  C   UNL d   1      11.118   0.028 -17.717  0.00  0.00     0.000 A 
BRANCH   5  15
ATOM     15  O   UNL d   1      11.734   3.435 -15.341  0.00  0.00    -0.328 OA
ATOM     16  C   UNL d   1      11.804   4.510 -16.271  0.00  0.00     0.181 C 
ENDBRANCH   5  15
ENDBRANCH   1   4
BRANCH   3  17
ATOM     17  C   UNL d   1       8.686   5.820 -11.669  0.00  0.00     0.164 C 
BRANCH  17  18
ATOM     18  C   UNL d   1       8.998   5.242 -10.281  0.00  0.00     0.277 C 
BRANCH  18  19
ATOM     19  N   UNL d   1       9.062   6.308  -9.288  0.00  0.00     0.143 N 
ATOM     20  C   UNL d   1       8.855   5.746  -7.951  0.00  0.00     0.274 C 
ATOM     21  C   UNL d   1       8.863   6.858  -6.887  0.00  0.00     0.137 C 
ATOM     22  N   UNL d   1      10.101   7.632  -6.970  0.00  0.00    -0.344 N 
ATOM     23  C   UNL d   1      10.403   8.145  -8.302  0.00  0.00     0.137 C 
ATOM     24  C   UNL d   1      10.346   7.004  -9.331  0.00  0.00     0.274 C 
BRANCH  22  25
ATOM     25  C   UNL d   1      10.958   7.835  -5.868  0.00  0.00     0.056 A 
ATOM     26  C   UNL d   1      11.056   6.876  -4.835  0.00  0.00     0.017 A 
ATOM     27  C   UNL d   1      11.865   7.072  -3.703  0.00  0.00     0.002 A 
ATOM     28  C   UNL d   1      12.643   8.232  -3.610  0.00  0.00     0.000 A 
ATOM     29  C   UNL d   1      12.598   9.181  -4.645  0.00  0.00     0.002 A 
ATOM     30  C   UNL d   1      11.749   9.002  -5.759  0.00  0.00     0.017 A 
ENDBRANCH  22  25
ENDBRANCH  18  19
ENDBRANCH  17  18
ENDBRANCH   3  17
TORSDOF 6
