REMARK  4 active torsions:
REMARK  status: ('A' for Active; 'I' for Inactive)
REMARK    1  A    between atoms: S_2  and  C_3 
REMARK    2  A    between atoms: N_9  and  C_10 
REMARK    3  A    between atoms: C_10  and  C_11 
REMARK    4  A    between atoms: C_11  and  C_12 
ROOT
ATOM      1  C   UNL d   1      10.172   0.528 -16.932  0.00  0.00     0.027 C 
ATOM      2  C   UNL d   1       8.909  -0.050 -17.078  0.00  0.00     0.007 C 
ATOM      3  C   UNL d   1       7.846   0.374 -16.237  0.00  0.00     0.008 C 
ATOM      4  C   UNL d   1       8.049   1.417 -15.284  0.00  0.00     0.045 C 
ATOM      5  C   UNL d   1       9.304   1.996 -15.109  0.00  0.00     0.067 C 
ATOM      6  C   UNL d   1      10.348   1.461 -15.902  0.00  0.00     0.024 C 
ATOM      7  N   UNL d   1       9.467   3.181 -14.299  0.00  0.00    -0.327 N 
ATOM      8  C   UNL d   1       8.441   3.942 -13.696  0.00  0.00     0.066 A 
ATOM      9  C   UNL d   1       8.674   5.223 -13.062  0.00  0.00     0.018 A 
ATOM     10  C   UNL d   1       7.669   5.909 -12.399  0.00  0.00     0.002 A 
ATOM     11  C   UNL d   1       6.359   5.389 -12.332  0.00  0.00     0.001 A 
ATOM     12  C   UNL d   1       6.099   4.157 -12.965  0.00  0.00     0.008 A 
ATOM     13  C   UNL d   1       7.099   3.457 -13.636  0.00  0.00     0.045 A 
ATOM     14  S   UNL d   1       6.627   1.931 -14.387  0.00  0.00    -0.084 SA
ENDROOT
BRANCH   7  15
ATOM     15  C   UNL d   1      10.847   3.628 -14.064  0.00  0.00     0.108 C 
BRANCH  15  16
ATOM     16  C   UNL d   1      11.375   4.722 -15.016  0.00  0.00     0.058 C 
BRANCH  16  17
ATOM     17  C   UNL d   1      11.665   4.280 -16.475  0.00  0.00     0.221 C 
ATOM     18  N   UNL d   1      12.485   5.218 -17.241  0.00  0.00     0.137 N 
ATOM     19  C   UNL d   1      11.754   6.466 -17.394  0.00  0.00     0.250 C 
ATOM     20  C   UNL d   1      13.777   5.409 -16.592  0.00  0.00     0.285 C 
ATOM     21  C   UNL d   1      10.424   6.261 -18.155  0.00  0.00     0.035 C 
ATOM     22  C   UNL d   1       9.533   5.241 -17.480  0.00  0.00     0.004 C 
ATOM     23  C   UNL d   1      10.405   4.039 -17.333  0.00  0.00     0.033 C 
ENDBRANCH  16  17
ENDBRANCH  15  16
ENDBRANCH   7  15
BRANCH   1  24
ATOM     24  S   UNL d   1      11.464   0.083 -18.064  0.00  0.00    -0.113 SA
ATOM     25  C   UNL d   1      12.657   1.454 -18.294  0.00  0.00     0.074 C 
ENDBRANCH   1  24
TORSDOF 4
