REMARK  5 active torsions:
REMARK  status: ('A' for Active; 'I' for Inactive)
REMARK    1  A    between atoms: N_2  and  C_4 
REMARK    2  A    between atoms: C_4  and  C_5 
REMARK    3  A    between atoms: C_5  and  C_6 
REMARK    4  A    between atoms: C_6  and  C_7 
REMARK    5  A    between atoms: C_15  and  C_16 
ROOT
ATOM      1  C   UNL d   1      11.463   3.918 -16.568  0.00  0.00     0.174 A 
ATOM      2  O   UNL d   1      10.343   3.375 -17.264  0.00  0.00    -0.322 OA
ATOM      3  C   UNL d   1       9.279   3.318 -16.408  0.00  0.00     0.120 A 
ATOM      4  C   UNL d   1       9.479   3.801 -15.178  0.00  0.00     0.062 A 
ATOM      5  C   UNL d   1      10.886   4.180 -15.173  0.00  0.00     0.203 A 
ATOM      6  O   UNL d   1      11.553   4.619 -14.237  0.00  0.00    -0.288 OA
ENDROOT
BRANCH   1   7
ATOM      7  C   UNL d   1      12.560   2.821 -16.510  0.00  0.00     0.075 C 
BRANCH   7   8
ATOM      8  C   UNL d   1      12.942   2.252 -17.897  0.00  0.00     0.254 C 
BRANCH   8   9
ATOM      9  N   UNL d   1      11.920   1.394 -18.492  0.00  0.00     0.141 N 
ATOM     10  C   UNL d   1      11.697   0.171 -17.728  0.00  0.00     0.285 C 
ATOM     11  C   UNL d   1      12.308   1.031 -19.849  0.00  0.00     0.285 C 
ENDBRANCH   8   9
ENDBRANCH   7   8
ENDBRANCH   1   7
BRANCH   1  12
ATOM     12  C   UNL d   1      11.950   5.218 -17.223  0.00  0.00     0.009 A 
ATOM     13  C   UNL d   1      11.189   5.836 -18.244  0.00  0.00    -0.002 A 
ATOM     14  C   UNL d   1      11.644   7.022 -18.850  0.00  0.00    -0.000 A 
ATOM     15  C   UNL d   1      12.857   7.599 -18.439  0.00  0.00    -0.000 A 
ATOM     16  C   UNL d   1      13.619   7.000 -17.419  0.00  0.00    -0.000 A 
ATOM     17  C   UNL d   1      13.160   5.818 -16.808  0.00  0.00    -0.002 A 
ENDBRANCH   1  12
BRANCH   4  18
ATOM     18  C   UNL d   1       8.469   3.870 -14.093  0.00  0.00     0.005 A 
ATOM     19  C   UNL d   1       8.649   4.740 -12.993  0.00  0.00     0.000 A 
ATOM     20  C   UNL d   1       7.671   4.815 -11.977  0.00  0.00     0.000 A 
ATOM     21  C   UNL d   1       6.497   4.048 -12.062  0.00  0.00     0.000 A 
ATOM     22  C   UNL d   1       6.281   3.217 -13.179  0.00  0.00     0.000 A 
ATOM     23  C   UNL d   1       7.271   3.120 -14.181  0.00  0.00     0.000 A 
ENDBRANCH   4  18
TORSDOF 5
