REMARK  9 active torsions:
REMARK  status: ('A' for Active; 'I' for Inactive)
REMARK    1  A    between atoms: C_2  and  C_3 
REMARK    2  A    between atoms: C_8  and  N_9 
REMARK    3  A    between atoms: N_12  and  C_13 
REMARK    4  A    between atoms: C_13  and  C_14 
REMARK    5  A    between atoms: C_14  and  C_15 
REMARK    6  A    between atoms: C_15  and  C_16 
REMARK    7  A    between atoms: C_16  and  C_17 
REMARK    8  A    between atoms: C_17  and  C_18 
REMARK       I    between atoms: C_18  and  N_20 
REMARK    9  A    between atoms: N_20  and  C_21 
ROOT
ATOM      1  C   UNL d   1       9.868   6.113 -11.340  0.00  0.00     0.035 C 
ENDROOT
BRANCH   1   2
ATOM      2  C   UNL d   1       9.150   5.759 -10.014  0.00  0.00     0.250 C 
BRANCH   2   3
ATOM      3  N   UNL d   1       9.355   6.773  -8.976  0.00  0.00     0.141 N 
ATOM      4  C   UNL d   1       8.806   6.269  -7.711  0.00  0.00     0.274 C 
ATOM      5  C   UNL d   1       8.973   7.318  -6.583  0.00  0.00     0.137 C 
ATOM      6  N   UNL d   1      10.358   7.765  -6.470  0.00  0.00    -0.344 N 
ATOM      7  C   UNL d   1      10.967   8.162  -7.710  0.00  0.00     0.137 C 
ATOM      8  C   UNL d   1      10.776   7.090  -8.767  0.00  0.00     0.274 C 
BRANCH   6   9
ATOM      9  C   UNL d   1      11.063   7.814  -5.275  0.00  0.00     0.052 A 
ATOM     10  C   UNL d   1      11.472   9.038  -4.671  0.00  0.00    -0.007 A 
ATOM     11  C   UNL d   1      12.176   9.007  -3.455  0.00  0.00    -0.003 A 
ATOM     12  C   UNL d   1      12.498   7.785  -2.824  0.00  0.00    -0.000 A 
ATOM     13  C   UNL d   1      12.109   6.581  -3.430  0.00  0.00     0.002 A 
ATOM     14  C   UNL d   1      11.406   6.599  -4.644  0.00  0.00     0.017 A 
BRANCH  10  15
ATOM     15  C   UNL d   1      11.079  10.373  -5.244  0.00  0.00     0.028 C 
ATOM     16  C   UNL d   1      12.046  10.822  -6.360  0.00  0.00     0.005 C 
ENDBRANCH  10  15
ENDBRANCH   6   9
ENDBRANCH   2   3
ENDBRANCH   1   2
BRANCH   1  17
ATOM     17  C   UNL d   1       9.835   4.933 -12.362  0.00  0.00     0.003 C 
BRANCH  17  18
ATOM     18  C   UNL d   1      10.981   4.934 -13.417  0.00  0.00     0.010 C 
BRANCH  18  19
ATOM     19  C   UNL d   1      11.122   3.676 -14.266  0.00  0.00     0.090 C 
BRANCH  19  20
ATOM     20  C   UNL d   1      10.062   3.623 -15.348  0.00  0.00     0.252 C 
ATOM     21  O   UNL d   1       9.655   4.653 -15.888  0.00  0.00    -0.271 OA
ATOM     22  N   UNL d   1       9.543   2.411 -15.563  0.00  0.00    -0.235 NA
BRANCH  22  23
ATOM     23  C   UNL d   1       8.191   2.223 -16.057  0.00  0.00     0.128 C 
ATOM     24  C   UNL d   1       7.188   2.133 -14.889  0.00  0.00    -0.004 A 
ATOM     25  C   UNL d   1       6.583   0.910 -14.532  0.00  0.00    -0.024 A 
ATOM     26  C   UNL d   1       6.879   3.284 -14.137  0.00  0.00    -0.003 A 
ATOM     27  C   UNL d   1       6.871  -0.373 -15.303  0.00  0.00     0.026 C 
ATOM     28  C   UNL d   1       5.670   0.855 -13.449  0.00  0.00    -0.004 A 
ATOM     29  C   UNL d   1       8.121  -0.273 -16.198  0.00  0.00     0.007 C 
ATOM     30  C   UNL d   1       8.157   1.020 -16.988  0.00  0.00     0.029 C 
ATOM     31  C   UNL d   1       5.355   2.022 -12.724  0.00  0.00    -0.000 A 
ATOM     32  C   UNL d   1       5.956   3.240 -13.073  0.00  0.00    -0.000 A 
ENDBRANCH  22  23
ENDBRANCH  19  20
ENDBRANCH  18  19
ENDBRANCH  17  18
ENDBRANCH   1  17
TORSDOF 9
