REMARK  1 active torsions:
REMARK  status: ('A' for Active; 'I' for Inactive)
REMARK    1  A    between atoms: C_14  and  C_15 
ROOT
ATOM      1  O   UNL d   1       4.359  -0.016 -18.640  0.00  0.00    -0.188 OA
ATOM      2  C   UNL d   1       5.702   0.232 -18.644  0.00  0.00     0.157 A 
ATOM      3  C   UNL d   1       6.304   0.602 -17.432  0.00  0.00     0.025 A 
ATOM      4  C   UNL d   1       7.697   0.851 -17.333  0.00  0.00    -0.017 A 
ATOM      5  C   UNL d   1       8.486   0.744 -18.513  0.00  0.00    -0.011 A 
ATOM      6  C   UNL d   1       7.870   0.379 -19.747  0.00  0.00     0.081 A 
ATOM      7 CL   UNL d   1       8.797   0.226 -21.205  0.00  0.00    -0.081 Cl
ATOM      8  C   UNL d   1       6.482   0.125 -19.811  0.00  0.00     0.166 A 
ATOM      9  O   UNL d   1       5.910  -0.216 -21.008  0.00  0.00    -0.187 OA
ATOM     10  C   UNL d   1       9.991   1.001 -18.450  0.00  0.00     0.053 C 
ATOM     11  C   UNL d   1      10.727  -0.009 -17.560  0.00  0.00     0.124 C 
ATOM     12  N   UNL d   1      10.695   0.382 -16.160  0.00  0.00    -0.294 NA
ATOM     13  C   UNL d   1       9.408   0.222 -15.500  0.00  0.00     0.129 C 
ATOM     14  C   UNL d   1       8.340   1.232 -15.980  0.00  0.00     0.068 C 
ENDROOT
BRANCH  14  15
ATOM     15  C   UNL d   1       7.338   1.512 -14.858  0.00  0.00    -0.017 A 
ATOM     16  C   UNL d   1       7.177   2.835 -14.396  0.00  0.00    -0.004 A 
ATOM     17  C   UNL d   1       6.234   3.139 -13.393  0.00  0.00    -0.000 A 
ATOM     18  C   UNL d   1       5.456   2.110 -12.835  0.00  0.00    -0.000 A 
ATOM     19  C   UNL d   1       5.628   0.779 -13.271  0.00  0.00    -0.000 A 
ATOM     20  C   UNL d   1       6.581   0.476 -14.264  0.00  0.00    -0.004 A 
ENDBRANCH  14  15
TORSDOF 1
