REMARK  8 active torsions:
REMARK  status: ('A' for Active; 'I' for Inactive)
REMARK    1  A    between atoms: S_2  and  C_4 
REMARK    2  A    between atoms: S_2  and  N_10 
REMARK    3  A    between atoms: C_14  and  N_15 
REMARK    4  A    between atoms: N_18  and  C_19 
REMARK    5  A    between atoms: C_19  and  C_20 
REMARK    6  A    between atoms: C_20  and  C_21 
REMARK    7  A    between atoms: C_21  and  O_22 
REMARK    8  A    between atoms: O_22  and  C_23 
ROOT
ATOM      1  N   UNL d   1      11.150   8.809  -7.045  0.00  0.00    -0.231 N 
ATOM      2  C   UNL d   1      11.993   8.806  -8.148  0.00  0.00     0.092 A 
ATOM      3  C   UNL d   1      11.528   7.995  -9.118  0.00  0.00     0.023 A 
ATOM      4  C   UNL d   1      10.378   7.342  -8.564  0.00  0.00     0.034 A 
ATOM      5  C   UNL d   1       9.513   6.332  -8.960  0.00  0.00     0.058 A 
ATOM      6  C   UNL d   1       8.519   5.828  -8.138  0.00  0.00     0.017 A 
ATOM      7  C   UNL d   1       8.298   6.403  -6.863  0.00  0.00     0.003 A 
ATOM      8  C   UNL d   1       9.131   7.432  -6.436  0.00  0.00     0.018 A 
ATOM      9  C   UNL d   1      10.143   7.906  -7.252  0.00  0.00     0.076 A 
ENDROOT
BRANCH   5  10
ATOM     10  N   UNL d   1       9.621   5.772 -10.257  0.00  0.00    -0.344 N 
ATOM     11  C   UNL d   1       9.902   6.576 -11.382  0.00  0.00     0.137 C 
ATOM     12  C   UNL d   1       8.977   6.236 -12.525  0.00  0.00     0.274 C 
ATOM     13  N   UNL d   1       9.077   4.827 -12.854  0.00  0.00     0.141 N 
ATOM     14  C   UNL d   1       8.651   4.123 -11.652  0.00  0.00     0.274 C 
ATOM     15  C   UNL d   1       9.528   4.359 -10.442  0.00  0.00     0.137 C 
BRANCH  13  16
ATOM     16  C   UNL d   1       8.194   4.443 -13.967  0.00  0.00     0.253 C 
BRANCH  16  17
ATOM     17  C   UNL d   1       8.425   2.962 -14.415  0.00  0.00     0.068 C 
BRANCH  17  18
ATOM     18  C   UNL d   1       7.621   2.573 -15.669  0.00  0.00     0.151 C 
BRANCH  18  19
ATOM     19  O   UNL d   1       7.465   1.199 -15.992  0.00  0.00    -0.331 OA
BRANCH  19  20
ATOM     20  C   UNL d   1       6.369   0.572 -15.446  0.00  0.00     0.094 A 
ATOM     21  C   UNL d   1       5.604  -0.289 -16.269  0.00  0.00     0.026 A 
ATOM     22  C   UNL d   1       4.458  -0.935 -15.733  0.00  0.00     0.032 A 
ATOM     23  C   UNL d   1       4.104  -0.713 -14.389  0.00  0.00     0.140 A 
ATOM     24  C   UNL d   1       4.870   0.129 -13.588  0.00  0.00     0.032 A 
ATOM     25  F   UNL d   1       3.058  -1.329 -13.844  0.00  0.00    -0.204 F 
ATOM     26  C   UNL d   1       5.992   0.775 -14.094  0.00  0.00     0.026 A 
ENDBRANCH  19  20
ENDBRANCH  18  19
ENDBRANCH  17  18
ENDBRANCH  16  17
ENDBRANCH  13  16
ENDBRANCH   5  10
BRANCH   1  27
ATOM     27  S   UNL d   1      11.536   9.749  -5.637  0.00  0.00     0.271 S 
ATOM     28  O   UNL d   1      10.281  10.374  -5.120  0.00  0.00    -0.200 OA
ATOM     29  O   UNL d   1      12.669  10.514  -6.063  0.00  0.00    -0.200 OA
BRANCH  27  30
ATOM     30  C   UNL d   1      11.999   8.567  -4.387  0.00  0.00     0.104 C 
ATOM     31  C   UNL d   1      12.301   9.013  -3.078  0.00  0.00     0.013 C 
ATOM     32  C   UNL d   1      12.635   8.089  -2.063  0.00  0.00     0.001 C 
ATOM     33  C   UNL d   1      12.618   6.710  -2.357  0.00  0.00     0.000 C 
ATOM     34  C   UNL d   1      12.249   6.312  -3.645  0.00  0.00     0.001 C 
ATOM     35  C   UNL d   1      11.862   7.190  -4.628  0.00  0.00     0.013 C 
ENDBRANCH  27  30
ENDBRANCH   1  27
TORSDOF 8
