REMARK  2 active torsions:
REMARK  status: ('A' for Active; 'I' for Inactive)
REMARK    1  A    between atoms: N_6  and  C_7 
REMARK    2  A    between atoms: C_7  and  C_8 
ROOT
ATOM      1  C   UNL d   1       7.487   5.926 -11.913  0.00  0.00     0.085 C 
ATOM      2  C   UNL d   1       5.989   5.602 -11.844  0.00  0.00     0.016 C 
ATOM      3  C   UNL d   1       5.733   4.106 -11.954  0.00  0.00     0.044 C 
ATOM      4  C   UNL d   1       6.501   3.477 -13.033  0.00  0.00     0.040 A 
ATOM      5  C   UNL d   1       7.675   3.997 -13.568  0.00  0.00     0.048 A 
ATOM      6  C   UNL d   1       8.144   2.993 -14.519  0.00  0.00     0.020 A 
ATOM      7  C   UNL d   1       9.225   2.789 -15.426  0.00  0.00     0.002 A 
ATOM      8  C   UNL d   1       9.342   1.599 -16.197  0.00  0.00     0.000 A 
ATOM      9  C   UNL d   1       8.412   0.547 -16.055  0.00  0.00     0.002 A 
ATOM     10  C   UNL d   1       7.339   0.703 -15.165  0.00  0.00     0.017 A 
ATOM     11  C   UNL d   1       7.213   1.880 -14.456  0.00  0.00     0.060 A 
ATOM     12  N   UNL d   1       6.248   2.226 -13.514  0.00  0.00    -0.329 N 
ATOM     13  C   UNL d   1       5.226   1.329 -13.033  0.00  0.00     0.130 C 
ATOM     14  C   UNL d   1       8.221   5.263 -13.095  0.00  0.00     0.176 C 
ATOM     15  O   UNL d   1       9.254   5.770 -13.536  0.00  0.00    -0.291 OA
ENDROOT
BRANCH   1  16
ATOM     16  C   UNL d   1       8.227   5.594 -10.595  0.00  0.00     0.115 C 
BRANCH  16  17
ATOM     17  N   UNL d   1       9.320   6.507 -10.262  0.00  0.00    -0.314 N 
ATOM     18  C   UNL d   1      10.182   6.378  -9.238  0.00  0.00     0.121 A 
ATOM     19  C   UNL d   1      10.164   5.210  -8.319  0.00  0.00     0.072 C 
ATOM     20  N   UNL d   1      11.039   7.389  -9.112  0.00  0.00    -0.230 NA
ATOM     21  C   UNL d   1      10.703   8.248 -10.150  0.00  0.00     0.119 A 
ATOM     22  C   UNL d   1       9.654   7.720 -10.859  0.00  0.00     0.098 A 
ENDBRANCH  16  17
ENDBRANCH   1  16
TORSDOF 2
