REMARK  3 active torsions:
REMARK  status: ('A' for Active; 'I' for Inactive)
REMARK    1  A    between atoms: C_5  and  N_6 
REMARK    2  A    between atoms: N_9  and  C_10 
REMARK    3  A    between atoms: C_10  and  C_11 
ROOT
ATOM      1  N   UNL d   1      11.278   7.588  -7.852  0.00  0.00    -0.330 N 
ATOM      2  C   UNL d   1      10.417   6.450  -8.129  0.00  0.00     0.138 C 
ATOM      3  C   UNL d   1       9.460   6.790  -9.272  0.00  0.00     0.275 C 
ATOM      4  N   UNL d   1      10.221   7.250 -10.441  0.00  0.00     0.149 N 
ATOM      5  C   UNL d   1      10.931   8.487 -10.093  0.00  0.00     0.275 C 
ATOM      6  C   UNL d   1      11.942   8.226  -8.977  0.00  0.00     0.138 C 
ENDROOT
BRANCH   4   7
ATOM      7  C   UNL d   1       9.342   7.533 -11.576  0.00  0.00     0.315 C 
BRANCH   7   8
ATOM      8  C   UNL d   1       8.633   6.326 -12.118  0.00  0.00     0.173 A 
ATOM      9  N   UNL d   1       7.406   5.991 -11.685  0.00  0.00    -0.227 NA
ATOM     10  C   UNL d   1       7.023   4.844 -12.362  0.00  0.00     0.100 A 
ATOM     11  C   UNL d   1       8.141   4.570 -13.203  0.00  0.00     0.100 A 
ATOM     12  C   UNL d   1       5.885   4.016 -12.357  0.00  0.00     0.021 A 
ATOM     13  N   UNL d   1       9.147   5.510 -13.042  0.00  0.00    -0.227 NA
ATOM     14  C   UNL d   1       8.085   3.432 -14.041  0.00  0.00     0.021 A 
ATOM     15  C   UNL d   1       6.948   2.603 -14.047  0.00  0.00     0.002 A 
ATOM     16  C   UNL d   1       5.856   2.888 -13.201  0.00  0.00     0.002 A 
ENDBRANCH   7   8
ENDBRANCH   4   7
BRANCH   1  17
ATOM     17  C   UNL d   1      11.360   8.110  -6.562  0.00  0.00     0.140 A 
ATOM     18  C   UNL d   1      11.442   7.229  -5.461  0.00  0.00     0.039 A 
ATOM     19  C   UNL d   1      11.578   7.779  -4.178  0.00  0.00     0.032 A 
ATOM     20  C   UNL d   1      11.605   9.175  -4.046  0.00  0.00     0.150 A 
ATOM     21  O   UNL d   1      11.757   9.752  -2.827  0.00  0.00    -0.189 OA
ATOM     22  C   UNL d   1      11.467   9.965  -5.199  0.00  0.00     0.128 A 
ATOM     23  N   UNL d   1      11.367   9.455  -6.436  0.00  0.00    -0.225 NA
ENDBRANCH   1  17
TORSDOF 3
