REMARK  5 active torsions:
REMARK  status: ('A' for Active; 'I' for Inactive)
REMARK    1  A    between atoms: C_6  and  C_7 
REMARK    2  A    between atoms: C_10  and  S_11 
REMARK    3  A    between atoms: S_11  and  C_12 
REMARK    4  A    between atoms: C_12  and  C_13 
REMARK    5  A    between atoms: C_13  and  N_14 
ROOT
ATOM      1  S   UNL d   1      10.003  -1.143 -18.367  0.00  0.00    -0.073 SA
ENDROOT
BRANCH   1   2
ATOM      2  C   UNL d   1       9.650  -0.260 -16.881  0.00  0.00     0.193 A 
ATOM      3  N   UNL d   1      10.573   0.079 -15.981  0.00  0.00    -0.122 NA
ATOM      4  N   UNL d   1       9.884   0.683 -14.963  0.00  0.00    -0.128 NA
ATOM      5  C   UNL d   1       8.600   0.709 -15.341  0.00  0.00     0.167 A 
ATOM      6  N   UNL d   1       8.402   0.103 -16.535  0.00  0.00    -0.289 N 
ATOM      7  C   UNL d   1       7.162  -0.122 -17.263  0.00  0.00     0.134 C 
BRANCH   5   8
ATOM      8  C   UNL d   1       7.550   1.317 -14.521  0.00  0.00     0.037 A 
ATOM      9  C   UNL d   1       7.617   2.663 -14.057  0.00  0.00     0.021 A 
ATOM     10  C   UNL d   1       8.719   3.506 -14.349  0.00  0.00     0.003 A 
ATOM     11  C   UNL d   1       6.563   3.199 -13.255  0.00  0.00     0.081 A 
ATOM     12  C   UNL d   1       8.752   4.802 -13.814  0.00  0.00     0.015 A 
ATOM     13  C   UNL d   1       7.672   5.231 -13.026  0.00  0.00     0.059 A 
ATOM     14  C   UNL d   1       7.657   6.623 -12.435  0.00  0.00     0.052 C 
ATOM     15  N   UNL d   1       6.597   4.462 -12.771  0.00  0.00    -0.250 NA
ATOM     16  C   UNL d   1       5.463   2.379 -12.940  0.00  0.00     0.019 A 
ATOM     17  C   UNL d   1       5.389   1.057 -13.413  0.00  0.00     0.002 A 
ATOM     18  C   UNL d   1       6.428   0.528 -14.192  0.00  0.00     0.003 A 
ENDBRANCH   5   8
ENDBRANCH   1   2
BRANCH   1  19
ATOM     19  C   UNL d   1      11.450  -0.191 -18.907  0.00  0.00     0.101 C 
BRANCH  19  20
ATOM     20  C   UNL d   1      11.035   1.219 -19.374  0.00  0.00     0.262 C 
BRANCH  20  21
ATOM     21  N   UNL d   1      12.182   2.034 -19.783  0.00  0.00     0.139 N 
ATOM     22  C   UNL d   1      11.699   3.097 -20.670  0.00  0.00     0.255 C 
ATOM     23  C   UNL d   1      12.823   3.845 -21.406  0.00  0.00     0.062 C 
ATOM     24  C   UNL d   1      13.455   4.959 -20.579  0.00  0.00    -0.016 A 
ATOM     25  C   UNL d   1      14.137   4.635 -19.377  0.00  0.00    -0.022 A 
ATOM     26  C   UNL d   1      13.370   6.316 -20.989  0.00  0.00     0.055 A 
ATOM     27  C   UNL d   1      14.228   3.197 -18.897  0.00  0.00     0.061 C 
ATOM     28  C   UNL d   1      14.738   5.650 -18.595  0.00  0.00     0.017 A 
ATOM     29  C   UNL d   1      12.861   2.561 -18.593  0.00  0.00     0.255 C 
ATOM     30  C   UNL d   1      14.665   6.998 -18.997  0.00  0.00     0.106 A 
ATOM     31  C   UNL d   1      13.977   7.297 -20.189  0.00  0.00     0.125 A 
ATOM     32  N   UNL d   1      15.151   8.164 -18.438  0.00  0.00    -0.224 NA
ATOM     33  O   UNL d   1      14.026   8.665 -20.381  0.00  0.00    -0.291 OA
ATOM     34  C   UNL d   1      14.734   9.105 -19.297  0.00  0.00     0.159 A 
ATOM     35  C   UNL d   1      15.001  10.562 -19.188  0.00  0.00     0.080 C 
ATOM     36 BR   UNL d   1      12.462   6.866 -22.575  0.00  0.00    -0.047 Br
ENDBRANCH  20  21
ENDBRANCH  19  20
ENDBRANCH   1  19
TORSDOF 5
