REMARK  4 active torsions:
REMARK  status: ('A' for Active; 'I' for Inactive)
REMARK    1  A    between atoms: C_8  and  C_9 
REMARK    2  A    between atoms: C_9  and  C_10 
REMARK    3  A    between atoms: C_10  and  N_11 
REMARK    4  A    between atoms: N_14  and  C_15 
ROOT
ATOM      1  N   UNL d   1       8.421   5.944 -11.289  0.00  0.00     0.141 N 
ATOM      2  C   UNL d   1       7.091   5.362 -11.114  0.00  0.00     0.274 C 
ATOM      3  C   UNL d   1       6.420   4.998 -12.446  0.00  0.00     0.137 C 
ATOM      4  N   UNL d   1       7.295   4.108 -13.196  0.00  0.00    -0.343 N 
ATOM      5  C   UNL d   1       8.677   4.562 -13.297  0.00  0.00     0.137 C 
ATOM      6  C   UNL d   1       9.259   4.924 -11.924  0.00  0.00     0.274 C 
ENDROOT
BRANCH   1   7
ATOM      7  C   UNL d   1       8.944   6.279  -9.964  0.00  0.00     0.255 C 
BRANCH   7   8
ATOM      8  C   UNL d   1      10.318   6.986 -10.062  0.00  0.00     0.068 C 
BRANCH   8   9
ATOM      9  C   UNL d   1      10.800   7.629  -8.745  0.00  0.00     0.050 C 
ATOM     10  C   UNL d   1      11.149   8.915  -8.584  0.00  0.00     0.061 C 
ATOM     11  C   UNL d   1      11.041   9.840  -9.743  0.00  0.00     0.052 C 
ATOM     12  N   UNL d   1      11.495   9.429  -7.319  0.00  0.00    -0.234 NA
ATOM     13  C   UNL d   1      11.609   8.597  -6.329  0.00  0.00     0.153 C 
ATOM     14  C   UNL d   1      12.030   9.072  -4.952  0.00  0.00     0.208 C 
ATOM     15  N   UNL d   1      11.387   7.215  -6.444  0.00  0.00    -0.283 N 
ATOM     16  C   UNL d   1      12.614   8.052  -3.918  0.00  0.00     0.043 C 
ATOM     17  O   UNL d   1      13.042   9.969  -5.197  0.00  0.00    -0.215 OA
ATOM     18  C   UNL d   1      11.715   6.833  -3.912  0.00  0.00     0.028 C 
ATOM     19  C   UNL d   1      11.577   6.247  -5.322  0.00  0.00     0.111 C 
ATOM     20  C   UNL d   1      10.870   6.742  -7.601  0.00  0.00     0.259 C 
ATOM     21  O   UNL d   1      10.486   5.605  -7.691  0.00  0.00    -0.267 OA
ENDBRANCH   8   9
ENDBRANCH   7   8
ENDBRANCH   1   7
BRANCH   4  22
ATOM     22  C   UNL d   1       6.864   2.859 -13.724  0.00  0.00     0.081 A 
ATOM     23  C   UNL d   1       7.523   2.264 -14.809  0.00  0.00     0.140 A 
ATOM     24  C   UNL d   1       7.137   1.032 -15.317  0.00  0.00     0.126 A 
ATOM     25  O   UNL d   1       8.575   2.722 -15.536  0.00  0.00    -0.253 OA
ATOM     26  C   UNL d   1       6.067   0.315 -14.766  0.00  0.00     0.027 A 
ATOM     27  O   UNL d   1       7.917   0.716 -16.375  0.00  0.00    -0.255 OA
ATOM     28  C   UNL d   1       5.400   0.877 -13.665  0.00  0.00     0.004 A 
ATOM     29  C   UNL d   1       5.792   2.141 -13.147  0.00  0.00     0.019 A 
ATOM     30  C   UNL d   1       8.837   1.766 -16.520  0.00  0.00     0.498 A 
ATOM     31  F   UNL d   1       8.724   2.328 -17.723  0.00  0.00    -0.147 F 
ATOM     32  F   UNL d   1      10.079   1.310 -16.388  0.00  0.00    -0.147 F 
ENDBRANCH   4  22
TORSDOF 4
