REMARK  4 active torsions:
REMARK  status: ('A' for Active; 'I' for Inactive)
REMARK       I    between atoms: C_2  and  N_3 
REMARK       I    between atoms: C_2  and  N_10 
REMARK    1  A    between atoms: N_3  and  C_4 
REMARK    2  A    between atoms: N_10  and  C_11 
REMARK    3  A    between atoms: N_14  and  C_15 
REMARK    4  A    between atoms: C_15  and  C_16 
ROOT
ATOM      1  C   UNL d   1       9.433   6.471  -8.831  0.00  0.00     0.112 C 
ATOM      2  C   UNL d   1       8.897   5.094  -9.246  0.00  0.00     0.060 C 
ATOM      3  C   UNL d   1       8.170   5.186 -10.595  0.00  0.00     0.253 C 
ATOM      4  N   UNL d   1       9.049   5.706 -11.645  0.00  0.00     0.141 N 
ATOM      5  C   UNL d   1       9.457   7.068 -11.294  0.00  0.00     0.253 C 
ATOM      6  C   UNL d   1      10.259   7.063  -9.979  0.00  0.00     0.060 C 
ENDROOT
BRANCH   1   7
ATOM      7  N   UNL d   1      10.229   6.346  -7.618  0.00  0.00    -0.219 NA
ATOM      8  C   UNL d   1      10.469   7.335  -6.750  0.00  0.00     0.366 C 
ATOM      9  O   UNL d   1      10.127   8.503  -6.934  0.00  0.00    -0.243 OA
ATOM     10  N   UNL d   1      11.105   6.877  -5.660  0.00  0.00    -0.172 NA
BRANCH  10  11
ATOM     11  C   UNL d   1      11.478   7.596  -4.503  0.00  0.00     0.167 A 
ATOM     12  N   UNL d   1      11.465   8.948  -4.406  0.00  0.00    -0.225 NA
ATOM     13  C   UNL d   1      11.855   9.529  -3.254  0.00  0.00     0.101 A 
ATOM     14  C   UNL d   1      12.287   8.794  -2.135  0.00  0.00     0.021 A 
ATOM     15  C   UNL d   1      12.302   7.395  -2.224  0.00  0.00     0.005 A 
ATOM     16  C   UNL d   1      11.897   6.788  -3.424  0.00  0.00     0.039 A 
ENDBRANCH  10  11
ENDBRANCH   1   7
BRANCH   4  17
ATOM     17  C   UNL d   1       8.300   5.732 -12.896  0.00  0.00     0.277 C 
BRANCH  17  18
ATOM     18  C   UNL d   1       8.260   4.394 -13.606  0.00  0.00     0.011 A 
ATOM     19  C   UNL d   1       9.415   3.919 -14.264  0.00  0.00    -0.002 A 
ATOM     20  C   UNL d   1       9.393   2.679 -14.935  0.00  0.00    -0.000 A 
ATOM     21  C   UNL d   1       8.213   1.911 -14.953  0.00  0.00    -0.000 A 
ATOM     22  C   UNL d   1       7.054   2.389 -14.307  0.00  0.00    -0.000 A 
ATOM     23  C   UNL d   1       7.077   3.627 -13.635  0.00  0.00    -0.002 A 
ENDBRANCH  17  18
ENDBRANCH   4  17
TORSDOF 4
