REMARK  1 active torsions:
REMARK  status: ('A' for Active; 'I' for Inactive)
REMARK    1  A    between atoms: C_13  and  C_14 
ROOT
ATOM      1  C   UNL d   1       5.644  -0.457 -16.826  0.00  0.00     0.286 C 
ATOM      2  N   UNL d   1       6.742   0.491 -17.032  0.00  0.00     0.146 N 
ATOM      3  C   UNL d   1       7.551   0.017 -18.151  0.00  0.00     0.256 C 
ATOM      4  C   UNL d   1       8.569   1.104 -18.539  0.00  0.00     0.061 C 
ATOM      5  C   UNL d   1       9.364   1.621 -17.351  0.00  0.00    -0.021 A 
ATOM      6  C   UNL d   1      10.534   2.386 -17.545  0.00  0.00     0.009 A 
ATOM      7  C   UNL d   1      11.242   2.910 -16.444  0.00  0.00     0.083 A 
ATOM      8 CL   UNL d   1      12.655   3.863 -16.717  0.00  0.00    -0.080 Cl
ATOM      9  C   UNL d   1      10.784   2.654 -15.134  0.00  0.00     0.141 A 
ATOM     10  O   UNL d   1      11.387   3.207 -14.042  0.00  0.00    -0.189 OA
ATOM     11  C   UNL d   1       9.647   1.855 -14.938  0.00  0.00     0.026 A 
ATOM     12  C   UNL d   1       8.898   1.369 -16.041  0.00  0.00     0.011 A 
ATOM     13  C   UNL d   1       7.588   0.588 -15.823  0.00  0.00     0.264 C 
ENDROOT
BRANCH  13  14
ATOM     14  C   UNL d   1       6.801   1.141 -14.633  0.00  0.00     0.013 A 
ATOM     15  C   UNL d   1       6.657   2.532 -14.460  0.00  0.00    -0.002 A 
ATOM     16  C   UNL d   1       5.931   3.076 -13.390  0.00  0.00    -0.000 A 
ATOM     17  C   UNL d   1       5.333   2.192 -12.476  0.00  0.00    -0.000 A 
ATOM     18  C   UNL d   1       5.461   0.795 -12.643  0.00  0.00    -0.000 A 
ATOM     19  C   UNL d   1       6.199   0.264 -13.713  0.00  0.00    -0.002 A 
ENDBRANCH  13  14
TORSDOF 1
