REMARK  5 active torsions:
REMARK  status: ('A' for Active; 'I' for Inactive)
REMARK    1  A    between atoms: C_7  and  N_8 
REMARK    2  A    between atoms: N_11  and  C_12 
REMARK    3  A    between atoms: C_12  and  C_13 
REMARK    4  A    between atoms: C_13  and  N_14 
REMARK    5  A    between atoms: C_17  and  C_18 
ROOT
ATOM      1  N   UNL d   1      12.359   3.491 -18.333  0.00  0.00    -0.191 NA
ATOM      2  C   UNL d   1      11.518   3.122 -17.629  0.00  0.00     0.101 C 
ATOM      3  C   UNL d   1      10.460   2.658 -16.742  0.00  0.00     0.070 A 
ATOM      4  C   UNL d   1       9.895   1.374 -16.876  0.00  0.00     0.010 A 
ATOM      5  C   UNL d   1       8.883   0.956 -15.988  0.00  0.00     0.002 A 
ATOM      6  C   UNL d   1       8.432   1.818 -14.965  0.00  0.00     0.017 A 
ATOM      7  C   UNL d   1       9.005   3.101 -14.816  0.00  0.00     0.065 A 
ATOM      8  C   UNL d   1      10.004   3.517 -15.728  0.00  0.00     0.028 A 
ENDROOT
BRANCH   7   9
ATOM      9  N   UNL d   1       8.590   3.962 -13.762  0.00  0.00    -0.280 N 
ATOM     10  C   UNL d   1       9.431   4.709 -13.028  0.00  0.00     0.328 A 
ATOM     11  N   UNL d   1       8.717   5.375 -12.112  0.00  0.00    -0.298 N 
ATOM     12  O   UNL d   1      10.655   4.800 -13.193  0.00  0.00    -0.247 OA
ATOM     13  C   UNL d   1       7.290   5.124 -12.197  0.00  0.00     0.131 A 
ATOM     14  C   UNL d   1       7.205   4.096 -13.325  0.00  0.00     0.135 A 
BRANCH  11  15
ATOM     15  C   UNL d   1       9.255   6.372 -11.199  0.00  0.00     0.141 C 
BRANCH  15  16
ATOM     16  C   UNL d   1       9.368   5.819  -9.770  0.00  0.00     0.274 C 
BRANCH  16  17
ATOM     17  N   UNL d   1      10.142   6.723  -8.921  0.00  0.00     0.139 N 
ATOM     18  C   UNL d   1       9.343   7.910  -8.638  0.00  0.00     0.251 C 
ATOM     19  C   UNL d   1      10.139   8.912  -7.809  0.00  0.00     0.044 C 
ATOM     20  C   UNL d   1      10.588   8.306  -6.474  0.00  0.00     0.099 C 
ATOM     21  C   UNL d   1      11.312   6.984  -6.763  0.00  0.00     0.044 C 
ATOM     22  C   UNL d   1      10.461   6.067  -7.656  0.00  0.00     0.251 C 
BRANCH  20  23
ATOM     23  C   UNL d   1      11.464   9.288  -5.678  0.00  0.00     0.398 C 
ATOM     24  F   UNL d   1      11.857   8.745  -4.527  0.00  0.00    -0.170 F 
ATOM     25  F   UNL d   1      12.541   9.612  -6.385  0.00  0.00    -0.170 F 
ATOM     26  F   UNL d   1      10.784  10.397  -5.401  0.00  0.00    -0.170 F 
ENDBRANCH  20  23
ENDBRANCH  16  17
ENDBRANCH  15  16
ENDBRANCH  11  15
ENDBRANCH   7   9
TORSDOF 5
