REMARK  1 active torsions:
REMARK  status: ('A' for Active; 'I' for Inactive)
REMARK    1  A    between atoms: C_18  and  C_19 
ROOT
ATOM      1  C   UNL d   1       5.814  -3.115 -19.287  0.00  0.00     0.285 C 
ATOM      2  N   UNL d   1       5.650  -1.777 -19.857  0.00  0.00     0.138 N 
ATOM      3  C   UNL d   1       5.948  -1.743 -21.290  0.00  0.00     0.255 C 
ATOM      4  C   UNL d   1       7.440  -1.893 -21.655  0.00  0.00     0.061 C 
ATOM      5  C   UNL d   1       8.229  -0.605 -21.477  0.00  0.00    -0.023 A 
ATOM      6  C   UNL d   1       8.786   0.012 -22.618  0.00  0.00     0.009 A 
ATOM      7  C   UNL d   1       9.470   1.235 -22.512  0.00  0.00     0.083 A 
ATOM      8 CL   UNL d   1      10.137   1.960 -23.931  0.00  0.00    -0.080 Cl
ATOM      9  C   UNL d   1       9.590   1.861 -21.255  0.00  0.00     0.141 A 
ATOM     10  O   UNL d   1      10.229   3.063 -21.134  0.00  0.00    -0.189 OA
ATOM     11  C   UNL d   1       9.041   1.247 -20.113  0.00  0.00     0.024 A 
ATOM     12  C   UNL d   1       8.377  -0.002 -20.204  0.00  0.00    -0.018 A 
ATOM     13  C   UNL d   1       7.773  -0.676 -18.965  0.00  0.00     0.075 C 
ATOM     14  C   UNL d   1       8.336  -0.131 -17.640  0.00  0.00    -0.021 A 
ATOM     15  C   UNL d   1       9.705  -0.344 -17.363  0.00  0.00    -0.004 A 
ATOM     16  C   UNL d   1      10.276   0.163 -16.186  0.00  0.00    -0.000 A 
ATOM     17  C   UNL d   1       9.486   0.884 -15.276  0.00  0.00    -0.000 A 
ATOM     18  C   UNL d   1       8.109   1.094 -15.511  0.00  0.00    -0.004 A 
ATOM     19  C   UNL d   1       7.526   0.562 -16.699  0.00  0.00    -0.026 A 
ATOM     20  C   UNL d   1       6.035   0.709 -16.998  0.00  0.00     0.028 C 
ATOM     21  C   UNL d   1       5.506  -0.520 -17.728  0.00  0.00     0.039 C 
ATOM     22  C   UNL d   1       6.219  -0.671 -19.074  0.00  0.00     0.228 C 
ENDROOT
BRANCH  18  23
ATOM     23  C   UNL d   1       7.345   1.869 -14.511  0.00  0.00    -0.000 A 
ATOM     24  C   UNL d   1       6.249   1.299 -13.825  0.00  0.00    -0.000 A 
ATOM     25  C   UNL d   1       5.487   2.052 -12.916  0.00  0.00    -0.000 A 
ATOM     26  C   UNL d   1       5.858   3.379 -12.616  0.00  0.00    -0.000 A 
ATOM     27  C   UNL d   1       6.979   3.949 -13.252  0.00  0.00    -0.000 A 
ATOM     28  C   UNL d   1       7.715   3.195 -14.191  0.00  0.00    -0.000 A 
ENDBRANCH  18  23
TORSDOF 1
