REMARK  8 active torsions:
REMARK  status: ('A' for Active; 'I' for Inactive)
REMARK    1  A    between atoms: C_6  and  N_7 
REMARK    2  A    between atoms: N_10  and  C_11 
REMARK    3  A    between atoms: C_11  and  C_12 
REMARK    4  A    between atoms: C_12  and  C_13 
REMARK    5  A    between atoms: C_13  and  C_14 
REMARK    6  A    between atoms: C_14  and  N_15 
REMARK    7  A    between atoms: N_15  and  C_16 
REMARK    8  A    between atoms: C_19  and  C_20 
ROOT
ATOM      1  C   UNL d   1       8.732   5.116 -11.899  0.00  0.00     0.037 C 
ENDROOT
BRANCH   1   2
ATOM      2  C   UNL d   1       9.563   6.340 -11.508  0.00  0.00     0.251 C 
BRANCH   2   3
ATOM      3  N   UNL d   1       9.386   6.674 -10.101  0.00  0.00     0.141 N 
ATOM      4  C   UNL d   1       9.534   8.125  -9.908  0.00  0.00     0.274 C 
ATOM      5  C   UNL d   1       9.285   8.478  -8.423  0.00  0.00     0.137 C 
ATOM      6  N   UNL d   1      10.196   7.714  -7.579  0.00  0.00    -0.344 N 
ATOM      7  C   UNL d   1      10.202   6.284  -7.813  0.00  0.00     0.137 C 
ATOM      8  C   UNL d   1      10.401   5.996  -9.303  0.00  0.00     0.274 C 
BRANCH   6   9
ATOM      9  C   UNL d   1      10.974   8.330  -6.611  0.00  0.00     0.068 A 
ATOM     10  C   UNL d   1      11.595   9.528  -6.959  0.00  0.00     0.018 A 
ATOM     11  C   UNL d   1      12.441  10.140  -6.030  0.00  0.00     0.002 A 
ATOM     12  C   UNL d   1      12.696   9.578  -4.760  0.00  0.00     0.012 A 
ATOM     13  C   UNL d   1      12.047   8.449  -4.375  0.00  0.00     0.070 A 
ATOM     14 CL   UNL d   1      12.275   7.835  -2.758  0.00  0.00    -0.081 Cl
ATOM     15  C   UNL d   1      11.234   7.825  -5.313  0.00  0.00     0.084 A 
ATOM     16 CL   UNL d   1      10.641   6.388  -4.782  0.00  0.00    -0.080 Cl
ENDBRANCH   6   9
ENDBRANCH   2   3
ENDBRANCH   1   2
BRANCH   1  17
ATOM     17  C   UNL d   1       8.645   4.957 -13.420  0.00  0.00     0.028 C 
BRANCH  17  18
ATOM     18  C   UNL d   1       8.052   3.602 -13.842  0.00  0.00     0.127 C 
BRANCH  18  19
ATOM     19  N   UNL d   1       9.067   2.563 -13.940  0.00  0.00    -0.253 NA
BRANCH  19  20
ATOM     20  C   UNL d   1       9.783   2.388 -15.127  0.00  0.00     0.158 A 
ATOM     21  N   UNL d   1      10.404   1.205 -15.265  0.00  0.00    -0.226 NA
ATOM     22  C   UNL d   1      11.119   0.986 -16.391  0.00  0.00     0.101 A 
ATOM     23  C   UNL d   1      11.292   1.932 -17.431  0.00  0.00     0.019 A 
ATOM     24  C   UNL d   1      10.633   3.166 -17.263  0.00  0.00     0.005 A 
ATOM     25  C   UNL d   1       9.866   3.399 -16.114  0.00  0.00     0.038 A 
BRANCH  23  26
ATOM     26  C   UNL d   1      12.124   1.659 -18.629  0.00  0.00     0.002 A 
ATOM     27  C   UNL d   1      12.718   2.720 -19.358  0.00  0.00     0.000 A 
ATOM     28  C   UNL d   1      13.497   2.474 -20.503  0.00  0.00     0.000 A 
ATOM     29  C   UNL d   1      13.708   1.154 -20.939  0.00  0.00     0.000 A 
ATOM     30  C   UNL d   1      13.130   0.087 -20.229  0.00  0.00     0.000 A 
ATOM     31  C   UNL d   1      12.343   0.338 -19.090  0.00  0.00     0.000 A 
ENDBRANCH  23  26
ENDBRANCH  19  20
ENDBRANCH  18  19
ENDBRANCH  17  18
ENDBRANCH   1  17
TORSDOF 8
