REMARK  4 active torsions:
REMARK  status: ('A' for Active; 'I' for Inactive)
REMARK    1  A    between atoms: C_2  and  C_3 
REMARK    2  A    between atoms: C_3  and  N_4 
REMARK    3  A    between atoms: C_8  and  C_9 
REMARK    4  A    between atoms: C_13  and  C_14 
ROOT
ATOM      1  N   UNL d   1       6.712   3.475 -13.013  0.00  0.00     0.137 N 
ATOM      2  C   UNL d   1       5.901   2.529 -13.779  0.00  0.00     0.250 C 
ATOM      3  C   UNL d   1       6.706   1.264 -14.140  0.00  0.00     0.036 C 
ATOM      4  C   UNL d   1       7.976   1.616 -14.914  0.00  0.00     0.008 C 
ATOM      5  C   UNL d   1       8.807   2.686 -14.165  0.00  0.00     0.056 C 
ATOM      6  C   UNL d   1       7.914   3.870 -13.749  0.00  0.00     0.255 C 
ENDROOT
BRANCH   5   7
ATOM      7  C   UNL d   1      10.018   3.177 -14.966  0.00  0.00    -0.020 A 
ATOM      8  C   UNL d   1      10.434   2.500 -16.141  0.00  0.00    -0.001 A 
ATOM      9  C   UNL d   1      11.537   2.958 -16.887  0.00  0.00     0.042 A 
ATOM     10  C   UNL d   1      12.245   4.105 -16.472  0.00  0.00     0.003 A 
ATOM     11  C   UNL d   1      11.847   4.784 -15.302  0.00  0.00    -0.000 A 
ATOM     12  C   UNL d   1      10.748   4.315 -14.553  0.00  0.00    -0.004 A 
BRANCH   9  13
ATOM     13  C   UNL d   1      11.929   2.220 -18.109  0.00  0.00     0.234 C 
ATOM     14  O   UNL d   1      11.404   1.166 -18.473  0.00  0.00    -0.283 OA
ENDBRANCH   9  13
ENDBRANCH   5   7
BRANCH   1  15
ATOM     15  C   UNL d   1       5.929   4.659 -12.672  0.00  0.00     0.250 C 
BRANCH  15  16
ATOM     16  C   UNL d   1       6.710   5.642 -11.783  0.00  0.00     0.035 C 
ATOM     17  C   UNL d   1       7.473   6.732 -12.556  0.00  0.00     0.002 C 
ENDBRANCH  15  16
ENDBRANCH   1  15
TORSDOF 4
