REMARK  7 active torsions:
REMARK  status: ('A' for Active; 'I' for Inactive)
REMARK    1  A    between atoms: C_5  and  C_6 
REMARK    2  A    between atoms: C_8  and  C_9 
REMARK       I    between atoms: C_9  and  N_11 
REMARK    3  A    between atoms: N_11  and  C_12 
REMARK    4  A    between atoms: C_12  and  C_13 
REMARK    5  A    between atoms: C_13  and  C_14 
REMARK    6  A    between atoms: C_14  and  C_15 
REMARK    7  A    between atoms: C_15  and  N_16 
ROOT
ATOM      1  C   UNL d   1       8.802   5.732 -11.044  0.00  0.00     0.294 C 
ATOM      2  O   UNL d   1       9.627   6.137 -11.835  0.00  0.00    -0.264 OA
ATOM      3  N   UNL d   1       7.669   5.064 -11.296  0.00  0.00    -0.233 NA
ENDROOT
BRANCH   1   4
ATOM      4  C   UNL d   1       9.072   6.013  -9.595  0.00  0.00     0.162 A 
ATOM      5  C   UNL d   1       9.966   7.032  -9.311  0.00  0.00     0.047 A 
ATOM      6  C   UNL d   1      10.034   7.028  -7.979  0.00  0.00     0.111 A 
ATOM      7  N   UNL d   1       9.213   5.995  -7.569  0.00  0.00    -0.147 NA
ATOM      8  N   UNL d   1       8.666   5.302  -8.580  0.00  0.00    -0.143 NA
BRANCH   6   9
ATOM      9  C   UNL d   1      10.727   7.895  -7.059  0.00  0.00     0.049 A 
ATOM     10  C   UNL d   1      11.203   9.154  -7.299  0.00  0.00     0.008 A 
ATOM     11  C   UNL d   1      11.840   9.713  -6.155  0.00  0.00     0.003 A 
ATOM     12  C   UNL d   1      11.842   8.871  -5.075  0.00  0.00     0.008 A 
ATOM     13  C   UNL d   1      12.430   9.110  -3.727  0.00  0.00     0.038 C 
ATOM     14  S   UNL d   1      11.059   7.367  -5.445  0.00  0.00    -0.090 SA
ENDBRANCH   6   9
ENDBRANCH   1   4
BRANCH   3  15
ATOM     15  C   UNL d   1       7.178   4.632 -12.614  0.00  0.00     0.129 C 
BRANCH  15  16
ATOM     16  C   UNL d   1       8.214   3.893 -13.427  0.00  0.00     0.029 C 
BRANCH  16  17
ATOM     17  C   UNL d   1       9.154   4.672 -14.397  0.00  0.00     0.037 C 
BRANCH  17  18
ATOM     18  C   UNL d   1      10.446   3.920 -14.709  0.00  0.00     0.251 C 
BRANCH  18  19
ATOM     19  N   UNL d   1      10.252   2.733 -15.544  0.00  0.00     0.142 N 
ATOM     20  C   UNL d   1       9.751   1.579 -14.781  0.00  0.00     0.282 C 
ATOM     21  C   UNL d   1       9.475   0.392 -15.668  0.00  0.00     0.178 C 
ATOM     22  O   UNL d   1      10.685   0.006 -16.293  0.00  0.00    -0.350 OA
ATOM     23  C   UNL d   1      11.253   1.066 -17.059  0.00  0.00     0.178 C 
ATOM     24  C   UNL d   1      11.488   2.323 -16.193  0.00  0.00     0.282 C 
ENDBRANCH  18  19
ENDBRANCH  17  18
ENDBRANCH  16  17
ENDBRANCH  15  16
ENDBRANCH   3  15
TORSDOF 7
