REMARK  3 active torsions:
REMARK  status: ('A' for Active; 'I' for Inactive)
REMARK    1  A    between atoms: C_2  and  C_3 
REMARK    2  A    between atoms: C_3  and  N_4 
REMARK    3  A    between atoms: C_6  and  C_7 
ROOT
ATOM      1  N   UNL d   1       9.512   4.987 -12.951  0.00  0.00     0.141 N 
ATOM      2  C   UNL d   1      10.796   4.376 -13.300  0.00  0.00     0.284 C 
ATOM      3  C   UNL d   1      10.823   3.615 -14.644  0.00  0.00     0.171 C 
ATOM      4  O   UNL d   1       9.789   2.640 -14.574  0.00  0.00    -0.346 OA
ATOM      5  C   UNL d   1       8.488   3.179 -14.314  0.00  0.00     0.169 C 
ATOM      6  C   UNL d   1       7.407   2.124 -14.443  0.00  0.00     0.005 A 
ATOM      7  C   UNL d   1       7.538   1.111 -15.421  0.00  0.00     0.025 A 
ATOM      8  C   UNL d   1       6.527   0.142 -15.563  0.00  0.00     0.131 A 
ATOM      9  O   UNL d   1       6.614  -0.823 -16.535  0.00  0.00    -0.190 OA
ATOM     10  C   UNL d   1       5.418   0.165 -14.709  0.00  0.00     0.027 A 
ATOM     11  C   UNL d   1       5.290   1.184 -13.740  0.00  0.00    -0.002 A 
ATOM     12  C   UNL d   1       6.261   2.187 -13.633  0.00  0.00    -0.024 A 
ATOM     13  C   UNL d   1       6.052   3.290 -12.607  0.00  0.00     0.028 C 
ATOM     14  C   UNL d   1       7.022   4.482 -12.763  0.00  0.00     0.041 C 
ATOM     15  C   UNL d   1       8.462   3.959 -12.996  0.00  0.00     0.251 C 
ENDROOT
BRANCH   3  16
ATOM     16  C   UNL d   1      10.754   4.483 -15.902  0.00  0.00     0.007 A 
ATOM     17  C   UNL d   1      11.579   5.622 -16.042  0.00  0.00    -0.002 A 
ATOM     18  C   UNL d   1      11.509   6.397 -17.217  0.00  0.00    -0.000 A 
ATOM     19  C   UNL d   1      10.603   6.072 -18.243  0.00  0.00    -0.000 A 
ATOM     20  C   UNL d   1       9.790   4.936 -18.114  0.00  0.00    -0.000 A 
ATOM     21  C   UNL d   1       9.893   4.133 -16.967  0.00  0.00    -0.002 A 
ENDBRANCH   3  16
BRANCH   1  22
ATOM     22  C   UNL d   1       9.563   5.699 -11.657  0.00  0.00     0.250 C 
BRANCH  22  23
ATOM     23  C   UNL d   1       9.591   4.839 -10.365  0.00  0.00     0.035 C 
ATOM     24  C   UNL d   1       8.242   4.750  -9.638  0.00  0.00     0.002 C 
ENDBRANCH  22  23
ENDBRANCH   1  22
TORSDOF 3
