REMARK  8 active torsions:
REMARK  status: ('A' for Active; 'I' for Inactive)
REMARK    1  A    between atoms: C_2  and  O_3 
REMARK    2  A    between atoms: O_3  and  C_4 
REMARK    3  A    between atoms: C_9  and  N_10 
REMARK    4  A    between atoms: N_13  and  C_14 
REMARK    5  A    between atoms: C_14  and  C_15 
REMARK    6  A    between atoms: C_15  and  C_17 
REMARK    7  A    between atoms: C_17  and  N_18 
REMARK    8  A    between atoms: C_22  and  C_24 
ROOT
ATOM      1  C   UNL d   1       9.402   6.290 -11.495  0.00  0.00     0.208 C 
ATOM      2  O   UNL d   1       9.335   7.683 -11.697  0.00  0.00    -0.219 OA
ENDROOT
BRANCH   1   3
ATOM      3  C   UNL d   1       9.939   5.608 -12.779  0.00  0.00     0.285 C 
BRANCH   3   4
ATOM      4  N   UNL d   1       9.396   4.326 -13.128  0.00  0.00     0.144 N 
ATOM      5  C   UNL d   1      10.296   3.598 -14.046  0.00  0.00     0.274 C 
ATOM      6  C   UNL d   1       9.754   2.224 -14.441  0.00  0.00     0.137 C 
ATOM      7  N   UNL d   1       8.412   2.383 -14.966  0.00  0.00    -0.343 N 
ATOM      8  C   UNL d   1       7.454   3.148 -14.175  0.00  0.00     0.137 C 
ATOM      9  C   UNL d   1       8.095   4.486 -13.791  0.00  0.00     0.274 C 
BRANCH   7  10
ATOM     10  C   UNL d   1       8.029   1.724 -16.149  0.00  0.00     0.079 A 
ATOM     11  C   UNL d   1       6.830   0.983 -16.237  0.00  0.00     0.109 A 
ATOM     12  C   UNL d   1       6.491   0.390 -17.462  0.00  0.00     0.026 A 
ATOM     13  C   UNL d   1       7.348   0.498 -18.583  0.00  0.00     0.002 A 
ATOM     14  C   UNL d   1       8.553   1.212 -18.466  0.00  0.00     0.002 A 
ATOM     15  C   UNL d   1       8.895   1.822 -17.261  0.00  0.00     0.019 A 
BRANCH  11  16
ATOM     16  O   UNL d   1       6.053   0.875 -15.091  0.00  0.00    -0.329 OA
BRANCH  16  17
ATOM     17  C   UNL d   1       5.029  -0.102 -15.056  0.00  0.00     0.149 C 
ATOM     18  C   UNL d   1       4.363  -0.004 -13.680  0.00  0.00     0.035 C 
ENDBRANCH  16  17
ENDBRANCH  11  16
ENDBRANCH   7  10
ENDBRANCH   3   4
ENDBRANCH   1   3
BRANCH   1  19
ATOM     19  C   UNL d   1      10.332   6.056 -10.304  0.00  0.00     0.148 C 
BRANCH  19  20
ATOM     20  N   UNL d   1       9.901   6.609  -9.066  0.00  0.00    -0.247 N 
ATOM     21  C   UNL d   1      10.425   7.708  -8.501  0.00  0.00     0.265 A 
ATOM     22  C   UNL d   1       9.739   7.874  -7.168  0.00  0.00     0.179 A 
ATOM     23  O   UNL d   1      11.282   8.469  -8.952  0.00  0.00    -0.269 OA
ATOM     24  N   UNL d   1       8.876   6.699  -7.182  0.00  0.00    -0.209 NA
ATOM     25  C   UNL d   1       8.909   9.130  -7.245  0.00  0.00     0.039 C 
ATOM     26  C   UNL d   1       9.040   5.971  -8.278  0.00  0.00     0.348 A 
ATOM     27  O   UNL d   1       8.500   4.877  -8.518  0.00  0.00    -0.245 OA
BRANCH  22  28
ATOM     28  C   UNL d   1      10.749   7.923  -6.013  0.00  0.00     0.006 A 
ATOM     29  C   UNL d   1      11.522   9.069  -5.738  0.00  0.00    -0.002 A 
ATOM     30  C   UNL d   1      12.406   9.082  -4.637  0.00  0.00    -0.000 A 
ATOM     31  C   UNL d   1      12.545   7.943  -3.811  0.00  0.00    -0.000 A 
ATOM     32  C   UNL d   1      11.780   6.802  -4.085  0.00  0.00    -0.000 A 
ATOM     33  C   UNL d   1      10.891   6.811  -5.167  0.00  0.00    -0.002 A 
ENDBRANCH  22  28
ENDBRANCH  19  20
ENDBRANCH   1  19
TORSDOF 8
