REMARK  0 active torsions:
REMARK  status: ('A' for Active; 'I' for Inactive)
ROOT
ATOM      1  C   UNL d   1       7.873   5.569 -11.793  0.00  0.00    -0.000 A 
ATOM      2  C   UNL d   1       8.566   6.675 -12.316  0.00  0.00     0.000 A 
ATOM      3  C   UNL d   1       9.462   7.395 -11.502  0.00  0.00     0.001 A 
ATOM      4  C   UNL d   1       9.701   6.999 -10.165  0.00  0.00     0.015 A 
ATOM      5  C   UNL d   1       9.002   5.888  -9.646  0.00  0.00    -0.021 A 
ATOM      6  C   UNL d   1       8.106   5.170 -10.467  0.00  0.00    -0.004 A 
ATOM      7  C   UNL d   1       9.223   5.450  -8.211  0.00  0.00     0.027 C 
ATOM      8  C   UNL d   1       8.716   6.412  -7.106  0.00  0.00     0.009 C 
ATOM      9  C   UNL d   1       9.070   7.909  -7.206  0.00  0.00     0.030 C 
ATOM     10  C   UNL d   1      10.348   8.156  -7.944  0.00  0.00     0.018 A 
ATOM     11  C   UNL d   1      11.495   8.787  -7.545  0.00  0.00     0.119 A 
ATOM     12  N   UNL d   1      12.338   8.747  -8.629  0.00  0.00    -0.147 NA
ATOM     13  N   UNL d   1      11.808   8.117  -9.691  0.00  0.00    -0.148 NA
ATOM     14  C   UNL d   1      10.603   7.761  -9.289  0.00  0.00     0.100 A 
ENDROOT
TORSDOF 0
