REMARK  3 active torsions:
REMARK  status: ('A' for Active; 'I' for Inactive)
REMARK    1  A    between atoms: C_2  and  C_3 
REMARK    2  A    between atoms: C_3  and  C_4 
REMARK    3  A    between atoms: C_4  and  N_5 
ROOT
ATOM      1  N   UNL d   1       9.415   6.724  -9.722  0.00  0.00     0.140 N 
ATOM      2  C   UNL d   1      10.461   5.814  -9.330  0.00  0.00     0.268 C 
ATOM      3  C   UNL d   1      10.631   5.785  -7.808  0.00  0.00     0.112 C 
ATOM      4  N   UNL d   1      10.959   7.102  -7.305  0.00  0.00    -0.249 NA
ATOM      5  C   UNL d   1      11.309   7.223  -5.939  0.00  0.00     0.038 A 
ATOM      6  C   UNL d   1      11.843   6.248  -5.131  0.00  0.00     0.011 A 
ATOM      7  C   UNL d   1      12.170   6.441  -3.765  0.00  0.00     0.003 A 
ATOM      8  C   UNL d   1      12.003   7.698  -3.198  0.00  0.00     0.019 A 
ATOM      9  C   UNL d   1      11.493   8.702  -3.989  0.00  0.00     0.082 A 
ATOM     10  N   UNL d   1      11.202   9.977  -3.720  0.00  0.00    -0.244 NA
ATOM     11  C   UNL d   1      10.662  10.578  -4.849  0.00  0.00     0.095 A 
ATOM     12  C   UNL d   1      10.664   9.636  -5.831  0.00  0.00     0.001 A 
ATOM     13  C   UNL d   1      11.152   8.458  -5.316  0.00  0.00     0.025 A 
ATOM     14  C   UNL d   1      10.340   9.499  -7.305  0.00  0.00     0.046 C 
ATOM     15  C   UNL d   1       9.987   8.084  -7.762  0.00  0.00     0.100 C 
ATOM     16  C   UNL d   1       9.829   8.060  -9.297  0.00  0.00     0.267 C 
ENDROOT
BRANCH   1  17
ATOM     17  C   UNL d   1       9.223   6.684 -11.167  0.00  0.00     0.250 C 
BRANCH  17  18
ATOM     18  C   UNL d   1       8.461   5.408 -11.587  0.00  0.00     0.035 C 
BRANCH  18  19
ATOM     19  C   UNL d   1       7.337   5.698 -12.590  0.00  0.00     0.002 C 
ATOM     20  C   UNL d   1       6.450   4.476 -12.864  0.00  0.00     0.000 C 
ENDBRANCH  18  19
ENDBRANCH  17  18
ENDBRANCH   1  17
TORSDOF 3
