REMARK  9 active torsions:
REMARK  status: ('A' for Active; 'I' for Inactive)
REMARK    1  A    between atoms: C_2  and  C_5 
REMARK    2  A    between atoms: C_7  and  N_8 
REMARK    3  A    between atoms: N_11  and  C_12 
REMARK    4  A    between atoms: C_12  and  C_13 
REMARK    5  A    between atoms: C_13  and  C_14 
REMARK    6  A    between atoms: C_14  and  C_15 
REMARK    7  A    between atoms: C_15  and  N_16 
REMARK       I    between atoms: N_16  and  C_17 
REMARK    8  A    between atoms: C_17  and  C_19 
REMARK    9  A    between atoms: C_32  and  C_33 
ROOT
ATOM      1  N   UNL d   1       5.212  -1.252 -16.950  0.00  0.00    -0.330 N 
ATOM      2  C   UNL d   1       5.617   0.098 -17.334  0.00  0.00     0.138 C 
ATOM      3  C   UNL d   1       6.479   0.742 -16.219  0.00  0.00     0.274 C 
ATOM      4  N   UNL d   1       5.773   0.705 -14.930  0.00  0.00     0.141 N 
ATOM      5  C   UNL d   1       5.499  -0.690 -14.580  0.00  0.00     0.274 C 
ATOM      6  C   UNL d   1       4.581  -1.336 -15.638  0.00  0.00     0.138 C 
ENDROOT
BRANCH   4   7
ATOM      7  C   UNL d   1       6.559   1.345 -13.873  0.00  0.00     0.251 C 
BRANCH   7   8
ATOM      8  C   UNL d   1       6.347   2.873 -13.876  0.00  0.00     0.037 C 
BRANCH   8   9
ATOM      9  C   UNL d   1       7.088   3.594 -12.745  0.00  0.00     0.029 C 
BRANCH   9  10
ATOM     10  C   UNL d   1       7.024   5.126 -12.805  0.00  0.00     0.129 C 
BRANCH  10  11
ATOM     11  N   UNL d   1       7.694   5.745 -11.662  0.00  0.00    -0.234 NA
ATOM     12  C   UNL d   1       9.016   5.933 -11.557  0.00  0.00     0.282 C 
ATOM     13  O   UNL d   1       9.818   5.606 -12.435  0.00  0.00    -0.265 OA
BRANCH  12  14
ATOM     14  C   UNL d   1       9.469   6.528 -10.282  0.00  0.00     0.101 A 
ATOM     15  C   UNL d   1       9.395   6.044  -8.995  0.00  0.00     0.083 A 
ATOM     16  C   UNL d   1       9.970   6.961  -8.032  0.00  0.00     0.038 A 
ATOM     17  N   UNL d   1       8.867   4.807  -8.600  0.00  0.00    -0.100 NA
ATOM     18  C   UNL d   1      10.484   8.143  -8.656  0.00  0.00     0.112 A 
ATOM     19  C   UNL d   1      10.140   6.918  -6.628  0.00  0.00     0.005 A 
ATOM     20  S   UNL d   1      10.250   8.086 -10.398  0.00  0.00    -0.062 SA
ATOM     21  N   UNL d   1      11.111   9.186  -8.029  0.00  0.00    -0.237 NA
ATOM     22  C   UNL d   1      11.246   9.069  -6.688  0.00  0.00     0.100 A 
ATOM     23  C   UNL d   1      10.787   7.964  -5.946  0.00  0.00     0.021 A 
ENDBRANCH  12  14
ENDBRANCH  10  11
ENDBRANCH   9  10
ENDBRANCH   8   9
ENDBRANCH   7   8
ENDBRANCH   4   7
BRANCH   1  24
ATOM     24  C   UNL d   1       5.460  -2.380 -17.761  0.00  0.00     0.143 A 
ATOM     25  N   UNL d   1       5.701  -2.171 -19.077  0.00  0.00    -0.214 NA
ATOM     26  C   UNL d   1       5.883  -3.228 -19.873  0.00  0.00     0.140 A 
ATOM     27  N   UNL d   1       5.937  -4.498 -19.456  0.00  0.00    -0.227 NA
ATOM     28  C   UNL d   1       5.708  -4.737 -18.146  0.00  0.00     0.157 A 
ATOM     29  C   UNL d   1       5.463  -3.688 -17.242  0.00  0.00     0.060 A 
BRANCH  26  30
ATOM     30  C   UNL d   1       6.257  -2.975 -21.343  0.00  0.00     0.052 C 
ATOM     31  C   UNL d   1       7.779  -3.087 -21.521  0.00  0.00     0.008 C 
ATOM     32  C   UNL d   1       5.815  -1.566 -21.805  0.00  0.00     0.008 C 
ATOM     33  C   UNL d   1       5.540  -3.997 -22.259  0.00  0.00     0.008 C 
ENDBRANCH  26  30
BRANCH  28  34
ATOM     34  C   UNL d   1       5.760  -6.187 -17.680  0.00  0.00     0.435 C 
ATOM     35  F   UNL d   1       5.461  -6.301 -16.386  0.00  0.00    -0.165 F 
ATOM     36  F   UNL d   1       4.908  -6.947 -18.371  0.00  0.00    -0.165 F 
ATOM     37  F   UNL d   1       6.997  -6.650 -17.856  0.00  0.00    -0.165 F 
ENDBRANCH  28  34
ENDBRANCH   1  24
TORSDOF 9
