REMARK  7 active torsions:
REMARK  status: ('A' for Active; 'I' for Inactive)
REMARK    1  A    between atoms: C_6  and  C_7 
REMARK    2  A    between atoms: C_10  and  S_11 
REMARK    3  A    between atoms: S_11  and  C_12 
REMARK    4  A    between atoms: C_12  and  C_13 
REMARK    5  A    between atoms: C_13  and  C_14 
REMARK    6  A    between atoms: C_14  and  N_15 
REMARK    7  A    between atoms: N_20  and  C_21 
ROOT
ATOM      1  N   UNL d   1       8.588   3.727 -14.042  0.00  0.00     0.138 N 
ATOM      2  C   UNL d   1       7.264   3.179 -13.754  0.00  0.00     0.252 C 
ATOM      3  C   UNL d   1       6.889   3.889 -12.435  0.00  0.00     0.052 C 
ATOM      4  C   UNL d   1       6.129   5.185 -12.605  0.00  0.00     0.021 C 
ATOM      5  C   UNL d   1       6.831   6.160 -11.657  0.00  0.00     0.077 C 
ATOM      6  N   UNL d   1       8.230   5.794 -11.687  0.00  0.00    -0.251 NA
ATOM      7  C   UNL d   1       8.203   4.352 -11.827  0.00  0.00     0.097 C 
ATOM      8  C   UNL d   1       9.286   3.842 -12.757  0.00  0.00     0.266 C 
ENDROOT
BRANCH   1   9
ATOM      9  C   UNL d   1       9.321   2.893 -14.981  0.00  0.00     0.251 C 
BRANCH   9  10
ATOM     10  C   UNL d   1      10.699   3.493 -15.301  0.00  0.00     0.047 C 
BRANCH  10  11
ATOM     11  C   UNL d   1      10.610   4.576 -16.393  0.00  0.00     0.067 C 
BRANCH  11  12
ATOM     12  S   UNL d   1      12.229   4.955 -17.110  0.00  0.00    -0.075 SA
BRANCH  12  13
ATOM     13  C   UNL d   1      12.605   3.424 -17.930  0.00  0.00     0.193 A 
ATOM     14  N   UNL d   1      11.786   2.376 -17.926  0.00  0.00    -0.122 NA
ATOM     15  N   UNL d   1      12.500   1.373 -18.581  0.00  0.00    -0.126 NA
ATOM     16  C   UNL d   1      13.663   1.922 -18.934  0.00  0.00     0.191 A 
ATOM     17  N   UNL d   1      13.767   3.218 -18.565  0.00  0.00    -0.287 N 
ATOM     18  C   UNL d   1      14.865   4.156 -18.796  0.00  0.00     0.134 C 
BRANCH  16  19
ATOM     19  C   UNL d   1      14.665   1.132 -19.671  0.00  0.00     0.151 A 
ATOM     20  C   UNL d   1      14.682  -0.170 -20.089  0.00  0.00     0.087 A 
ATOM     21  C   UNL d   1      13.661  -1.262 -19.895  0.00  0.00     0.054 C 
ATOM     22  N   UNL d   1      15.857  -0.403 -20.792  0.00  0.00    -0.221 NA
ATOM     23  C   UNL d   1      16.485   0.775 -20.766  0.00  0.00     0.225 A 
ATOM     24  O   UNL d   1      15.823   1.741 -20.083  0.00  0.00    -0.282 OA
ENDBRANCH  16  19
ENDBRANCH  12  13
ENDBRANCH  11  12
ENDBRANCH  10  11
ENDBRANCH   9  10
ENDBRANCH   1   9
BRANCH   6  25
ATOM     25  C   UNL d   1       9.047   6.309 -10.647  0.00  0.00     0.047 A 
ATOM     26  C   UNL d   1       9.506   7.647 -10.754  0.00  0.00     0.069 A 
ATOM     27  C   UNL d   1      10.311   8.236  -9.763  0.00  0.00     0.024 A 
ATOM     28 CL   UNL d   1       9.056   8.636 -12.080  0.00  0.00    -0.081 Cl
ATOM     29  C   UNL d   1      10.670   7.496  -8.620  0.00  0.00     0.059 A 
ATOM     30  C   UNL d   1      10.223   6.180  -8.477  0.00  0.00     0.013 A 
ATOM     31 CL   UNL d   1      11.665   8.235  -7.412  0.00  0.00    -0.082 Cl
ATOM     32  C   UNL d   1       9.409   5.589  -9.477  0.00  0.00     0.013 A 
ENDBRANCH   6  25
TORSDOF 7
