REMARK  8 active torsions:
REMARK  status: ('A' for Active; 'I' for Inactive)
REMARK    1  A    between atoms: O_2  and  C_3 
REMARK    2  A    between atoms: C_8  and  N_9 
REMARK    3  A    between atoms: N_12  and  C_13 
REMARK    4  A    between atoms: C_13  and  C_14 
REMARK    5  A    between atoms: C_14  and  C_15 
REMARK    6  A    between atoms: C_15  and  C_16 
REMARK    7  A    between atoms: C_16  and  N_17 
REMARK       I    between atoms: N_17  and  C_18 
REMARK    8  A    between atoms: C_18  and  C_20 
ROOT
ATOM      1  N   UNL d   1       8.246   0.811 -17.536  0.00  0.00    -0.343 N 
ATOM      2  C   UNL d   1       8.723   2.108 -18.017  0.00  0.00     0.137 C 
ATOM      3  C   UNL d   1       9.152   2.963 -16.830  0.00  0.00     0.274 C 
ATOM      4  N   UNL d   1      10.152   2.291 -15.999  0.00  0.00     0.141 N 
ATOM      5  C   UNL d   1       9.628   1.008 -15.509  0.00  0.00     0.274 C 
ATOM      6  C   UNL d   1       9.190   0.107 -16.677  0.00  0.00     0.137 C 
ENDROOT
BRANCH   4   7
ATOM      7  C   UNL d   1      10.573   3.148 -14.892  0.00  0.00     0.251 C 
BRANCH   7   8
ATOM      8  C   UNL d   1       9.408   3.646 -13.994  0.00  0.00     0.037 C 
BRANCH   8   9
ATOM      9  C   UNL d   1       9.860   4.601 -12.900  0.00  0.00     0.029 C 
BRANCH   9  10
ATOM     10  C   UNL d   1       8.673   5.013 -12.016  0.00  0.00     0.129 C 
BRANCH  10  11
ATOM     11  N   UNL d   1       9.110   5.896 -10.947  0.00  0.00    -0.234 NA
ATOM     12  C   UNL d   1       9.279   5.548  -9.662  0.00  0.00     0.275 C 
ATOM     13  O   UNL d   1       9.036   4.428  -9.211  0.00  0.00    -0.266 OA
BRANCH  12  14
ATOM     14  C   UNL d   1       9.780   6.643  -8.772  0.00  0.00     0.058 A 
ATOM     15  C   UNL d   1       9.338   6.717  -7.435  0.00  0.00     0.005 A 
ATOM     16  C   UNL d   1       9.836   7.713  -6.577  0.00  0.00     0.007 A 
ATOM     17  C   UNL d   1      10.782   8.642  -7.048  0.00  0.00     0.035 A 
ATOM     18  C   UNL d   1      11.234   8.569  -8.379  0.00  0.00     0.007 A 
ATOM     19 BR   UNL d   1      11.459   9.985  -5.881  0.00  0.00    -0.049 Br
ATOM     20  C   UNL d   1      10.736   7.575  -9.240  0.00  0.00     0.005 A 
ENDBRANCH  12  14
ENDBRANCH  10  11
ENDBRANCH   9  10
ENDBRANCH   8   9
ENDBRANCH   7   8
ENDBRANCH   4   7
BRANCH   1  21
ATOM     21  C   UNL d   1       6.998   0.278 -17.898  0.00  0.00     0.079 A 
ATOM     22  C   UNL d   1       6.480   0.442 -19.216  0.00  0.00     0.110 A 
ATOM     23  C   UNL d   1       5.211  -0.101 -19.542  0.00  0.00     0.026 A 
ATOM     24  C   UNL d   1       4.462  -0.807 -18.585  0.00  0.00     0.002 A 
ATOM     25  C   UNL d   1       4.969  -0.980 -17.289  0.00  0.00     0.002 A 
ATOM     26  C   UNL d   1       6.226  -0.438 -16.948  0.00  0.00     0.019 A 
BRANCH  22  27
ATOM     27  O   UNL d   1       7.269   1.101 -20.137  0.00  0.00    -0.327 OA
ATOM     28  C   UNL d   1       6.766   1.348 -21.435  0.00  0.00     0.181 C 
ENDBRANCH  22  27
ENDBRANCH   1  21
TORSDOF 8
