REMARK  6 active torsions:
REMARK  status: ('A' for Active; 'I' for Inactive)
REMARK    1  A    between atoms: C_2  and  C_3 
REMARK    2  A    between atoms: N_13  and  C_14 
REMARK    3  A    between atoms: C_14  and  C_15 
REMARK    4  A    between atoms: C_15  and  C_17 
REMARK    5  A    between atoms: C_17  and  N_18 
REMARK    6  A    between atoms: N_21  and  C_22 
ROOT
ATOM      1  C   UNL d   1       9.443   3.435 -15.036  0.00  0.00     0.066 A 
ATOM      2  C   UNL d   1       8.278   2.680 -15.197  0.00  0.00     0.018 A 
ATOM      3  C   UNL d   1       8.126   1.805 -16.297  0.00  0.00     0.002 A 
ATOM      4  C   UNL d   1       9.168   1.689 -17.242  0.00  0.00     0.001 A 
ATOM      5  C   UNL d   1      10.348   2.438 -17.078  0.00  0.00     0.012 A 
ATOM      6  C   UNL d   1      10.501   3.312 -15.974  0.00  0.00     0.084 A 
ATOM      7  C   UNL d   1      11.725   4.082 -15.872  0.00  0.00     0.102 C 
ATOM      8  N   UNL d   1      12.704   4.714 -15.775  0.00  0.00    -0.191 NA
ENDROOT
BRANCH   1   9
ATOM      9  N   UNL d   1       9.531   4.342 -13.923  0.00  0.00    -0.344 N 
ATOM     10  C   UNL d   1      10.502   4.161 -12.883  0.00  0.00     0.137 C 
ATOM     11  C   UNL d   1       9.702   4.175 -11.554  0.00  0.00     0.274 C 
ATOM     12  N   UNL d   1       8.911   5.382 -11.344  0.00  0.00     0.144 N 
ATOM     13  C   UNL d   1       7.919   5.428 -12.396  0.00  0.00     0.274 C 
ATOM     14  C   UNL d   1       8.590   5.429 -13.764  0.00  0.00     0.137 C 
BRANCH  12  15
ATOM     15  C   UNL d   1       8.330   5.443 -10.016  0.00  0.00     0.285 C 
BRANCH  15  16
ATOM     16  C   UNL d   1       9.206   6.069  -8.906  0.00  0.00     0.208 C 
ATOM     17  O   UNL d   1       8.485   5.891  -7.703  0.00  0.00    -0.219 OA
BRANCH  16  18
ATOM     18  C   UNL d   1       9.383   7.585  -9.075  0.00  0.00     0.148 C 
BRANCH  18  19
ATOM     19  N   UNL d   1      10.441   8.156  -8.275  0.00  0.00    -0.247 N 
ATOM     20  C   UNL d   1      11.725   8.183  -8.617  0.00  0.00     0.348 A 
ATOM     21  N   UNL d   1      12.406   8.763  -7.636  0.00  0.00    -0.209 NA
ATOM     22  O   UNL d   1      12.214   7.718  -9.644  0.00  0.00    -0.245 OA
ATOM     23  C   UNL d   1      11.578   9.200  -6.518  0.00  0.00     0.179 A 
ATOM     24  C   UNL d   1      11.666  10.733  -6.348  0.00  0.00     0.039 C 
ATOM     25  C   UNL d   1      10.243   8.713  -7.078  0.00  0.00     0.265 A 
ATOM     26  O   UNL d   1       9.194   8.705  -6.449  0.00  0.00    -0.269 OA
BRANCH  23  27
ATOM     27  C   UNL d   1      11.829   8.476  -5.194  0.00  0.00     0.006 A 
ATOM     28  C   UNL d   1      12.423   9.132  -4.078  0.00  0.00     0.000 A 
ATOM     29  C   UNL d   1      12.637   8.503  -2.859  0.00  0.00     0.029 A 
ATOM     30  C   UNL d   1      12.352   7.143  -2.742  0.00  0.00     0.140 A 
ATOM     31  C   UNL d   1      11.776   6.508  -3.851  0.00  0.00     0.029 A 
ATOM     32  F   UNL d   1      12.656   6.437  -1.632  0.00  0.00    -0.204 F 
ATOM     33  C   UNL d   1      11.495   7.113  -5.048  0.00  0.00     0.000 A 
ENDBRANCH  23  27
ENDBRANCH  18  19
ENDBRANCH  16  18
ENDBRANCH  15  16
ENDBRANCH  12  15
ENDBRANCH   1   9
TORSDOF 6
