REMARK  6 active torsions:
REMARK  status: ('A' for Active; 'I' for Inactive)
REMARK       I    between atoms: C_2  and  N_14 
REMARK       I    between atoms: N_3  and  C_4 
REMARK       I    between atoms: C_4  and  N_6 
REMARK    1  A    between atoms: N_6  and  C_7 
REMARK    2  A    between atoms: C_7  and  C_8 
REMARK    3  A    between atoms: N_14  and  C_15 
REMARK    4  A    between atoms: C_15  and  C_16 
REMARK    5  A    between atoms: C_16  and  C_17 
REMARK    6  A    between atoms: C_17  and  C_18 
ROOT
ATOM      1  N   UNL d   1       7.755   6.553 -12.036  0.00  0.00     0.062 N 
ATOM      2  C   UNL d   1       8.662   5.744 -11.383  0.00  0.00     0.768 C 
ATOM      3  N   UNL d   1       9.460   4.872 -11.918  0.00  0.00     0.001 NA
ATOM      4  C   UNL d   1       9.481   4.671 -13.283  0.00  0.00     0.380 C 
ATOM      5  O   UNL d   1       8.599   4.929 -14.111  0.00  0.00    -0.242 OA
ATOM      6  N   UNL d   1      10.663   4.162 -13.648  0.00  0.00    -0.212 NA
ATOM      7  N   UNL d   1       8.660   5.988 -10.022  0.00  0.00    -0.084 NA
ENDROOT
BRANCH   7   8
ATOM      8  C   UNL d   1       9.456   5.278  -9.027  0.00  0.00     0.145 C 
BRANCH   8   9
ATOM      9  C   UNL d   1      10.320   6.218  -8.185  0.00  0.00     0.032 C 
BRANCH   9  10
ATOM     10  C   UNL d   1       9.513   7.100  -7.221  0.00  0.00     0.037 C 
BRANCH  10  11
ATOM     11  C   UNL d   1      10.383   7.873  -6.279  0.00  0.00     0.029 A 
ATOM     12  S   UNL d   1      11.219   7.088  -4.961  0.00  0.00    -0.057 SA
ATOM     13  C   UNL d   1      11.838   8.655  -4.460  0.00  0.00     0.181 A 
ATOM     14  N   UNL d   1      11.458   9.660  -5.246  0.00  0.00    -0.224 NA
ATOM     15  N   UNL d   1      12.641   8.793  -3.345  0.00  0.00    -0.072 NA
ATOM     16  C   UNL d   1      10.649   9.221  -6.298  0.00  0.00     0.103 A 
ENDBRANCH  10  11
ENDBRANCH   9  10
ENDBRANCH   8   9
ENDBRANCH   7   8
BRANCH   6  17
ATOM     17  C   UNL d   1      11.070   3.847 -15.014  0.00  0.00     0.157 C 
BRANCH  17  18
ATOM     18  C   UNL d   1      10.721   2.436 -15.483  0.00  0.00     0.002 A 
ATOM     19  C   UNL d   1       9.732   1.654 -14.840  0.00  0.00    -0.002 A 
ATOM     20  C   UNL d   1       9.408   0.376 -15.326  0.00  0.00    -0.000 A 
ATOM     21  C   UNL d   1      10.072  -0.142 -16.452  0.00  0.00    -0.000 A 
ATOM     22  C   UNL d   1      11.061   0.623 -17.096  0.00  0.00    -0.000 A 
ATOM     23  C   UNL d   1      11.385   1.907 -16.613  0.00  0.00    -0.002 A 
ENDBRANCH  17  18
ENDBRANCH   6  17
TORSDOF 6
