REMARK  4 active torsions:
REMARK  status: ('A' for Active; 'I' for Inactive)
REMARK    1  A    between atoms: C_12  and  C_13 
REMARK    2  A    between atoms: C_13  and  C_14 
REMARK    3  A    between atoms: C_14  and  N_15 
REMARK    4  A    between atoms: N_18  and  C_19 
ROOT
ATOM      1  C   UNL d   1       8.588   6.278 -11.931  0.00  0.00     0.043 C 
ENDROOT
BRANCH   1   2
ATOM      2  C   UNL d   1       8.726   4.752 -12.102  0.00  0.00     0.068 A 
ATOM      3  C   UNL d   1       9.702   4.346 -13.228  0.00  0.00     0.173 A 
ATOM      4  O   UNL d   1      10.860   4.750 -13.337  0.00  0.00    -0.291 OA
ATOM      5  C   UNL d   1       9.016   3.435 -14.135  0.00  0.00     0.032 A 
ATOM      6  C   UNL d   1       7.695   3.277 -13.738  0.00  0.00    -0.018 A 
ATOM      7  C   UNL d   1       9.536   2.789 -15.271  0.00  0.00     0.015 A 
ATOM      8  C   UNL d   1       6.836   2.424 -14.458  0.00  0.00     0.008 A 
ATOM      9  C   UNL d   1       7.371   4.096 -12.505  0.00  0.00     0.034 A 
ATOM     10  C   UNL d   1       7.335   1.760 -15.607  0.00  0.00     0.068 A 
ATOM     11  C   UNL d   1       8.682   1.948 -16.013  0.00  0.00     0.068 A 
ATOM     12 CL   UNL d   1       6.276   0.740 -16.518  0.00  0.00    -0.082 Cl
ATOM     13 CL   UNL d   1       9.312   1.180 -17.427  0.00  0.00    -0.082 Cl
ENDBRANCH   1   2
BRANCH   1  14
ATOM     14  C   UNL d   1       9.806   6.966 -11.287  0.00  0.00     0.251 C 
BRANCH  14  15
ATOM     15  N   UNL d   1       9.534   7.453  -9.940  0.00  0.00     0.141 N 
ATOM     16  C   UNL d   1       9.517   6.369  -8.957  0.00  0.00     0.274 C 
ATOM     17  C   UNL d   1       9.128   6.917  -7.567  0.00  0.00     0.138 C 
ATOM     18  N   UNL d   1      10.015   8.012  -7.195  0.00  0.00    -0.330 N 
ATOM     19  C   UNL d   1      10.111   9.069  -8.186  0.00  0.00     0.138 C 
ATOM     20  C   UNL d   1      10.502   8.476  -9.553  0.00  0.00     0.274 C 
BRANCH  18  21
ATOM     21  C   UNL d   1      10.725   8.057  -5.980  0.00  0.00     0.140 A 
ATOM     22  N   UNL d   1      11.005   9.267  -5.442  0.00  0.00    -0.227 NA
ATOM     23  C   UNL d   1      11.684   9.317  -4.279  0.00  0.00     0.101 A 
ATOM     24  C   UNL d   1      12.133   8.174  -3.589  0.00  0.00     0.021 A 
ATOM     25  C   UNL d   1      11.854   6.918  -4.147  0.00  0.00     0.005 A 
ATOM     26  C   UNL d   1      11.147   6.861  -5.357  0.00  0.00     0.037 A 
ENDBRANCH  18  21
ENDBRANCH  14  15
ENDBRANCH   1  14
TORSDOF 4
