REMARK  3 active torsions:
REMARK  status: ('A' for Active; 'I' for Inactive)
REMARK    1  A    between atoms: C_6  and  N_7 
REMARK    2  A    between atoms: N_10  and  C_11 
REMARK    3  A    between atoms: C_11  and  C_12 
ROOT
ATOM      1  N   UNL d   1      11.189   7.875  -7.660  0.00  0.00    -0.344 N 
ATOM      2  C   UNL d   1      10.331   6.732  -7.907  0.00  0.00     0.137 C 
ATOM      3  C   UNL d   1       9.457   6.995  -9.131  0.00  0.00     0.275 C 
ATOM      4  N   UNL d   1      10.278   7.326 -10.304  0.00  0.00     0.145 N 
ATOM      5  C   UNL d   1      11.044   8.549 -10.010  0.00  0.00     0.275 C 
ATOM      6  C   UNL d   1      11.970   8.329  -8.799  0.00  0.00     0.137 C 
ENDROOT
BRANCH   1   7
ATOM      7  C   UNL d   1      11.226   8.498  -6.394  0.00  0.00     0.068 A 
ATOM      8  C   UNL d   1      11.058   9.878  -6.292  0.00  0.00     0.018 A 
ATOM      9  C   UNL d   1      11.052  10.490  -5.021  0.00  0.00     0.002 A 
ATOM     10  C   UNL d   1      11.344   9.773  -3.848  0.00  0.00     0.012 A 
ATOM     11  C   UNL d   1      11.559   8.398  -3.943  0.00  0.00     0.070 A 
ATOM     12 CL   UNL d   1      11.941   7.482  -2.530  0.00  0.00    -0.081 Cl
ATOM     13  C   UNL d   1      11.459   7.788  -5.201  0.00  0.00     0.084 A 
ATOM     14 CL   UNL d   1      11.847   6.164  -5.284  0.00  0.00    -0.080 Cl
ENDBRANCH   1   7
BRANCH   4  15
ATOM     15  C   UNL d   1       9.440   7.547 -11.483  0.00  0.00     0.278 C 
BRANCH  15  16
ATOM     16  C   UNL d   1       8.805   6.283 -12.046  0.00  0.00     0.030 A 
ATOM     17  C   UNL d   1       9.459   5.522 -13.035  0.00  0.00     0.097 A 
ATOM     18  N   UNL d   1       8.947   4.401 -13.586  0.00  0.00    -0.243 NA
ATOM     19  C   UNL d   1       7.742   3.986 -13.146  0.00  0.00     0.099 A 
ATOM     20  C   UNL d   1       7.006   4.660 -12.154  0.00  0.00     0.020 A 
ATOM     21  C   UNL d   1       7.541   5.840 -11.614  0.00  0.00     0.001 A 
ENDBRANCH  15  16
ENDBRANCH   4  15
TORSDOF 3
