REMARK  7 active torsions:
REMARK  status: ('A' for Active; 'I' for Inactive)
REMARK    1  A    between atoms: C_7  and  N_8 
REMARK    2  A    between atoms: N_13  and  C_14 
REMARK    3  A    between atoms: C_14  and  C_15 
REMARK    4  A    between atoms: C_15  and  C_16 
REMARK    5  A    between atoms: C_16  and  S_17 
REMARK    6  A    between atoms: S_17  and  C_18 
REMARK    7  A    between atoms: C_21  and  C_22 
ROOT
ATOM      1  C   UNL d   1      12.528   2.600 -16.566  0.00  0.00     0.251 C 
ENDROOT
BRANCH   1   2
ATOM      2  N   UNL d   1      11.118   2.694 -16.923  0.00  0.00     0.138 N 
ATOM      3  C   UNL d   1      10.722   1.752 -17.977  0.00  0.00     0.252 C 
ATOM      4  C   UNL d   1       9.190   1.753 -17.900  0.00  0.00     0.052 C 
ATOM      5  C   UNL d   1       8.492   0.398 -18.035  0.00  0.00     0.021 C 
ATOM      6  C   UNL d   1       8.893   2.216 -16.486  0.00  0.00     0.097 C 
ATOM      7  C   UNL d   1       7.438   0.415 -16.924  0.00  0.00     0.077 C 
ATOM      8  N   UNL d   1       8.018   1.216 -15.854  0.00  0.00    -0.252 NA
ATOM      9  C   UNL d   1      10.256   2.349 -15.804  0.00  0.00     0.266 C 
BRANCH   8  10
ATOM     10  C   UNL d   1       7.180   1.624 -14.790  0.00  0.00     0.032 A 
ATOM     11  C   UNL d   1       6.270   0.718 -14.152  0.00  0.00    -0.011 A 
ATOM     12  C   UNL d   1       6.163  -0.753 -14.515  0.00  0.00     0.032 C 
ATOM     13  C   UNL d   1       5.438   1.175 -13.118  0.00  0.00    -0.003 A 
ATOM     14  C   UNL d   1       5.451   2.518 -12.704  0.00  0.00    -0.000 A 
ATOM     15  C   UNL d   1       6.331   3.426 -13.322  0.00  0.00     0.001 A 
ATOM     16  C   UNL d   1       7.203   2.968 -14.320  0.00  0.00     0.011 A 
ENDBRANCH   8  10
ENDBRANCH   1   2
BRANCH   1  17
ATOM     17  C   UNL d   1      13.322   3.697 -17.288  0.00  0.00     0.047 C 
BRANCH  17  18
ATOM     18  C   UNL d   1      13.362   5.011 -16.483  0.00  0.00     0.067 C 
BRANCH  18  19
ATOM     19  S   UNL d   1      13.498   6.474 -17.554  0.00  0.00    -0.075 SA
BRANCH  19  20
ATOM     20  C   UNL d   1      11.852   6.529 -18.211  0.00  0.00     0.193 A 
ATOM     21  N   UNL d   1      11.516   7.267 -19.292  0.00  0.00    -0.287 N 
ATOM     22  C   UNL d   1      10.184   7.016 -19.413  0.00  0.00     0.186 A 
ATOM     23  C   UNL d   1      12.381   8.115 -20.103  0.00  0.00     0.134 C 
ATOM     24  N   UNL d   1       9.743   6.176 -18.468  0.00  0.00    -0.127 NA
ATOM     25  N   UNL d   1      10.822   5.868 -17.685  0.00  0.00    -0.122 NA
BRANCH  22  26
ATOM     26  C   UNL d   1       9.257   7.563 -20.420  0.00  0.00     0.136 A 
ATOM     27  N   UNL d   1       9.728   8.434 -21.345  0.00  0.00    -0.238 NA
ATOM     28  C   UNL d   1       8.850   8.918 -22.249  0.00  0.00     0.120 A 
ATOM     29  C   UNL d   1       7.491   8.544 -22.234  0.00  0.00     0.120 A 
ATOM     30  N   UNL d   1       7.002   7.684 -21.315  0.00  0.00    -0.239 NA
ATOM     31  C   UNL d   1       7.885   7.195 -20.416  0.00  0.00     0.121 A 
ENDBRANCH  22  26
ENDBRANCH  19  20
ENDBRANCH  18  19
ENDBRANCH  17  18
ENDBRANCH   1  17
TORSDOF 7
