REMARK  4 active torsions:
REMARK  status: ('A' for Active; 'I' for Inactive)
REMARK    1  A    between atoms: S_2  and  N_4 
REMARK    2  A    between atoms: S_2  and  C_21 
REMARK    3  A    between atoms: N_4  and  C_5 
REMARK    4  A    between atoms: C_12  and  N_13 
ROOT
ATOM      1  C   UNL d   1       7.102   4.359 -12.335  0.00  0.00     0.094 A 
ATOM      2  C   UNL d   1       5.859   3.769 -12.049  0.00  0.00     0.021 A 
ATOM      3  C   UNL d   1       5.435   2.624 -12.765  0.00  0.00     0.021 A 
ATOM      4  C   UNL d   1       6.235   2.017 -13.756  0.00  0.00     0.083 A 
ATOM      5  N   UNL d   1       5.809   0.908 -14.394  0.00  0.00    -0.244 NA
ATOM      6  C   UNL d   1       6.567   0.378 -15.368  0.00  0.00     0.100 A 
ATOM      7  C   UNL d   1       7.829   0.892 -15.727  0.00  0.00     0.038 A 
ATOM      8  C   UNL d   1       8.328   2.017 -15.042  0.00  0.00     0.059 A 
ATOM      9  C   UNL d   1       7.501   2.618 -14.049  0.00  0.00     0.035 A 
ATOM     10  C   UNL d   1       7.894   3.784 -13.350  0.00  0.00     0.023 A 
ENDROOT
BRANCH   1  11
ATOM     11  N   UNL d   1       7.520   5.460 -11.581  0.00  0.00    -0.158 NA
BRANCH  11  12
ATOM     12  S   UNL d   1       8.902   6.487 -11.812  0.00  0.00     0.285 S 
ATOM     13  O   UNL d   1       9.941   5.662 -12.410  0.00  0.00    -0.198 OA
ATOM     14  O   UNL d   1       8.426   7.713 -12.425  0.00  0.00    -0.198 OA
BRANCH  12  15
ATOM     15  C   UNL d   1       9.462   6.818 -10.176  0.00  0.00     0.105 A 
ATOM     16  C   UNL d   1      10.043   8.065  -9.887  0.00  0.00     0.013 A 
ATOM     17  C   UNL d   1      10.532   8.282  -8.594  0.00  0.00     0.002 A 
ATOM     18  C   UNL d   1      10.483   7.285  -7.588  0.00  0.00     0.011 A 
ATOM     19  C   UNL d   1      11.059   9.545  -8.287  0.00  0.00     0.000 A 
ATOM     20  C   UNL d   1       9.944   6.020  -7.941  0.00  0.00     0.002 A 
ATOM     21  C   UNL d   1      10.962   7.590  -6.290  0.00  0.00     0.058 A 
ATOM     22  C   UNL d   1       9.439   5.788  -9.222  0.00  0.00     0.013 A 
ATOM     23 CL   UNL d   1      11.060   6.465  -5.006  0.00  0.00    -0.082 Cl
ATOM     24  C   UNL d   1      11.436   8.873  -5.987  0.00  0.00     0.011 A 
ATOM     25  C   UNL d   1      11.462   9.855  -6.975  0.00  0.00     0.001 A 
ENDBRANCH  12  15
ENDBRANCH  11  12
ENDBRANCH   1  11
BRANCH   8  26
ATOM     26  N   UNL d   1       9.620   2.506 -15.379  0.00  0.00    -0.344 N 
ATOM     27  C   UNL d   1       9.927   2.951 -16.729  0.00  0.00     0.140 C 
ATOM     28  C   UNL d   1      10.530   4.375 -16.685  0.00  0.00     0.314 C 
ATOM     29  N   UNL d   1      11.734   4.403 -15.849  0.00  0.00     0.343 N 
ATOM     30  C   UNL d   1      11.313   4.049 -14.501  0.00  0.00     0.314 C 
ATOM     31  C   UNL d   1      10.717   2.615 -14.423  0.00  0.00     0.140 C 
ENDBRANCH   8  26
TORSDOF 4
