REMARK  5 active torsions:
REMARK  status: ('A' for Active; 'I' for Inactive)
REMARK    1  A    between atoms: C_2  and  C_3 
REMARK    2  A    between atoms: C_3  and  C_4 
REMARK    3  A    between atoms: C_3  and  N_14 
REMARK    4  A    between atoms: C_4  and  C_5 
REMARK    5  A    between atoms: C_5  and  C_7 
ROOT
ATOM      1  C   UNL d   1       9.127   4.989 -11.329  0.00  0.00     0.102 C 
ENDROOT
BRANCH   1   2
ATOM      2  C   UNL d   1       8.632   4.532 -12.733  0.00  0.00     0.227 C 
BRANCH   2   3
ATOM      3  C   UNL d   1       7.286   5.195 -13.111  0.00  0.00     0.034 C 
ATOM      4  C   UNL d   1       6.160   4.994 -12.098  0.00  0.00     0.002 C 
ENDBRANCH   2   3
BRANCH   2   5
ATOM      5  N   UNL d   1       9.671   4.719 -13.770  0.00  0.00     0.135 N 
ATOM      6  C   UNL d   1       9.178   4.599 -15.134  0.00  0.00     0.250 C 
ATOM      7  C   UNL d   1      10.418   4.422 -15.993  0.00  0.00     0.037 C 
ATOM      8  C   UNL d   1      11.435   3.796 -15.054  0.00  0.00     0.037 C 
ATOM      9  C   UNL d   1      10.697   3.686 -13.718  0.00  0.00     0.250 C 
ENDBRANCH   2   5
ENDBRANCH   1   2
BRANCH   1  10
ATOM     10  C   UNL d   1       9.456   6.484 -11.105  0.00  0.00     0.175 C 
ATOM     11  O   UNL d   1       9.409   7.287 -12.036  0.00  0.00    -0.291 OA
BRANCH  10  12
ATOM     12  C   UNL d   1       9.921   6.863  -9.744  0.00  0.00     0.035 A 
ATOM     13  C   UNL d   1      10.773   7.978  -9.581  0.00  0.00     0.003 A 
ATOM     14  C   UNL d   1      11.214   8.364  -8.292  0.00  0.00    -0.004 A 
ATOM     15  C   UNL d   1      10.777   7.649  -7.158  0.00  0.00    -0.022 A 
ATOM     16  C   UNL d   1       9.908   6.555  -7.319  0.00  0.00    -0.004 A 
ATOM     17  C   UNL d   1      11.210   8.052  -5.765  0.00  0.00     0.031 C 
ATOM     18  C   UNL d   1       9.479   6.163  -8.595  0.00  0.00     0.003 A 
ENDBRANCH  10  12
ENDBRANCH   1  10
TORSDOF 5
