REMARK  8 active torsions:
REMARK  status: ('A' for Active; 'I' for Inactive)
REMARK    1  A    between atoms: O_2  and  C_3 
REMARK    2  A    between atoms: C_8  and  N_9 
REMARK    3  A    between atoms: N_13  and  C_14 
REMARK    4  A    between atoms: C_14  and  C_15 
REMARK    5  A    between atoms: C_15  and  C_16 
REMARK    6  A    between atoms: C_16  and  C_17 
REMARK    7  A    between atoms: C_17  and  N_18 
REMARK       I    between atoms: N_18  and  C_19 
REMARK    8  A    between atoms: C_19  and  C_21 
ROOT
ATOM      1  N   UNL d   1       7.782   2.782 -14.806  0.00  0.00    -0.345 N 
ATOM      2  C   UNL d   1       9.128   2.777 -15.395  0.00  0.00     0.104 C 
ATOM      3  C   UNL d   1      10.076   3.828 -14.821  0.00  0.00     0.059 C 
ATOM      4  C   UNL d   1      10.115   3.862 -13.286  0.00  0.00     0.252 C 
ATOM      5  N   UNL d   1       9.076   4.747 -12.731  0.00  0.00     0.139 N 
ATOM      6  C   UNL d   1       7.739   4.177 -12.780  0.00  0.00     0.274 C 
ATOM      7  C   UNL d   1       7.274   4.000 -14.198  0.00  0.00     0.137 C 
ENDROOT
BRANCH   5   8
ATOM      8  C   UNL d   1       9.408   5.019 -11.345  0.00  0.00     0.250 C 
BRANCH   8   9
ATOM      9  C   UNL d   1       8.483   6.005 -10.621  0.00  0.00     0.037 C 
BRANCH   9  10
ATOM     10  C   UNL d   1       9.030   6.424  -9.246  0.00  0.00     0.029 C 
BRANCH  10  11
ATOM     11  C   UNL d   1      10.402   7.130  -9.295  0.00  0.00     0.129 C 
BRANCH  11  12
ATOM     12  N   UNL d   1      10.879   7.453  -7.966  0.00  0.00    -0.234 NA
ATOM     13  C   UNL d   1      10.350   8.384  -7.162  0.00  0.00     0.276 C 
ATOM     14  O   UNL d   1       9.479   9.180  -7.516  0.00  0.00    -0.266 OA
BRANCH  13  15
ATOM     15  C   UNL d   1      10.939   8.428  -5.786  0.00  0.00     0.077 A 
ATOM     16  C   UNL d   1      11.364   7.246  -5.141  0.00  0.00     0.105 A 
ATOM     17  N   UNL d   1      11.872   7.228  -3.892  0.00  0.00    -0.233 NA
ATOM     18  C   UNL d   1      11.970   8.391  -3.219  0.00  0.00     0.139 A 
ATOM     19  C   UNL d   1      11.554   9.615  -3.773  0.00  0.00     0.031 A 
ATOM     20 CL   UNL d   1      12.640   8.382  -1.646  0.00  0.00    -0.061 Cl
ATOM     21  C   UNL d   1      11.025   9.644  -5.079  0.00  0.00     0.009 A 
ENDBRANCH  13  15
ENDBRANCH  11  12
ENDBRANCH  10  11
ENDBRANCH   9  10
ENDBRANCH   8   9
ENDBRANCH   5   8
BRANCH   1  22
ATOM     22  C   UNL d   1       6.983   1.625 -14.824  0.00  0.00     0.079 A 
ATOM     23  C   UNL d   1       7.019   0.712 -15.918  0.00  0.00     0.110 A 
ATOM     24  C   UNL d   1       6.215  -0.451 -15.876  0.00  0.00     0.026 A 
ATOM     25  C   UNL d   1       5.379  -0.723 -14.776  0.00  0.00     0.002 A 
ATOM     26  C   UNL d   1       5.314   0.184 -13.712  0.00  0.00     0.002 A 
ATOM     27  C   UNL d   1       6.104   1.348 -13.738  0.00  0.00     0.019 A 
BRANCH  23  28
ATOM     28  O   UNL d   1       7.827   1.018 -16.998  0.00  0.00    -0.327 OA
ATOM     29  C   UNL d   1       7.925   0.108 -18.070  0.00  0.00     0.181 C 
ENDBRANCH  23  28
ENDBRANCH   1  22
TORSDOF 8
