REMARK  10 active torsions:
REMARK  status: ('A' for Active; 'I' for Inactive)
REMARK    1  A    between atoms: O_2  and  C_3 
REMARK    2  A    between atoms: C_8  and  N_9 
REMARK    3  A    between atoms: N_12  and  C_13 
REMARK    4  A    between atoms: C_13  and  C_14 
REMARK    5  A    between atoms: C_14  and  C_15 
REMARK    6  A    between atoms: C_15  and  C_16 
REMARK    7  A    between atoms: C_16  and  N_17 
REMARK       I    between atoms: N_17  and  C_18 
REMARK    8  A    between atoms: C_18  and  C_20 
REMARK    9  A    between atoms: C_21  and  C_22 
REMARK   10  A    between atoms: C_25  and  C_26 
ROOT
ATOM      1  C   UNL d   1       8.552   3.663 -13.921  0.00  0.00     0.037 C 
ENDROOT
BRANCH   1   2
ATOM      2  C   UNL d   1       9.157   2.352 -14.467  0.00  0.00     0.251 C 
BRANCH   2   3
ATOM      3  N   UNL d   1       8.603   1.985 -15.772  0.00  0.00     0.141 N 
ATOM      4  C   UNL d   1       7.165   1.691 -15.672  0.00  0.00     0.274 C 
ATOM      5  C   UNL d   1       6.591   1.354 -17.055  0.00  0.00     0.137 C 
ATOM      6  N   UNL d   1       7.309   0.222 -17.615  0.00  0.00    -0.343 N 
ATOM      7  C   UNL d   1       8.759   0.382 -17.658  0.00  0.00     0.137 C 
ATOM      8  C   UNL d   1       9.292   0.781 -16.264  0.00  0.00     0.274 C 
BRANCH   6   9
ATOM      9  C   UNL d   1       6.664  -0.943 -18.070  0.00  0.00     0.079 A 
ATOM     10  C   UNL d   1       5.551  -1.505 -17.385  0.00  0.00     0.110 A 
ATOM     11  C   UNL d   1       4.937  -2.663 -17.928  0.00  0.00     0.026 A 
ATOM     12  C   UNL d   1       5.423  -3.263 -19.103  0.00  0.00     0.002 A 
ATOM     13  C   UNL d   1       6.530  -2.711 -19.762  0.00  0.00     0.002 A 
ATOM     14  C   UNL d   1       7.142  -1.554 -19.250  0.00  0.00     0.019 A 
BRANCH  10  15
ATOM     15  O   UNL d   1       5.128  -0.922 -16.203  0.00  0.00    -0.327 OA
ATOM     16  C   UNL d   1       3.919  -1.377 -15.613  0.00  0.00     0.181 C 
ENDBRANCH  10  15
ENDBRANCH   6   9
ENDBRANCH   2   3
ENDBRANCH   1   2
BRANCH   1  17
ATOM     17  C   UNL d   1       9.150   4.083 -12.578  0.00  0.00     0.029 C 
BRANCH  17  18
ATOM     18  C   UNL d   1       8.140   4.868 -11.721  0.00  0.00     0.129 C 
BRANCH  18  19
ATOM     19  N   UNL d   1       8.728   5.274 -10.454  0.00  0.00    -0.234 NA
ATOM     20  C   UNL d   1       9.457   6.382 -10.279  0.00  0.00     0.275 C 
ATOM     21  O   UNL d   1       9.728   7.157 -11.197  0.00  0.00    -0.266 OA
BRANCH  20  22
ATOM     22  C   UNL d   1       9.879   6.521  -8.897  0.00  0.00     0.062 C 
ATOM     23  C   UNL d   1      10.396   7.683  -8.453  0.00  0.00     0.005 C 
BRANCH  23  24
ATOM     24  C   UNL d   1      10.872   7.954  -7.083  0.00  0.00     0.000 A 
ATOM     25  C   UNL d   1      11.013   6.940  -6.111  0.00  0.00     0.000 A 
ATOM     26  C   UNL d   1      11.458   7.241  -4.808  0.00  0.00     0.003 A 
ATOM     27  C   UNL d   1      11.770   8.571  -4.457  0.00  0.00     0.042 A 
ATOM     28  C   UNL d   1      11.620   9.590  -5.422  0.00  0.00     0.003 A 
ATOM     29  C   UNL d   1      11.178   9.279  -6.722  0.00  0.00     0.000 A 
BRANCH  27  30
ATOM     30  C   UNL d   1      12.256   8.902  -3.097  0.00  0.00     0.234 C 
ATOM     31  O   UNL d   1      12.470   8.075  -2.213  0.00  0.00    -0.283 OA
ENDBRANCH  27  30
ENDBRANCH  23  24
ENDBRANCH  20  22
ENDBRANCH  18  19
ENDBRANCH  17  18
ENDBRANCH   1  17
TORSDOF 10
