REMARK  8 active torsions:
REMARK  status: ('A' for Active; 'I' for Inactive)
REMARK    1  A    between atoms: C_2  and  C_3 
REMARK    2  A    between atoms: C_9  and  O_10 
REMARK    3  A    between atoms: O_10  and  C_11 
REMARK    4  A    between atoms: C_11  and  C_12 
REMARK    5  A    between atoms: C_12  and  C_13 
REMARK    6  A    between atoms: C_13  and  C_14 
REMARK    7  A    between atoms: C_14  and  N_15 
REMARK    8  A    between atoms: N_18  and  C_19 
ROOT
ATOM      1  N   UNL d   1       8.460   3.492 -14.268  0.00  0.00     0.141 N 
ATOM      2  C   UNL d   1       9.159   2.599 -15.206  0.00  0.00     0.274 C 
ATOM      3  C   UNL d   1       8.255   2.255 -16.404  0.00  0.00     0.137 C 
ATOM      4  N   UNL d   1       6.998   1.703 -15.923  0.00  0.00    -0.343 N 
ATOM      5  C   UNL d   1       6.303   2.466 -14.890  0.00  0.00     0.137 C 
ATOM      6  C   UNL d   1       7.257   2.802 -13.783  0.00  0.00     0.274 C 
ENDROOT
BRANCH   1   7
ATOM      7  C   UNL d   1       9.359   3.777 -13.152  0.00  0.00     0.251 C 
BRANCH   7   8
ATOM      8  C   UNL d   1       8.703   4.664 -12.071  0.00  0.00     0.038 C 
BRANCH   8   9
ATOM      9  C   UNL d   1       9.538   4.773 -10.799  0.00  0.00     0.035 C 
BRANCH   9  10
ATOM     10  C   UNL d   1       8.671   4.988  -9.539  0.00  0.00     0.149 C 
BRANCH  10  11
ATOM     11  O   UNL d   1       9.506   5.113  -8.398  0.00  0.00    -0.331 OA
BRANCH  11  12
ATOM     12  C   UNL d   1       9.890   6.367  -8.001  0.00  0.00     0.097 A 
ATOM     13  C   UNL d   1       9.605   7.516  -8.777  0.00  0.00     0.045 A 
ATOM     14  C   UNL d   1       9.895   8.767  -8.293  0.00  0.00     0.102 A 
ATOM     15  N   UNL d   1      10.503   8.898  -7.074  0.00  0.00    -0.228 N 
ATOM     16  N   UNL d   1      10.868  10.079  -6.497  0.00  0.00    -0.164 NA
ATOM     17  C   UNL d   1      10.843   7.793  -6.272  0.00  0.00     0.090 A 
ATOM     18  C   UNL d   1      11.392   9.724  -5.351  0.00  0.00     0.125 A 
ATOM     19  C   UNL d   1      11.416   8.327  -5.143  0.00  0.00     0.081 A 
ATOM     20  C   UNL d   1      10.534   6.515  -6.781  0.00  0.00     0.044 A 
BRANCH  19  21
ATOM     21  C   UNL d   1      11.931   7.611  -3.997  0.00  0.00     0.237 C 
ATOM     22  O   UNL d   1      11.858   6.403  -3.810  0.00  0.00    -0.283 OA
ENDBRANCH  19  21
ENDBRANCH  11  12
ENDBRANCH  10  11
ENDBRANCH   9  10
ENDBRANCH   8   9
ENDBRANCH   7   8
ENDBRANCH   1   7
BRANCH   4  23
ATOM     23  C   UNL d   1       6.452   0.496 -16.433  0.00  0.00     0.081 A 
ATOM     24  C   UNL d   1       6.496   0.218 -17.814  0.00  0.00     0.134 A 
ATOM     25  C   UNL d   1       5.978  -1.023 -18.314  0.00  0.00     0.143 A 
ATOM     26  O   UNL d   1       7.025   1.160 -18.675  0.00  0.00    -0.325 OA
ATOM     27  C   UNL d   1       5.374  -1.933 -17.427  0.00  0.00     0.155 A 
ATOM     28  O   UNL d   1       6.059  -1.326 -19.649  0.00  0.00    -0.324 OA
ATOM     29  C   UNL d   1       5.292  -1.620 -16.054  0.00  0.00     0.031 A 
ATOM     30  O   UNL d   1       4.884  -3.127 -17.867  0.00  0.00    -0.188 OA
ATOM     31  C   UNL d   1       5.837  -0.419 -15.562  0.00  0.00     0.021 A 
ATOM     32  C   UNL d   1       6.960  -0.523 -20.406  0.00  0.00     0.182 C 
ATOM     33  C   UNL d   1       6.737   0.955 -20.060  0.00  0.00     0.182 C 
ENDBRANCH   4  23
TORSDOF 8
