REMARK  5 active torsions:
REMARK  status: ('A' for Active; 'I' for Inactive)
REMARK    1  A    between atoms: C_5  and  N_6 
REMARK    2  A    between atoms: N_9  and  C_10 
REMARK    3  A    between atoms: C_10  and  C_11 
REMARK    4  A    between atoms: C_11  and  N_12 
REMARK    5  A    between atoms: C_15  and  C_16 
ROOT
ATOM      1  N   UNL d   1       6.901   0.499 -19.135  0.00  0.00    -0.191 NA
ATOM      2  C   UNL d   1       7.497   0.718 -18.164  0.00  0.00     0.103 C 
ATOM      3  C   UNL d   1       8.249   1.000 -16.950  0.00  0.00     0.097 A 
ATOM      4  C   UNL d   1       7.727   1.924 -16.017  0.00  0.00     0.030 A 
ATOM      5  C   UNL d   1       8.456   2.261 -14.852  0.00  0.00     0.065 A 
ATOM      6  C   UNL d   1       9.691   1.616 -14.619  0.00  0.00     0.020 A 
ATOM      7  C   UNL d   1      10.213   0.693 -15.543  0.00  0.00     0.032 A 
ATOM      8  C   UNL d   1       9.499   0.387 -16.714  0.00  0.00     0.150 A 
ATOM      9  F   UNL d   1      10.020  -0.501 -17.601  0.00  0.00    -0.203 F 
ENDROOT
BRANCH   5  10
ATOM     10  N   UNL d   1       7.948   3.220 -13.928  0.00  0.00    -0.280 N 
ATOM     11  C   UNL d   1       8.696   4.100 -13.231  0.00  0.00     0.328 A 
ATOM     12  N   UNL d   1       7.891   4.777 -12.406  0.00  0.00    -0.298 N 
ATOM     13  O   UNL d   1       9.915   4.281 -13.330  0.00  0.00    -0.247 OA
ATOM     14  C   UNL d   1       6.490   4.436 -12.545  0.00  0.00     0.131 A 
ATOM     15  C   UNL d   1       6.527   3.345 -13.612  0.00  0.00     0.135 A 
BRANCH  12  16
ATOM     16  C   UNL d   1       8.335   5.830 -11.509  0.00  0.00     0.141 C 
BRANCH  16  17
ATOM     17  C   UNL d   1       9.043   5.250 -10.274  0.00  0.00     0.274 C 
BRANCH  17  18
ATOM     18  N   UNL d   1       9.438   6.294  -9.332  0.00  0.00     0.139 N 
ATOM     19  C   UNL d   1       9.780   5.678  -8.054  0.00  0.00     0.251 C 
ATOM     20  C   UNL d   1      10.031   6.758  -6.994  0.00  0.00     0.044 C 
ATOM     21  C   UNL d   1      11.160   7.701  -7.424  0.00  0.00     0.099 C 
ATOM     22  C   UNL d   1      10.861   8.237  -8.837  0.00  0.00     0.044 C 
ATOM     23  C   UNL d   1      10.561   7.098  -9.823  0.00  0.00     0.251 C 
BRANCH  21  24
ATOM     24  C   UNL d   1      11.354   8.832  -6.399  0.00  0.00     0.398 C 
ATOM     25  F   UNL d   1      10.264   9.587  -6.321  0.00  0.00    -0.170 F 
ATOM     26  F   UNL d   1      11.624   8.350  -5.184  0.00  0.00    -0.170 F 
ATOM     27  F   UNL d   1      12.378   9.588  -6.775  0.00  0.00    -0.170 F 
ENDBRANCH  21  24
ENDBRANCH  17  18
ENDBRANCH  16  17
ENDBRANCH  12  16
ENDBRANCH   5  10
TORSDOF 5
