REMARK  2 active torsions:
REMARK  status: ('A' for Active; 'I' for Inactive)
REMARK    1  A    between atoms: C_2  and  C_3 
REMARK    2  A    between atoms: C_3  and  C_5 
ROOT
ATOM      1  C   UNL d   1      11.311   8.693  -6.371  0.00  0.00     0.012 A 
ATOM      2  C   UNL d   1       9.967   8.282  -6.501  0.00  0.00     0.001 A 
ATOM      3  C   UNL d   1       9.451   7.932  -7.761  0.00  0.00     0.029 A 
ATOM      4  C   UNL d   1      10.271   7.976  -8.903  0.00  0.00     0.156 A 
ATOM      5  O   UNL d   1       9.726   7.655 -10.116  0.00  0.00    -0.188 OA
ATOM      6  C   UNL d   1      11.622   8.368  -8.781  0.00  0.00     0.156 A 
ATOM      7  O   UNL d   1      12.456   8.387  -9.864  0.00  0.00    -0.188 OA
ATOM      8  C   UNL d   1      12.127   8.744  -7.522  0.00  0.00     0.028 A 
ENDROOT
BRANCH   1   9
ATOM      9  C   UNL d   1      11.876   9.068  -5.007  0.00  0.00     0.214 C 
ATOM     10  O   UNL d   1      11.048   9.992  -4.345  0.00  0.00    -0.216 OA
BRANCH   9  11
ATOM     11  C   UNL d   1      12.017   7.845  -4.076  0.00  0.00     0.375 C 
ATOM     12  N   UNL d   1      12.656   8.177  -2.784  0.00  0.00     0.621 N 
ENDBRANCH   9  11
ENDBRANCH   1   9
TORSDOF 2
