REMARK  2 active torsions:
REMARK  status: ('A' for Active; 'I' for Inactive)
REMARK    1  A    between atoms: O_2  and  C_3 
REMARK    2  A    between atoms: C_8  and  O_9 
ROOT
ATOM      1  C   UNL d   1       5.723  -0.229 -16.823  0.00  0.00     0.116 A 
ATOM      2  C   UNL d   1       6.280  -0.107 -18.113  0.00  0.00     0.026 A 
ATOM      3  C   UNL d   1       7.339   0.785 -18.347  0.00  0.00    -0.002 A 
ATOM      4  C   UNL d   1       7.830   1.591 -17.305  0.00  0.00    -0.018 A 
ATOM      5  C   UNL d   1       7.265   1.516 -16.003  0.00  0.00     0.020 A 
ATOM      6  C   UNL d   1       6.240   0.560 -15.768  0.00  0.00     0.116 A 
ATOM      7  C   UNL d   1       7.753   2.480 -14.979  0.00  0.00    -0.001 A 
ATOM      8  C   UNL d   1       6.939   2.979 -13.930  0.00  0.00     0.000 A 
ATOM      9  C   UNL d   1       7.373   3.988 -13.052  0.00  0.00     0.006 A 
ATOM     10  C   UNL d   1       8.620   4.599 -13.227  0.00  0.00     0.030 A 
ATOM     11 BR   UNL d   1       9.132   5.991 -12.031  0.00  0.00    -0.050 Br
ATOM     12  C   UNL d   1       9.452   4.200 -14.294  0.00  0.00    -0.016 A 
ATOM     13  C   UNL d   1       9.011   3.122 -15.105  0.00  0.00     0.005 A 
ATOM     14  C   UNL d   1       9.859   2.613 -16.283  0.00  0.00     0.246 C 
ATOM     15  C   UNL d   1       9.015   2.508 -17.559  0.00  0.00     0.064 C 
ATOM     16  N   UNL d   1      11.129   3.281 -16.557  0.00  0.00     0.142 N 
ATOM     17  C   UNL d   1      12.233   2.602 -15.889  0.00  0.00     0.286 C 
ATOM     18  C   UNL d   1      11.072   4.693 -16.215  0.00  0.00     0.255 C 
ATOM     19  C   UNL d   1      10.751   4.865 -14.721  0.00  0.00     0.062 C 
ENDROOT
BRANCH   1  20
ATOM     20  O   UNL d   1       4.696  -1.094 -16.511  0.00  0.00    -0.326 OA
ATOM     21  C   UNL d   1       3.994  -1.724 -17.572  0.00  0.00     0.181 C 
ENDBRANCH   1  20
BRANCH   6  22
ATOM     22  O   UNL d   1       5.688   0.393 -14.524  0.00  0.00    -0.326 OA
ATOM     23  C   UNL d   1       6.497  -0.367 -13.644  0.00  0.00     0.181 C 
ENDBRANCH   6  22
TORSDOF 2
