REMARK  4 active torsions:
REMARK  status: ('A' for Active; 'I' for Inactive)
REMARK    1  A    between atoms: O_2  and  C_3 
REMARK       I    between atoms: C_3  and  N_5 
REMARK    2  A    between atoms: N_5  and  C_6 
REMARK    3  A    between atoms: C_10  and  C_11 
REMARK    4  A    between atoms: C_11  and  C_13 
ROOT
ATOM      1  C   UNL d   1       8.913   5.464 -11.024  0.00  0.00     0.755 A 
ATOM      2  N   UNL d   1       9.858   6.396 -10.934  0.00  0.00    -0.058 NA
ATOM      3  C   UNL d   1       9.812   6.741  -9.592  0.00  0.00     0.118 A 
ATOM      4  C   UNL d   1      10.551   7.691  -8.841  0.00  0.00     0.025 A 
ATOM      5  C   UNL d   1      10.307   7.862  -7.457  0.00  0.00     0.041 A 
ATOM      6  C   UNL d   1       9.284   7.109  -6.836  0.00  0.00     0.005 A 
ATOM      7  C   UNL d   1       8.572   6.138  -7.553  0.00  0.00     0.021 A 
ATOM      8  C   UNL d   1       8.827   5.971  -8.913  0.00  0.00     0.118 A 
ATOM      9  N   UNL d   1       8.272   5.164  -9.888  0.00  0.00    -0.058 NA
ENDROOT
BRANCH   5  10
ATOM     10  C   UNL d   1      11.083   8.855  -6.663  0.00  0.00     0.196 C 
ATOM     11  O   UNL d   1      11.453   9.918  -7.156  0.00  0.00    -0.287 OA
BRANCH  10  12
ATOM     12  C   UNL d   1      11.396   8.523  -5.244  0.00  0.00     0.039 A 
ATOM     13  C   UNL d   1      11.557   7.185  -4.809  0.00  0.00     0.003 A 
ATOM     14  C   UNL d   1      11.866   6.901  -3.467  0.00  0.00     0.000 A 
ATOM     15  C   UNL d   1      12.030   7.948  -2.546  0.00  0.00     0.000 A 
ATOM     16  C   UNL d   1      11.875   9.281  -2.967  0.00  0.00     0.000 A 
ATOM     17  C   UNL d   1      11.559   9.569  -4.309  0.00  0.00     0.003 A 
ENDBRANCH  10  12
ENDBRANCH   5  10
BRANCH   1  18
ATOM     18  N   UNL d   1       8.564   4.788 -12.216  0.00  0.00     0.005 NA
ATOM     19  C   UNL d   1       9.345   4.642 -13.353  0.00  0.00     0.403 C 
ATOM     20  O   UNL d   1      10.433   5.169 -13.599  0.00  0.00    -0.235 OA
BRANCH  19  21
ATOM     21  O   UNL d   1       8.716   3.791 -14.173  0.00  0.00    -0.280 OA
ATOM     22  C   UNL d   1       9.346   3.394 -15.380  0.00  0.00     0.186 C 
ENDBRANCH  19  21
ENDBRANCH   1  18
TORSDOF 4
