REMARK  1 active torsions:
REMARK  status: ('A' for Active; 'I' for Inactive)
REMARK    1  A    between atoms: C_3  and  C_4 
ROOT
ATOM      1  O   UNL d   1      10.716   9.908  -6.253  0.00  0.00    -0.289 OA
ATOM      2  C   UNL d   1      10.936   8.728  -6.536  0.00  0.00     0.202 A 
ATOM      3  C   UNL d   1      11.415   7.692  -5.646  0.00  0.00     0.061 A 
ATOM      4  C   UNL d   1      11.525   6.617  -6.428  0.00  0.00     0.119 A 
ATOM      5  O   UNL d   1      11.257   6.793  -7.753  0.00  0.00    -0.324 OA
ATOM      6  C   UNL d   1      10.874   8.132  -7.934  0.00  0.00     0.187 A 
ATOM      7  C   UNL d   1      11.851   8.850  -8.846  0.00  0.00     0.040 C 
ATOM      8  C   UNL d   1      11.739   8.328 -10.256  0.00  0.00     0.041 C 
ATOM      9  C   UNL d   1      10.277   8.318 -10.748  0.00  0.00     0.290 C 
ATOM     10  N   UNL d   1       9.461   7.536  -9.845  0.00  0.00     0.342 N 
ATOM     11  C   UNL d   1       9.464   8.147  -8.521  0.00  0.00     0.325 C 
ENDROOT
BRANCH   3  12
ATOM     12  C   UNL d   1      11.828   7.830  -4.242  0.00  0.00     0.005 A 
ATOM     13  C   UNL d   1      11.898   9.084  -3.608  0.00  0.00     0.000 A 
ATOM     14  C   UNL d   1      12.258   9.144  -2.250  0.00  0.00     0.000 A 
ATOM     15  C   UNL d   1      12.621   7.978  -1.579  0.00  0.00     0.000 A 
ATOM     16  C   UNL d   1      12.580   6.737  -2.210  0.00  0.00     0.000 A 
ATOM     17  C   UNL d   1      12.200   6.665  -3.552  0.00  0.00     0.000 A 
ENDBRANCH   3  12
TORSDOF 1
