REMARK  7 active torsions:
REMARK  status: ('A' for Active; 'I' for Inactive)
REMARK    1  A    between atoms: C_2  and  C_4 
REMARK    2  A    between atoms: C_4  and  C_5 
REMARK       I    between atoms: C_5  and  N_7 
REMARK    3  A    between atoms: N_7  and  C_8 
REMARK    4  A    between atoms: C_11  and  C_12 
REMARK    5  A    between atoms: C_12  and  C_13 
REMARK    6  A    between atoms: C_13  and  N_14 
REMARK    7  A    between atoms: N_17  and  C_18 
ROOT
ATOM      1  N   UNL d   1       8.127   1.684 -14.492  0.00  0.00     0.141 N 
ATOM      2  C   UNL d   1       8.390   0.279 -14.822  0.00  0.00     0.274 C 
ATOM      3  C   UNL d   1       8.807   0.112 -16.302  0.00  0.00     0.137 C 
ATOM      4  N   UNL d   1       7.833   0.763 -17.176  0.00  0.00    -0.343 N 
ATOM      5  C   UNL d   1       7.373   2.094 -16.800  0.00  0.00     0.137 C 
ATOM      6  C   UNL d   1       6.985   2.127 -15.303  0.00  0.00     0.274 C 
ENDROOT
BRANCH   1   7
ATOM      7  C   UNL d   1       9.350   2.471 -14.656  0.00  0.00     0.250 C 
BRANCH   7   8
ATOM      8  C   UNL d   1       9.137   3.988 -14.512  0.00  0.00     0.035 C 
BRANCH   8   9
ATOM      9  C   UNL d   1       8.726   4.430 -13.109  0.00  0.00     0.002 C 
ATOM     10  C   UNL d   1       9.745   3.925 -12.088  0.00  0.00     0.002 C 
ATOM     11  C   UNL d   1       9.446   4.437 -10.681  0.00  0.00     0.024 C 
ATOM     12  C   UNL d   1       9.367   5.954 -10.662  0.00  0.00     0.106 C 
ATOM     13  C   UNL d   1       8.329   6.479 -11.657  0.00  0.00     0.024 C 
ATOM     14  C   UNL d   1       8.637   5.964 -13.068  0.00  0.00     0.002 C 
BRANCH  12  15
ATOM     15  N   UNL d   1       9.027   6.370  -9.320  0.00  0.00    -0.240 NA
ATOM     16  C   UNL d   1       9.885   6.953  -8.481  0.00  0.00     0.251 C 
ATOM     17  O   UNL d   1      11.057   7.153  -8.778  0.00  0.00    -0.271 OA
BRANCH  16  18
ATOM     18  C   UNL d   1       9.344   7.405  -7.122  0.00  0.00     0.090 C 
BRANCH  18  19
ATOM     19  C   UNL d   1      10.417   7.925  -6.133  0.00  0.00     0.009 C 
ATOM     20  C   UNL d   1      11.210   9.149  -6.644  0.00  0.00     0.001 C 
ATOM     21  C   UNL d   1      11.339   6.799  -5.639  0.00  0.00     0.001 C 
ENDBRANCH  18  19
ENDBRANCH  16  18
ENDBRANCH  12  15
ENDBRANCH   8   9
ENDBRANCH   7   8
ENDBRANCH   1   7
BRANCH   4  22
ATOM     22  C   UNL d   1       7.229   0.086 -18.225  0.00  0.00     0.081 A 
ATOM     23  C   UNL d   1       7.161   0.634 -19.522  0.00  0.00     0.135 A 
ATOM     24  C   UNL d   1       6.599  -0.050 -20.574  0.00  0.00     0.121 A 
ATOM     25  O   UNL d   1       7.628   1.836 -19.966  0.00  0.00    -0.298 OA
ATOM     26  C   UNL d   1       6.044  -1.333 -20.410  0.00  0.00     0.026 A 
ATOM     27  O   UNL d   1       6.694   0.684 -21.710  0.00  0.00    -0.299 OA
ATOM     28  C   UNL d   1       6.077  -1.908 -19.118  0.00  0.00     0.004 A 
ATOM     29  C   UNL d   1       6.663  -1.198 -18.038  0.00  0.00     0.019 A 
ATOM     30  C   UNL d   1       7.345   1.872 -21.343  0.00  0.00     0.304 A 
ENDBRANCH   4  22
TORSDOF 7
