REMARK  6 active torsions:
REMARK  status: ('A' for Active; 'I' for Inactive)
REMARK    1  A    between atoms: C_2  and  C_3 
REMARK    2  A    between atoms: C_2  and  C_19 
REMARK    3  A    between atoms: C_3  and  C_4 
REMARK    4  A    between atoms: C_4  and  C_5 
REMARK    5  A    between atoms: C_5  and  N_6 
REMARK    6  A    between atoms: N_9  and  C_10 
ROOT
ATOM      1  N   UNL d   1       8.551   5.124 -12.514  0.00  0.00     0.141 N 
ATOM      2  C   UNL d   1       9.336   4.072 -13.167  0.00  0.00     0.274 C 
ATOM      3  C   UNL d   1       8.611   3.619 -14.437  0.00  0.00     0.137 C 
ATOM      4  N   UNL d   1       7.257   3.179 -14.097  0.00  0.00    -0.344 N 
ATOM      5  C   UNL d   1       6.457   4.119 -13.317  0.00  0.00     0.137 C 
ATOM      6  C   UNL d   1       7.252   4.573 -12.094  0.00  0.00     0.274 C 
ENDROOT
BRANCH   1   7
ATOM      7  C   UNL d   1       9.259   5.531 -11.308  0.00  0.00     0.251 C 
BRANCH   7   8
ATOM      8  C   UNL d   1       9.417   7.055 -11.272  0.00  0.00     0.043 C 
BRANCH   8   9
ATOM      9  C   UNL d   1      10.275   7.583 -10.109  0.00  0.00     0.071 C 
BRANCH   9  10
ATOM     10  C   UNL d   1       9.985   6.994  -8.705  0.00  0.00     0.173 C 
ATOM     11  O   UNL d   1       9.393   5.941  -8.580  0.00  0.00    -0.291 OA
BRANCH  10  12
ATOM     12  C   UNL d   1      10.559   7.727  -7.527  0.00  0.00     0.035 A 
ATOM     13  C   UNL d   1      11.028   9.061  -7.593  0.00  0.00     0.005 A 
ATOM     14  C   UNL d   1      11.503   9.694  -6.430  0.00  0.00     0.030 A 
ATOM     15  C   UNL d   1      11.528   8.996  -5.204  0.00  0.00     0.140 A 
ATOM     16  C   UNL d   1      11.079   7.662  -5.137  0.00  0.00     0.030 A 
ATOM     17  F   UNL d   1      11.995   9.591  -4.083  0.00  0.00    -0.204 F 
ATOM     18  C   UNL d   1      10.592   7.040  -6.297  0.00  0.00     0.005 A 
ENDBRANCH  10  12
ENDBRANCH   9  10
ENDBRANCH   8   9
ENDBRANCH   7   8
ENDBRANCH   1   7
BRANCH   4  19
ATOM     19  C   UNL d   1       6.767   1.907 -14.458  0.00  0.00     0.056 A 
ATOM     20  C   UNL d   1       5.806   1.268 -13.651  0.00  0.00     0.018 A 
ATOM     21  C   UNL d   1       5.262   0.033 -14.038  0.00  0.00     0.013 A 
ATOM     22  C   UNL d   1       5.697  -0.584 -15.220  0.00  0.00     0.058 A 
ATOM     23  C   UNL d   1       6.681   0.028 -16.015  0.00  0.00     0.013 A 
ATOM     24 CL   UNL d   1       5.019  -2.089 -15.694  0.00  0.00    -0.082 Cl
ATOM     25  C   UNL d   1       7.211   1.278 -15.639  0.00  0.00     0.018 A 
ENDBRANCH   4  19
TORSDOF 6
