REMARK  6 active torsions:
REMARK  status: ('A' for Active; 'I' for Inactive)
REMARK    1  A    between atoms: N_13  and  C_14 
REMARK    2  A    between atoms: C_14  and  C_15 
REMARK    3  A    between atoms: C_15  and  C_16 
REMARK    4  A    between atoms: C_16  and  S_17 
REMARK    5  A    between atoms: S_17  and  C_18 
REMARK    6  A    between atoms: C_21  and  C_22 
ROOT
ATOM      1  C   UNL d   1      11.809   4.854 -16.539  0.00  0.00     0.251 C 
ENDROOT
BRANCH   1   2
ATOM      2  N   UNL d   1      11.097   4.131 -15.487  0.00  0.00     0.138 N 
ATOM      3  C   UNL d   1      10.139   5.050 -14.868  0.00  0.00     0.255 C 
ATOM      4  C   UNL d   1       9.557   4.533 -13.546  0.00  0.00     0.061 C 
ATOM      5  C   UNL d   1       8.400   3.575 -13.741  0.00  0.00    -0.022 A 
ATOM      6  C   UNL d   1       8.583   2.354 -14.440  0.00  0.00    -0.004 A 
ATOM      7  C   UNL d   1       7.138   3.908 -13.191  0.00  0.00    -0.002 A 
ATOM      8  C   UNL d   1       7.493   1.456 -14.573  0.00  0.00     0.102 A 
ATOM      9  C   UNL d   1       9.940   1.975 -15.010  0.00  0.00     0.063 C 
ATOM     10  N   UNL d   1       7.367   0.220 -15.182  0.00  0.00    -0.224 NA
ATOM     11  C   UNL d   1       6.258   1.809 -13.986  0.00  0.00     0.119 A 
ATOM     12  C   UNL d   1       6.096  -0.124 -14.928  0.00  0.00     0.159 A 
ATOM     13  C   UNL d   1       5.400  -1.361 -15.395  0.00  0.00     0.080 C 
ATOM     14  O   UNL d   1       5.373   0.769 -14.183  0.00  0.00    -0.292 OA
ATOM     15  C   UNL d   1       6.052   3.016 -13.306  0.00  0.00     0.026 A 
ATOM     16  C   UNL d   1      10.440   2.960 -16.072  0.00  0.00     0.255 C 
ENDBRANCH   1   2
BRANCH   1  17
ATOM     17  C   UNL d   1      13.188   4.227 -16.836  0.00  0.00     0.047 C 
BRANCH  17  18
ATOM     18  C   UNL d   1      13.890   4.869 -18.032  0.00  0.00     0.067 C 
BRANCH  18  19
ATOM     19  S   UNL d   1      14.112   6.654 -17.801  0.00  0.00    -0.075 SA
BRANCH  19  20
ATOM     20  C   UNL d   1      15.862   6.697 -17.709  0.00  0.00     0.193 A 
ATOM     21  N   UNL d   1      16.612   7.474 -18.514  0.00  0.00    -0.287 N 
ATOM     22  C   UNL d   1      17.861   7.189 -18.088  0.00  0.00     0.191 A 
ATOM     23  C   UNL d   1      16.168   8.367 -19.573  0.00  0.00     0.134 C 
ATOM     24  N   UNL d   1      17.878   6.312 -17.086  0.00  0.00    -0.126 NA
ATOM     25  N   UNL d   1      16.572   5.995 -16.829  0.00  0.00    -0.122 NA
BRANCH  22  26
ATOM     26  C   UNL d   1      19.098   7.718 -18.652  0.00  0.00     0.151 A 
ATOM     27  C   UNL d   1      19.595   8.985 -18.840  0.00  0.00     0.087 A 
ATOM     28  N   UNL d   1      20.841   8.865 -19.434  0.00  0.00    -0.221 NA
ATOM     29  C   UNL d   1      19.038  10.331 -18.499  0.00  0.00     0.054 C 
ATOM     30  C   UNL d   1      21.040   7.558 -19.573  0.00  0.00     0.225 A 
ATOM     31  O   UNL d   1      20.013   6.809 -19.105  0.00  0.00    -0.282 OA
ENDBRANCH  22  26
ENDBRANCH  19  20
ENDBRANCH  18  19
ENDBRANCH  17  18
ENDBRANCH   1  17
TORSDOF 6
