REMARK  4 active torsions:
REMARK  status: ('A' for Active; 'I' for Inactive)
REMARK       I    between atoms: N_9  and  C_10 
REMARK    1  A    between atoms: C_10  and  C_12 
REMARK    2  A    between atoms: C_12  and  N_13 
REMARK    3  A    between atoms: N_16  and  C_17 
REMARK    4  A    between atoms: C_17  and  C_18 
ROOT
ATOM      1  N   UNL d   1       9.109   4.734 -12.162  0.00  0.00     0.151 N 
ATOM      2  C   UNL d   1       9.471   6.069 -11.755  0.00  0.00     0.286 C 
ATOM      3  C   UNL d   1       9.779   6.210 -10.303  0.00  0.00     0.286 C 
ATOM      4  N   UNL d   1       8.708   5.827  -9.419  0.00  0.00     0.146 N 
ATOM      5  C   UNL d   1       8.328   4.462  -9.827  0.00  0.00     0.286 C 
ATOM      6  C   UNL d   1       7.954   4.440 -11.342  0.00  0.00     0.286 C 
ENDROOT
BRANCH   1   7
ATOM      7  C   UNL d   1       8.834   4.700 -13.611  0.00  0.00     0.337 C 
BRANCH   7   8
ATOM      8  C   UNL d   1      10.112   4.545 -14.504  0.00  0.00     0.271 C 
ATOM      9  N   UNL d   1      10.202   3.472 -15.341  0.00  0.00    -0.299 N 
ATOM     10  C   UNL d   1      11.198   3.289 -16.337  0.00  0.00     0.058 A 
ATOM     11  C   UNL d   1       9.180   2.407 -15.435  0.00  0.00     0.092 C 
ATOM     12  C   UNL d   1      10.820   2.230 -17.172  0.00  0.00    -0.005 A 
ATOM     13  C   UNL d   1      12.410   3.978 -16.569  0.00  0.00     0.017 A 
ATOM     14  C   UNL d   1       9.505   1.641 -16.743  0.00  0.00     0.045 C 
ATOM     15  C   UNL d   1      11.637   1.843 -18.248  0.00  0.00    -0.003 A 
ATOM     16  C   UNL d   1       8.413   1.830 -17.814  0.00  0.00     0.007 C 
ATOM     17  C   UNL d   1      12.837   2.533 -18.496  0.00  0.00    -0.000 A 
ATOM     18  C   UNL d   1      13.218   3.597 -17.654  0.00  0.00     0.002 A 
ATOM     19  C   UNL d   1       9.271   1.464 -14.209  0.00  0.00     0.025 C 
ATOM     20  O   UNL d   1      10.990   5.388 -14.437  0.00  0.00    -0.270 OA
ENDBRANCH   7   8
ENDBRANCH   1   7
BRANCH   4  21
ATOM     21  C   UNL d   1       9.111   5.837  -8.026  0.00  0.00     0.277 C 
BRANCH  21  22
ATOM     22  C   UNL d   1       9.916   7.053  -7.550  0.00  0.00     0.011 C 
ATOM     23  C   UNL d   1       9.407   7.820  -6.481  0.00  0.00    -0.002 C 
ATOM     24  C   UNL d   1      10.099   8.980  -6.051  0.00  0.00     0.011 C 
ATOM     25  C   UNL d   1      11.224   9.400  -6.745  0.00  0.00     0.058 C 
ATOM     26  C   UNL d   1      11.753   8.648  -7.800  0.00  0.00     0.011 C 
ATOM     27 CL   UNL d   1      11.888  10.865  -6.202  0.00  0.00    -0.082 Cl
ATOM     28  C   UNL d   1      11.143   7.446  -8.144  0.00  0.00    -0.002 C 
ENDBRANCH  21  22
ENDBRANCH   4  21
TORSDOF 4
