REMARK  5 active torsions:
REMARK  status: ('A' for Active; 'I' for Inactive)
REMARK    1  A    between atoms: C_2  and  C_4 
REMARK    2  A    between atoms: C_4  and  S_5 
REMARK    3  A    between atoms: S_5  and  N_8 
REMARK    4  A    between atoms: C_12  and  C_13 
REMARK    5  A    between atoms: C_22  and  N_23 
ROOT
ATOM      1  C   UNL d   1       7.959   2.685 -14.769  0.00  0.00     0.000 A 
ATOM      2  C   UNL d   1       6.929   3.227 -13.975  0.00  0.00     0.001 A 
ATOM      3  C   UNL d   1       7.233   4.008 -12.844  0.00  0.00     0.010 A 
ATOM      4  C   UNL d   1       8.579   4.255 -12.503  0.00  0.00     0.068 A 
ATOM      5  C   UNL d   1       8.902   5.013 -11.306  0.00  0.00     0.101 C 
ATOM      6  N   UNL d   1       9.164   5.610 -10.351  0.00  0.00    -0.191 NA
ATOM      7  C   UNL d   1       9.611   3.719 -13.295  0.00  0.00     0.010 A 
ATOM      8  C   UNL d   1       9.304   2.944 -14.427  0.00  0.00     0.001 A 
ENDROOT
BRANCH   1   9
ATOM      9  C   UNL d   1       7.648   1.895 -15.964  0.00  0.00     0.006 A 
ATOM     10  C   UNL d   1       6.710   0.833 -15.918  0.00  0.00     0.037 A 
ATOM     11  C   UNL d   1       5.880   0.213 -14.921  0.00  0.00     0.023 A 
ATOM     12  C   UNL d   1       6.483   0.177 -17.161  0.00  0.00     0.158 A 
ATOM     13  C   UNL d   1       5.187  -0.789 -15.561  0.00  0.00     0.093 A 
ATOM     14  N   UNL d   1       5.549  -0.820 -16.903  0.00  0.00    -0.218 N 
ATOM     15  N   UNL d   1       7.075   0.467 -18.353  0.00  0.00    -0.211 NA
ATOM     16  C   UNL d   1       7.965   1.478 -18.357  0.00  0.00     0.142 A 
ATOM     17  C   UNL d   1       8.266   2.217 -17.192  0.00  0.00     0.037 A 
BRANCH  14  18
ATOM     18  S   UNL d   1       4.898  -1.937 -18.037  0.00  0.00     0.252 S 
ATOM     19  O   UNL d   1       5.495  -1.681 -19.351  0.00  0.00    -0.204 OA
ATOM     20  O   UNL d   1       3.439  -1.806 -17.841  0.00  0.00    -0.204 OA
BRANCH  18  21
ATOM     21  C   UNL d   1       5.489  -3.557 -17.340  0.00  0.00     0.145 C 
BRANCH  21  22
ATOM     22  C   UNL d   1       6.651  -4.223 -18.122  0.00  0.00     0.018 C 
ATOM     23  C   UNL d   1       6.307  -4.493 -19.607  0.00  0.00     0.001 C 
ATOM     24  C   UNL d   1       7.086  -5.541 -17.458  0.00  0.00     0.001 C 
ENDBRANCH  21  22
ENDBRANCH  18  21
ENDBRANCH  14  18
BRANCH  16  25
ATOM     25  N   UNL d   1       8.545   1.800 -19.597  0.00  0.00    -0.330 N 
ATOM     26  C   UNL d   1       9.850   2.441 -19.719  0.00  0.00     0.138 C 
ATOM     27  C   UNL d   1       9.735   3.692 -20.611  0.00  0.00     0.274 C 
ATOM     28  N   UNL d   1       9.200   3.317 -21.924  0.00  0.00     0.143 N 
ATOM     29  C   UNL d   1       7.857   2.751 -21.761  0.00  0.00     0.274 C 
ATOM     30  C   UNL d   1       9.126   4.503 -22.765  0.00  0.00     0.286 C 
ATOM     31  C   UNL d   1       7.906   1.487 -20.879  0.00  0.00     0.138 C 
ENDBRANCH  16  25
ENDBRANCH   1   9
TORSDOF 5
