REMARK  1 active torsions:
REMARK  status: ('A' for Active; 'I' for Inactive)
REMARK    1  A    between atoms: C_5  and  C_6 
ROOT
ATOM      1  N   UNL d   1       9.879   7.636  -8.724  0.00  0.00    -0.100 NA
ATOM      2  C   UNL d   1      10.354   7.765  -7.419  0.00  0.00     0.072 A 
ATOM      3  C   UNL d   1      10.908   6.666  -6.742  0.00  0.00     0.014 A 
ATOM      4  C   UNL d   1      11.444   6.815  -5.443  0.00  0.00     0.009 A 
ATOM      5  C   UNL d   1      11.459   8.072  -4.799  0.00  0.00     0.090 A 
ATOM      6  C   UNL d   1      10.863   9.168  -5.481  0.00  0.00     0.138 A 
ATOM      7  O   UNL d   1      10.802  10.411  -4.936  0.00  0.00    -0.190 OA
ATOM      8  C   UNL d   1      10.311   9.004  -6.766  0.00  0.00     0.042 A 
ENDROOT
BRANCH   5   9
ATOM      9  C   UNL d   1      12.093   8.178  -3.424  0.00  0.00     0.213 C 
ATOM     10  O   UNL d   1      12.655   7.219  -2.894  0.00  0.00    -0.644 OA
ATOM     11  O   UNL d   1      12.004   9.396  -2.818  0.00  0.00    -0.644 OA
ENDBRANCH   5   9
TORSDOF 1
