REMARK  3 active torsions:
REMARK  status: ('A' for Active; 'I' for Inactive)
REMARK    1  A    between atoms: C_2  and  O_4 
REMARK    2  A    between atoms: O_4  and  C_5 
REMARK    3  A    between atoms: C_5  and  C_6 
ROOT
ATOM      1  C   UNL d   1       6.454  -0.760 -20.617  0.00  0.00     0.152 C 
ATOM      2  C   UNL d   1       5.109  -0.878 -19.817  0.00  0.00     0.035 C 
ATOM      3  C   UNL d   1       5.343  -0.400 -18.365  0.00  0.00     0.003 C 
ATOM      4  C   UNL d   1       6.772   0.142 -18.392  0.00  0.00     0.007 C 
ATOM      5  C   UNL d   1       7.556   0.288 -17.067  0.00  0.00     0.023 C 
ATOM      6  C   UNL d   1       6.815   1.068 -15.994  0.00  0.00    -0.015 C 
ATOM      7  C   UNL d   1       7.384   1.983 -15.186  0.00  0.00     0.050 C 
ATOM      8 CL   UNL d   1       6.364   2.779 -14.035  0.00  0.00    -0.083 Cl
ATOM      9  C   UNL d   1       8.819   2.274 -15.269  0.00  0.00    -0.010 C 
ATOM     10  C   UNL d   1       9.314   3.351 -14.612  0.00  0.00     0.034 C 
ATOM     11  C   UNL d   1      10.723   3.764 -14.677  0.00  0.00     0.172 C 
ATOM     12  O   UNL d   1      11.183   4.640 -13.945  0.00  0.00    -0.291 OA
ATOM     13  C   UNL d   1      11.606   3.135 -15.711  0.00  0.00     0.062 A 
ATOM     14  C   UNL d   1      11.183   3.302 -17.158  0.00  0.00     0.008 A 
ATOM     15  C   UNL d   1      11.053   1.960 -16.476  0.00  0.00     0.011 A 
ATOM     16  C   UNL d   1       9.711   1.327 -16.101  0.00  0.00     0.021 C 
ATOM     17  C   UNL d   1      10.016   0.086 -15.238  0.00  0.00     0.004 C 
ATOM     18  C   UNL d   1       8.930   0.938 -17.389  0.00  0.00     0.008 C 
ATOM     19  C   UNL d   1       9.717   0.098 -18.431  0.00  0.00     0.001 C 
ATOM     20  C   UNL d   1       8.888  -0.131 -19.707  0.00  0.00     0.003 C 
ATOM     21  C   UNL d   1       7.494  -0.751 -19.428  0.00  0.00     0.030 C 
ATOM     22  C   UNL d   1       7.712  -2.204 -18.878  0.00  0.00     0.003 C 
ENDROOT
BRANCH   1  23
ATOM     23  O   UNL d   1       6.405   0.535 -21.287  0.00  0.00    -0.300 OA
BRANCH  23  24
ATOM     24  C   UNL d   1       7.243   0.960 -22.290  0.00  0.00     0.273 C 
ATOM     25  C   UNL d   1       7.032   2.411 -22.667  0.00  0.00     0.106 C 
ATOM     26  O   UNL d   1       8.153   0.323 -22.824  0.00  0.00    -0.264 OA
ENDBRANCH  23  24
ENDBRANCH   1  23
BRANCH   1  27
ATOM     27  C   UNL d   1       6.639  -1.931 -21.634  0.00  0.00     0.176 C 
ATOM     28  C   UNL d   1       5.421  -2.482 -22.362  0.00  0.00     0.075 C 
ATOM     29  O   UNL d   1       7.748  -2.396 -21.908  0.00  0.00    -0.294 OA
ENDBRANCH   1  27
TORSDOF 3
