REMARK  8 active torsions:
REMARK  status: ('A' for Active; 'I' for Inactive)
REMARK    1  A    between atoms: C_2  and  C_3 
REMARK    2  A    between atoms: C_3  and  C_4 
REMARK    3  A    between atoms: C_4  and  C_5 
REMARK    4  A    between atoms: C_5  and  C_6 
REMARK    5  A    between atoms: C_6  and  C_7 
REMARK    6  A    between atoms: C_7  and  C_8 
REMARK    7  A    between atoms: C_8  and  N_9 
REMARK    8  A    between atoms: C_12  and  C_13 
ROOT
ATOM      1  N   UNL d   1       8.762   5.991 -10.512  0.00  0.00     0.137 N 
ATOM      2  C   UNL d   1       9.424   6.517 -11.695  0.00  0.00     0.251 C 
ATOM      3  C   UNL d   1       8.460   6.207 -12.831  0.00  0.00     0.042 C 
ATOM      4  C   UNL d   1       7.669   5.003 -12.333  0.00  0.00     0.058 C 
ATOM      5  C   UNL d   1       8.236   4.711 -10.938  0.00  0.00     0.255 C 
ENDROOT
BRANCH   1   6
ATOM      6  C   UNL d   1       9.638   5.869  -9.354  0.00  0.00     0.250 C 
BRANCH   6   7
ATOM      7  C   UNL d   1      10.224   7.224  -8.932  0.00  0.00     0.035 C 
BRANCH   7   8
ATOM      8  C   UNL d   1      11.027   7.152  -7.624  0.00  0.00     0.002 C 
BRANCH   8   9
ATOM      9  C   UNL d   1      10.258   7.701  -6.410  0.00  0.00     0.000 C 
BRANCH   9  10
ATOM     10  C   UNL d   1      11.180   8.008  -5.221  0.00  0.00     0.000 C 
BRANCH  10  11
ATOM     11  C   UNL d   1      11.613   6.754  -4.444  0.00  0.00     0.000 C 
BRANCH  11  12
ATOM     12  C   UNL d   1      12.545   7.068  -3.264  0.00  0.00     0.000 C 
ATOM     13  C   UNL d   1      11.880   7.888  -2.152  0.00  0.00     0.000 C 
ENDBRANCH  11  12
ENDBRANCH  10  11
ENDBRANCH   9  10
ENDBRANCH   8   9
ENDBRANCH   7   8
ENDBRANCH   6   7
ENDBRANCH   1   6
BRANCH   4  14
ATOM     14  C   UNL d   1       7.754   3.796 -13.253  0.00  0.00    -0.018 A 
ATOM     15  C   UNL d   1       9.018   3.304 -13.653  0.00  0.00     0.023 A 
ATOM     16  C   UNL d   1       9.116   2.169 -14.481  0.00  0.00     0.131 A 
ATOM     17  C   UNL d   1       7.945   1.518 -14.916  0.00  0.00     0.027 A 
ATOM     18  O   UNL d   1      10.339   1.695 -14.854  0.00  0.00    -0.190 OA
ATOM     19  C   UNL d   1       6.686   1.998 -14.510  0.00  0.00     0.002 A 
ATOM     20  C   UNL d   1       6.587   3.137 -13.688  0.00  0.00    -0.004 A 
ENDBRANCH   4  14
TORSDOF 8
