REMARK  4 active torsions:
REMARK  status: ('A' for Active; 'I' for Inactive)
REMARK    1  A    between atoms: O_2  and  C_3 
REMARK    2  A    between atoms: C_8  and  N_9 
REMARK    3  A    between atoms: N_12  and  C_13 
REMARK    4  A    between atoms: C_13  and  C_14 
ROOT
ATOM      1  N   UNL d   1       7.734   5.453 -11.658  0.00  0.00    -0.343 N 
ATOM      2  C   UNL d   1       8.183   6.730 -12.184  0.00  0.00     0.137 C 
ATOM      3  C   UNL d   1       9.587   7.008 -11.628  0.00  0.00     0.274 C 
ATOM      4  N   UNL d   1       9.599   7.010 -10.165  0.00  0.00     0.141 N 
ATOM      5  C   UNL d   1       9.221   5.673  -9.694  0.00  0.00     0.274 C 
ATOM      6  C   UNL d   1       7.835   5.306 -10.214  0.00  0.00     0.137 C 
ENDROOT
BRANCH   4   7
ATOM      7  C   UNL d   1      10.916   7.339  -9.659  0.00  0.00     0.251 C 
BRANCH   7   8
ATOM      8  C   UNL d   1      10.815   7.881  -8.208  0.00  0.00     0.045 C 
ATOM      9  C   UNL d   1      11.417   6.918  -7.175  0.00  0.00     0.029 C 
ATOM     10  C   UNL d   1      11.436   7.480  -5.767  0.00  0.00    -0.019 A 
ATOM     11  C   UNL d   1      11.465   8.861  -5.512  0.00  0.00     0.031 A 
ATOM     12  C   UNL d   1      11.487   6.617  -4.684  0.00  0.00    -0.004 A 
ATOM     13  C   UNL d   1      11.478   9.803  -6.639  0.00  0.00     0.173 C 
ATOM     14  C   UNL d   1      11.529   9.347  -4.179  0.00  0.00     0.003 A 
ATOM     15  C   UNL d   1      11.529   9.223  -8.073  0.00  0.00     0.071 C 
ATOM     16  O   UNL d   1      11.546  11.008  -6.449  0.00  0.00    -0.291 OA
ATOM     17  C   UNL d   1      11.604   8.448  -3.102  0.00  0.00     0.000 A 
ATOM     18  C   UNL d   1      11.569   7.070  -3.365  0.00  0.00    -0.000 A 
ENDBRANCH   7   8
ENDBRANCH   4   7
BRANCH   1  19
ATOM     19  C   UNL d   1       7.266   4.404 -12.469  0.00  0.00     0.079 A 
ATOM     20  C   UNL d   1       8.021   3.965 -13.579  0.00  0.00     0.110 A 
ATOM     21  C   UNL d   1       7.528   2.877 -14.361  0.00  0.00     0.026 A 
ATOM     22  C   UNL d   1       6.311   2.259 -14.035  0.00  0.00     0.002 A 
ATOM     23  C   UNL d   1       5.572   2.695 -12.924  0.00  0.00     0.002 A 
ATOM     24  C   UNL d   1       6.054   3.768 -12.136  0.00  0.00     0.019 A 
BRANCH  20  25
ATOM     25  O   UNL d   1       9.234   4.574 -13.815  0.00  0.00    -0.327 OA
ATOM     26  C   UNL d   1      10.007   4.166 -14.924  0.00  0.00     0.181 C 
ENDBRANCH  20  25
ENDBRANCH   1  19
TORSDOF 4
