REMARK  4 active torsions:
REMARK  status: ('A' for Active; 'I' for Inactive)
REMARK    1  A    between atoms: C_6  and  N_7 
REMARK       I    between atoms: N_7  and  C_8 
REMARK    2  A    between atoms: C_8  and  C_10 
REMARK    3  A    between atoms: C_10  and  N_11 
REMARK    4  A    between atoms: C_14  and  C_15 
ROOT
ATOM      1  N   UNL d   1      10.227   7.233  -8.970  0.00  0.00     0.147 N 
ATOM      2  C   UNL d   1       9.120   7.670  -8.112  0.00  0.00     0.251 C 
ATOM      3  C   UNL d   1       9.533   7.685  -6.639  0.00  0.00     0.041 C 
ATOM      4  C   UNL d   1      10.795   8.543  -6.410  0.00  0.00     0.044 C 
ATOM      5  C   UNL d   1      11.885   8.148  -7.415  0.00  0.00     0.041 C 
ATOM      6  C   UNL d   1      11.360   8.156  -8.853  0.00  0.00     0.251 C 
ENDROOT
BRANCH   1   7
ATOM      7  C   UNL d   1       9.767   7.169 -10.371  0.00  0.00     0.339 C 
BRANCH   7   8
ATOM      8  C   UNL d   1       9.108   5.849 -10.793  0.00  0.00     0.290 C 
ATOM      9  N   UNL d   1       8.161   5.956 -11.729  0.00  0.00    -0.210 NA
ATOM     10  O   UNL d   1       9.458   4.774 -10.307  0.00  0.00    -0.268 OA
BRANCH   9  11
ATOM     11  C   UNL d   1       7.562   4.894 -12.449  0.00  0.00     0.084 A 
ATOM     12  C   UNL d   1       6.157   4.816 -12.459  0.00  0.00     0.019 A 
ATOM     13  C   UNL d   1       5.518   3.819 -13.219  0.00  0.00     0.001 A 
ATOM     14  C   UNL d   1       6.280   2.924 -13.993  0.00  0.00    -0.004 A 
ATOM     15  C   UNL d   1       7.682   3.023 -14.031  0.00  0.00    -0.020 A 
ATOM     16  C   UNL d   1       8.487   2.050 -14.874  0.00  0.00     0.031 C 
ATOM     17  C   UNL d   1       8.328   4.006 -13.244  0.00  0.00     0.015 A 
ENDBRANCH   9  11
ENDBRANCH   7   8
ENDBRANCH   1   7
BRANCH   4  18
ATOM     18  C   UNL d   1      11.299   8.438  -4.973  0.00  0.00     0.059 A 
ATOM     19  N   UNL d   1      11.605   7.196  -4.537  0.00  0.00    -0.248 NA
ATOM     20  C   UNL d   1      12.040   7.042  -3.270  0.00  0.00     0.099 A 
ATOM     21  C   UNL d   1      12.199   8.123  -2.378  0.00  0.00     0.021 A 
ATOM     22  C   UNL d   1      11.882   9.414  -2.839  0.00  0.00     0.003 A 
ATOM     23  C   UNL d   1      11.424   9.583  -4.158  0.00  0.00     0.015 A 
ENDBRANCH   4  18
TORSDOF 4
