REMARK  7 active torsions:
REMARK  status: ('A' for Active; 'I' for Inactive)
REMARK    1  A    between atoms: O_2  and  C_3 
REMARK    2  A    between atoms: C_7  and  C_8 
REMARK    3  A    between atoms: C_8  and  C_9 
REMARK    4  A    between atoms: C_9  and  C_10 
REMARK    5  A    between atoms: C_10  and  C_11 
REMARK    6  A    between atoms: C_11  and  N_12 
REMARK    7  A    between atoms: N_15  and  C_16 
ROOT
ATOM      1  N   UNL d   1       8.795   5.271 -12.162  0.00  0.00     0.141 N 
ATOM      2  C   UNL d   1       9.447   4.319 -13.068  0.00  0.00     0.274 C 
ATOM      3  C   UNL d   1       8.515   3.992 -14.252  0.00  0.00     0.137 C 
ATOM      4  N   UNL d   1       7.223   3.487 -13.780  0.00  0.00    -0.344 N 
ATOM      5  C   UNL d   1       6.588   4.367 -12.791  0.00  0.00     0.137 C 
ATOM      6  C   UNL d   1       7.562   4.668 -11.660  0.00  0.00     0.274 C 
ENDROOT
BRANCH   1   7
ATOM      7  C   UNL d   1       9.724   5.572 -11.063  0.00  0.00     0.250 C 
BRANCH   7   8
ATOM      8  C   UNL d   1       9.197   6.611 -10.071  0.00  0.00     0.036 C 
BRANCH   8   9
ATOM      9  C   UNL d   1      10.105   6.803  -8.859  0.00  0.00     0.007 C 
BRANCH   9  10
ATOM     10  C   UNL d   1       9.456   7.767  -7.853  0.00  0.00     0.026 C 
BRANCH  10  11
ATOM     11  C   UNL d   1      10.415   8.131  -6.726  0.00  0.00    -0.020 A 
ATOM     12  C   UNL d   1      11.123   9.337  -6.834  0.00  0.00    -0.004 A 
ATOM     13  C   UNL d   1      12.005   9.718  -5.816  0.00  0.00     0.002 A 
ATOM     14  C   UNL d   1      12.183   8.900  -4.679  0.00  0.00     0.024 A 
ATOM     15  C   UNL d   1      11.481   7.656  -4.579  0.00  0.00     0.094 A 
ATOM     16  C   UNL d   1      10.608   7.291  -5.616  0.00  0.00     0.020 A 
BRANCH  15  17
ATOM     17  O   UNL d   1      11.591   6.790  -3.513  0.00  0.00    -0.328 OA
ATOM     18  C   UNL d   1      12.382   7.209  -2.419  0.00  0.00     0.181 C 
ENDBRANCH  15  17
ENDBRANCH  10  11
ENDBRANCH   9  10
ENDBRANCH   8   9
ENDBRANCH   7   8
ENDBRANCH   1   7
BRANCH   4  19
ATOM     19  C   UNL d   1       6.673   2.267 -14.200  0.00  0.00     0.056 A 
ATOM     20  C   UNL d   1       5.722   1.570 -13.407  0.00  0.00     0.018 A 
ATOM     21  C   UNL d   1       5.134   0.370 -13.860  0.00  0.00     0.013 A 
ATOM     22  C   UNL d   1       5.500  -0.169 -15.100  0.00  0.00     0.058 A 
ATOM     23  C   UNL d   1       6.454   0.481 -15.895  0.00  0.00     0.013 A 
ATOM     24 CL   UNL d   1       4.751  -1.609 -15.663  0.00  0.00    -0.082 Cl
ATOM     25  C   UNL d   1       7.037   1.695 -15.449  0.00  0.00     0.018 A 
ENDBRANCH   4  19
TORSDOF 7
