REMARK  8 active torsions:
REMARK  status: ('A' for Active; 'I' for Inactive)
REMARK       I    between atoms: C_2  and  N_3 
REMARK    1  A    between atoms: C_2  and  C_22 
REMARK    2  A    between atoms: N_3  and  C_4 
REMARK    3  A    between atoms: C_4  and  C_5 
REMARK    4  A    between atoms: C_5  and  C_6 
REMARK    5  A    between atoms: C_6  and  C_7 
REMARK    6  A    between atoms: C_7  and  N_8 
REMARK    7  A    between atoms: N_11  and  C_12 
REMARK    8  A    between atoms: C_25  and  C_26 
ROOT
ATOM      1  C   UNL d   1       7.042   3.604 -12.605  0.00  0.00     0.029 C 
ENDROOT
BRANCH   1   2
ATOM      2  C   UNL d   1       6.991   5.130 -12.605  0.00  0.00     0.129 C 
BRANCH   2   3
ATOM      3  N   UNL d   1       7.689   5.674 -11.442  0.00  0.00    -0.234 NA
ATOM      4  C   UNL d   1       9.015   5.849 -11.350  0.00  0.00     0.275 C 
ATOM      5  O   UNL d   1       9.797   5.586 -12.266  0.00  0.00    -0.266 OA
BRANCH   4   6
ATOM      6  C   UNL d   1       9.498   6.423 -10.051  0.00  0.00     0.058 A 
ATOM      7  C   UNL d   1      10.424   7.487 -10.032  0.00  0.00     0.005 A 
ATOM      8  C   UNL d   1      10.896   8.007  -8.812  0.00  0.00     0.000 A 
ATOM      9  C   UNL d   1      10.455   7.476  -7.579  0.00  0.00     0.002 A 
ATOM     10  C   UNL d   1       9.525   6.413  -7.608  0.00  0.00     0.000 A 
ATOM     11  C   UNL d   1       9.055   5.885  -8.825  0.00  0.00     0.005 A 
BRANCH   9  12
ATOM     12  C   UNL d   1      10.942   8.025  -6.298  0.00  0.00     0.019 A 
ATOM     13  C   UNL d   1      10.987   9.417  -6.063  0.00  0.00     0.099 A 
ATOM     14  N   UNL d   1      11.408   9.976  -4.909  0.00  0.00    -0.242 NA
ATOM     15  C   UNL d   1      11.848   9.157  -3.931  0.00  0.00     0.099 A 
ATOM     16  C   UNL d   1      11.858   7.755  -4.052  0.00  0.00     0.021 A 
ATOM     17  C   UNL d   1      11.380   7.185  -5.249  0.00  0.00     0.003 A 
ENDBRANCH   9  12
ENDBRANCH   4   6
ENDBRANCH   2   3
ENDBRANCH   1   2
BRANCH   1  18
ATOM     18  C   UNL d   1       6.289   2.936 -13.760  0.00  0.00     0.037 C 
BRANCH  18  19
ATOM     19  C   UNL d   1       6.268   1.399 -13.635  0.00  0.00     0.251 C 
BRANCH  19  20
ATOM     20  N   UNL d   1       5.491   0.783 -14.706  0.00  0.00     0.141 N 
ATOM     21  C   UNL d   1       5.016  -0.549 -14.313  0.00  0.00     0.274 C 
ATOM     22  C   UNL d   1       4.149  -1.165 -15.430  0.00  0.00     0.137 C 
ATOM     23  N   UNL d   1       4.898  -1.191 -16.676  0.00  0.00    -0.344 N 
ATOM     24  C   UNL d   1       5.476   0.079 -17.079  0.00  0.00     0.137 C 
ATOM     25  C   UNL d   1       6.301   0.675 -15.927  0.00  0.00     0.274 C 
BRANCH  23  26
ATOM     26  C   UNL d   1       5.046  -2.366 -17.436  0.00  0.00     0.068 A 
ATOM     27  C   UNL d   1       4.766  -2.404 -18.830  0.00  0.00     0.084 A 
ATOM     28  C   UNL d   1       4.915  -3.611 -19.548  0.00  0.00     0.070 A 
ATOM     29 CL   UNL d   1       4.209  -1.000 -19.674  0.00  0.00    -0.080 Cl
ATOM     30  C   UNL d   1       5.332  -4.784 -18.894  0.00  0.00     0.012 A 
ATOM     31 CL   UNL d   1       4.572  -3.675 -21.238  0.00  0.00    -0.081 Cl
ATOM     32  C   UNL d   1       5.607  -4.757 -17.517  0.00  0.00     0.002 A 
ATOM     33  C   UNL d   1       5.458  -3.558 -16.796  0.00  0.00     0.018 A 
ENDBRANCH  23  26
ENDBRANCH  19  20
ENDBRANCH  18  19
ENDBRANCH   1  18
TORSDOF 8
