REMARK  16 active torsions:
REMARK  status: ('A' for Active; 'I' for Inactive)
REMARK    1  A    between atoms: C_2  and  C_3 
REMARK    2  A    between atoms: C_3  and  C_4 
REMARK    3  A    between atoms: C_4  and  C_5 
REMARK    4  A    between atoms: C_5  and  C_6 
REMARK    5  A    between atoms: C_5  and  C_8 
REMARK    6  A    between atoms: C_8  and  O_9 
REMARK    7  A    between atoms: O_9  and  C_10 
REMARK    8  A    between atoms: C_10  and  C_12 
REMARK    9  A    between atoms: C_17  and  C_18 
REMARK   10  A    between atoms: C_18  and  O_20 
REMARK   11  A    between atoms: O_20  and  C_21 
REMARK   12  A    between atoms: C_21  and  C_22 
REMARK   13  A    between atoms: C_22  and  C_23 
REMARK   14  A    between atoms: C_22  and  C_25 
REMARK   15  A    between atoms: C_25  and  C_26 
REMARK   16  A    between atoms: C_26  and  C_27 
ROOT
ATOM      1  C   UNL d   1       8.328   3.924 -13.954  0.00  0.00     0.068 A 
ATOM      2  C   UNL d   1       7.471   2.857 -14.338  0.00  0.00     0.005 A 
ATOM      3  C   UNL d   1       6.237   2.643 -13.709  0.00  0.00     0.000 A 
ATOM      4  C   UNL d   1       5.774   3.543 -12.736  0.00  0.00     0.000 A 
ATOM      5  C   UNL d   1       6.592   4.615 -12.354  0.00  0.00     0.005 A 
ATOM      6  C   UNL d   1       7.868   4.795 -12.922  0.00  0.00     0.068 A 
ENDROOT
BRANCH   1   7
ATOM      7  C   UNL d   1       9.650   4.081 -14.645  0.00  0.00     0.296 C 
ATOM      8  O   UNL d   1      10.691   4.457 -14.092  0.00  0.00    -0.259 OA
BRANCH   7   9
ATOM      9  O   UNL d   1       9.534   3.761 -15.948  0.00  0.00    -0.298 OA
BRANCH   9  10
ATOM     10  C   UNL d   1      10.655   3.489 -16.782  0.00  0.00     0.152 C 
BRANCH  10  11
ATOM     11  C   UNL d   1      10.542   2.038 -17.319  0.00  0.00     0.030 C 
BRANCH  11  12
ATOM     12  C   UNL d   1       9.384   1.882 -18.331  0.00  0.00     0.003 C 
BRANCH  12  13
ATOM     13  C   UNL d   1       9.550   2.665 -19.651  0.00  0.00     0.000 C 
BRANCH  13  14
ATOM     14  C   UNL d   1       8.447   2.363 -20.685  0.00  0.00     0.000 C 
ATOM     15  C   UNL d   1       8.473   0.935 -21.259  0.00  0.00     0.000 C 
ENDBRANCH  13  14
ENDBRANCH  12  13
ENDBRANCH  11  12
BRANCH  11  16
ATOM     16  C   UNL d   1      10.497   1.001 -16.154  0.00  0.00     0.003 C 
ATOM     17  C   UNL d   1      10.291  -0.471 -16.543  0.00  0.00     0.000 C 
ENDBRANCH  11  16
ENDBRANCH  10  11
ENDBRANCH   9  10
ENDBRANCH   7   9
ENDBRANCH   1   7
BRANCH   6  18
ATOM     18  C   UNL d   1       8.639   5.925 -12.364  0.00  0.00     0.296 C 
ATOM     19  O   UNL d   1       8.452   7.096 -12.675  0.00  0.00    -0.259 OA
BRANCH  18  20
ATOM     20  O   UNL d   1       9.430   5.514 -11.380  0.00  0.00    -0.298 OA
BRANCH  20  21
ATOM     21  C   UNL d   1       9.570   6.349 -10.245  0.00  0.00     0.152 C 
BRANCH  21  22
ATOM     22  C   UNL d   1       9.669   5.455  -8.987  0.00  0.00     0.030 C 
BRANCH  22  23
ATOM     23  C   UNL d   1       8.491   4.450  -8.876  0.00  0.00     0.003 C 
ATOM     24  C   UNL d   1       8.841   3.025  -8.348  0.00  0.00     0.000 C 
ENDBRANCH  22  23
BRANCH  22  25
ATOM     25  C   UNL d   1       9.767   6.259  -7.663  0.00  0.00     0.003 C 
BRANCH  25  26
ATOM     26  C   UNL d   1      10.610   7.545  -7.711  0.00  0.00     0.000 C 
BRANCH  26  27
ATOM     27  C   UNL d   1      10.682   8.266  -6.361  0.00  0.00     0.000 C 
ATOM     28  C   UNL d   1      11.595   9.496  -6.437  0.00  0.00     0.000 C 
ENDBRANCH  26  27
ENDBRANCH  25  26
ENDBRANCH  22  25
ENDBRANCH  21  22
ENDBRANCH  20  21
ENDBRANCH  18  20
ENDBRANCH   6  18
TORSDOF 16
