REMARK  3 active torsions:
REMARK  status: ('A' for Active; 'I' for Inactive)
REMARK    1  A    between atoms: C_2  and  C_3 
REMARK    2  A    between atoms: C_3  and  N_4 
REMARK    3  A    between atoms: C_13  and  O_14 
ROOT
ATOM      1  N   UNL d   1       9.841   2.179 -17.079  0.00  0.00     0.140 N 
ATOM      2  C   UNL d   1       8.793   1.417 -17.752  0.00  0.00     0.251 C 
ATOM      3  C   UNL d   1       7.599   1.587 -16.823  0.00  0.00     0.042 C 
ATOM      4  C   UNL d   1       8.225   1.546 -15.431  0.00  0.00     0.057 C 
ATOM      5  C   UNL d   1       7.468   2.408 -14.427  0.00  0.00    -0.002 A 
ATOM      6  C   UNL d   1       7.974   3.670 -14.038  0.00  0.00    -0.024 A 
ATOM      7  C   UNL d   1       7.264   4.465 -13.118  0.00  0.00    -0.004 A 
ATOM      8  C   UNL d   1       6.051   4.002 -12.580  0.00  0.00     0.002 A 
ATOM      9  C   UNL d   1       5.549   2.745 -12.951  0.00  0.00     0.024 A 
ATOM     10  C   UNL d   1       6.252   1.933 -13.880  0.00  0.00     0.090 A 
ATOM     11  C   UNL d   1       9.292   4.173 -14.595  0.00  0.00     0.028 C 
ATOM     12  C   UNL d   1      10.283   3.022 -14.773  0.00  0.00     0.038 C 
ATOM     13  C   UNL d   1       9.719   1.882 -15.645  0.00  0.00     0.224 C 
ENDROOT
BRANCH   1  14
ATOM     14  C   UNL d   1      11.174   1.952 -17.650  0.00  0.00     0.276 C 
BRANCH  14  15
ATOM     15  C   UNL d   1      11.610   0.497 -17.634  0.00  0.00     0.009 C 
ATOM     16  C   UNL d   1      12.071  -0.174 -18.699  0.00  0.00    -0.003 C 
ENDBRANCH  14  15
ENDBRANCH   1  14
BRANCH  10  17
ATOM     17  O   UNL d   1       5.806   0.693 -14.288  0.00  0.00    -0.328 OA
ATOM     18  C   UNL d   1       4.664   0.139 -13.650  0.00  0.00     0.181 C 
ENDBRANCH  10  17
TORSDOF 3
