REMARK  11 active torsions:
REMARK  status: ('A' for Active; 'I' for Inactive)
REMARK    1  A    between atoms: C_2  and  C_4 
REMARK    2  A    between atoms: C_7  and  C_8 
REMARK    3  A    between atoms: C_9  and  C_10 
REMARK       I    between atoms: C_10  and  N_12 
REMARK    4  A    between atoms: N_12  and  C_13 
REMARK    5  A    between atoms: C_13  and  C_14 
REMARK    6  A    between atoms: C_14  and  C_15 
REMARK    7  A    between atoms: C_15  and  C_16 
REMARK    8  A    between atoms: C_16  and  N_17 
REMARK    9  A    between atoms: C_23  and  O_24 
REMARK   10  A    between atoms: O_24  and  S_25 
REMARK   11  A    between atoms: S_25  and  C_28 
ROOT
ATOM      1  N   UNL d   1       9.982   3.213 -16.925  0.00  0.00     0.142 N 
ATOM      2  C   UNL d   1      11.087   2.725 -17.755  0.00  0.00     0.255 C 
ATOM      3  C   UNL d   1      10.630   2.616 -19.226  0.00  0.00     0.061 C 
ATOM      4  C   UNL d   1       9.304   1.889 -19.380  0.00  0.00    -0.022 A 
ATOM      5  C   UNL d   1       8.875   1.420 -20.639  0.00  0.00    -0.002 A 
ATOM      6  C   UNL d   1       7.630   0.769 -20.761  0.00  0.00     0.025 A 
ATOM      7  C   UNL d   1       6.810   0.590 -19.626  0.00  0.00     0.113 A 
ATOM      8  C   UNL d   1       7.238   1.072 -18.374  0.00  0.00     0.023 A 
ATOM      9  C   UNL d   1       8.484   1.710 -18.249  0.00  0.00     0.009 A 
ATOM     10  C   UNL d   1       8.953   2.169 -16.883  0.00  0.00     0.277 C 
ENDROOT
BRANCH   1  11
ATOM     11  C   UNL d   1      10.465   3.508 -15.576  0.00  0.00     0.251 C 
BRANCH  11  12
ATOM     12  C   UNL d   1       9.393   4.192 -14.701  0.00  0.00     0.037 C 
BRANCH  12  13
ATOM     13  C   UNL d   1       9.872   4.465 -13.273  0.00  0.00     0.029 C 
BRANCH  13  14
ATOM     14  C   UNL d   1       8.737   5.012 -12.391  0.00  0.00     0.129 C 
BRANCH  14  15
ATOM     15  N   UNL d   1       9.228   5.362 -11.066  0.00  0.00    -0.234 NA
ATOM     16  C   UNL d   1       9.526   6.609 -10.671  0.00  0.00     0.275 C 
ATOM     17  O   UNL d   1       9.452   7.583 -11.425  0.00  0.00    -0.266 OA
BRANCH  16  18
ATOM     18  C   UNL d   1       9.971   6.631  -9.290  0.00  0.00     0.062 C 
ATOM     19  C   UNL d   1      10.246   7.789  -8.653  0.00  0.00     0.005 C 
BRANCH  19  20
ATOM     20  C   UNL d   1      10.711   7.910  -7.255  0.00  0.00     0.000 A 
ATOM     21  C   UNL d   1      11.027   6.772  -6.484  0.00  0.00     0.000 A 
ATOM     22  C   UNL d   1      11.453   6.887  -5.152  0.00  0.00     0.003 A 
ATOM     23  C   UNL d   1      11.579   8.150  -4.544  0.00  0.00     0.035 A 
ATOM     24  C   UNL d   1      11.269   9.303  -5.308  0.00  0.00     0.003 A 
ATOM     25  C   UNL d   1      10.839   9.178  -6.648  0.00  0.00     0.000 A 
BRANCH  23  26
ATOM     26  C   UNL d   1      12.041   8.212  -3.131  0.00  0.00     0.173 C 
ATOM     27  C   UNL d   1      12.051   9.577  -2.468  0.00  0.00     0.077 C 
ATOM     28  O   UNL d   1      12.401   7.229  -2.483  0.00  0.00    -0.291 OA
ENDBRANCH  23  26
ENDBRANCH  19  20
ENDBRANCH  16  18
ENDBRANCH  14  15
ENDBRANCH  13  14
ENDBRANCH  12  13
ENDBRANCH  11  12
ENDBRANCH   1  11
BRANCH   7  29
ATOM     29  O   UNL d   1       5.600  -0.036 -19.733  0.00  0.00    -0.224 OA
BRANCH  29  30
ATOM     30  S   UNL d   1       5.518  -1.621 -19.148  0.00  0.00     0.374 S 
ATOM     31  O   UNL d   1       6.227  -2.481 -20.109  0.00  0.00    -0.189 OA
ATOM     32  O   UNL d   1       5.903  -1.596 -17.728  0.00  0.00    -0.189 OA
BRANCH  30  33
ATOM     33  C   UNL d   1       3.700  -1.897 -19.273  0.00  0.00     0.524 C 
ATOM     34  F   UNL d   1       3.460  -2.806 -20.215  0.00  0.00    -0.155 F 
ATOM     35  F   UNL d   1       3.246  -2.324 -18.096  0.00  0.00    -0.155 F 
ATOM     36  F   UNL d   1       3.105  -0.747 -19.583  0.00  0.00    -0.155 F 
ENDBRANCH  30  33
ENDBRANCH  29  30
ENDBRANCH   7  29
TORSDOF 11
