REMARK  6 active torsions:
REMARK  status: ('A' for Active; 'I' for Inactive)
REMARK    1  A    between atoms: N_7  and  C_8 
REMARK    2  A    between atoms: C_8  and  C_9 
REMARK    3  A    between atoms: C_9  and  C_10 
REMARK    4  A    between atoms: C_10  and  C_11 
REMARK    5  A    between atoms: C_11  and  N_12 
REMARK    6  A    between atoms: N_15  and  C_16 
ROOT
ATOM      1  N   UNL d   1       9.221   6.419  -9.857  0.00  0.00     0.141 N 
ATOM      2  C   UNL d   1      10.192   5.782  -8.977  0.00  0.00     0.274 C 
ATOM      3  C   UNL d   1      10.051   6.238  -7.535  0.00  0.00     0.137 C 
ATOM      4  N   UNL d   1      10.154   7.683  -7.468  0.00  0.00    -0.344 N 
ATOM      5  C   UNL d   1       9.264   8.398  -8.386  0.00  0.00     0.137 C 
ATOM      6  C   UNL d   1       9.497   7.862  -9.818  0.00  0.00     0.274 C 
ENDROOT
BRANCH   1   7
ATOM      7  C   UNL d   1       9.463   5.947 -11.209  0.00  0.00     0.251 C 
BRANCH   7   8
ATOM      8  C   UNL d   1       8.172   5.337 -11.772  0.00  0.00     0.037 C 
BRANCH   8   9
ATOM      9  C   UNL d   1       8.374   4.795 -13.195  0.00  0.00     0.027 C 
BRANCH   9  10
ATOM     10  C   UNL d   1       9.437   3.663 -13.277  0.00  0.00     0.112 C 
BRANCH  10  11
ATOM     11  N   UNL d   1       9.896   3.458 -14.669  0.00  0.00    -0.271 N 
ATOM     12  C   UNL d   1       9.142   2.684 -15.476  0.00  0.00     0.239 C 
ATOM     13  C   UNL d   1       9.564   2.474 -16.941  0.00  0.00     0.089 C 
ATOM     14  O   UNL d   1       8.117   2.119 -15.111  0.00  0.00    -0.272 OA
ATOM     15  C   UNL d   1      10.388   3.651 -17.490  0.00  0.00     0.018 C 
ATOM     16  C   UNL d   1      10.995   3.263 -18.849  0.00  0.00     0.001 C 
ATOM     17  C   UNL d   1      11.526   3.951 -16.505  0.00  0.00     0.089 C 
ATOM     18  C   UNL d   1       9.497   4.902 -17.704  0.00  0.00     0.001 C 
ATOM     19  C   UNL d   1      11.025   4.087 -15.058  0.00  0.00     0.239 C 
ATOM     20  O   UNL d   1      11.710   4.783 -14.304  0.00  0.00    -0.272 OA
ENDBRANCH  10  11
ENDBRANCH   9  10
ENDBRANCH   8   9
ENDBRANCH   7   8
ENDBRANCH   1   7
BRANCH   4  21
ATOM     21  C   UNL d   1      10.952   8.334  -6.521  0.00  0.00     0.057 C 
ATOM     22  C   UNL d   1      11.312   7.794  -5.238  0.00  0.00     0.022 A 
ATOM     23  C   UNL d   1      12.208   8.523  -4.425  0.00  0.00     0.031 A 
ATOM     24  C   UNL d   1      10.933   6.606  -4.550  0.00  0.00     0.009 A 
ATOM     25  C   UNL d   1      12.734   9.706  -4.856  0.00  0.00     0.007 C 
ATOM     26  S   UNL d   1      12.543   7.796  -2.866  0.00  0.00    -0.086 SA
ATOM     27  C   UNL d   1      12.260  10.303  -6.040  0.00  0.00     0.002 C 
ATOM     28  C   UNL d   1      11.449   9.595  -6.898  0.00  0.00     0.017 C 
ATOM     29  C   UNL d   1      11.556   6.459  -3.332  0.00  0.00     0.035 A 
ENDBRANCH   4  21
TORSDOF 6
