REMARK  6 active torsions:
REMARK  status: ('A' for Active; 'I' for Inactive)
REMARK    1  A    between atoms: N_2  and  C_3 
REMARK    2  A    between atoms: C_5  and  O_6 
REMARK    3  A    between atoms: C_8  and  C_9 
REMARK       I    between atoms: C_9  and  N_11 
REMARK    4  A    between atoms: N_11  and  C_12 
REMARK    5  A    between atoms: N_15  and  C_16 
REMARK    6  A    between atoms: C_16  and  C_17 
ROOT
ATOM      1  C   UNL d   1       9.161   6.506 -12.075  0.00  0.00     0.277 C 
ATOM      2  O   UNL d   1       9.330   7.569 -12.668  0.00  0.00    -0.266 OA
ATOM      3  N   UNL d   1       9.466   6.263 -10.803  0.00  0.00    -0.234 NA
ENDROOT
BRANCH   3   4
ATOM      4  C   UNL d   1      10.309   7.088  -9.936  0.00  0.00     0.140 C 
ATOM      5  C   UNL d   1      10.184   6.632  -8.467  0.00  0.00     0.242 C 
ATOM      6  N   UNL d   1       9.218   7.553  -7.902  0.00  0.00     0.141 N 
ATOM      7  C   UNL d   1       9.747   5.182  -8.299  0.00  0.00     0.037 C 
ATOM      8  C   UNL d   1       9.513   8.825  -8.529  0.00  0.00     0.253 C 
ATOM      9  C   UNL d   1       9.890   8.554  -9.942  0.00  0.00     0.062 C 
BRANCH   6  10
ATOM     10  C   UNL d   1       9.124   7.604  -6.438  0.00  0.00     0.277 C 
BRANCH  10  11
ATOM     11  C   UNL d   1      10.333   8.178  -5.711  0.00  0.00     0.011 A 
ATOM     12  C   UNL d   1      10.746   9.514  -5.952  0.00  0.00    -0.002 A 
ATOM     13  C   UNL d   1      11.944   9.984  -5.397  0.00  0.00    -0.000 A 
ATOM     14  C   UNL d   1      12.661   9.192  -4.505  0.00  0.00    -0.000 A 
ATOM     15  C   UNL d   1      12.221   7.897  -4.181  0.00  0.00    -0.000 A 
ATOM     16  C   UNL d   1      11.082   7.362  -4.822  0.00  0.00    -0.002 A 
ENDBRANCH  10  11
ENDBRANCH   6  10
ENDBRANCH   3   4
BRANCH   1  17
ATOM     17  C   UNL d   1       8.601   5.349 -12.791  0.00  0.00     0.081 A 
ATOM     18  C   UNL d   1       9.389   4.633 -13.720  0.00  0.00     0.100 A 
ATOM     19  C   UNL d   1       8.798   3.527 -14.370  0.00  0.00     0.044 A 
ATOM     20  C   UNL d   1       7.455   3.157 -14.109  0.00  0.00     0.089 A 
ATOM     21  C   UNL d   1       6.696   3.906 -13.171  0.00  0.00     0.075 A 
ATOM     22  C   UNL d   1       7.274   4.996 -12.517  0.00  0.00     0.020 A 
ATOM     23 CL   UNL d   1       5.070   3.509 -12.790  0.00  0.00    -0.081 Cl
BRANCH  18  24
ATOM     24  O   UNL d   1      10.700   5.027 -13.932  0.00  0.00    -0.328 OA
ATOM     25  C   UNL d   1      11.511   4.247 -14.806  0.00  0.00     0.181 C 
ENDBRANCH  18  24
BRANCH  20  26
ATOM     26  N   UNL d   1       6.852   2.070 -14.757  0.00  0.00    -0.268 NA
ATOM     27  C   UNL d   1       7.519   1.351 -15.832  0.00  0.00     0.152 C 
ENDBRANCH  20  26
ENDBRANCH   1  17
TORSDOF 6
