REMARK  2 active torsions:
REMARK  status: ('A' for Active; 'I' for Inactive)
REMARK    1  A    between atoms: N_2  and  C_3 
REMARK    2  A    between atoms: C_11  and  O_12 
ROOT
ATOM      1  C   UNL d   1      11.059   8.206  -5.920  0.00  0.00     0.261 C 
ATOM      2  C   UNL d   1       9.810   7.344  -5.748  0.00  0.00     0.041 C 
ATOM      3  C   UNL d   1       9.602   6.421  -6.955  0.00  0.00     0.030 C 
ATOM      4  C   UNL d   1       9.802   7.100  -8.299  0.00  0.00    -0.004 A 
ATOM      5  C   UNL d   1      10.453   8.361  -8.383  0.00  0.00    -0.022 A 
ATOM      6  C   UNL d   1      10.617   8.975  -9.633  0.00  0.00    -0.004 A 
ATOM      7  C   UNL d   1      10.125   8.345 -10.780  0.00  0.00     0.002 A 
ATOM      8  C   UNL d   1       9.497   7.100 -10.717  0.00  0.00     0.024 A 
ATOM      9  C   UNL d   1       9.328   6.461  -9.472  0.00  0.00     0.090 A 
ATOM     10  C   UNL d   1      10.950   9.103  -7.158  0.00  0.00     0.062 C 
ENDROOT
BRANCH   1  11
ATOM     11  N   UNL d   1      11.285   9.021  -4.729  0.00  0.00     0.340 N 
ATOM     12  C   UNL d   1      12.697   9.126  -4.412  0.00  0.00     0.328 C 
ENDBRANCH   1  11
BRANCH   9  13
ATOM     13  O   UNL d   1       8.692   5.242  -9.360  0.00  0.00    -0.328 OA
ATOM     14  C   UNL d   1       7.888   4.820 -10.458  0.00  0.00     0.181 C 
ENDBRANCH   9  13
TORSDOF 2
