REMARK  6 active torsions:
REMARK  status: ('A' for Active; 'I' for Inactive)
REMARK    1  A    between atoms: C_2  and  C_3 
REMARK    2  A    between atoms: C_2  and  C_21 
REMARK    3  A    between atoms: C_3  and  C_4 
REMARK    4  A    between atoms: C_4  and  C_5 
REMARK    5  A    between atoms: C_5  and  N_6 
REMARK    6  A    between atoms: N_12  and  C_13 
ROOT
ATOM      1  N   UNL d   1       9.292   4.928 -12.031  0.00  0.00     0.137 N 
ATOM      2  C   UNL d   1       9.435   6.373 -12.205  0.00  0.00     0.241 C 
ATOM      3  C   UNL d   1       8.015   6.906 -12.398  0.00  0.00     0.037 C 
ATOM      4  C   UNL d   1       7.148   5.906 -11.641  0.00  0.00     0.037 C 
ATOM      5  C   UNL d   1       8.163   4.893 -11.095  0.00  0.00     0.241 C 
ATOM      6  C   UNL d   1       8.721   5.276  -9.698  0.00  0.00     0.136 C 
ATOM      7  N   UNL d   1       9.381   6.587  -9.719  0.00  0.00    -0.330 N 
ATOM      8  C   UNL d   1      10.122   6.918 -10.935  0.00  0.00     0.136 C 
ENDROOT
BRANCH   1   9
ATOM      9  C   UNL d   1       9.004   4.229 -13.281  0.00  0.00     0.251 C 
BRANCH   9  10
ATOM     10  C   UNL d   1      10.278   4.062 -14.126  0.00  0.00     0.043 C 
BRANCH  10  11
ATOM     11  C   UNL d   1       9.970   3.589 -15.549  0.00  0.00     0.071 C 
BRANCH  11  12
ATOM     12  C   UNL d   1       9.600   2.103 -15.659  0.00  0.00     0.173 C 
ATOM     13  O   UNL d   1       8.674   1.667 -14.978  0.00  0.00    -0.291 OA
BRANCH  12  14
ATOM     14  C   UNL d   1      10.349   1.250 -16.622  0.00  0.00     0.035 A 
ATOM     15  C   UNL d   1       9.895  -0.056 -16.898  0.00  0.00     0.005 A 
ATOM     16  C   UNL d   1      10.579  -0.877 -17.817  0.00  0.00     0.030 A 
ATOM     17  C   UNL d   1      11.735  -0.397 -18.458  0.00  0.00     0.140 A 
ATOM     18  C   UNL d   1      12.197   0.902 -18.189  0.00  0.00     0.030 A 
ATOM     19  F   UNL d   1      12.416  -1.187 -19.317  0.00  0.00    -0.204 F 
ATOM     20  C   UNL d   1      11.517   1.718 -17.269  0.00  0.00     0.005 A 
ENDBRANCH  12  14
ENDBRANCH  11  12
ENDBRANCH  10  11
ENDBRANCH   9  10
ENDBRANCH   1   9
BRANCH   7  21
ATOM     21  C   UNL d   1       9.784   7.199  -8.515  0.00  0.00     0.140 A 
ATOM     22  N   UNL d   1      10.501   8.345  -8.605  0.00  0.00    -0.226 NA
ATOM     23  C   UNL d   1      10.908   8.958  -7.477  0.00  0.00     0.112 A 
ATOM     24  C   UNL d   1      10.644   8.456  -6.190  0.00  0.00     0.077 A 
ATOM     25  C   UNL d   1       9.909   7.261  -6.085  0.00  0.00     0.016 A 
ATOM     26 CL   UNL d   1      11.214   9.298  -4.795  0.00  0.00    -0.081 Cl
ATOM     27  C   UNL d   1       9.463   6.632  -7.259  0.00  0.00     0.038 A 
ENDBRANCH   7  21
TORSDOF 6
