REMARK  7 active torsions:
REMARK  status: ('A' for Active; 'I' for Inactive)
REMARK    1  A    between atoms: N_17  and  C_18 
REMARK    2  A    between atoms: C_18  and  C_19 
REMARK    3  A    between atoms: C_19  and  C_20 
REMARK    4  A    between atoms: C_20  and  C_21 
REMARK    5  A    between atoms: C_21  and  C_22 
REMARK    6  A    between atoms: C_22  and  N_23 
REMARK    7  A    between atoms: N_26  and  C_27 
ROOT
ATOM      1  C   UNL d   1       8.476   3.045 -14.155  0.00  0.00     0.124 C 
ENDROOT
BRANCH   1   2
ATOM      2  N   UNL d   1       7.318   2.168 -14.391  0.00  0.00    -0.165 N 
ATOM      3  C   UNL d   1       6.087   1.957 -13.694  0.00  0.00     0.073 A 
ATOM      4  C   UNL d   1       5.579   2.719 -12.487  0.00  0.00     0.052 C 
ATOM      5  C   UNL d   1       5.473   0.914 -14.365  0.00  0.00     0.112 A 
ATOM      6  N   UNL d   1       6.237   0.510 -15.402  0.00  0.00    -0.132 N 
ATOM      7  C   UNL d   1       7.374   1.266 -15.406  0.00  0.00     0.718 A 
ATOM      8  C   UNL d   1       6.344  -0.341 -16.479  0.00  0.00     0.172 A 
ATOM      9  N   UNL d   1       8.231   0.956 -16.351  0.00  0.00    -0.043 NA
ATOM     10  C   UNL d   1       7.543  -0.059 -17.026  0.00  0.00     0.187 A 
ATOM     11  N   UNL d   1       7.924  -0.830 -18.159  0.00  0.00    -0.263 N 
ATOM     12  C   UNL d   1       7.096  -1.806 -18.667  0.00  0.00     0.335 A 
ATOM     13  C   UNL d   1       9.222  -0.576 -18.788  0.00  0.00     0.137 C 
ATOM     14  N   UNL d   1       5.871  -2.024 -18.058  0.00  0.00    -0.246 N 
ATOM     15  O   UNL d   1       7.456  -2.467 -19.645  0.00  0.00    -0.246 OA
ATOM     16  C   UNL d   1       5.419  -1.355 -16.953  0.00  0.00     0.284 A 
ATOM     17  C   UNL d   1       4.978  -3.066 -18.602  0.00  0.00     0.139 C 
ATOM     18  O   UNL d   1       4.347  -1.550 -16.379  0.00  0.00    -0.265 OA
ENDBRANCH   1   2
BRANCH   1  19
ATOM     19  C   UNL d   1       8.103   4.377 -13.444  0.00  0.00     0.025 C 
BRANCH  19  20
ATOM     20  C   UNL d   1       9.106   4.812 -12.362  0.00  0.00     0.004 C 
BRANCH  20  21
ATOM     21  C   UNL d   1       8.666   6.130 -11.686  0.00  0.00     0.035 C 
BRANCH  21  22
ATOM     22  C   UNL d   1       9.857   6.830 -11.022  0.00  0.00     0.250 C 
BRANCH  22  23
ATOM     23  N   UNL d   1       9.526   7.484  -9.764  0.00  0.00     0.141 N 
ATOM     24  C   UNL d   1       9.356   6.494  -8.695  0.00  0.00     0.274 C 
ATOM     25  C   UNL d   1       8.953   7.179  -7.375  0.00  0.00     0.137 C 
ATOM     26  N   UNL d   1       9.908   8.227  -7.031  0.00  0.00    -0.344 N 
ATOM     27  C   UNL d   1      10.188   9.182  -8.091  0.00  0.00     0.137 C 
ATOM     28  C   UNL d   1      10.571   8.441  -9.392  0.00  0.00     0.274 C 
BRANCH  26  29
ATOM     29  C   UNL d   1      10.575   8.277  -5.798  0.00  0.00     0.056 A 
ATOM     30  C   UNL d   1      10.948   7.081  -5.152  0.00  0.00     0.018 A 
ATOM     31  C   UNL d   1      11.600   7.113  -3.902  0.00  0.00     0.013 A 
ATOM     32  C   UNL d   1      11.876   8.347  -3.282  0.00  0.00     0.058 A 
ATOM     33  C   UNL d   1      11.494   9.547  -3.918  0.00  0.00     0.013 A 
ATOM     34 CL   UNL d   1      12.678   8.377  -1.750  0.00  0.00    -0.082 Cl
ATOM     35  C   UNL d   1      10.860   9.515  -5.180  0.00  0.00     0.018 A 
ENDBRANCH  26  29
ENDBRANCH  22  23
ENDBRANCH  21  22
ENDBRANCH  20  21
ENDBRANCH  19  20
ENDBRANCH   1  19
TORSDOF 7
