REMARK  4 active torsions:
REMARK  status: ('A' for Active; 'I' for Inactive)
REMARK    1  A    between atoms: C_11  and  C_12 
REMARK    2  A    between atoms: C_12  and  C_13 
REMARK    3  A    between atoms: C_13  and  N_14 
REMARK    4  A    between atoms: N_17  and  C_18 
ROOT
ATOM      1  C   UNL d   1       9.071   6.101 -11.170  0.00  0.00     0.251 C 
ENDROOT
BRANCH   1   2
ATOM      2  C   UNL d   1      10.091   6.017 -10.023  0.00  0.00     0.038 C 
BRANCH   2   3
ATOM      3  C   UNL d   1       9.680   6.801  -8.774  0.00  0.00     0.041 C 
ATOM      4  C   UNL d   1      10.319   8.218  -8.742  0.00  0.00     0.174 C 
ATOM      5  O   UNL d   1       9.427   9.190  -9.209  0.00  0.00    -0.219 OA
ATOM      6  C   UNL d   1      10.755   8.389  -7.311  0.00  0.00     0.004 A 
ATOM      7  C   UNL d   1      10.648   7.205  -6.597  0.00  0.00    -0.021 A 
ATOM      8  C   UNL d   1      11.265   9.543  -6.709  0.00  0.00     0.000 A 
ATOM      9  C   UNL d   1      11.021   7.120  -5.240  0.00  0.00     0.025 A 
ATOM     10  C   UNL d   1      10.097   6.106  -7.457  0.00  0.00     0.029 C 
ATOM     11  C   UNL d   1      11.508   8.286  -4.616  0.00  0.00     0.140 A 
ATOM     12  C   UNL d   1      11.628   9.491  -5.348  0.00  0.00     0.029 A 
ATOM     13  F   UNL d   1      11.861   8.264  -3.308  0.00  0.00    -0.204 F 
ENDBRANCH   2   3
ENDBRANCH   1   2
BRANCH   1  14
ATOM     14  N   UNL d   1       9.547   5.400 -12.366  0.00  0.00     0.141 N 
ATOM     15  C   UNL d   1       8.624   5.689 -13.469  0.00  0.00     0.274 C 
ATOM     16  C   UNL d   1       9.161   5.056 -14.775  0.00  0.00     0.138 C 
ATOM     17  N   UNL d   1       9.308   3.619 -14.591  0.00  0.00    -0.330 N 
ATOM     18  C   UNL d   1      10.091   3.233 -13.437  0.00  0.00     0.138 C 
ATOM     19  C   UNL d   1       9.572   3.938 -12.174  0.00  0.00     0.274 C 
BRANCH  17  20
ATOM     20  C   UNL d   1       8.718   2.661 -15.423  0.00  0.00     0.140 A 
ATOM     21  N   UNL d   1       8.050   1.635 -14.838  0.00  0.00    -0.227 NA
ATOM     22  C   UNL d   1       7.449   0.727 -15.636  0.00  0.00     0.101 A 
ATOM     23  C   UNL d   1       7.500   0.780 -17.037  0.00  0.00     0.021 A 
ATOM     24  C   UNL d   1       8.220   1.825 -17.642  0.00  0.00     0.005 A 
ATOM     25  C   UNL d   1       8.834   2.786 -16.822  0.00  0.00     0.037 A 
ENDBRANCH  17  20
ENDBRANCH   1  14
TORSDOF 4
