REMARK  8 active torsions:
REMARK  status: ('A' for Active; 'I' for Inactive)
REMARK       I    between atoms: N_2  and  C_3 
REMARK    1  A    between atoms: C_3  and  C_5 
REMARK    2  A    between atoms: C_9  and  O_10 
REMARK    3  A    between atoms: O_10  and  C_11 
REMARK    4  A    between atoms: C_11  and  C_12 
REMARK    5  A    between atoms: C_12  and  C_13 
REMARK    6  A    between atoms: C_13  and  C_14 
REMARK    7  A    between atoms: C_14  and  N_15 
REMARK    8  A    between atoms: N_18  and  C_19 
ROOT
ATOM      1  N   UNL d   1       9.382   6.433  -9.794  0.00  0.00     0.141 N 
ATOM      2  C   UNL d   1      10.783   6.555  -9.424  0.00  0.00     0.274 C 
ATOM      3  C   UNL d   1      11.052   7.881  -8.688  0.00  0.00     0.137 C 
ATOM      4  N   UNL d   1      10.172   7.981  -7.547  0.00  0.00    -0.344 N 
ATOM      5  C   UNL d   1       8.764   7.773  -7.798  0.00  0.00     0.137 C 
ATOM      6  C   UNL d   1       8.586   6.430  -8.563  0.00  0.00     0.274 C 
ENDROOT
BRANCH   1   7
ATOM      7  C   UNL d   1       9.110   5.197 -10.522  0.00  0.00     0.251 C 
BRANCH   7   8
ATOM      8  C   UNL d   1       7.966   5.394 -11.532  0.00  0.00     0.038 C 
BRANCH   8   9
ATOM      9  C   UNL d   1       7.383   4.048 -11.934  0.00  0.00     0.035 C 
BRANCH   9  10
ATOM     10  C   UNL d   1       6.242   4.127 -12.964  0.00  0.00     0.151 C 
BRANCH  10  11
ATOM     11  O   UNL d   1       5.652   2.852 -13.211  0.00  0.00    -0.315 OA
BRANCH  11  12
ATOM     12  C   UNL d   1       6.293   1.967 -14.048  0.00  0.00     0.178 A 
ATOM     13  C   UNL d   1       7.588   2.169 -14.577  0.00  0.00     0.044 A 
ATOM     14  C   UNL d   1       8.126   1.183 -15.418  0.00  0.00     0.005 A 
ATOM     15  C   UNL d   1       7.336   0.079 -15.780  0.00  0.00     0.024 A 
ATOM     16  C   UNL d   1       6.034  -0.024 -15.242  0.00  0.00     0.141 A 
ATOM     17  N   UNL d   1       5.562   0.872 -14.345  0.00  0.00    -0.217 NA
BRANCH  16  18
ATOM     18  C   UNL d   1       5.106  -1.143 -15.649  0.00  0.00     0.293 C 
ATOM     19  N   UNL d   1       5.381  -1.694 -16.846  0.00  0.00    -0.231 NA
ATOM     20  C   UNL d   1       4.653  -2.809 -17.430  0.00  0.00     0.155 C 
ATOM     21  O   UNL d   1       4.142  -1.466 -14.957  0.00  0.00    -0.264 OA
ENDBRANCH  16  18
ENDBRANCH  11  12
ENDBRANCH  10  11
ENDBRANCH   9  10
ENDBRANCH   8   9
ENDBRANCH   7   8
ENDBRANCH   1   7
BRANCH   4  22
ATOM     22  C   UNL d   1      10.671   8.261  -6.262  0.00  0.00     0.057 A 
ATOM     23  C   UNL d   1      11.130   7.225  -5.440  0.00  0.00     0.023 A 
ATOM     24  C   UNL d   1      11.655   7.535  -4.162  0.00  0.00     0.031 A 
ATOM     25  C   UNL d   1      11.718   8.881  -3.678  0.00  0.00     0.007 A 
ATOM     26  S   UNL d   1      12.257   6.433  -2.938  0.00  0.00    -0.086 SA
ATOM     27  C   UNL d   1      11.222   9.883  -4.538  0.00  0.00     0.002 A 
ATOM     28  C   UNL d   1      12.258   8.975  -2.346  0.00  0.00     0.007 A 
ATOM     29  C   UNL d   1      10.727   9.587  -5.826  0.00  0.00     0.017 A 
ATOM     30  C   UNL d   1      12.608   7.747  -1.863  0.00  0.00     0.035 A 
ENDBRANCH   4  22
TORSDOF 8
