REMARK  8 active torsions:
REMARK  status: ('A' for Active; 'I' for Inactive)
REMARK    1  A    between atoms: S_2  and  N_4 
REMARK    2  A    between atoms: S_2  and  C_25 
REMARK    3  A    between atoms: N_4  and  C_5 
REMARK    4  A    between atoms: N_8  and  C_9 
REMARK    5  A    between atoms: C_9  and  C_10 
REMARK    6  A    between atoms: C_10  and  O_11 
REMARK    7  A    between atoms: O_11  and  C_12 
REMARK    8  A    between atoms: C_17  and  C_18 
ROOT
ATOM      1  C   UNL d   1      10.028   7.321 -10.052  0.00  0.00     0.151 C 
ATOM      2  C   UNL d   1       9.464   8.246 -11.135  0.00  0.00     0.063 C 
ATOM      3  C   UNL d   1       8.779   7.292 -12.109  0.00  0.00     0.253 C 
ATOM      4  N   UNL d   1       9.505   6.047 -11.917  0.00  0.00     0.142 N 
ATOM      5  C   UNL d   1       9.575   5.931 -10.479  0.00  0.00     0.275 C 
ENDROOT
BRANCH   4   6
ATOM      6  C   UNL d   1       8.774   4.902 -12.413  0.00  0.00     0.283 C 
BRANCH   6   7
ATOM      7  C   UNL d   1       8.710   4.921 -13.955  0.00  0.00     0.184 C 
BRANCH   7   8
ATOM      8  O   UNL d   1       8.562   3.617 -14.491  0.00  0.00    -0.329 OA
BRANCH   8   9
ATOM      9  C   UNL d   1       7.477   2.847 -14.137  0.00  0.00     0.094 A 
ATOM     10  C   UNL d   1       7.445   1.505 -14.620  0.00  0.00     0.022 A 
ATOM     11  C   UNL d   1       6.372   0.665 -14.231  0.00  0.00     0.002 A 
ATOM     12  C   UNL d   1       5.383   1.120 -13.337  0.00  0.00     0.000 A 
ATOM     13  C   UNL d   1       5.430   2.453 -12.869  0.00  0.00     0.002 A 
ATOM     14  C   UNL d   1       6.430   3.342 -13.312  0.00  0.00     0.024 A 
BRANCH  10  15
ATOM     15  C   UNL d   1       8.469   0.979 -15.546  0.00  0.00     0.002 A 
ATOM     16  C   UNL d   1       8.081   0.325 -16.739  0.00  0.00     0.000 A 
ATOM     17  C   UNL d   1       9.043  -0.174 -17.643  0.00  0.00     0.000 A 
ATOM     18  C   UNL d   1      10.412  -0.013 -17.366  0.00  0.00     0.000 A 
ATOM     19  C   UNL d   1      10.815   0.643 -16.189  0.00  0.00     0.000 A 
ATOM     20  C   UNL d   1       9.851   1.122 -15.281  0.00  0.00     0.000 A 
ENDBRANCH  10  15
ENDBRANCH   8   9
ENDBRANCH   7   8
ENDBRANCH   6   7
ENDBRANCH   4   6
BRANCH   1  21
ATOM     21  N   UNL d   1       9.459   7.628  -8.767  0.00  0.00    -0.185 NA
BRANCH  21  22
ATOM     22  S   UNL d   1       9.711   6.653  -7.376  0.00  0.00     0.283 S 
ATOM     23  O   UNL d   1       8.388   6.345  -6.836  0.00  0.00    -0.199 OA
ATOM     24  O   UNL d   1      10.651   5.586  -7.753  0.00  0.00    -0.199 OA
BRANCH  22  25
ATOM     25  C   UNL d   1      10.546   7.677  -6.181  0.00  0.00     0.135 A 
ATOM     26  C   UNL d   1      10.525   9.064  -6.329  0.00  0.00     0.152 A 
ATOM     27  C   UNL d   1      11.172   9.907  -5.409  0.00  0.00     0.033 A 
ATOM     28  F   UNL d   1       9.857   9.604  -7.357  0.00  0.00    -0.203 F 
ATOM     29  C   UNL d   1      11.848   9.335  -4.316  0.00  0.00     0.032 A 
ATOM     30  C   UNL d   1      11.869   7.931  -4.162  0.00  0.00     0.141 A 
ATOM     31  C   UNL d   1      11.219   7.096  -5.096  0.00  0.00     0.045 A 
ATOM     32  F   UNL d   1      12.523   7.382  -3.117  0.00  0.00    -0.204 F 
ENDBRANCH  22  25
ENDBRANCH  21  22
ENDBRANCH   1  21
TORSDOF 8
