REMARK  4 active torsions:
REMARK  status: ('A' for Active; 'I' for Inactive)
REMARK    1  A    between atoms: N_2  and  C_4 
REMARK    2  A    between atoms: C_4  and  C_5 
REMARK    3  A    between atoms: C_5  and  C_6 
REMARK    4  A    between atoms: C_6  and  N_7 
ROOT
ATOM      1  N   UNL d   1       8.082   2.731 -14.759  0.00  0.00    -0.327 N 
ATOM      2  C   UNL d   1       8.046   3.696 -13.723  0.00  0.00     0.066 A 
ATOM      3  C   UNL d   1       6.873   3.925 -12.945  0.00  0.00     0.018 A 
ATOM      4  C   UNL d   1       6.839   4.885 -11.925  0.00  0.00     0.002 A 
ATOM      5  C   UNL d   1       7.976   5.653 -11.642  0.00  0.00     0.001 A 
ATOM      6  C   UNL d   1       9.142   5.456 -12.393  0.00  0.00     0.008 A 
ATOM      7  C   UNL d   1       9.185   4.488 -13.418  0.00  0.00     0.045 A 
ATOM      8  S   UNL d   1      10.706   4.337 -14.298  0.00  0.00    -0.084 SA
ATOM      9  C   UNL d   1      10.488   2.883 -15.276  0.00  0.00     0.045 A 
ATOM     10  C   UNL d   1      11.620   2.398 -15.954  0.00  0.00     0.009 A 
ATOM     11  C   UNL d   1      11.540   1.245 -16.755  0.00  0.00     0.012 A 
ATOM     12  C   UNL d   1      10.325   0.567 -16.877  0.00  0.00     0.059 A 
ATOM     13 CL   UNL d   1      10.227  -0.862 -17.836  0.00  0.00    -0.082 Cl
ATOM     14  C   UNL d   1       9.185   1.056 -16.212  0.00  0.00     0.029 A 
ATOM     15  C   UNL d   1       9.237   2.224 -15.405  0.00  0.00     0.067 A 
ENDROOT
BRANCH   1  16
ATOM     16  C   UNL d   1       6.812   2.233 -15.276  0.00  0.00     0.108 C 
BRANCH  16  17
ATOM     17  C   UNL d   1       6.363   0.940 -14.577  0.00  0.00     0.060 C 
BRANCH  17  18
ATOM     18  C   UNL d   1       5.353   0.132 -15.425  0.00  0.00     0.252 C 
BRANCH  18  19
ATOM     19  N   UNL d   1       4.508  -0.750 -14.622  0.00  0.00     0.141 N 
ATOM     20  C   UNL d   1       3.597   0.018 -13.790  0.00  0.00     0.285 C 
ATOM     21  C   UNL d   1       3.703  -1.587 -15.497  0.00  0.00     0.285 C 
ENDBRANCH  18  19
ENDBRANCH  17  18
ENDBRANCH  16  17
ENDBRANCH   1  16
TORSDOF 4
