REMARK  9 active torsions:
REMARK  status: ('A' for Active; 'I' for Inactive)
REMARK    1  A    between atoms: O_2  and  C_3 
REMARK    2  A    between atoms: C_8  and  N_9 
REMARK    3  A    between atoms: N_15  and  C_16 
REMARK    4  A    between atoms: C_16  and  C_17 
REMARK    5  A    between atoms: C_17  and  C_18 
REMARK    6  A    between atoms: C_18  and  C_19 
REMARK    7  A    between atoms: C_19  and  N_20 
REMARK       I    between atoms: N_20  and  C_21 
REMARK    8  A    between atoms: C_21  and  C_23 
REMARK    9  A    between atoms: C_26  and  N_27 
ROOT
ATOM      1  N   UNL d   1      11.174   7.383  -6.733  0.00  0.00    -0.347 N 
ATOM      2  C   UNL d   1      12.165   7.779  -7.711  0.00  0.00     0.102 C 
ATOM      3  C   UNL d   1      11.480   8.418  -8.943  0.00  0.00     0.024 C 
ATOM      4  C   UNL d   1      10.291   7.574  -9.493  0.00  0.00     0.008 C 
ATOM      5  C   UNL d   1       9.638   8.278 -10.698  0.00  0.00     0.035 C 
ATOM      6  C   UNL d   1       8.677   7.340 -11.476  0.00  0.00     0.250 C 
ATOM      7  N   UNL d   1       9.347   6.157 -11.978  0.00  0.00     0.137 N 
ATOM      8  C   UNL d   1       9.768   5.437 -10.791  0.00  0.00     0.250 C 
ATOM      9  C   UNL d   1      10.790   6.282 -10.017  0.00  0.00     0.035 C 
ATOM     10  C   UNL d   1       9.316   7.261  -8.332  0.00  0.00     0.024 C 
ATOM     11  C   UNL d   1      10.020   6.596  -7.116  0.00  0.00     0.102 C 
ENDROOT
BRANCH   7  12
ATOM     12  C   UNL d   1       8.355   5.340 -12.655  0.00  0.00     0.250 C 
BRANCH  12  13
ATOM     13  C   UNL d   1       8.997   4.496 -13.752  0.00  0.00     0.037 C 
BRANCH  13  14
ATOM     14  C   UNL d   1       9.976   3.425 -13.235  0.00  0.00     0.029 C 
BRANCH  14  15
ATOM     15  C   UNL d   1      10.581   2.522 -14.310  0.00  0.00     0.129 C 
BRANCH  15  16
ATOM     16  N   UNL d   1       9.559   1.830 -15.075  0.00  0.00    -0.234 NA
ATOM     17  C   UNL d   1       9.052   2.280 -16.232  0.00  0.00     0.275 C 
ATOM     18  O   UNL d   1       9.454   3.292 -16.808  0.00  0.00    -0.266 OA
BRANCH  17  19
ATOM     19  C   UNL d   1       7.950   1.451 -16.816  0.00  0.00     0.058 A 
ATOM     20  C   UNL d   1       7.100   0.675 -15.997  0.00  0.00     0.006 A 
ATOM     21  C   UNL d   1       6.074  -0.100 -16.570  0.00  0.00     0.017 A 
ATOM     22  C   UNL d   1       5.860  -0.108 -17.969  0.00  0.00     0.056 A 
ATOM     23  C   UNL d   1       6.708   0.690 -18.777  0.00  0.00     0.017 A 
ATOM     24  C   UNL d   1       7.738   1.460 -18.209  0.00  0.00     0.006 A 
BRANCH  22  25
ATOM     25  N   UNL d   1       4.832  -0.888 -18.546  0.00  0.00    -0.344 N 
ATOM     26  C   UNL d   1       4.034  -1.786 -17.715  0.00  0.00     0.126 C 
ATOM     27  C   UNL d   1       4.542  -0.782 -19.971  0.00  0.00     0.126 C 
ENDBRANCH  22  25
ENDBRANCH  17  19
ENDBRANCH  15  16
ENDBRANCH  14  15
ENDBRANCH  13  14
ENDBRANCH  12  13
ENDBRANCH   7  12
BRANCH   1  28
ATOM     28  C   UNL d   1      11.305   7.832  -5.409  0.00  0.00     0.079 A 
ATOM     29  C   UNL d   1      11.290   9.204  -5.135  0.00  0.00     0.110 A 
ATOM     30  C   UNL d   1      11.412   9.642  -3.810  0.00  0.00     0.026 A 
ATOM     31  C   UNL d   1      11.575   8.707  -2.765  0.00  0.00     0.002 A 
ATOM     32  C   UNL d   1      11.593   7.330  -3.045  0.00  0.00     0.002 A 
ATOM     33  C   UNL d   1      11.465   6.894  -4.372  0.00  0.00     0.019 A 
BRANCH  29  34
ATOM     34  O   UNL d   1      11.126  10.067  -6.201  0.00  0.00    -0.327 OA
ATOM     35  C   UNL d   1      11.848  11.261  -6.108  0.00  0.00     0.181 C 
ENDBRANCH  29  34
ENDBRANCH   1  28
TORSDOF 9
