REMARK  4 active torsions:
REMARK  status: ('A' for Active; 'I' for Inactive)
REMARK    1  A    between atoms: C_8  and  N_9 
REMARK    2  A    between atoms: N_12  and  C_13 
REMARK    3  A    between atoms: C_13  and  C_14 
REMARK    4  A    between atoms: C_18  and  C_19 
ROOT
ATOM      1  N   UNL d   1       7.268   1.659 -14.752  0.00  0.00    -0.343 N 
ATOM      2  C   UNL d   1       6.246   1.525 -13.696  0.00  0.00     0.137 C 
ATOM      3  C   UNL d   1       5.853   2.919 -13.146  0.00  0.00     0.275 C 
ATOM      4  N   UNL d   1       7.017   3.667 -12.668  0.00  0.00     0.145 N 
ATOM      5  C   UNL d   1       7.968   3.801 -13.767  0.00  0.00     0.275 C 
ATOM      6  C   UNL d   1       8.438   2.448 -14.304  0.00  0.00     0.137 C 
ENDROOT
BRANCH   4   7
ATOM      7  C   UNL d   1       6.583   4.954 -12.141  0.00  0.00     0.277 C 
BRANCH   7   8
ATOM      8  C   UNL d   1       7.746   5.837 -11.746  0.00  0.00     0.011 A 
ATOM      9  C   UNL d   1       8.285   5.841 -10.438  0.00  0.00    -0.002 A 
ATOM     10  C   UNL d   1       9.329   6.710 -10.084  0.00  0.00     0.006 A 
ATOM     11  C   UNL d   1       9.862   7.564 -11.067  0.00  0.00     0.001 A 
ATOM     12  C   UNL d   1       9.387   7.522 -12.380  0.00  0.00    -0.000 A 
ATOM     13  C   UNL d   1       8.330   6.671 -12.711  0.00  0.00    -0.002 A 
BRANCH  10  14
ATOM     14  C   UNL d   1       9.795   6.830  -8.705  0.00  0.00     0.029 A 
ATOM     15  S   UNL d   1       8.726   6.376  -7.395  0.00  0.00    -0.086 SA
ATOM     16  C   UNL d   1       9.933   6.803  -6.226  0.00  0.00     0.035 A 
ATOM     17  C   UNL d   1      11.060   7.303  -6.818  0.00  0.00     0.007 A 
ATOM     18  C   UNL d   1      10.973   7.340  -8.237  0.00  0.00     0.007 A 
ENDBRANCH  10  14
ENDBRANCH   7   8
ENDBRANCH   4   7
BRANCH   1  19
ATOM     19  C   UNL d   1       7.191   1.089 -16.060  0.00  0.00     0.081 A 
ATOM     20  C   UNL d   1       8.165   1.384 -17.060  0.00  0.00     0.019 A 
ATOM     21  C   UNL d   1       8.074   0.819 -18.360  0.00  0.00     0.003 A 
ATOM     22  C   UNL d   1       7.025  -0.036 -18.718  0.00  0.00     0.021 A 
ATOM     23  C   UNL d   1       6.044  -0.366 -17.764  0.00  0.00     0.110 A 
ATOM     24  N   UNL d   1       4.930  -1.172 -17.833  0.00  0.00    -0.196 NA
ATOM     25  C   UNL d   1       6.157   0.199 -16.449  0.00  0.00     0.137 A 
ATOM     26  C   UNL d   1       4.422  -1.103 -16.588  0.00  0.00     0.323 A 
ATOM     27  O   UNL d   1       3.252  -1.616 -16.127  0.00  0.00    -0.141 OA
ATOM     28  O   UNL d   1       5.104  -0.299 -15.718  0.00  0.00    -0.266 OA
ENDBRANCH   1  19
TORSDOF 4
