REMARK  4 active torsions:
REMARK  status: ('A' for Active; 'I' for Inactive)
REMARK    1  A    between atoms: C_5  and  C_6 
REMARK    2  A    between atoms: C_6  and  N_7 
REMARK    3  A    between atoms: C_10  and  C_11 
REMARK    4  A    between atoms: C_11  and  C_12 
REMARK       I    between atoms: C_12  and  N_14 
ROOT
ATOM      1  N   UNL d   1       9.302   5.229 -12.331  0.00  0.00     0.141 N 
ATOM      2  C   UNL d   1       8.612   5.509 -13.587  0.00  0.00     0.251 C 
ATOM      3  C   UNL d   1       9.508   5.112 -14.778  0.00  0.00     0.036 C 
ATOM      4  C   UNL d   1       9.829   3.607 -14.742  0.00  0.00     0.013 C 
ATOM      5  C   UNL d   1      10.474   3.330 -13.374  0.00  0.00     0.036 C 
ATOM      6  C   UNL d   1       9.576   3.796 -12.224  0.00  0.00     0.251 C 
ENDROOT
BRANCH   4   7
ATOM      7  C   UNL d   1      10.855   3.248 -15.841  0.00  0.00     0.088 C 
BRANCH   7   8
ATOM      8  C   UNL d   1      10.314   3.485 -17.269  0.00  0.00     0.237 C 
ATOM      9  O   UNL d   1       9.413   2.741 -17.682  0.00  0.00    -0.272 OA
ATOM     10  N   UNL d   1      10.772   4.515 -18.044  0.00  0.00    -0.301 N 
ATOM     11  C   UNL d   1      10.053   4.916 -19.273  0.00  0.00     0.093 C 
ATOM     12  C   UNL d   1      11.829   5.444 -17.785  0.00  0.00     0.058 A 
ATOM     13  C   UNL d   1      10.613   6.322 -19.663  0.00  0.00     0.051 C 
ATOM     14  C   UNL d   1      10.256   3.903 -20.421  0.00  0.00     0.025 C 
ATOM     15  C   UNL d   1      11.737   6.519 -18.687  0.00  0.00    -0.004 A 
ATOM     16  C   UNL d   1      12.658   7.590 -18.674  0.00  0.00    -0.003 A 
ATOM     17  C   UNL d   1      13.691   7.596 -17.701  0.00  0.00    -0.000 A 
ATOM     18  C   UNL d   1      13.800   6.502 -16.810  0.00  0.00     0.002 A 
ATOM     19  C   UNL d   1      12.923   5.405 -16.872  0.00  0.00     0.017 A 
ENDBRANCH   7   8
ENDBRANCH   4   7
BRANCH   1  20
ATOM     20  C   UNL d   1       8.463   5.649 -11.207  0.00  0.00     0.277 C 
BRANCH  20  21
ATOM     21  C   UNL d   1       9.263   6.276 -10.081  0.00  0.00     0.013 A 
ATOM     22  C   UNL d   1       9.189   5.762  -8.771  0.00  0.00    -0.003 A 
ATOM     23  C   UNL d   1       9.888   6.395  -7.725  0.00  0.00    -0.002 A 
ATOM     24  C   UNL d   1      10.662   7.547  -7.978  0.00  0.00     0.006 A 
ATOM     25  C   UNL d   1      11.426   8.217  -6.855  0.00  0.00     0.033 C 
ATOM     26  C   UNL d   1      10.723   8.071  -9.286  0.00  0.00     0.136 A 
ATOM     27  C   UNL d   1      10.026   7.437 -10.331  0.00  0.00     0.027 A 
ATOM     28  F   UNL d   1      11.448   9.186  -9.542  0.00  0.00    -0.205 F 
ENDBRANCH  20  21
ENDBRANCH   1  20
TORSDOF 4
