REMARK  9 active torsions:
REMARK  status: ('A' for Active; 'I' for Inactive)
REMARK    1  A    between atoms: O_2  and  C_3 
REMARK    2  A    between atoms: C_8  and  N_9 
REMARK    3  A    between atoms: N_12  and  C_13 
REMARK    4  A    between atoms: C_13  and  C_14 
REMARK    5  A    between atoms: C_14  and  C_15 
REMARK    6  A    between atoms: C_15  and  C_16 
REMARK    7  A    between atoms: C_16  and  N_17 
REMARK       I    between atoms: N_17  and  C_18 
REMARK    8  A    between atoms: C_18  and  C_20 
REMARK    9  A    between atoms: C_22  and  C_23 
ROOT
ATOM      1  C   UNL d   1       8.191   5.019 -13.525  0.00  0.00     0.251 C 
ENDROOT
BRANCH   1   2
ATOM      2  N   UNL d   1       9.349   4.261 -14.025  0.00  0.00     0.141 N 
ATOM      3  C   UNL d   1      10.599   4.992 -13.814  0.00  0.00     0.274 C 
ATOM      4  C   UNL d   1      11.813   4.183 -14.270  0.00  0.00     0.137 C 
ATOM      5  N   UNL d   1      11.666   3.807 -15.661  0.00  0.00    -0.343 N 
ATOM      6  C   UNL d   1      10.406   3.165 -16.008  0.00  0.00     0.137 C 
ATOM      7  C   UNL d   1       9.215   3.995 -15.465  0.00  0.00     0.274 C 
BRANCH   5   8
ATOM      8  C   UNL d   1      12.595   4.200 -16.636  0.00  0.00     0.079 A 
ATOM      9  C   UNL d   1      13.102   5.530 -16.704  0.00  0.00     0.110 A 
ATOM     10  C   UNL d   1      14.092   5.840 -17.670  0.00  0.00     0.026 A 
ATOM     11  C   UNL d   1      14.563   4.847 -18.549  0.00  0.00     0.002 A 
ATOM     12  C   UNL d   1      14.052   3.540 -18.488  0.00  0.00     0.002 A 
ATOM     13  C   UNL d   1      13.060   3.224 -17.540  0.00  0.00     0.019 A 
BRANCH   9  14
ATOM     14  O   UNL d   1      12.598   6.462 -15.822  0.00  0.00    -0.327 OA
ATOM     15  C   UNL d   1      12.844   7.834 -16.056  0.00  0.00     0.181 C 
ENDBRANCH   9  14
ENDBRANCH   5   8
ENDBRANCH   1   2
BRANCH   1  16
ATOM     16  C   UNL d   1       7.883   4.648 -12.063  0.00  0.00     0.037 C 
BRANCH  16  17
ATOM     17  C   UNL d   1       8.554   5.544 -11.008  0.00  0.00     0.029 C 
BRANCH  17  18
ATOM     18  C   UNL d   1       8.696   4.837  -9.642  0.00  0.00     0.129 C 
BRANCH  18  19
ATOM     19  N   UNL d   1       8.886   5.792  -8.558  0.00  0.00    -0.238 NA
ATOM     20  C   UNL d   1       9.875   6.692  -8.459  0.00  0.00     0.251 C 
ATOM     21  O   UNL d   1      10.739   6.861  -9.317  0.00  0.00    -0.271 OA
BRANCH  20  22
ATOM     22  C   UNL d   1       9.836   7.472  -7.198  0.00  0.00     0.085 A 
ATOM     23  C   UNL d   1      11.134   8.089  -6.712  0.00  0.00     0.032 A 
ATOM     24  C   UNL d   1      10.063   8.966  -7.312  0.00  0.00     0.015 A 
BRANCH  23  25
ATOM     25  C   UNL d   1      11.457   8.132  -5.261  0.00  0.00    -0.022 A 
ATOM     26  C   UNL d   1      11.599   9.367  -4.603  0.00  0.00    -0.004 A 
ATOM     27  C   UNL d   1      11.868   9.404  -3.224  0.00  0.00    -0.000 A 
ATOM     28  C   UNL d   1      12.009   8.203  -2.496  0.00  0.00    -0.000 A 
ATOM     29  C   UNL d   1      11.872   6.964  -3.155  0.00  0.00    -0.000 A 
ATOM     30  C   UNL d   1      11.589   6.937  -4.534  0.00  0.00    -0.004 A 
ENDBRANCH  23  25
ENDBRANCH  20  22
ENDBRANCH  18  19
ENDBRANCH  17  18
ENDBRANCH  16  17
ENDBRANCH   1  16
TORSDOF 9
