REMARK  5 active torsions:
REMARK  status: ('A' for Active; 'I' for Inactive)
REMARK    1  A    between atoms: C_7  and  C_8 
REMARK    2  A    between atoms: C_8  and  C_9 
REMARK    3  A    between atoms: C_9  and  C_10 
REMARK    4  A    between atoms: C_10  and  N_11 
REMARK    5  A    between atoms: N_14  and  C_15 
ROOT
ATOM      1  C   UNL d   1       8.384   1.624 -19.470  0.00  0.00     0.257 C 
ENDROOT
BRANCH   1   2
ATOM      2  C   UNL d   1       8.247   1.285 -17.960  0.00  0.00     0.084 C 
BRANCH   2   3
ATOM      3  C   UNL d   1       7.925  -0.181 -17.685  0.00  0.00     0.092 C 
ATOM      4  N   UNL d   1       8.638  -1.169 -18.048  0.00  0.00    -0.101 NA
ATOM      5  O   UNL d   1       9.849  -0.750 -18.674  0.00  0.00    -0.061 OA
BRANCH   3   6
ATOM      6  C   UNL d   1       6.684  -0.404 -16.926  0.00  0.00     0.041 A 
ATOM      7  C   UNL d   1       5.625  -1.205 -17.437  0.00  0.00     0.132 A 
ATOM      8  C   UNL d   1       4.471  -1.405 -16.656  0.00  0.00     0.027 A 
ATOM      9  O   UNL d   1       5.700  -1.786 -18.672  0.00  0.00    -0.190 OA
ATOM     10  C   UNL d   1       4.358  -0.815 -15.381  0.00  0.00    -0.002 A 
ATOM     11  C   UNL d   1       5.406  -0.019 -14.874  0.00  0.00    -0.022 A 
ATOM     12  C   UNL d   1       5.299   0.622 -13.506  0.00  0.00     0.031 C 
ATOM     13  C   UNL d   1       6.563   0.175 -15.650  0.00  0.00    -0.001 A 
ENDBRANCH   3   6
ENDBRANCH   2   3
ENDBRANCH   1   2
BRANCH   1  14
ATOM     14  N   UNL d   1       9.490   2.543 -19.744  0.00  0.00     0.141 N 
ATOM     15  C   UNL d   1       9.179   3.885 -19.252  0.00  0.00     0.274 C 
ATOM     16  C   UNL d   1      10.328   4.858 -19.582  0.00  0.00     0.138 C 
ATOM     17  N   UNL d   1      11.606   4.347 -19.088  0.00  0.00    -0.330 N 
ATOM     18  C   UNL d   1      11.922   2.992 -19.514  0.00  0.00     0.138 C 
ATOM     19  C   UNL d   1      10.756   2.061 -19.174  0.00  0.00     0.274 C 
BRANCH  17  20
ATOM     20  C   UNL d   1      12.441   5.079 -18.232  0.00  0.00     0.140 A 
ATOM     21  N   UNL d   1      11.901   6.126 -17.562  0.00  0.00    -0.227 NA
ATOM     22  C   UNL d   1      12.692   6.862 -16.750  0.00  0.00     0.101 A 
ATOM     23  C   UNL d   1      14.056   6.585 -16.555  0.00  0.00     0.021 A 
ATOM     24  C   UNL d   1      14.625   5.501 -17.238  0.00  0.00     0.005 A 
ATOM     25  C   UNL d   1      13.807   4.738 -18.093  0.00  0.00     0.037 A 
ENDBRANCH  17  20
ENDBRANCH   1  14
TORSDOF 5
