REMARK  3 active torsions:
REMARK  status: ('A' for Active; 'I' for Inactive)
REMARK    1  A    between atoms: C_3  and  C_4 
REMARK    2  A    between atoms: C_4  and  N_5 
REMARK    3  A    between atoms: C_8  and  C_9 
ROOT
ATOM      1  N   UNL d   1       8.585   5.538 -12.267  0.00  0.00     0.145 N 
ATOM      2  C   UNL d   1       8.673   4.766 -11.036  0.00  0.00     0.251 C 
ATOM      3  C   UNL d   1       9.615   5.421 -10.019  0.00  0.00     0.040 C 
ATOM      4  C   UNL d   1       9.234   6.863  -9.739  0.00  0.00     0.026 C 
ATOM      5  C   UNL d   1       9.098   7.607 -11.093  0.00  0.00     0.040 C 
ATOM      6  C   UNL d   1       8.107   6.880 -12.022  0.00  0.00     0.251 C 
ENDROOT
BRANCH   1   7
ATOM      7  C   UNL d   1       7.807   4.851 -13.271  0.00  0.00     0.313 C 
BRANCH   7   8
ATOM      8  C   UNL d   1       8.477   3.703 -13.969  0.00  0.00     0.154 A 
ATOM      9  N   UNL d   1       9.792   3.716 -14.322  0.00  0.00    -0.312 N 
ATOM     10  C   UNL d   1      10.805   4.739 -14.098  0.00  0.00     0.132 C 
ATOM     11  C   UNL d   1      10.013   2.518 -14.975  0.00  0.00     0.079 A 
ATOM     12  C   UNL d   1       8.752   1.853 -14.972  0.00  0.00     0.099 A 
ATOM     13  C   UNL d   1      11.144   1.949 -15.576  0.00  0.00     0.019 A 
ATOM     14  N   UNL d   1       7.789   2.628 -14.355  0.00  0.00    -0.229 NA
ATOM     15  C   UNL d   1       8.669   0.580 -15.578  0.00  0.00     0.021 A 
ATOM     16  C   UNL d   1       9.812  -0.001 -16.171  0.00  0.00     0.002 A 
ATOM     17  C   UNL d   1      11.036   0.691 -16.184  0.00  0.00     0.002 A 
ENDBRANCH   7   8
ENDBRANCH   1   7
BRANCH   4  18
ATOM     18  C   UNL d   1      10.222   7.543  -8.823  0.00  0.00    -0.022 A 
ATOM     19  C   UNL d   1      11.543   7.781  -9.261  0.00  0.00    -0.004 A 
ATOM     20  C   UNL d   1      12.466   8.409  -8.417  0.00  0.00    -0.000 A 
ATOM     21  C   UNL d   1      12.064   8.826  -7.133  0.00  0.00    -0.000 A 
ATOM     22  C   UNL d   1      10.754   8.586  -6.682  0.00  0.00    -0.000 A 
ATOM     23  C   UNL d   1       9.831   7.945  -7.531  0.00  0.00    -0.004 A 
ENDBRANCH   4  18
TORSDOF 3
