REMARK  9 active torsions:
REMARK  status: ('A' for Active; 'I' for Inactive)
REMARK    1  A    between atoms: C_3  and  S_4 
REMARK    2  A    between atoms: S_4  and  C_5 
REMARK    3  A    between atoms: C_5  and  C_6 
REMARK    4  A    between atoms: C_6  and  C_7 
REMARK    5  A    between atoms: C_7  and  N_8 
REMARK    6  A    between atoms: C_12  and  C_13 
REMARK    7  A    between atoms: C_16  and  C_17 
REMARK    8  A    between atoms: C_26  and  C_27 
REMARK    9  A    between atoms: C_30  and  C_31 
ROOT
ATOM      1  C   UNL d   1       8.864   3.371 -14.825  0.00  0.00     0.067 C 
ENDROOT
BRANCH   1   2
ATOM      2  S   UNL d   1       8.803   5.136 -14.386  0.00  0.00    -0.075 SA
BRANCH   2   3
ATOM      3  C   UNL d   1       9.061   5.150 -12.662  0.00  0.00     0.193 A 
ATOM      4  N   UNL d   1       9.367   6.255 -11.962  0.00  0.00    -0.289 N 
ATOM      5  C   UNL d   1       9.585   7.601 -12.478  0.00  0.00     0.134 C 
ATOM      6  C   UNL d   1       9.435   5.770 -10.699  0.00  0.00     0.167 A 
ATOM      7  N   UNL d   1       9.153   4.486 -10.632  0.00  0.00    -0.128 NA
ATOM      8  N   UNL d   1       8.971   4.064 -11.907  0.00  0.00    -0.122 NA
BRANCH   6   9
ATOM      9  C   UNL d   1       9.802   6.471  -9.474  0.00  0.00     0.036 C 
ATOM     10  C   UNL d   1      10.872   7.401  -9.478  0.00  0.00     0.003 C 
ATOM     11  C   UNL d   1      11.123   8.169  -8.330  0.00  0.00     0.004 C 
ATOM     12  C   UNL d   1      10.420   7.887  -7.146  0.00  0.00     0.041 C 
ATOM     13  C   UNL d   1       9.429   6.884  -7.091  0.00  0.00     0.004 C 
ATOM     14  C   UNL d   1       9.109   6.192  -8.271  0.00  0.00     0.003 C 
BRANCH  12  15
ATOM     15  C   UNL d   1      10.774   8.609  -5.974  0.00  0.00     0.182 A 
ATOM     16  O   UNL d   1      10.689   9.952  -6.043  0.00  0.00    -0.286 OA
ATOM     17  C   UNL d   1      11.088  10.366  -4.815  0.00  0.00     0.145 A 
ATOM     18  C   UNL d   1      11.443   9.279  -4.055  0.00  0.00     0.128 A 
ATOM     19  N   UNL d   1      11.247   8.143  -4.828  0.00  0.00    -0.218 NA
ENDBRANCH  12  15
ENDBRANCH   6   9
ENDBRANCH   2   3
ENDBRANCH   1   2
BRANCH   1  20
ATOM     20  C   UNL d   1       7.601   2.604 -14.383  0.00  0.00     0.047 C 
BRANCH  20  21
ATOM     21  C   UNL d   1       7.592   1.174 -14.913  0.00  0.00     0.251 C 
BRANCH  21  22
ATOM     22  N   UNL d   1       6.241   0.673 -15.126  0.00  0.00     0.143 N 
ATOM     23  C   UNL d   1       6.251  -0.410 -16.094  0.00  0.00     0.284 C 
ATOM     24  C   UNL d   1       4.853  -0.975 -16.360  0.00  0.00     0.171 C 
ATOM     25  O   UNL d   1       4.289  -1.411 -15.121  0.00  0.00    -0.348 OA
ATOM     26  C   UNL d   1       4.188  -0.366 -14.158  0.00  0.00     0.178 C 
ATOM     27  C   UNL d   1       5.597   0.219 -13.893  0.00  0.00     0.282 C 
BRANCH  24  28
ATOM     28  C   UNL d   1       4.911  -2.115 -17.366  0.00  0.00     0.007 A 
ATOM     29  C   UNL d   1       5.428  -3.364 -16.974  0.00  0.00    -0.002 A 
ATOM     30  C   UNL d   1       5.531  -4.421 -17.896  0.00  0.00     0.004 A 
ATOM     31  C   UNL d   1       5.039  -4.265 -19.210  0.00  0.00     0.071 A 
ATOM     32  C   UNL d   1       4.497  -3.012 -19.601  0.00  0.00     0.004 A 
ATOM     33  C   UNL d   1       4.430  -1.947 -18.680  0.00  0.00    -0.002 A 
BRANCH  31  34
ATOM     34  C   UNL d   1       5.120  -5.412 -20.202  0.00  0.00     0.419 C 
ATOM     35  F   UNL d   1       4.035  -5.428 -20.973  0.00  0.00    -0.166 F 
ATOM     36  F   UNL d   1       6.198  -5.239 -20.966  0.00  0.00    -0.166 F 
ATOM     37  F   UNL d   1       5.219  -6.598 -19.593  0.00  0.00    -0.166 F 
ENDBRANCH  31  34
ENDBRANCH  24  28
ENDBRANCH  21  22
ENDBRANCH  20  21
ENDBRANCH   1  20
TORSDOF 9
