REMARK  7 active torsions:
REMARK  status: ('A' for Active; 'I' for Inactive)
REMARK    1  A    between atoms: C_9  and  O_10 
REMARK    2  A    between atoms: O_10  and  C_11 
REMARK    3  A    between atoms: C_11  and  C_12 
REMARK    4  A    between atoms: C_12  and  C_13 
REMARK    5  A    between atoms: C_13  and  C_14 
REMARK    6  A    between atoms: C_14  and  N_15 
REMARK    7  A    between atoms: N_18  and  C_19 
ROOT
ATOM      1  N   UNL d   1       9.537   5.004 -12.827  0.00  0.00     0.141 N 
ATOM      2  C   UNL d   1       9.608   3.549 -12.674  0.00  0.00     0.274 C 
ATOM      3  C   UNL d   1      10.223   2.850 -13.907  0.00  0.00     0.137 C 
ATOM      4  N   UNL d   1       9.500   3.235 -15.109  0.00  0.00    -0.344 N 
ATOM      5  C   UNL d   1       9.305   4.674 -15.270  0.00  0.00     0.137 C 
ATOM      6  C   UNL d   1       8.664   5.246 -13.977  0.00  0.00     0.274 C 
ENDROOT
BRANCH   1   7
ATOM      7  C   UNL d   1       8.898   5.612 -11.657  0.00  0.00     0.251 C 
BRANCH   7   8
ATOM      8  C   UNL d   1       9.845   5.695 -10.455  0.00  0.00     0.038 C 
BRANCH   8   9
ATOM      9  C   UNL d   1       9.208   6.241  -9.179  0.00  0.00     0.035 C 
BRANCH   9  10
ATOM     10  C   UNL d   1      10.243   6.412  -8.050  0.00  0.00     0.149 C 
BRANCH  10  11
ATOM     11  O   UNL d   1       9.600   6.710  -6.829  0.00  0.00    -0.329 OA
BRANCH  11  12
ATOM     12  C   UNL d   1      10.361   7.514  -6.024  0.00  0.00     0.121 A 
ATOM     13  C   UNL d   1      10.409   8.917  -6.245  0.00  0.00     0.162 A 
ATOM     14  C   UNL d   1      11.020   9.769  -5.296  0.00  0.00     0.029 A 
ATOM     15  F   UNL d   1       9.835   9.426  -7.356  0.00  0.00    -0.202 F 
ATOM     16  C   UNL d   1      11.595   9.162  -4.171  0.00  0.00     0.009 A 
ATOM     17  C   UNL d   1      12.241   9.802  -2.996  0.00  0.00     0.156 A 
ATOM     18  C   UNL d   1      11.611   7.796  -3.993  0.00  0.00     0.058 A 
ATOM     19  N   UNL d   1      12.580   8.667  -2.138  0.00  0.00    -0.229 NA
ATOM     20  C   UNL d   1      12.215   7.490  -2.670  0.00  0.00     0.275 A 
ATOM     21  O   UNL d   1      12.323   6.386  -2.155  0.00  0.00    -0.266 OA
ATOM     22  C   UNL d   1      10.980   6.936  -4.898  0.00  0.00     0.031 A 
ENDBRANCH  11  12
ENDBRANCH  10  11
ENDBRANCH   9  10
ENDBRANCH   8   9
ENDBRANCH   7   8
ENDBRANCH   1   7
BRANCH   4  23
ATOM     23  C   UNL d   1       9.024   2.285 -16.007  0.00  0.00     0.056 A 
ATOM     24  C   UNL d   1       9.882   1.589 -16.918  0.00  0.00     0.016 A 
ATOM     25  C   UNL d   1       9.344   0.628 -17.818  0.00  0.00     0.004 A 
ATOM     26  C   UNL d   1      11.271   1.860 -16.950  0.00  0.00     0.004 A 
ATOM     27  C   UNL d   1       7.964   0.359 -17.819  0.00  0.00     0.000 A 
ATOM     28  C   UNL d   1      10.194  -0.052 -18.715  0.00  0.00     0.030 A 
ATOM     29  C   UNL d   1       7.110   1.036 -16.933  0.00  0.00     0.002 A 
ATOM     30  C   UNL d   1       7.639   1.990 -16.032  0.00  0.00     0.017 A 
ATOM     31  C   UNL d   1      11.573   0.222 -18.732  0.00  0.00     0.140 A 
ATOM     32  F   UNL d   1      12.381  -0.441 -19.587  0.00  0.00    -0.204 F 
ATOM     33  C   UNL d   1      12.104   1.183 -17.859  0.00  0.00     0.030 A 
ENDBRANCH   4  23
TORSDOF 7
