REMARK  7 active torsions:
REMARK  status: ('A' for Active; 'I' for Inactive)
REMARK    1  A    between atoms: C_2  and  O_3 
REMARK    2  A    between atoms: O_3  and  C_4 
REMARK    3  A    between atoms: C_11  and  C_12 
REMARK       I    between atoms: C_12  and  N_14 
REMARK    4  A    between atoms: N_14  and  C_15 
REMARK    5  A    between atoms: C_15  and  C_16 
REMARK    6  A    between atoms: N_18  and  C_19 
REMARK    7  A    between atoms: C_19  and  C_20 
ROOT
ATOM      1  C   UNL d   1       9.259   6.630 -11.592  0.00  0.00     0.161 C 
ENDROOT
BRANCH   1   2
ATOM      2  N   UNL d   1       8.887   5.406 -12.272  0.00  0.00    -0.232 NA
ATOM      3  C   UNL d   1       9.580   4.766 -13.233  0.00  0.00     0.277 C 
ATOM      4  O   UNL d   1      10.664   5.138 -13.638  0.00  0.00    -0.266 OA
BRANCH   3   5
ATOM      5  C   UNL d   1       8.934   3.519 -13.801  0.00  0.00     0.081 A 
ATOM      6  C   UNL d   1       7.534   3.389 -13.949  0.00  0.00     0.100 A 
ATOM      7  C   UNL d   1       7.012   2.247 -14.596  0.00  0.00     0.039 A 
ATOM      8  C   UNL d   1       7.847   1.194 -14.992  0.00  0.00     0.083 A 
ATOM      9  N   UNL d   1       7.251   0.049 -15.526  0.00  0.00    -0.100 NA
ATOM     10  C   UNL d   1       9.234   1.322 -14.846  0.00  0.00     0.071 A 
ATOM     11 CL   UNL d   1      10.272   0.072 -15.424  0.00  0.00    -0.081 Cl
ATOM     12  C   UNL d   1       9.786   2.486 -14.277  0.00  0.00     0.019 A 
BRANCH   6  13
ATOM     13  O   UNL d   1       6.724   4.383 -13.433  0.00  0.00    -0.331 OA
BRANCH  13  14
ATOM     14  C   UNL d   1       5.326   4.277 -13.544  0.00  0.00     0.149 C 
ATOM     15  C   UNL d   1       4.736   3.153 -12.659  0.00  0.00     0.035 C 
ENDBRANCH  13  14
ENDBRANCH   6  13
ENDBRANCH   3   5
ENDBRANCH   1   2
BRANCH   1  16
ATOM     16  C   UNL d   1       9.638   6.334 -10.138  0.00  0.00     0.173 C 
ATOM     17  O   UNL d   1       8.572   5.591  -9.556  0.00  0.00    -0.350 OA
ATOM     18  C   UNL d   1       8.783   5.331  -8.174  0.00  0.00     0.178 C 
ATOM     19  C   UNL d   1       8.982   6.651  -7.427  0.00  0.00     0.283 C 
ATOM     20  N   UNL d   1      10.152   7.378  -7.939  0.00  0.00     0.147 N 
ATOM     21  C   UNL d   1       9.912   7.630  -9.363  0.00  0.00     0.282 C 
BRANCH  20  22
ATOM     22  C   UNL d   1      10.433   8.611  -7.218  0.00  0.00     0.277 C 
BRANCH  22  23
ATOM     23  C   UNL d   1      11.066   8.416  -5.834  0.00  0.00     0.011 A 
ATOM     24  C   UNL d   1      11.496   9.544  -5.095  0.00  0.00    -0.000 A 
ATOM     25  C   UNL d   1      12.047   9.379  -3.798  0.00  0.00     0.029 A 
ATOM     26  C   UNL d   1      12.137   8.092  -3.230  0.00  0.00     0.140 A 
ATOM     27  C   UNL d   1      11.722   6.978  -3.966  0.00  0.00     0.029 A 
ATOM     28  F   UNL d   1      12.653   7.932  -1.980  0.00  0.00    -0.204 F 
ATOM     29  C   UNL d   1      11.254   7.138  -5.264  0.00  0.00    -0.000 A 
ENDBRANCH  22  23
ENDBRANCH  20  22
ENDBRANCH   1  16
TORSDOF 7
