REMARK  1 active torsions:
REMARK  status: ('A' for Active; 'I' for Inactive)
REMARK    1  A    between atoms: C_5  and  N_6 
ROOT
ATOM      1  N   UNL d   1      11.375   8.669  -6.336  0.00  0.00    -0.256 N 
ATOM      2  C   UNL d   1      11.459   7.394  -5.909  0.00  0.00     0.264 A 
ATOM      3  O   UNL d   1      11.332   6.372  -6.568  0.00  0.00    -0.267 OA
ATOM      4  C   UNL d   1      11.734   7.490  -4.466  0.00  0.00     0.061 A 
ATOM      5  C   UNL d   1      11.984   6.486  -3.565  0.00  0.00     0.005 A 
ATOM      6  C   UNL d   1      12.246   6.826  -2.229  0.00  0.00     0.000 A 
ATOM      7  C   UNL d   1      12.257   8.193  -1.858  0.00  0.00     0.000 A 
ATOM      8  C   UNL d   1      12.043   9.212  -2.818  0.00  0.00     0.005 A 
ATOM      9  C   UNL d   1      11.778   8.803  -4.123  0.00  0.00     0.061 A 
ATOM     10  C   UNL d   1      11.491   9.573  -5.349  0.00  0.00     0.264 A 
ATOM     11  O   UNL d   1      11.354  10.777  -5.440  0.00  0.00    -0.267 OA
ENDROOT
BRANCH   1  12
ATOM     12  C   UNL d   1      11.086   9.063  -7.708  0.00  0.00     0.173 C 
ATOM     13  C   UNL d   1      12.134   8.577  -8.716  0.00  0.00     0.042 C 
ATOM     14  C   UNL d   1      11.702   8.792 -10.164  0.00  0.00     0.092 C 
ATOM     15  C   UNL d   1      10.259   8.297 -10.396  0.00  0.00     0.258 C 
ATOM     16  O   UNL d   1       9.816   8.060 -11.513  0.00  0.00    -0.270 OA
ATOM     17  N   UNL d   1       9.460   8.218  -9.346  0.00  0.00    -0.175 NA
ATOM     18  C   UNL d   1       9.674   8.600  -8.094  0.00  0.00     0.279 C 
ATOM     19  O   UNL d   1       8.778   8.598  -7.257  0.00  0.00    -0.268 OA
ENDBRANCH   1  12
TORSDOF 1
