REMARK  4 active torsions:
REMARK  status: ('A' for Active; 'I' for Inactive)
REMARK    1  A    between atoms: C_2  and  O_4 
REMARK    2  A    between atoms: O_4  and  C_5 
REMARK    3  A    between atoms: C_12  and  N_13 
REMARK    4  A    between atoms: C_14  and  N_15 
ROOT
ATOM      1  C   UNL d   1       8.803   2.541 -14.287  0.00  0.00     0.146 C 
ATOM      2  C   UNL d   1       7.724   1.995 -15.270  0.00  0.00     0.035 C 
ATOM      3  C   UNL d   1       6.442   1.696 -14.479  0.00  0.00     0.007 C 
ATOM      4  C   UNL d   1       5.872   2.951 -13.830  0.00  0.00     0.026 C 
ATOM      5  C   UNL d   1       6.915   3.802 -13.121  0.00  0.00    -0.024 A 
ATOM      6  C   UNL d   1       6.454   4.787 -12.227  0.00  0.00    -0.003 A 
ATOM      7  C   UNL d   1       7.380   5.598 -11.536  0.00  0.00     0.019 A 
ATOM      8  C   UNL d   1       8.757   5.398 -11.724  0.00  0.00     0.083 A 
ATOM      9  C   UNL d   1       9.228   4.418 -12.614  0.00  0.00     0.017 A 
ATOM     10  C   UNL d   1       8.289   3.623 -13.353  0.00  0.00     0.003 A 
ENDROOT
BRANCH   8  11
ATOM     11  N   UNL d   1       9.654   6.246 -11.076  0.00  0.00    -0.226 NA
ATOM     12  C   UNL d   1       9.775   6.073  -9.793  0.00  0.00     0.175 C 
BRANCH  12  13
ATOM     13  N   UNL d   1      10.662   6.798  -9.014  0.00  0.00    -0.327 N 
ATOM     14  C   UNL d   1      10.874   6.482  -7.600  0.00  0.00     0.129 C 
ATOM     15  C   UNL d   1      11.016   7.704  -6.717  0.00  0.00    -0.004 A 
ATOM     16  C   UNL d   1      11.118   9.004  -7.282  0.00  0.00    -0.022 A 
ATOM     17  C   UNL d   1      11.062   7.527  -5.321  0.00  0.00    -0.003 A 
ATOM     18  C   UNL d   1      11.100   9.182  -8.802  0.00  0.00     0.050 C 
ATOM     19  C   UNL d   1      11.204  10.116  -6.425  0.00  0.00    -0.004 A 
ATOM     20  C   UNL d   1      11.468   7.900  -9.525  0.00  0.00     0.108 C 
ATOM     21  C   UNL d   1      11.180   9.941  -5.029  0.00  0.00    -0.000 A 
ATOM     22  C   UNL d   1      11.138   8.650  -4.479  0.00  0.00    -0.000 A 
ENDBRANCH  12  13
ENDBRANCH   8  11
BRANCH   1  23
ATOM     23  O   UNL d   1       9.942   2.948 -15.044  0.00  0.00    -0.300 OA
BRANCH  23  24
ATOM     24  C   UNL d   1      10.883   2.134 -15.512  0.00  0.00     0.273 C 
ATOM     25  C   UNL d   1      10.692   0.639 -15.249  0.00  0.00     0.106 C 
ATOM     26  O   UNL d   1      11.855   2.558 -16.140  0.00  0.00    -0.264 OA
ENDBRANCH  23  24
ENDBRANCH   1  23
TORSDOF 4
