REMARK  8 active torsions:
REMARK  status: ('A' for Active; 'I' for Inactive)
REMARK    1  A    between atoms: N_12  and  C_13 
REMARK    2  A    between atoms: C_13  and  C_14 
REMARK    3  A    between atoms: C_14  and  C_15 
REMARK    4  A    between atoms: C_15  and  C_16 
REMARK    5  A    between atoms: C_16  and  C_17 
REMARK    6  A    between atoms: C_17  and  C_18 
REMARK    7  A    between atoms: C_18  and  N_19 
REMARK    8  A    between atoms: N_22  and  C_23 
ROOT
ATOM      1  C   UNL d   1       7.607   1.262 -15.076  0.00  0.00     0.035 C 
ENDROOT
BRANCH   1   2
ATOM      2  C   UNL d   1       7.869   0.444 -16.360  0.00  0.00     0.002 C 
BRANCH   2   3
ATOM      3  C   UNL d   1       6.587   0.166 -17.153  0.00  0.00     0.002 C 
BRANCH   3   4
ATOM      4  C   UNL d   1       6.874   0.022 -18.654  0.00  0.00     0.025 C 
BRANCH   4   5
ATOM      5  C   UNL d   1       5.612  -0.280 -19.474  0.00  0.00     0.112 C 
BRANCH   5   6
ATOM      6  N   UNL d   1       5.216  -1.691 -19.341  0.00  0.00    -0.271 N 
ATOM      7  C   UNL d   1       4.245  -2.130 -18.532  0.00  0.00     0.239 A 
ATOM      8  O   UNL d   1       3.532  -1.434 -17.811  0.00  0.00    -0.272 OA
ATOM      9  C   UNL d   1       4.132  -3.647 -18.594  0.00  0.00     0.088 A 
ATOM     10  C   UNL d   1       5.215  -4.039 -19.616  0.00  0.00     0.088 A 
ATOM     11  C   UNL d   1       2.835  -4.175 -19.250  0.00  0.00     0.009 C 
ATOM     12  C   UNL d   1       4.400  -4.747 -20.724  0.00  0.00     0.009 C 
ATOM     13  C   UNL d   1       5.803  -2.690 -20.005  0.00  0.00     0.239 A 
ATOM     14  C   UNL d   1       3.929  -6.110 -20.182  0.00  0.00     0.001 C 
ATOM     15  C   UNL d   1       3.082  -3.975 -20.747  0.00  0.00     0.001 C 
ATOM     16  C   UNL d   1       2.844  -5.713 -19.160  0.00  0.00     0.001 C 
ATOM     17  O   UNL d   1       6.720  -2.582 -20.828  0.00  0.00    -0.272 OA
ENDBRANCH   5   6
ENDBRANCH   4   5
ENDBRANCH   3   4
ENDBRANCH   2   3
ENDBRANCH   1   2
BRANCH   1  18
ATOM     18  C   UNL d   1       8.886   1.783 -14.395  0.00  0.00     0.250 C 
BRANCH  18  19
ATOM     19  N   UNL d   1       9.880   2.255 -15.354  0.00  0.00     0.141 N 
ATOM     20  C   UNL d   1      11.061   2.755 -14.654  0.00  0.00     0.274 C 
ATOM     21  C   UNL d   1      12.155   3.145 -15.670  0.00  0.00     0.138 C 
ATOM     22  N   UNL d   1      11.638   4.072 -16.663  0.00  0.00    -0.329 N 
ATOM     23  C   UNL d   1      10.390   3.660 -17.278  0.00  0.00     0.138 C 
ATOM     24  C   UNL d   1       9.350   3.318 -16.210  0.00  0.00     0.274 C 
BRANCH  22  25
ATOM     25  C   UNL d   1      12.229   5.331 -16.923  0.00  0.00     0.148 A 
ATOM     26  C   UNL d   1      12.205   5.945 -18.241  0.00  0.00     0.042 A 
ATOM     27  C   UNL d   1      12.885   7.198 -18.182  0.00  0.00     0.050 A 
ATOM     28  C   UNL d   1      11.693   5.566 -19.511  0.00  0.00     0.004 A 
ATOM     29  S   UNL d   1      13.447   7.436 -16.541  0.00  0.00     0.015 SA
ATOM     30  C   UNL d   1      13.032   8.026 -19.309  0.00  0.00     0.008 A 
ATOM     31  N   UNL d   1      12.847   5.976 -15.962  0.00  0.00    -0.192 NA
ATOM     32  C   UNL d   1      12.487   7.630 -20.542  0.00  0.00     0.001 A 
ATOM     33  C   UNL d   1      11.820   6.397 -20.640  0.00  0.00     0.000 A 
ENDBRANCH  22  25
ENDBRANCH  18  19
ENDBRANCH   1  18
TORSDOF 8
