REMARK  12 active torsions:
REMARK  status: ('A' for Active; 'I' for Inactive)
REMARK    1  A    between atoms: C_2  and  C_3 
REMARK    2  A    between atoms: C_3  and  N_4 
REMARK    3  A    between atoms: N_4  and  C_5 
REMARK    4  A    between atoms: N_4  and  C_24 
REMARK    5  A    between atoms: C_5  and  C_6 
REMARK    6  A    between atoms: C_6  and  C_7 
REMARK    7  A    between atoms: C_7  and  C_8 
REMARK    8  A    between atoms: C_8  and  N_9 
REMARK       I    between atoms: N_9  and  C_10 
REMARK    9  A    between atoms: C_10  and  C_12 
REMARK   10  A    between atoms: C_15  and  C_16 
REMARK   11  A    between atoms: C_24  and  C_25 
REMARK   12  A    between atoms: C_27  and  C_28 
ROOT
ATOM      1  C   UNL d   1       9.030   4.445 -14.118  0.00  0.00     0.037 C 
ENDROOT
BRANCH   1   2
ATOM      2  C   UNL d   1       9.793   3.302 -14.821  0.00  0.00     0.250 C 
BRANCH   2   3
ATOM      3  N   UNL d   1       9.469   3.161 -16.247  0.00  0.00     0.137 N 
BRANCH   3   4
ATOM      4  C   UNL d   1       9.955   4.292 -17.045  0.00  0.00     0.250 C 
BRANCH   4   5
ATOM      5  C   UNL d   1       9.343   4.302 -18.459  0.00  0.00     0.035 C 
ATOM      6  C   UNL d   1       9.674   5.568 -19.241  0.00  0.00     0.002 C 
ENDBRANCH   4   5
ENDBRANCH   3   4
BRANCH   3   7
ATOM      7  C   UNL d   1      10.050   1.908 -16.752  0.00  0.00     0.251 C 
BRANCH   7   8
ATOM      8  C   UNL d   1       9.146   0.714 -16.477  0.00  0.00     0.038 A 
ATOM      9  C   UNL d   1       7.857   0.547 -17.256  0.00  0.00     0.024 A 
ATOM     10  C   UNL d   1       9.030  -0.353 -17.550  0.00  0.00     0.007 A 
BRANCH   9  11
ATOM     11  C   UNL d   1       6.621   0.001 -16.573  0.00  0.00    -0.020 A 
ATOM     12  C   UNL d   1       6.317   0.382 -15.261  0.00  0.00     0.025 A 
ATOM     13  C   UNL d   1       5.198  -0.177 -14.602  0.00  0.00     0.140 A 
ATOM     14  C   UNL d   1       4.376  -1.099 -15.279  0.00  0.00     0.030 A 
ATOM     15  F   UNL d   1       4.931   0.158 -13.317  0.00  0.00    -0.204 F 
ATOM     16  C   UNL d   1       4.670  -1.465 -16.604  0.00  0.00     0.002 A 
ATOM     17  C   UNL d   1       5.795  -0.910 -17.255  0.00  0.00    -0.004 A 
ENDBRANCH   9  11
ENDBRANCH   7   8
ENDBRANCH   3   7
ENDBRANCH   2   3
ENDBRANCH   1   2
BRANCH   1  18
ATOM     18  C   UNL d   1       9.562   4.732 -12.711  0.00  0.00     0.029 C 
BRANCH  18  19
ATOM     19  C   UNL d   1       8.775   5.862 -12.039  0.00  0.00     0.129 C 
BRANCH  19  20
ATOM     20  N   UNL d   1       9.385   6.218 -10.765  0.00  0.00    -0.234 NA
ATOM     21  C   UNL d   1       9.814   7.441 -10.421  0.00  0.00     0.275 C 
ATOM     22  O   UNL d   1       9.864   8.389 -11.204  0.00  0.00    -0.266 OA
BRANCH  21  23
ATOM     23  C   UNL d   1      10.263   7.589  -8.996  0.00  0.00     0.058 A 
ATOM     24  C   UNL d   1      11.230   8.559  -8.655  0.00  0.00     0.005 A 
ATOM     25  C   UNL d   1      11.617   8.735  -7.310  0.00  0.00     0.002 A 
ATOM     26  C   UNL d   1      11.043   7.952  -6.283  0.00  0.00     0.018 A 
ATOM     27  C   UNL d   1      10.061   7.001  -6.630  0.00  0.00     0.002 A 
ATOM     28  C   UNL d   1       9.660   6.830  -7.965  0.00  0.00     0.005 A 
BRANCH  26  29
ATOM     29  C   UNL d   1      11.460   8.111  -4.880  0.00  0.00     0.081 A 
ATOM     30  N   UNL d   1      11.470   9.378  -4.407  0.00  0.00    -0.244 NA
ATOM     31  C   UNL d   1      11.866   9.579  -3.134  0.00  0.00     0.099 A 
ATOM     32  C   UNL d   1      12.260   8.543  -2.273  0.00  0.00     0.021 A 
ATOM     33  C   UNL d   1      12.257   7.224  -2.763  0.00  0.00     0.003 A 
ATOM     34  C   UNL d   1      11.849   7.007  -4.093  0.00  0.00     0.019 A 
ENDBRANCH  26  29
ENDBRANCH  21  23
ENDBRANCH  19  20
ENDBRANCH  18  19
ENDBRANCH   1  18
TORSDOF 12
