REMARK  13 active torsions:
REMARK  status: ('A' for Active; 'I' for Inactive)
REMARK    1  A    between atoms: C_9  and  C_10 
REMARK    2  A    between atoms: C_10  and  C_12 
REMARK    3  A    between atoms: C_12  and  N_13 
REMARK    4  A    between atoms: N_13  and  C_14 
REMARK    5  A    between atoms: C_14  and  C_15 
REMARK    6  A    between atoms: C_15  and  S_16 
REMARK    7  A    between atoms: S_16  and  C_19 
REMARK    8  A    between atoms: C_19  and  C_20 
REMARK    9  A    between atoms: C_20  and  C_21 
REMARK   10  A    between atoms: C_21  and  N_22 
REMARK   11  A    between atoms: N_22  and  C_23 
REMARK   12  A    between atoms: C_23  and  C_24 
REMARK   13  A    between atoms: C_24  and  C_25 
ROOT
ATOM      1  C   UNL d   1       8.648   3.549 -14.063  0.00  0.00     0.161 C 
ENDROOT
BRANCH   1   2
ATOM      2  C   UNL d   1       7.498   2.664 -14.532  0.00  0.00     0.307 C 
BRANCH   2   3
ATOM      3  N   UNL d   1       7.894   1.896 -15.708  0.00  0.00     0.343 N 
BRANCH   3   4
ATOM      4  C   UNL d   1       6.859   0.953 -16.129  0.00  0.00     0.327 C 
BRANCH   4   5
ATOM      5  C   UNL d   1       7.166   0.306 -17.490  0.00  0.00     0.211 C 
ATOM      6  O   UNL d   1       7.199   1.341 -18.448  0.00  0.00    -0.216 OA
BRANCH   5   7
ATOM      7  C   UNL d   1       6.155  -0.780 -17.864  0.00  0.00     0.018 A 
ATOM      8  C   UNL d   1       4.905  -0.881 -17.199  0.00  0.00     0.001 A 
ATOM      9  C   UNL d   1       3.974  -1.891 -17.531  0.00  0.00     0.029 A 
ATOM     10  C   UNL d   1       4.261  -2.825 -18.544  0.00  0.00     0.149 A 
ATOM     11  C   UNL d   1       5.486  -2.717 -19.211  0.00  0.00     0.116 A 
ATOM     12  O   UNL d   1       3.367  -3.819 -18.835  0.00  0.00    -0.189 OA
ATOM     13  N   UNL d   1       5.932  -3.564 -20.238  0.00  0.00    -0.200 NA
ATOM     14  C   UNL d   1       6.412  -1.724 -18.882  0.00  0.00     0.052 A 
ATOM     15  C   UNL d   1       7.190  -3.281 -20.753  0.00  0.00     0.311 A 
ATOM     16  O   UNL d   1       7.791  -3.873 -21.646  0.00  0.00    -0.258 OA
ATOM     17  S   UNL d   1       7.852  -1.849 -19.869  0.00  0.00    -0.024 SA
ENDBRANCH   5   7
ENDBRANCH   4   5
ENDBRANCH   3   4
ENDBRANCH   2   3
ENDBRANCH   1   2
BRANCH   1  18
ATOM     18  S   UNL d   1       8.113   4.657 -12.698  0.00  0.00     0.172 S 
ATOM     19  O   UNL d   1       7.855   5.993 -13.255  0.00  0.00    -0.226 OA
ATOM     20  O   UNL d   1       7.052   3.993 -11.922  0.00  0.00    -0.226 OA
BRANCH  18  21
ATOM     21  C   UNL d   1       9.648   4.761 -11.707  0.00  0.00     0.125 C 
BRANCH  21  22
ATOM     22  C   UNL d   1       9.451   5.592 -10.435  0.00  0.00     0.055 C 
BRANCH  22  23
ATOM     23  C   UNL d   1       8.816   4.802  -9.280  0.00  0.00     0.291 C 
BRANCH  23  24
ATOM     24  N   UNL d   1       8.479   5.696  -8.191  0.00  0.00     0.339 N 
BRANCH  24  25
ATOM     25  C   UNL d   1       9.646   6.336  -7.620  0.00  0.00     0.295 C 
BRANCH  25  26
ATOM     26  C   UNL d   1       9.231   7.531  -6.771  0.00  0.00     0.065 C 
BRANCH  26  27
ATOM     27  C   UNL d   1      10.426   8.107  -6.041  0.00  0.00    -0.019 A 
ATOM     28  C   UNL d   1      10.975   7.408  -4.951  0.00  0.00     0.007 A 
ATOM     29  C   UNL d   1      12.035   7.961  -4.214  0.00  0.00     0.057 A 
ATOM     30  C   UNL d   1      12.595   9.187  -4.604  0.00  0.00     0.011 A 
ATOM     31 CL   UNL d   1      12.633   7.131  -2.837  0.00  0.00    -0.082 Cl
ATOM     32  C   UNL d   1      12.086   9.866  -5.727  0.00  0.00     0.001 A 
ATOM     33  C   UNL d   1      10.996   9.332  -6.444  0.00  0.00    -0.004 A 
ENDBRANCH  26  27
ENDBRANCH  25  26
ENDBRANCH  24  25
ENDBRANCH  23  24
ENDBRANCH  22  23
ENDBRANCH  21  22
ENDBRANCH  18  21
ENDBRANCH   1  18
TORSDOF 13
