REMARK  8 active torsions:
REMARK  status: ('A' for Active; 'I' for Inactive)
REMARK    1  A    between atoms: N_12  and  C_13 
REMARK    2  A    between atoms: C_13  and  C_14 
REMARK    3  A    between atoms: C_14  and  C_15 
REMARK    4  A    between atoms: C_15  and  C_16 
REMARK    5  A    between atoms: C_16  and  C_17 
REMARK    6  A    between atoms: C_17  and  C_18 
REMARK    7  A    between atoms: C_18  and  N_19 
REMARK    8  A    between atoms: N_22  and  C_23 
ROOT
ATOM      1  C   UNL d   1       8.416   5.468 -12.785  0.00  0.00     0.002 C 
ENDROOT
BRANCH   1   2
ATOM      2  C   UNL d   1       8.845   4.335 -13.736  0.00  0.00     0.002 C 
BRANCH   2   3
ATOM      3  C   UNL d   1       7.758   3.259 -13.916  0.00  0.00     0.025 C 
BRANCH   3   4
ATOM      4  C   UNL d   1       8.330   1.873 -14.277  0.00  0.00     0.112 C 
BRANCH   4   5
ATOM      5  N   UNL d   1       8.976   1.848 -15.588  0.00  0.00    -0.271 N 
ATOM      6  C   UNL d   1      10.304   1.874 -15.771  0.00  0.00     0.239 A 
ATOM      7  O   UNL d   1      11.160   1.932 -14.892  0.00  0.00    -0.272 OA
ATOM      8  C   UNL d   1      10.652   1.847 -17.259  0.00  0.00     0.088 A 
ATOM      9  C   UNL d   1       9.275   1.793 -17.932  0.00  0.00     0.088 A 
ATOM     10  C   UNL d   1      11.320   0.538 -17.742  0.00  0.00     0.009 C 
ATOM     11  C   UNL d   1       9.327   0.462 -18.719  0.00  0.00     0.009 C 
ATOM     12  C   UNL d   1       8.312   1.789 -16.750  0.00  0.00     0.239 A 
ATOM     13  C   UNL d   1      10.284   0.649 -19.913  0.00  0.00     0.001 C 
ATOM     14  C   UNL d   1      10.159  -0.455 -17.821  0.00  0.00     0.001 C 
ATOM     15  C   UNL d   1      11.668   0.700 -19.233  0.00  0.00     0.001 C 
ATOM     16  O   UNL d   1       7.089   1.758 -16.897  0.00  0.00    -0.272 OA
ENDBRANCH   4   5
ENDBRANCH   3   4
ENDBRANCH   2   3
ENDBRANCH   1   2
BRANCH   1  17
ATOM     17  C   UNL d   1       9.380   5.613 -11.594  0.00  0.00     0.035 C 
BRANCH  17  18
ATOM     18  C   UNL d   1       8.850   6.557 -10.517  0.00  0.00     0.250 C 
BRANCH  18  19
ATOM     19  N   UNL d   1       9.573   6.403  -9.259  0.00  0.00     0.141 N 
ATOM     20  C   UNL d   1       8.686   6.813  -8.168  0.00  0.00     0.274 C 
ATOM     21  C   UNL d   1       9.347   6.669  -6.801  0.00  0.00     0.137 C 
ATOM     22  N   UNL d   1      10.565   7.440  -6.801  0.00  0.00    -0.344 N 
ATOM     23  C   UNL d   1      11.486   7.150  -7.862  0.00  0.00     0.137 C 
ATOM     24  C   UNL d   1      10.752   7.270  -9.228  0.00  0.00     0.274 C 
BRANCH  22  25
ATOM     25  C   UNL d   1      10.919   8.289  -5.759  0.00  0.00     0.067 A 
ATOM     26  C   UNL d   1      11.494   7.859  -4.543  0.00  0.00     0.073 A 
ATOM     27  C   UNL d   1      11.791   8.715  -3.489  0.00  0.00     0.013 A 
ATOM     28 CL   UNL d   1      11.855   6.259  -4.269  0.00  0.00    -0.081 Cl
ATOM     29  C   UNL d   1      11.454  10.049  -3.643  0.00  0.00     0.001 A 
ATOM     30  C   UNL d   1      10.897  10.511  -4.854  0.00  0.00     0.002 A 
ATOM     31  C   UNL d   1      10.667   9.648  -5.937  0.00  0.00     0.018 A 
ENDBRANCH  22  25
ENDBRANCH  18  19
ENDBRANCH  17  18
ENDBRANCH   1  17
TORSDOF 8
