REMARK  6 active torsions:
REMARK  status: ('A' for Active; 'I' for Inactive)
REMARK    1  A    between atoms: O_2  and  N_3 
REMARK    2  A    between atoms: C_4  and  C_5 
REMARK    3  A    between atoms: C_4  and  C_19 
REMARK    4  A    between atoms: C_5  and  C_6 
REMARK    5  A    between atoms: C_6  and  N_7 
REMARK    6  A    between atoms: C_10  and  C_11 
ROOT
ATOM      1  C   UNL d   1       9.551   0.365 -16.548  0.00  0.00     0.257 C 
ENDROOT
BRANCH   1   2
ATOM      2  C   UNL d   1       8.011   0.452 -16.787  0.00  0.00     0.083 C 
BRANCH   2   3
ATOM      3  C   UNL d   1       7.144   0.736 -15.537  0.00  0.00     0.087 C 
ATOM      4  N   UNL d   1       6.143  -0.013 -15.321  0.00  0.00    -0.136 NA
BRANCH   4   5
ATOM      5  O   UNL d   1       5.476   0.311 -14.131  0.00  0.00    -0.234 OA
ATOM      6  C   UNL d   1       4.201  -0.287 -14.149  0.00  0.00     0.211 C 
ENDBRANCH   4   5
BRANCH   3   7
ATOM      7  C   UNL d   1       7.537   1.912 -14.675  0.00  0.00     0.016 C 
ATOM      8  C   UNL d   1       8.841   2.040 -14.225  0.00  0.00     0.002 C 
ATOM      9  C   UNL d   1       9.324   3.176 -13.558  0.00  0.00     0.011 C 
ATOM     10  C   UNL d   1       8.417   4.135 -13.142  0.00  0.00     0.058 C 
ATOM     11  C   UNL d   1       7.030   3.958 -13.434  0.00  0.00     0.011 C 
ATOM     12 CL   UNL d   1       8.969   5.484 -12.180  0.00  0.00    -0.082 Cl
ATOM     13  C   UNL d   1       6.617   2.866 -14.216  0.00  0.00     0.002 C 
ENDBRANCH   3   7
ENDBRANCH   2   3
ENDBRANCH   1   2
BRANCH   1  14
ATOM     14  N   UNL d   1      10.193   1.703 -16.541  0.00  0.00     0.137 N 
ATOM     15  C   UNL d   1      11.413   1.727 -15.684  0.00  0.00     0.251 C 
ATOM     16  C   UNL d   1      11.937   3.167 -15.554  0.00  0.00     0.041 C 
ATOM     17  C   UNL d   1      12.244   3.733 -16.923  0.00  0.00     0.044 C 
ATOM     18  C   UNL d   1      11.002   3.599 -17.834  0.00  0.00     0.041 C 
ATOM     19  C   UNL d   1      10.473   2.156 -17.868  0.00  0.00     0.251 C 
BRANCH  17  20
ATOM     20  C   UNL d   1      12.719   5.170 -16.819  0.00  0.00     0.059 A 
ATOM     21  N   UNL d   1      11.976   5.992 -16.041  0.00  0.00    -0.248 NA
ATOM     22  C   UNL d   1      12.356   7.274 -15.931  0.00  0.00     0.099 A 
ATOM     23  C   UNL d   1      13.466   7.807 -16.607  0.00  0.00     0.021 A 
ATOM     24  C   UNL d   1      14.227   6.952 -17.426  0.00  0.00     0.003 A 
ATOM     25  C   UNL d   1      13.851   5.603 -17.531  0.00  0.00     0.015 A 
ENDBRANCH  17  20
ENDBRANCH   1  14
TORSDOF 6
