REMARK  7 active torsions:
REMARK  status: ('A' for Active; 'I' for Inactive)
REMARK    1  A    between atoms: C_2  and  C_3 
REMARK    2  A    between atoms: C_3  and  C_4 
REMARK    3  A    between atoms: C_4  and  C_5 
REMARK    4  A    between atoms: C_5  and  C_6 
REMARK    5  A    between atoms: C_6  and  C_7 
REMARK    6  A    between atoms: C_7  and  N_8 
REMARK    7  A    between atoms: N_11  and  C_12 
ROOT
ATOM      1  C   UNL d   1       9.727   4.520 -12.704  0.00  0.00     0.003 C 
ENDROOT
BRANCH   1   2
ATOM      2  C   UNL d   1       9.796   5.029 -14.160  0.00  0.00     0.013 C 
BRANCH   2   3
ATOM      3  C   UNL d   1       9.843   3.964 -15.284  0.00  0.00     0.093 A 
ATOM      4  C   UNL d   1       8.914   2.795 -14.976  0.00  0.00     0.004 A 
ATOM      5  C   UNL d   1       9.644   1.616 -14.877  0.00  0.00     0.083 A 
ATOM      6  C   UNL d   1       7.519   2.787 -14.744  0.00  0.00    -0.000 A 
ATOM      7  N   UNL d   1      11.000   1.885 -15.080  0.00  0.00    -0.212 NA
ATOM      8  C   UNL d   1       9.048   0.393 -14.575  0.00  0.00     0.049 A 
ATOM      9  C   UNL d   1      11.195   3.190 -15.262  0.00  0.00     0.259 A 
ATOM     10  O   UNL d   1      12.302   3.730 -15.340  0.00  0.00    -0.270 OA
ATOM     11  C   UNL d   1       7.652   0.366 -14.353  0.00  0.00     0.142 A 
ATOM     12  F   UNL d   1       7.025  -0.780 -14.002  0.00  0.00    -0.204 F 
ATOM     13  C   UNL d   1       6.890   1.554 -14.451  0.00  0.00     0.029 A 
BRANCH   3  14
ATOM     14  C   UNL d   1       9.497   4.589 -16.678  0.00  0.00     0.013 C 
ATOM     15  C   UNL d   1      10.615   5.302 -17.454  0.00  0.00     0.001 C 
ENDBRANCH   3  14
ENDBRANCH   2   3
ENDBRANCH   1   2
BRANCH   1  16
ATOM     16  C   UNL d   1       9.447   5.665 -11.719  0.00  0.00     0.035 C 
BRANCH  16  17
ATOM     17  C   UNL d   1       9.298   5.163 -10.274  0.00  0.00     0.250 C 
BRANCH  17  18
ATOM     18  N   UNL d   1       9.209   6.275  -9.313  0.00  0.00     0.141 N 
ATOM     19  C   UNL d   1       8.818   5.720  -8.014  0.00  0.00     0.274 C 
ATOM     20  C   UNL d   1       8.705   6.827  -6.951  0.00  0.00     0.137 C 
ATOM     21  N   UNL d   1       9.932   7.606  -6.895  0.00  0.00    -0.344 N 
ATOM     22  C   UNL d   1      10.396   8.125  -8.161  0.00  0.00     0.137 C 
ATOM     23  C   UNL d   1      10.492   6.971  -9.163  0.00  0.00     0.274 C 
BRANCH  21  24
ATOM     24  C   UNL d   1      10.636   7.875  -5.719  0.00  0.00     0.056 A 
ATOM     25  C   UNL d   1      10.812   9.211  -5.291  0.00  0.00     0.018 A 
ATOM     26  C   UNL d   1      11.458   9.482  -4.073  0.00  0.00     0.013 A 
ATOM     27  C   UNL d   1      11.971   8.426  -3.293  0.00  0.00     0.058 A 
ATOM     28  C   UNL d   1      11.854   7.100  -3.742  0.00  0.00     0.013 A 
ATOM     29 CL   UNL d   1      12.637   8.752  -1.747  0.00  0.00    -0.082 Cl
ATOM     30  C   UNL d   1      11.168   6.824  -4.939  0.00  0.00     0.018 A 
ENDBRANCH  21  24
ENDBRANCH  17  18
ENDBRANCH  16  17
ENDBRANCH   1  16
TORSDOF 7
