REMARK  2 active torsions:
REMARK  status: ('A' for Active; 'I' for Inactive)
REMARK    1  A    between atoms: C_8  and  N_9 
REMARK       I    between atoms: N_9  and  C_10 
REMARK    2  A    between atoms: C_10  and  C_12 
ROOT
ATOM      1  C   UNL d   1       8.363   6.684  -6.880  0.00  0.00     0.033 C 
ATOM      2  C   UNL d   1       9.475   7.327  -7.666  0.00  0.00    -0.004 A 
ATOM      3  C   UNL d   1       9.475   7.222  -9.076  0.00  0.00    -0.003 A 
ATOM      4  C   UNL d   1      10.478   7.860  -9.830  0.00  0.00    -0.001 A 
ATOM      5  C   UNL d   1      11.487   8.602  -9.185  0.00  0.00    -0.003 A 
ATOM      6  C   UNL d   1      11.497   8.721  -7.773  0.00  0.00    -0.004 A 
ATOM      7  C   UNL d   1      12.574   9.559  -7.094  0.00  0.00     0.033 C 
ATOM      8  C   UNL d   1      10.500   8.072  -7.032  0.00  0.00     0.076 A 
ENDROOT
BRANCH   8   9
ATOM      9  N   UNL d   1      10.466   8.265  -5.640  0.00  0.00    -0.211 NA
ATOM     10  C   UNL d   1      11.299   7.676  -4.771  0.00  0.00     0.293 C 
ATOM     11  O   UNL d   1      11.837   6.588  -4.993  0.00  0.00    -0.268 OA
BRANCH  10  12
ATOM     12  C   UNL d   1      11.535   8.415  -3.447  0.00  0.00     0.381 C 
ATOM     13  C   UNL d   1      11.805   7.474  -2.263  0.00  0.00     0.052 C 
ATOM     14  N   UNL d   1      12.660   9.335  -3.584  0.00  0.00     0.626 N 
ENDBRANCH  10  12
ENDBRANCH   8   9
TORSDOF 2
