REMARK  1 active torsions:
REMARK  status: ('A' for Active; 'I' for Inactive)
REMARK    1  A    between atoms: C_18  and  C_19 
ROOT
ATOM      1  C   UNL d   1       5.760  -2.985 -18.527  0.00  0.00     0.285 C 
ATOM      2  N   UNL d   1       5.726  -1.738 -19.294  0.00  0.00     0.138 N 
ATOM      3  C   UNL d   1       6.013  -1.949 -20.714  0.00  0.00     0.255 C 
ATOM      4  C   UNL d   1       7.479  -2.302 -21.043  0.00  0.00     0.061 C 
ATOM      5  C   UNL d   1       8.398  -1.090 -21.057  0.00  0.00    -0.023 A 
ATOM      6  C   UNL d   1       9.005  -0.710 -22.272  0.00  0.00     0.009 A 
ATOM      7  C   UNL d   1       9.812   0.440 -22.343  0.00  0.00     0.083 A 
ATOM      8 CL   UNL d   1      10.541   0.881 -23.846  0.00  0.00    -0.080 Cl
ATOM      9  C   UNL d   1      10.008   1.228 -21.194  0.00  0.00     0.141 A 
ATOM     10  O   UNL d   1      10.775   2.356 -21.248  0.00  0.00    -0.189 OA
ATOM     11  C   UNL d   1       9.409   0.854 -19.979  0.00  0.00     0.024 A 
ATOM     12  C   UNL d   1       8.619  -0.320 -19.888  0.00  0.00    -0.018 A 
ATOM     13  C   UNL d   1       7.960  -0.737 -18.567  0.00  0.00     0.075 C 
ATOM     14  C   UNL d   1       8.589  -0.055 -17.341  0.00  0.00    -0.021 A 
ATOM     15  C   UNL d   1       9.928  -0.361 -17.023  0.00  0.00    -0.004 A 
ATOM     16  C   UNL d   1      10.550   0.260 -15.930  0.00  0.00    -0.000 A 
ATOM     17  C   UNL d   1       9.842   1.175 -15.135  0.00  0.00    -0.000 A 
ATOM     18  C   UNL d   1       8.494   1.487 -15.410  0.00  0.00    -0.004 A 
ATOM     19  C   UNL d   1       7.865   0.852 -16.523  0.00  0.00    -0.026 A 
ATOM     20  C   UNL d   1       6.406   1.095 -16.856  0.00  0.00     0.028 C 
ATOM     21  C   UNL d   1       5.735  -0.166 -17.386  0.00  0.00     0.039 C 
ATOM     22  C   UNL d   1       6.413  -0.591 -18.685  0.00  0.00     0.228 C 
ENDROOT
BRANCH  18  23
ATOM     23  C   UNL d   1       7.826   2.468 -14.527  0.00  0.00     0.002 A 
ATOM     24  C   UNL d   1       6.592   2.165 -13.909  0.00  0.00     0.030 A 
ATOM     25  C   UNL d   1       5.934   3.119 -13.101  0.00  0.00     0.140 A 
ATOM     26  C   UNL d   1       6.522   4.376 -12.863  0.00  0.00     0.030 A 
ATOM     27  F   UNL d   1       4.738   2.804 -12.550  0.00  0.00    -0.204 F 
ATOM     28  C   UNL d   1       7.772   4.673 -13.439  0.00  0.00     0.002 A 
ATOM     29  C   UNL d   1       8.413   3.728 -14.267  0.00  0.00     0.000 A 
ENDBRANCH  18  23
TORSDOF 1
