REMARK  7 active torsions:
REMARK  status: ('A' for Active; 'I' for Inactive)
REMARK    1  A    between atoms: S_2  and  C_5 
REMARK    2  A    between atoms: C_8  and  C_9 
REMARK       I    between atoms: C_9  and  N_11 
REMARK    3  A    between atoms: N_11  and  C_12 
REMARK    4  A    between atoms: C_15  and  C_16 
REMARK    5  A    between atoms: C_16  and  C_17 
REMARK    6  A    between atoms: C_17  and  N_18 
REMARK    7  A    between atoms: C_21  and  C_22 
ROOT
ATOM      1  C   UNL d   1       6.535   2.827 -13.400  0.00  0.00     0.107 C 
ATOM      2  C   UNL d   1       8.030   3.181 -13.511  0.00  0.00     0.024 C 
ATOM      3  C   UNL d   1       8.423   4.280 -12.532  0.00  0.00     0.002 C 
ATOM      4  C   UNL d   1       7.593   5.545 -12.765  0.00  0.00     0.002 C 
ATOM      5  C   UNL d   1       6.077   5.206 -12.697  0.00  0.00     0.002 C 
ATOM      6  C   UNL d   1       5.671   4.066 -13.649  0.00  0.00     0.024 C 
ENDROOT
BRANCH   4   7
ATOM      7  C   UNL d   1       7.918   6.620 -11.724  0.00  0.00     0.035 C 
BRANCH   7   8
ATOM      8  C   UNL d   1       9.420   6.750 -11.375  0.00  0.00     0.250 C 
BRANCH   8   9
ATOM      9  N   UNL d   1       9.687   7.369 -10.079  0.00  0.00     0.137 N 
ATOM     10  C   UNL d   1       9.177   6.537  -8.975  0.00  0.00     0.251 C 
ATOM     11  C   UNL d   1       9.404   7.244  -7.639  0.00  0.00     0.040 C 
ATOM     12  C   UNL d   1      10.892   7.524  -7.430  0.00  0.00     0.026 C 
ATOM     13  C   UNL d   1      11.485   8.231  -8.666  0.00  0.00     0.040 C 
ATOM     14  C   UNL d   1      11.136   7.497  -9.957  0.00  0.00     0.251 C 
BRANCH  12  15
ATOM     15  C   UNL d   1      11.095   8.342  -6.158  0.00  0.00    -0.024 A 
ATOM     16  C   UNL d   1      11.482   7.765  -4.933  0.00  0.00    -0.001 A 
ATOM     17  C   UNL d   1      11.680   8.519  -3.781  0.00  0.00     0.090 A 
ATOM     18  C   UNL d   1      11.748   6.343  -4.623  0.00  0.00     0.061 A 
ATOM     19  C   UNL d   1      11.454   9.895  -3.784  0.00  0.00     0.024 A 
ATOM     20  O   UNL d   1      12.049   7.780  -2.701  0.00  0.00    -0.331 OA
ATOM     21  C   UNL d   1      11.063  10.494  -4.992  0.00  0.00     0.002 A 
ATOM     22  C   UNL d   1      10.877   9.732  -6.165  0.00  0.00    -0.004 A 
ATOM     23  C   UNL d   1      12.083   6.409  -3.112  0.00  0.00     0.154 A 
ENDBRANCH  12  15
ENDBRANCH   8   9
ENDBRANCH   7   8
ENDBRANCH   4   7
BRANCH   1  24
ATOM     24  N   UNL d   1       6.258   1.793 -14.383  0.00  0.00    -0.236 NA
ATOM     25  C   UNL d   1       5.730   0.590 -14.131  0.00  0.00     0.281 C 
ATOM     26  O   UNL d   1       5.424   0.209 -13.003  0.00  0.00    -0.265 OA
BRANCH  25  27
ATOM     27  C   UNL d   1       5.454  -0.251 -15.311  0.00  0.00     0.087 A 
ATOM     28  C   UNL d   1       4.628  -1.337 -15.454  0.00  0.00     0.013 A 
ATOM     29  C   UNL d   1       4.659  -1.889 -16.765  0.00  0.00     0.018 A 
ATOM     30  C   UNL d   1       5.484  -1.193 -17.608  0.00  0.00     0.113 A 
ATOM     31  S   UNL d   1       6.260   0.142 -16.810  0.00  0.00    -0.071 SA
BRANCH  30  32
ATOM     32  S   UNL d   1       5.818  -1.539 -19.311  0.00  0.00     0.197 S 
ATOM     33  C   UNL d   1       4.153  -1.624 -20.066  0.00  0.00     0.145 C 
ATOM     34  O   UNL d   1       6.437  -2.874 -19.356  0.00  0.00    -0.221 OA
ATOM     35  O   UNL d   1       6.519  -0.367 -19.852  0.00  0.00    -0.221 OA
ENDBRANCH  30  32
ENDBRANCH  25  27
ENDBRANCH   1  24
TORSDOF 7
