REMARK  8 active torsions:
REMARK  status: ('A' for Active; 'I' for Inactive)
REMARK    1  A    between atoms: C_3  and  S_4 
REMARK    2  A    between atoms: S_4  and  C_5 
REMARK    3  A    between atoms: C_5  and  C_6 
REMARK    4  A    between atoms: C_6  and  C_7 
REMARK    5  A    between atoms: C_7  and  N_8 
REMARK    6  A    between atoms: N_13  and  C_14 
REMARK    7  A    between atoms: C_19  and  C_20 
REMARK    8  A    between atoms: C_28  and  C_29 
ROOT
ATOM      1  N   UNL d   1       9.524   1.520 -15.674  0.00  0.00     0.138 N 
ATOM      2  C   UNL d   1       9.178   0.118 -15.889  0.00  0.00     0.252 C 
ATOM      3  C   UNL d   1       9.906  -0.220 -17.197  0.00  0.00     0.052 C 
ATOM      4  C   UNL d   1       9.080   0.041 -18.477  0.00  0.00     0.021 C 
ATOM      5  C   UNL d   1      10.123   0.662 -19.428  0.00  0.00     0.077 C 
ATOM      6  N   UNL d   1      10.959   1.450 -18.521  0.00  0.00    -0.252 NA
ATOM      7  C   UNL d   1      11.100   0.742 -17.250  0.00  0.00     0.097 C 
ATOM      8  C   UNL d   1      10.944   1.629 -16.026  0.00  0.00     0.266 C 
ENDROOT
BRANCH   1   9
ATOM      9  C   UNL d   1       9.261   1.939 -14.316  0.00  0.00     0.251 C 
BRANCH   9  10
ATOM     10  C   UNL d   1       9.262   3.468 -14.225  0.00  0.00     0.047 C 
BRANCH  10  11
ATOM     11  C   UNL d   1       9.000   3.927 -12.794  0.00  0.00     0.067 C 
BRANCH  11  12
ATOM     12  S   UNL d   1       9.059   5.728 -12.631  0.00  0.00    -0.075 SA
BRANCH  12  13
ATOM     13  C   UNL d   1       9.267   5.842 -10.880  0.00  0.00     0.193 A 
ATOM     14  N   UNL d   1       9.733   6.969 -10.276  0.00  0.00    -0.287 N 
ATOM     15  C   UNL d   1      10.071   8.241 -10.907  0.00  0.00     0.134 C 
ATOM     16  C   UNL d   1       9.800   6.579  -8.972  0.00  0.00     0.186 A 
ATOM     17  N   UNL d   1       9.403   5.310  -8.808  0.00  0.00    -0.127 NA
ATOM     18  N   UNL d   1       9.039   4.838 -10.044  0.00  0.00    -0.122 NA
BRANCH  16  19
ATOM     19  C   UNL d   1      10.250   7.386  -7.820  0.00  0.00     0.136 A 
ATOM     20  N   UNL d   1      10.673   6.695  -6.722  0.00  0.00    -0.238 NA
ATOM     21  C   UNL d   1      11.066   7.408  -5.639  0.00  0.00     0.120 A 
ATOM     22  C   UNL d   1      11.085   8.815  -5.654  0.00  0.00     0.120 A 
ATOM     23  N   UNL d   1      10.680   9.516  -6.749  0.00  0.00    -0.239 NA
ATOM     24  C   UNL d   1      10.248   8.810  -7.821  0.00  0.00     0.121 A 
ENDBRANCH  16  19
ENDBRANCH  12  13
ENDBRANCH  11  12
ENDBRANCH  10  11
ENDBRANCH   9  10
ENDBRANCH   1   9
BRANCH   6  25
ATOM     25  C   UNL d   1      12.172   1.916 -19.079  0.00  0.00     0.040 A 
ATOM     26  C   UNL d   1      13.175   1.043 -19.608  0.00  0.00     0.082 A 
ATOM     27  C   UNL d   1      14.317   1.653 -20.183  0.00  0.00     0.005 A 
ATOM     28  C   UNL d   1      14.486   3.052 -20.226  0.00  0.00     0.000 A 
ATOM     29  C   UNL d   1      13.501   3.893 -19.696  0.00  0.00     0.001 A 
ATOM     30  C   UNL d   1      12.343   3.310 -19.122  0.00  0.00     0.011 A 
BRANCH  26  31
ATOM     31  C   UNL d   1      13.115  -0.480 -19.671  0.00  0.00     0.420 C 
ATOM     32  F   UNL d   1      12.511  -1.040 -18.663  0.00  0.00    -0.166 F 
ATOM     33  F   UNL d   1      12.437  -0.774 -20.800  0.00  0.00    -0.166 F 
ATOM     34  F   UNL d   1      14.376  -0.980 -19.782  0.00  0.00    -0.166 F 
ENDBRANCH  26  31
ENDBRANCH   6  25
TORSDOF 8
