REMARK  8 active torsions:
REMARK  status: ('A' for Active; 'I' for Inactive)
REMARK    1  A    between atoms: C_3  and  N_4 
REMARK    2  A    between atoms: N_4  and  C_5 
REMARK    3  A    between atoms: N_4  and  C_21 
REMARK    4  A    between atoms: C_5  and  C_6 
REMARK    5  A    between atoms: C_6  and  C_7 
REMARK    6  A    between atoms: C_7  and  C_8 
REMARK    7  A    between atoms: C_8  and  N_9 
REMARK    8  A    between atoms: N_12  and  C_13 
ROOT
ATOM      1  C   UNL d   1       5.837   1.437 -14.250  0.00  0.00     0.078 C 
ATOM      2  C   UNL d   1       6.077   2.575 -13.872  0.00  0.00    -0.118 C 
ATOM      3  C   UNL d   1       6.505   3.939 -13.481  0.00  0.00     0.313 C 
ENDROOT
BRANCH   3   4
ATOM      4  N   UNL d   1       7.797   3.959 -12.790  0.00  0.00     0.147 N 
BRANCH   4   5
ATOM      5  C   UNL d   1       7.884   5.230 -12.019  0.00  0.00     0.252 C 
BRANCH   5   6
ATOM      6  C   UNL d   1       9.203   5.396 -11.226  0.00  0.00     0.037 C 
BRANCH   6   7
ATOM      7  C   UNL d   1       9.228   6.687 -10.381  0.00  0.00     0.037 C 
BRANCH   7   8
ATOM      8  C   UNL d   1      10.602   6.941  -9.712  0.00  0.00     0.251 C 
BRANCH   8   9
ATOM      9  N   UNL d   1      10.526   7.803  -8.534  0.00  0.00     0.141 N 
ATOM     10  C   UNL d   1      11.887   8.138  -8.080  0.00  0.00     0.274 C 
ATOM     11  C   UNL d   1      11.838   9.058  -6.841  0.00  0.00     0.137 C 
ATOM     12  N   UNL d   1      11.039   8.428  -5.806  0.00  0.00    -0.344 N 
ATOM     13  C   UNL d   1       9.720   7.975  -6.207  0.00  0.00     0.137 C 
ATOM     14  C   UNL d   1       9.830   7.091  -7.449  0.00  0.00     0.274 C 
BRANCH  12  15
ATOM     15  C   UNL d   1      11.513   8.264  -4.505  0.00  0.00     0.056 A 
ATOM     16  C   UNL d   1      11.673   9.394  -3.677  0.00  0.00     0.017 A 
ATOM     17  C   UNL d   1      12.156   9.239  -2.375  0.00  0.00     0.002 A 
ATOM     18  C   UNL d   1      12.477   7.974  -1.865  0.00  0.00     0.000 A 
ATOM     19  C   UNL d   1      12.308   6.839  -2.682  0.00  0.00     0.002 A 
ATOM     20  C   UNL d   1      11.829   6.981  -3.994  0.00  0.00     0.017 A 
ENDBRANCH  12  15
ENDBRANCH   8   9
ENDBRANCH   7   8
ENDBRANCH   6   7
ENDBRANCH   5   6
ENDBRANCH   4   5
BRANCH   4  21
ATOM     21  C   UNL d   1       8.994   3.723 -13.624  0.00  0.00     0.225 C 
ATOM     22  C   UNL d   1       8.911   2.429 -14.461  0.00  0.00     0.059 C 
ATOM     23  C   UNL d   1      10.001   2.229 -15.461  0.00  0.00    -0.022 A 
ATOM     24  C   UNL d   1      10.789   3.312 -15.914  0.00  0.00    -0.026 A 
ATOM     25  C   UNL d   1      10.095   0.970 -16.075  0.00  0.00     0.023 A 
ATOM     26  C   UNL d   1      10.647   4.703 -15.315  0.00  0.00     0.028 C 
ATOM     27  C   UNL d   1      11.724   3.099 -16.945  0.00  0.00    -0.003 A 
ATOM     28  C   UNL d   1       9.340   4.920 -14.544  0.00  0.00     0.038 C 
ATOM     29  C   UNL d   1      11.853   1.819 -17.523  0.00  0.00     0.027 A 
ATOM     30  C   UNL d   1      11.020   0.759 -17.109  0.00  0.00     0.131 A 
ATOM     31  O   UNL d   1      11.115  -0.467 -17.702  0.00  0.00    -0.190 OA
ENDBRANCH   4  21
ENDBRANCH   3   4
TORSDOF 8
