REMARK  5 active torsions:
REMARK  status: ('A' for Active; 'I' for Inactive)
REMARK    1  A    between atoms: C_4  and  N_5 
REMARK    2  A    between atoms: N_8  and  C_9 
REMARK    3  A    between atoms: C_9  and  C_10 
REMARK    4  A    between atoms: C_10  and  C_11 
REMARK    5  A    between atoms: C_11  and  N_12 
ROOT
ATOM      1  N   UNL d   1      10.014   2.501 -15.737  0.00  0.00    -0.344 N 
ATOM      2  C   UNL d   1       9.749   3.910 -16.011  0.00  0.00     0.137 C 
ATOM      3  C   UNL d   1       8.927   4.524 -14.864  0.00  0.00     0.274 C 
ATOM      4  N   UNL d   1       9.625   4.377 -13.587  0.00  0.00     0.141 N 
ATOM      5  C   UNL d   1       9.784   2.944 -13.322  0.00  0.00     0.274 C 
ATOM      6  C   UNL d   1      10.616   2.252 -14.427  0.00  0.00     0.137 C 
ENDROOT
BRANCH   4   7
ATOM      7  C   UNL d   1       8.817   4.993 -12.534  0.00  0.00     0.252 C 
BRANCH   7   8
ATOM      8  C   UNL d   1       9.699   5.402 -11.345  0.00  0.00     0.060 C 
BRANCH   8   9
ATOM      9  C   UNL d   1       8.958   6.276 -10.332  0.00  0.00     0.108 C 
BRANCH   9  10
ATOM     10  N   UNL d   1       9.819   7.285  -9.725  0.00  0.00    -0.326 N 
ATOM     11  C   UNL d   1      10.119   7.429  -8.379  0.00  0.00     0.060 A 
ATOM     12  C   UNL d   1      10.973   8.568  -8.268  0.00  0.00     0.017 A 
ATOM     13  C   UNL d   1       9.745   6.681  -7.247  0.00  0.00     0.017 A 
ATOM     14  C   UNL d   1      11.148   9.109  -9.583  0.00  0.00     0.020 A 
ATOM     15  C   UNL d   1      11.447   8.912  -6.979  0.00  0.00     0.002 A 
ATOM     16  C   UNL d   1      10.413   8.324 -10.428  0.00  0.00     0.076 A 
ATOM     17  C   UNL d   1      11.080   8.159  -5.845  0.00  0.00     0.000 A 
ATOM     18  C   UNL d   1      10.232   7.045  -5.982  0.00  0.00     0.002 A 
ENDBRANCH   9  10
ENDBRANCH   8   9
ENDBRANCH   7   8
ENDBRANCH   4   7
BRANCH   1  19
ATOM     19  C   UNL d   1       9.673   1.474 -16.634  0.00  0.00     0.056 A 
ATOM     20  C   UNL d   1      10.435   0.282 -16.705  0.00  0.00     0.017 A 
ATOM     21  C   UNL d   1      10.105  -0.734 -17.627  0.00  0.00     0.002 A 
ATOM     22  C   UNL d   1       9.010  -0.573 -18.496  0.00  0.00     0.000 A 
ATOM     23  C   UNL d   1       8.242   0.603 -18.435  0.00  0.00     0.002 A 
ATOM     24  C   UNL d   1       8.564   1.612 -17.506  0.00  0.00     0.017 A 
ENDBRANCH   1  19
TORSDOF 5
