REMARK  2 active torsions:
REMARK  status: ('A' for Active; 'I' for Inactive)
REMARK    1  A    between atoms: O_2  and  C_3 
REMARK    2  A    between atoms: C_7  and  C_8 
ROOT
ATOM      1  C   UNL d   1      10.409   7.447  -8.675  0.00  0.00     0.094 A 
ATOM      2  N   UNL d   1      10.811   8.343  -9.472  0.00  0.00    -0.264 NA
ATOM      3  C   UNL d   1      11.701   9.421  -9.111  0.00  0.00     0.152 A 
ATOM      4  C   UNL d   1      12.105   9.552  -7.613  0.00  0.00     0.002 A 
ATOM      5  C   UNL d   1      11.610   8.536  -6.763  0.00  0.00     0.018 A 
ATOM      6  C   UNL d   1      10.817   7.557  -7.267  0.00  0.00     0.098 A 
ATOM      7  N   UNL d   1      10.511   6.722  -6.229  0.00  0.00    -0.244 NA
ATOM      8  C   UNL d   1      11.145   7.115  -5.072  0.00  0.00     0.081 A 
ATOM      9  C   UNL d   1      11.202   6.530  -3.807  0.00  0.00     0.019 A 
ATOM     10  C   UNL d   1      11.870   7.136  -2.740  0.00  0.00     0.002 A 
ATOM     11  C   UNL d   1      12.558   8.338  -2.975  0.00  0.00     0.000 A 
ATOM     12  C   UNL d   1      12.550   8.909  -4.275  0.00  0.00     0.002 A 
ATOM     13  C   UNL d   1      11.831   8.316  -5.355  0.00  0.00     0.019 A 
ENDROOT
BRANCH   1  14
ATOM     14  C   UNL d   1       9.564   6.394  -9.289  0.00  0.00     0.021 A 
ATOM     15  C   UNL d   1       9.090   5.329  -8.514  0.00  0.00     0.002 A 
ATOM     16  C   UNL d   1       8.263   4.382  -9.088  0.00  0.00     0.002 A 
ATOM     17  C   UNL d   1       7.874   4.454 -10.432  0.00  0.00     0.024 A 
ATOM     18  C   UNL d   1       8.345   5.493 -11.254  0.00  0.00     0.094 A 
ATOM     19  C   UNL d   1       9.191   6.459 -10.669  0.00  0.00     0.026 A 
BRANCH  18  20
ATOM     20  O   UNL d   1       7.983   5.599 -12.580  0.00  0.00    -0.328 OA
ATOM     21  C   UNL d   1       7.166   4.552 -13.100  0.00  0.00     0.181 C 
ENDBRANCH  18  20
ENDBRANCH   1  14
TORSDOF 2
