REMARK  2 active torsions:
REMARK  status: ('A' for Active; 'I' for Inactive)
REMARK    1  A    between atoms: C_7  and  O_8 
REMARK    2  A    between atoms: O_8  and  C_9 
ROOT
ATOM      1  N   UNL d   1      11.829   9.174  -3.759  0.00  0.00    -0.120 N 
ATOM      2  C   UNL d   1      11.435   8.823  -5.030  0.00  0.00     0.215 A 
ATOM      3  N   UNL d   1      10.700   7.737  -5.269  0.00  0.00    -0.219 NA
ATOM      4  C   UNL d   1      10.425   7.639  -6.630  0.00  0.00     0.090 A 
ATOM      5  C   UNL d   1       9.702   6.629  -7.238  0.00  0.00     0.022 A 
ATOM      6  C   UNL d   1       9.547   6.577  -8.610  0.00  0.00     0.026 A 
ATOM      7  C   UNL d   1      10.023   7.593  -9.461  0.00  0.00     0.103 A 
ATOM      8  C   UNL d   1      10.773   8.634  -8.880  0.00  0.00     0.033 A 
ATOM      9  C   UNL d   1      10.980   8.656  -7.461  0.00  0.00     0.052 A 
ATOM     10  S   UNL d   1      11.872   9.818  -6.413  0.00  0.00    -0.045 SA
ENDROOT
BRANCH   7  11
ATOM     11  O   UNL d   1       9.735   7.630 -10.828  0.00  0.00    -0.253 OA
BRANCH  11  12
ATOM     12  C   UNL d   1       9.025   6.628 -11.490  0.00  0.00     0.530 C 
ATOM     13  F   UNL d   1       9.872   5.674 -11.994  0.00  0.00    -0.144 F 
ATOM     14  F   UNL d   1       8.059   5.973 -10.801  0.00  0.00    -0.144 F 
ATOM     15  F   UNL d   1       8.392   7.180 -12.561  0.00  0.00    -0.144 F 
ENDBRANCH  11  12
ENDBRANCH   7  11
TORSDOF 2
