REMARK  5 active torsions:
REMARK  status: ('A' for Active; 'I' for Inactive)
REMARK    1  A    between atoms: C_2  and  C_3 
REMARK       I    between atoms: C_2  and  N_11 
REMARK    2  A    between atoms: C_4  and  C_5 
REMARK    3  A    between atoms: N_11  and  C_12 
REMARK    4  A    between atoms: N_15  and  C_16 
REMARK    5  A    between atoms: C_16  and  C_17 
ROOT
ATOM      1  C   UNL d   1       9.254   6.258  -9.866  0.00  0.00     0.111 C 
ATOM      2  C   UNL d   1      10.294   7.325 -10.233  0.00  0.00     0.060 C 
ATOM      3  C   UNL d   1      10.325   8.460  -9.196  0.00  0.00     0.253 C 
ATOM      4  N   UNL d   1      10.581   7.907  -7.865  0.00  0.00     0.141 N 
ATOM      5  C   UNL d   1       9.476   7.018  -7.489  0.00  0.00     0.253 C 
ATOM      6  C   UNL d   1       9.463   5.803  -8.429  0.00  0.00     0.060 C 
ENDROOT
BRANCH   1   7
ATOM      7  N   UNL d   1       9.305   5.127 -10.783  0.00  0.00    -0.236 NA
ATOM      8  C   UNL d   1       8.732   5.099 -11.999  0.00  0.00     0.275 C 
ATOM      9  O   UNL d   1       8.045   6.013 -12.453  0.00  0.00    -0.266 OA
BRANCH   8  10
ATOM     10  C   UNL d   1       9.061   3.871 -12.697  0.00  0.00     0.062 C 
ATOM     11  C   UNL d   1       8.464   3.561 -13.867  0.00  0.00     0.005 C 
BRANCH  11  12
ATOM     12  C   UNL d   1       8.776   2.373 -14.672  0.00  0.00     0.000 A 
ATOM     13  C   UNL d   1       9.990   1.672 -14.499  0.00  0.00     0.000 A 
ATOM     14  C   UNL d   1      10.265   0.515 -15.253  0.00  0.00     0.000 A 
ATOM     15  C   UNL d   1       9.333   0.052 -16.195  0.00  0.00     0.000 A 
ATOM     16  C   UNL d   1       8.117   0.738 -16.370  0.00  0.00     0.000 A 
ATOM     17  C   UNL d   1       7.838   1.892 -15.612  0.00  0.00     0.000 A 
ENDBRANCH  11  12
ENDBRANCH   8  10
ENDBRANCH   1   7
BRANCH   4  18
ATOM     18  C   UNL d   1      10.734   9.001  -6.898  0.00  0.00     0.277 C 
BRANCH  18  19
ATOM     19  C   UNL d   1      11.219   8.591  -5.509  0.00  0.00     0.011 A 
ATOM     20  C   UNL d   1      11.457   7.238  -5.192  0.00  0.00    -0.002 A 
ATOM     21  C   UNL d   1      11.854   6.875  -3.888  0.00  0.00    -0.000 A 
ATOM     22  C   UNL d   1      12.081   7.861  -2.908  0.00  0.00    -0.000 A 
ATOM     23  C   UNL d   1      11.862   9.216  -3.225  0.00  0.00    -0.000 A 
ATOM     24  C   UNL d   1      11.426   9.581  -4.519  0.00  0.00    -0.002 A 
ENDBRANCH  18  19
ENDBRANCH   4  18
TORSDOF 5
