REMARK  2 active torsions:
REMARK  status: ('A' for Active; 'I' for Inactive)
REMARK    1  A    between atoms: N_2  and  C_4 
REMARK    2  A    between atoms: C_4  and  C_5 
ROOT
ATOM      1  C   UNL d   1      10.238   0.989 -16.166  0.00  0.00     0.180 C 
ATOM      2  C   UNL d   1       9.197   0.166 -16.925  0.00  0.00     0.064 C 
ATOM      3  C   UNL d   1       7.995   1.098 -16.958  0.00  0.00     0.134 C 
ATOM      4  C   UNL d   1       6.678   0.401 -17.295  0.00  0.00    -0.001 A 
ATOM      5  C   UNL d   1       6.219   0.460 -18.629  0.00  0.00     0.027 A 
ATOM      6  C   UNL d   1       5.032  -0.191 -19.010  0.00  0.00     0.140 A 
ATOM      7  F   UNL d   1       4.615  -0.116 -20.295  0.00  0.00    -0.204 F 
ATOM      8  C   UNL d   1       4.293  -0.919 -18.061  0.00  0.00     0.029 A 
ATOM      9  C   UNL d   1       4.743  -0.995 -16.730  0.00  0.00    -0.002 A 
ATOM     10  C   UNL d   1       5.933  -0.338 -16.344  0.00  0.00    -0.020 A 
ATOM     11  C   UNL d   1       6.390  -0.409 -14.905  0.00  0.00     0.054 C 
ATOM     12  C   UNL d   1       6.346   0.963 -14.272  0.00  0.00     0.000 A 
ATOM     13  C   UNL d   1       5.458   1.181 -13.199  0.00  0.00    -0.000 A 
ATOM     14  C   UNL d   1       5.408   2.434 -12.561  0.00  0.00     0.029 A 
ATOM     15  C   UNL d   1       6.240   3.479 -12.988  0.00  0.00     0.142 A 
ATOM     16  F   UNL d   1       6.188   4.686 -12.385  0.00  0.00    -0.204 F 
ATOM     17  C   UNL d   1       7.143   3.258 -14.038  0.00  0.00     0.049 A 
ATOM     18  C   UNL d   1       7.187   2.015 -14.711  0.00  0.00     0.081 A 
ATOM     19  N   UNL d   1       8.130   1.901 -15.747  0.00  0.00    -0.237 N 
ATOM     20  O   UNL d   1       9.457   1.738 -15.239  0.00  0.00    -0.258 OA
ENDROOT
BRANCH   1  21
ATOM     21  C   UNL d   1      11.042   1.932 -17.092  0.00  0.00     0.282 C 
BRANCH  21  22
ATOM     22  N   UNL d   1      12.196   2.552 -16.438  0.00  0.00     0.144 N 
ATOM     23  C   UNL d   1      11.810   3.496 -15.393  0.00  0.00     0.286 C 
ATOM     24  C   UNL d   1      12.983   3.274 -17.430  0.00  0.00     0.286 C 
ENDBRANCH  21  22
ENDBRANCH   1  21
TORSDOF 2
