REMARK  8 active torsions:
REMARK  status: ('A' for Active; 'I' for Inactive)
REMARK    1  A    between atoms: N_2  and  C_3 
REMARK    2  A    between atoms: N_2  and  S_24 
REMARK    3  A    between atoms: N_6  and  C_7 
REMARK    4  A    between atoms: C_7  and  C_8 
REMARK    5  A    between atoms: C_8  and  O_9 
REMARK    6  A    between atoms: O_9  and  C_10 
REMARK    7  A    between atoms: C_15  and  C_16 
REMARK    8  A    between atoms: S_24  and  C_27 
ROOT
ATOM      1  C   UNL d   1      10.076   7.572  -9.079  0.00  0.00     0.096 C 
ATOM      2  C   UNL d   1      10.361   6.090  -9.208  0.00  0.00     0.058 C 
ATOM      3  C   UNL d   1       9.550   5.462 -10.330  0.00  0.00     0.252 C 
ATOM      4  N   UNL d   1       9.854   6.161 -11.591  0.00  0.00     0.140 N 
ATOM      5  C   UNL d   1       9.391   7.541 -11.483  0.00  0.00     0.252 C 
ATOM      6  C   UNL d   1      10.215   8.268 -10.437  0.00  0.00     0.058 C 
ENDROOT
BRANCH   4   7
ATOM      7  C   UNL d   1       9.047   5.581 -12.645  0.00  0.00     0.283 C 
BRANCH   7   8
ATOM      8  C   UNL d   1       9.694   4.384 -13.339  0.00  0.00     0.184 C 
BRANCH   8   9
ATOM      9  O   UNL d   1       8.824   3.880 -14.371  0.00  0.00    -0.329 OA
BRANCH   9  10
ATOM     10  C   UNL d   1       7.715   3.151 -14.018  0.00  0.00     0.094 A 
ATOM     11  C   UNL d   1       7.552   1.853 -14.606  0.00  0.00     0.022 A 
ATOM     12  C   UNL d   1       6.409   1.093 -14.278  0.00  0.00     0.002 A 
ATOM     13  C   UNL d   1       5.458   1.544 -13.344  0.00  0.00     0.000 A 
ATOM     14  C   UNL d   1       5.623   2.825 -12.772  0.00  0.00     0.002 A 
ATOM     15  C   UNL d   1       6.703   3.628 -13.144  0.00  0.00     0.024 A 
BRANCH  11  16
ATOM     16  C   UNL d   1       8.521   1.303 -15.576  0.00  0.00     0.002 A 
ATOM     17  C   UNL d   1       9.912   1.315 -15.319  0.00  0.00     0.000 A 
ATOM     18  C   UNL d   1      10.825   0.792 -16.250  0.00  0.00     0.000 A 
ATOM     19  C   UNL d   1      10.361   0.232 -17.452  0.00  0.00     0.000 A 
ATOM     20  C   UNL d   1       8.982   0.202 -17.728  0.00  0.00     0.000 A 
ATOM     21  C   UNL d   1       8.069   0.736 -16.800  0.00  0.00     0.000 A 
ENDBRANCH  11  16
ENDBRANCH   9  10
ENDBRANCH   8   9
ENDBRANCH   7   8
ENDBRANCH   4   7
BRANCH   1  22
ATOM     22  N   UNL d   1      11.012   8.147  -8.078  0.00  0.00    -0.274 N 
ATOM     23  C   UNL d   1      12.357   8.531  -8.542  0.00  0.00     0.138 C 
BRANCH  22  24
ATOM     24  S   UNL d   1      10.386   9.039  -6.742  0.00  0.00     0.264 S 
ATOM     25  O   UNL d   1      10.991  10.395  -6.743  0.00  0.00    -0.200 OA
ATOM     26  O   UNL d   1       8.949   8.779  -6.685  0.00  0.00    -0.200 OA
BRANCH  24  27
ATOM     27  C   UNL d   1      11.069   8.245  -5.335  0.00  0.00     0.103 A 
ATOM     28  C   UNL d   1      11.360   9.014  -4.187  0.00  0.00     0.015 A 
ATOM     29  C   UNL d   1      11.936   8.407  -3.059  0.00  0.00     0.030 A 
ATOM     30  C   UNL d   1      12.229   7.040  -3.107  0.00  0.00     0.140 A 
ATOM     31  C   UNL d   1      11.966   6.328  -4.277  0.00  0.00     0.030 A 
ATOM     32  F   UNL d   1      12.771   6.395  -2.054  0.00  0.00    -0.204 F 
ATOM     33  C   UNL d   1      11.370   6.884  -5.401  0.00  0.00     0.015 A 
ENDBRANCH  24  27
ENDBRANCH  22  24
ENDBRANCH   1  22
TORSDOF 8
