REMARK  1 active torsions:
REMARK  status: ('A' for Active; 'I' for Inactive)
REMARK    1  A    between atoms: C_6  and  C_7 
ROOT
ATOM      1  C   UNL d   1       9.246   7.897  -7.991  0.00  0.00     0.318 C 
ATOM      2  N   UNL d   1       9.578   9.153  -8.618  0.00  0.00     0.348 N 
ATOM      3  C   UNL d   1      11.013   9.340  -8.742  0.00  0.00     0.296 C 
ATOM      4  C   UNL d   1      11.594   9.556  -7.327  0.00  0.00     0.066 C 
ATOM      5  C   UNL d   1      11.121   8.539  -6.431  0.00  0.00    -0.003 A 
ATOM      6  C   UNL d   1      10.053   7.753  -6.739  0.00  0.00     0.093 A 
ATOM      7  N   UNL d   1       9.876   6.860  -5.700  0.00  0.00    -0.248 NA
ATOM      8  C   UNL d   1      10.875   6.992  -4.795  0.00  0.00     0.081 A 
ATOM      9  C   UNL d   1      11.161   6.373  -3.550  0.00  0.00     0.019 A 
ATOM     10  C   UNL d   1      12.203   6.838  -2.761  0.00  0.00     0.002 A 
ATOM     11  C   UNL d   1      12.945   7.949  -3.198  0.00  0.00     0.000 A 
ATOM     12  C   UNL d   1      12.689   8.583  -4.418  0.00  0.00     0.001 A 
ATOM     13  C   UNL d   1      11.635   8.124  -5.214  0.00  0.00     0.015 A 
ENDROOT
BRANCH   1  14
ATOM     14  C   UNL d   1       9.384   6.702  -8.926  0.00  0.00     0.019 A 
ATOM     15  C   UNL d   1       9.328   5.399  -8.403  0.00  0.00    -0.002 A 
ATOM     16  C   UNL d   1       9.435   4.289  -9.231  0.00  0.00     0.002 A 
ATOM     17  C   UNL d   1       9.492   4.441 -10.619  0.00  0.00     0.027 A 
ATOM     18  C   UNL d   1       9.495   5.727 -11.179  0.00  0.00     0.131 A 
ATOM     19  O   UNL d   1       9.720   5.829 -12.525  0.00  0.00    -0.190 OA
ATOM     20  C   UNL d   1       9.437   6.860 -10.337  0.00  0.00     0.025 A 
ENDBRANCH   1  14
TORSDOF 1
