REMARK  6 active torsions:
REMARK  status: ('A' for Active; 'I' for Inactive)
REMARK    1  A    between atoms: C_2  and  C_3 
REMARK    2  A    between atoms: C_2  and  C_18 
REMARK    3  A    between atoms: C_3  and  C_4 
REMARK    4  A    between atoms: C_4  and  C_5 
REMARK    5  A    between atoms: C_5  and  N_6 
REMARK    6  A    between atoms: N_9  and  C_10 
ROOT
ATOM      1  N   UNL d   1       9.578   5.665 -11.954  0.00  0.00     0.141 N 
ATOM      2  C   UNL d   1       8.711   5.987 -13.094  0.00  0.00     0.274 C 
ATOM      3  C   UNL d   1       9.197   5.250 -14.370  0.00  0.00     0.138 C 
ATOM      4  N   UNL d   1       9.272   3.839 -14.120  0.00  0.00    -0.330 N 
ATOM      5  C   UNL d   1      10.034   3.461 -12.961  0.00  0.00     0.138 C 
ATOM      6  C   UNL d   1       9.519   4.221 -11.727  0.00  0.00     0.274 C 
ENDROOT
BRANCH   1   7
ATOM      7  C   UNL d   1       9.101   6.358 -10.758  0.00  0.00     0.251 C 
BRANCH   7   8
ATOM      8  C   UNL d   1      10.021   7.534 -10.392  0.00  0.00     0.043 C 
BRANCH   8   9
ATOM      9  C   UNL d   1       9.760   8.114  -8.985  0.00  0.00     0.071 C 
BRANCH   9  10
ATOM     10  C   UNL d   1      10.264   7.232  -7.829  0.00  0.00     0.173 C 
ATOM     11  O   UNL d   1      10.279   6.008  -7.953  0.00  0.00    -0.291 OA
BRANCH  10  12
ATOM     12  C   UNL d   1      10.735   7.890  -6.575  0.00  0.00     0.035 A 
ATOM     13  C   UNL d   1      10.690   9.292  -6.381  0.00  0.00     0.005 A 
ATOM     14  C   UNL d   1      11.165   9.861  -5.186  0.00  0.00     0.030 A 
ATOM     15  C   UNL d   1      11.687   9.038  -4.167  0.00  0.00     0.140 A 
ATOM     16  C   UNL d   1      11.727   7.642  -4.341  0.00  0.00     0.030 A 
ATOM     17  F   UNL d   1      12.127   9.585  -3.009  0.00  0.00    -0.204 F 
ATOM     18  C   UNL d   1      11.244   7.074  -5.534  0.00  0.00     0.005 A 
ENDBRANCH  10  12
ENDBRANCH   9  10
ENDBRANCH   8   9
ENDBRANCH   7   8
ENDBRANCH   1   7
BRANCH   4  19
ATOM     19  C   UNL d   1       8.682   2.898 -14.973  0.00  0.00     0.140 A 
ATOM     20  N   UNL d   1       7.724   2.122 -14.438  0.00  0.00    -0.227 NA
ATOM     21  C   UNL d   1       7.090   1.245 -15.239  0.00  0.00     0.101 A 
ATOM     22  C   UNL d   1       7.394   1.100 -16.604  0.00  0.00     0.021 A 
ATOM     23  C   UNL d   1       8.408   1.901 -17.154  0.00  0.00     0.005 A 
ATOM     24  C   UNL d   1       9.062   2.832 -16.323  0.00  0.00     0.037 A 
ENDBRANCH   4  19
TORSDOF 6
