REMARK  10 active torsions:
REMARK  status: ('A' for Active; 'I' for Inactive)
REMARK    1  A    between atoms: C_2  and  C_4 
REMARK    2  A    between atoms: C_7  and  O_8 
REMARK    3  A    between atoms: O_8  and  C_9 
REMARK    4  A    between atoms: C_9  and  C_10 
REMARK    5  A    between atoms: C_10  and  C_11 
REMARK    6  A    between atoms: C_11  and  C_12 
REMARK    7  A    between atoms: C_12  and  C_13 
REMARK    8  A    between atoms: C_13  and  O_14 
REMARK    9  A    between atoms: O_14  and  C_15 
REMARK   10  A    between atoms: C_18  and  C_19 
ROOT
ATOM      1  C   UNL d   1       9.474   6.194 -10.412  0.00  0.00     0.005 C 
ENDROOT
BRANCH   1   2
ATOM      2  C   UNL d   1       8.075   5.569 -10.507  0.00  0.00     0.033 C 
BRANCH   2   3
ATOM      3  C   UNL d   1       7.372   6.007 -11.797  0.00  0.00     0.149 C 
BRANCH   3   4
ATOM      4  O   UNL d   1       7.851   5.215 -12.882  0.00  0.00    -0.331 OA
BRANCH   4   5
ATOM      5  C   UNL d   1       7.245   4.008 -13.144  0.00  0.00     0.094 A 
ATOM      6  C   UNL d   1       6.035   3.575 -12.546  0.00  0.00     0.024 A 
ATOM      7  C   UNL d   1       5.479   2.340 -12.905  0.00  0.00     0.005 A 
ATOM      8  C   UNL d   1       6.088   1.494 -13.859  0.00  0.00     0.040 A 
ATOM      9  C   UNL d   1       7.297   1.927 -14.445  0.00  0.00     0.005 A 
ATOM     10  C   UNL d   1       7.870   3.164 -14.084  0.00  0.00     0.024 A 
BRANCH   8  11
ATOM     11  C   UNL d   1       5.450   0.188 -14.225  0.00  0.00     0.205 C 
ATOM     12  N   UNL d   1       4.197  -0.015 -13.978  0.00  0.00    -0.125 N 
ATOM     13  N   UNL d   1       6.257  -0.764 -14.796  0.00  0.00    -0.125 N 
ENDBRANCH   8  11
ENDBRANCH   4   5
ENDBRANCH   3   4
ENDBRANCH   2   3
ENDBRANCH   1   2
BRANCH   1  14
ATOM     14  C   UNL d   1       9.559   7.088  -9.151  0.00  0.00     0.033 C 
BRANCH  14  15
ATOM     15  C   UNL d   1      10.733   8.107  -9.246  0.00  0.00     0.149 C 
BRANCH  15  16
ATOM     16  O   UNL d   1      10.688   9.064  -8.196  0.00  0.00    -0.331 OA
BRANCH  16  17
ATOM     17  C   UNL d   1      11.024   8.681  -6.917  0.00  0.00     0.094 A 
ATOM     18  C   UNL d   1      11.182   7.316  -6.517  0.00  0.00     0.024 A 
ATOM     19  C   UNL d   1      11.472   7.037  -5.174  0.00  0.00     0.005 A 
ATOM     20  C   UNL d   1      11.732   8.064  -4.231  0.00  0.00     0.040 A 
ATOM     21  C   UNL d   1      11.597   9.412  -4.649  0.00  0.00     0.005 A 
ATOM     22  C   UNL d   1      11.225   9.713  -5.979  0.00  0.00     0.024 A 
BRANCH  20  23
ATOM     23  C   UNL d   1      12.153   7.697  -2.842  0.00  0.00     0.205 C 
ATOM     24  N   UNL d   1      12.674   8.583  -2.078  0.00  0.00    -0.125 N 
ATOM     25  N   UNL d   1      11.913   6.405  -2.436  0.00  0.00    -0.125 N 
ENDBRANCH  20  23
ENDBRANCH  16  17
ENDBRANCH  15  16
ENDBRANCH  14  15
ENDBRANCH   1  14
TORSDOF 10
