REMARK  1 active torsions:
REMARK  status: ('A' for Active; 'I' for Inactive)
REMARK    1  A    between atoms: C_2  and  N_3 
ROOT
ATOM      1  N   UNL d   1       9.609   3.747 -14.303  0.00  0.00     0.138 N 
ATOM      2  C   UNL d   1       9.155   2.481 -13.727  0.00  0.00     0.255 C 
ATOM      3  C   UNL d   1       9.619   1.238 -14.518  0.00  0.00     0.061 C 
ATOM      4  C   UNL d   1       9.120   1.220 -15.960  0.00  0.00    -0.024 A 
ATOM      5  C   UNL d   1       7.737   1.014 -16.161  0.00  0.00    -0.004 A 
ATOM      6  C   UNL d   1       7.188   0.989 -17.456  0.00  0.00    -0.000 A 
ATOM      7  C   UNL d   1       8.024   1.165 -18.570  0.00  0.00    -0.000 A 
ATOM      8  C   UNL d   1       9.404   1.368 -18.384  0.00  0.00    -0.004 A 
ATOM      9  C   UNL d   1       9.970   1.399 -17.089  0.00  0.00    -0.020 A 
ATOM     10  C   UNL d   1      11.475   1.629 -16.980  0.00  0.00     0.071 C 
ATOM     11  C   UNL d   1      11.836   3.082 -16.993  0.00  0.00     0.059 A 
ATOM     12  N   UNL d   1      11.922   3.785 -18.185  0.00  0.00    -0.250 NA
ATOM     13  C   UNL d   1      12.257   5.102 -17.960  0.00  0.00     0.081 A 
ATOM     14  C   UNL d   1      12.450   6.192 -18.829  0.00  0.00     0.019 A 
ATOM     15  C   UNL d   1      12.791   7.448 -18.296  0.00  0.00     0.002 A 
ATOM     16  C   UNL d   1      12.935   7.600 -16.904  0.00  0.00     0.000 A 
ATOM     17  C   UNL d   1      12.727   6.506 -16.042  0.00  0.00     0.001 A 
ATOM     18  C   UNL d   1      12.392   5.227 -16.547  0.00  0.00     0.015 A 
ATOM     19  C   UNL d   1      12.125   3.942 -15.959  0.00  0.00    -0.005 A 
ATOM     20  C   UNL d   1      12.130   3.622 -14.496  0.00  0.00     0.063 C 
ATOM     21  C   UNL d   1      10.903   4.192 -13.778  0.00  0.00     0.255 C 
ENDROOT
BRANCH   1  22
ATOM     22  C   UNL d   1       8.589   4.785 -14.127  0.00  0.00     0.250 C 
ATOM     23  C   UNL d   1       8.450   5.352 -12.698  0.00  0.00     0.037 C 
ENDBRANCH   1  22
TORSDOF 1
