REMARK  0 active torsions:
REMARK  status: ('A' for Active; 'I' for Inactive)
ROOT
ATOM      1  O   UNL d   1       9.193   4.427 -11.105  0.00  0.00    -0.188 OA
ATOM      2  C   UNL d   1       9.441   5.313 -10.093  0.00  0.00     0.158 A 
ATOM      3  C   UNL d   1      10.217   6.397 -10.416  0.00  0.00     0.053 A 
ATOM      4  C   UNL d   1      10.539   7.341  -9.441  0.00  0.00     0.093 A 
ATOM      5  C   UNL d   1      10.095   7.191  -8.102  0.00  0.00     0.008 A 
ATOM      6  C   UNL d   1       9.266   6.096  -7.785  0.00  0.00     0.028 A 
ATOM      7  C   UNL d   1       8.973   5.121  -8.778  0.00  0.00     0.156 A 
ATOM      8  O   UNL d   1       8.279   3.994  -8.453  0.00  0.00    -0.188 OA
ATOM      9  C   UNL d   1      10.410   8.293  -7.077  0.00  0.00     0.083 C 
ATOM     10  C   UNL d   1      11.058   7.963  -5.727  0.00  0.00    -0.018 A 
ATOM     11  C   UNL d   1      11.121   6.677  -5.199  0.00  0.00    -0.004 A 
ATOM     12  C   UNL d   1      11.733   6.464  -3.952  0.00  0.00    -0.000 A 
ATOM     13  C   UNL d   1      12.280   7.499  -3.199  0.00  0.00    -0.000 A 
ATOM     14  C   UNL d   1      12.276   8.794  -3.719  0.00  0.00    -0.003 A 
ATOM     15  C   UNL d   1      11.689   9.005  -4.981  0.00  0.00     0.010 A 
ATOM     16  C   UNL d   1      11.835  10.349  -5.601  0.00  0.00     0.317 C 
ATOM     17  N   UNL d   1      11.144  10.487  -6.826  0.00  0.00     0.345 N 
ATOM     18  C   UNL d   1      11.316   9.345  -7.703  0.00  0.00     0.295 C 
ATOM     19  C   UNL d   1      10.926   9.573  -9.165  0.00  0.00     0.185 C 
ATOM     20  O   UNL d   1      11.218   8.432  -9.895  0.00  0.00    -0.329 OA
ENDROOT
TORSDOF 0
