REMARK  4 active torsions:
REMARK  status: ('A' for Active; 'I' for Inactive)
REMARK    1  A    between atoms: C_7  and  C_8 
REMARK    2  A    between atoms: C_8  and  N_9 
REMARK    3  A    between atoms: N_12  and  C_13 
REMARK    4  A    between atoms: C_13  and  C_14 
REMARK       I    between atoms: C_14  and  N_16 
ROOT
ATOM      1  N   UNL d   1       9.195   1.944 -15.819  0.00  0.00     0.146 N 
ATOM      2  C   UNL d   1       9.411   3.386 -16.011  0.00  0.00     0.286 C 
ATOM      3  C   UNL d   1      10.866   3.768 -15.841  0.00  0.00     0.286 C 
ATOM      4  N   UNL d   1      11.706   3.045 -16.795  0.00  0.00     0.151 N 
ATOM      5  C   UNL d   1      11.500   1.607 -16.615  0.00  0.00     0.286 C 
ATOM      6  C   UNL d   1      10.031   1.216 -16.782  0.00  0.00     0.286 C 
ENDROOT
BRANCH   4   7
ATOM      7  C   UNL d   1      13.094   3.403 -16.599  0.00  0.00     0.337 C 
BRANCH   7   8
ATOM      8  C   UNL d   1      13.497   4.786 -17.165  0.00  0.00     0.271 C 
ATOM      9  O   UNL d   1      14.079   5.516 -16.363  0.00  0.00    -0.270 OA
ATOM     10  N   UNL d   1      13.337   5.089 -18.472  0.00  0.00    -0.299 N 
ATOM     11  C   UNL d   1      13.418   4.123 -19.605  0.00  0.00     0.093 A 
ATOM     12  C   UNL d   1      13.498   6.417 -18.978  0.00  0.00     0.058 A 
ATOM     13  C   UNL d   1      13.655   5.001 -20.885  0.00  0.00     0.051 A 
ATOM     14  C   UNL d   1      14.649   3.181 -19.436  0.00  0.00     0.025 C 
ATOM     15  C   UNL d   1      13.737   6.401 -20.344  0.00  0.00    -0.004 A 
ATOM     16  C   UNL d   1      14.091   7.575 -21.041  0.00  0.00    -0.003 A 
ATOM     17  C   UNL d   1      14.158   8.790 -20.314  0.00  0.00    -0.000 A 
ATOM     18  C   UNL d   1      13.855   8.801 -18.926  0.00  0.00     0.002 A 
ATOM     19  C   UNL d   1      13.489   7.623 -18.267  0.00  0.00     0.017 A 
ENDBRANCH   7   8
ENDBRANCH   4   7
BRANCH   1  20
ATOM     20  C   UNL d   1       7.786   1.560 -15.950  0.00  0.00     0.277 C 
BRANCH  20  21
ATOM     21  C   UNL d   1       6.923   1.856 -14.716  0.00  0.00     0.007 A 
ATOM     22  C   UNL d   1       6.227   0.818 -14.039  0.00  0.00    -0.024 A 
ATOM     23  C   UNL d   1       5.450   1.136 -12.901  0.00  0.00    -0.005 A 
ATOM     24  C   UNL d   1       6.257  -0.625 -14.505  0.00  0.00     0.031 C 
ATOM     25  C   UNL d   1       5.374   2.458 -12.430  0.00  0.00    -0.005 A 
ATOM     26  C   UNL d   1       6.054   3.489 -13.095  0.00  0.00    -0.022 A 
ATOM     27  C   UNL d   1       6.003   4.928 -12.615  0.00  0.00     0.031 C 
ATOM     28  C   UNL d   1       6.777   3.179 -14.240  0.00  0.00    -0.007 A 
ENDBRANCH  20  21
ENDBRANCH   1  20
TORSDOF 4
