REMARK  7 active torsions:
REMARK  status: ('A' for Active; 'I' for Inactive)
REMARK       I    between atoms: C_2  and  N_3 
REMARK    1  A    between atoms: C_2  and  C_27 
REMARK    2  A    between atoms: N_3  and  C_4 
REMARK    3  A    between atoms: C_7  and  C_8 
REMARK    4  A    between atoms: C_8  and  C_9 
REMARK    5  A    between atoms: C_9  and  N_10 
REMARK    6  A    between atoms: C_13  and  C_14 
REMARK    7  A    between atoms: C_27  and  C_29 
ROOT
ATOM      1  C   UNL d   1       9.297   5.545 -11.708  0.00  0.00     0.035 C 
ENDROOT
BRANCH   1   2
ATOM      2  C   UNL d   1       9.537   4.373 -12.673  0.00  0.00     0.002 C 
ATOM      3  C   UNL d   1       8.219   3.929 -13.317  0.00  0.00     0.002 C 
ATOM      4  C   UNL d   1       8.447   2.807 -14.338  0.00  0.00     0.024 C 
ATOM      5  C   UNL d   1       9.476   3.221 -15.412  0.00  0.00     0.106 C 
ATOM      6  C   UNL d   1      10.801   3.635 -14.763  0.00  0.00     0.024 C 
ATOM      7  C   UNL d   1      10.577   4.747 -13.737  0.00  0.00     0.002 C 
BRANCH   5   8
ATOM      8  N   UNL d   1       9.719   2.123 -16.337  0.00  0.00    -0.238 NA
ATOM      9  C   UNL d   1       8.895   1.767 -17.336  0.00  0.00     0.291 C 
ATOM     10  O   UNL d   1       7.870   2.387 -17.608  0.00  0.00    -0.268 OA
BRANCH   9  11
ATOM     11  C   UNL d   1       9.306   0.520 -18.127  0.00  0.00     0.325 C 
ATOM     12  O   UNL d   1       9.493  -0.563 -17.231  0.00  0.00    -0.204 OA
BRANCH  11  13
ATOM     13  C   UNL d   1       8.299   0.119 -19.230  0.00  0.00     0.434 C 
ATOM     14  F   UNL d   1       8.140   1.115 -20.102  0.00  0.00    -0.167 F 
ATOM     15  F   UNL d   1       8.761  -0.942 -19.887  0.00  0.00    -0.167 F 
ATOM     16  F   UNL d   1       7.104  -0.171 -18.706  0.00  0.00    -0.167 F 
ENDBRANCH  11  13
ENDBRANCH   9  11
ENDBRANCH   5   8
ENDBRANCH   1   2
BRANCH   1  17
ATOM     17  C   UNL d   1       8.802   5.095 -10.323  0.00  0.00     0.250 C 
BRANCH  17  18
ATOM     18  N   UNL d   1       9.180   6.045  -9.283  0.00  0.00     0.137 N 
ATOM     19  C   UNL d   1       8.551   5.643  -8.025  0.00  0.00     0.251 C 
ATOM     20  C   UNL d   1       8.910   6.653  -6.922  0.00  0.00     0.040 C 
ATOM     21  C   UNL d   1      10.431   6.771  -6.729  0.00  0.00     0.028 C 
ATOM     22  C   UNL d   1      11.084   7.051  -8.073  0.00  0.00     0.040 C 
ATOM     23  C   UNL d   1      10.628   6.004  -9.084  0.00  0.00     0.251 C 
BRANCH  21  24
ATOM     24  C   UNL d   1      10.806   7.850  -5.741  0.00  0.00     0.002 A 
ATOM     25  C   UNL d   1      11.465   7.579  -4.530  0.00  0.00     0.115 A 
ATOM     26  C   UNL d   1      11.805   8.578  -3.638  0.00  0.00     0.119 A 
ATOM     27  O   UNL d   1      11.857   6.384  -4.021  0.00  0.00    -0.300 OA
ATOM     28  C   UNL d   1      11.473   9.915  -3.881  0.00  0.00     0.026 A 
ATOM     29  O   UNL d   1      12.406   8.040  -2.546  0.00  0.00    -0.300 OA
ATOM     30  C   UNL d   1      10.830  10.211  -5.100  0.00  0.00     0.002 A 
ATOM     31  C   UNL d   1      10.498   9.196  -6.025  0.00  0.00    -0.002 A 
ATOM     32  C   UNL d   1      12.434   6.662  -2.777  0.00  0.00     0.304 A 
ENDBRANCH  21  24
ENDBRANCH  17  18
ENDBRANCH   1  17
TORSDOF 7
