REMARK  6 active torsions:
REMARK  status: ('A' for Active; 'I' for Inactive)
REMARK       I    between atoms: C_2  and  N_3 
REMARK    1  A    between atoms: C_2  and  C_27 
REMARK    2  A    between atoms: N_3  and  C_4 
REMARK    3  A    between atoms: C_7  and  C_8 
REMARK    4  A    between atoms: C_8  and  C_9 
REMARK    5  A    between atoms: C_9  and  N_10 
REMARK    6  A    between atoms: N_13  and  C_14 
ROOT
ATOM      1  C   UNL d   1       8.777   6.579 -10.757  0.00  0.00     0.035 C 
ENDROOT
BRANCH   1   2
ATOM      2  C   UNL d   1       9.832   7.316  -9.898  0.00  0.00     0.002 C 
ATOM      3  C   UNL d   1       9.224   8.498  -9.119  0.00  0.00     0.002 C 
ATOM      4  C   UNL d   1      10.197   9.239  -8.241  0.00  0.00     0.024 C 
ATOM      5  C   UNL d   1      10.895   8.312  -7.287  0.00  0.00     0.106 C 
ATOM      6  C   UNL d   1      11.537   7.165  -8.023  0.00  0.00     0.024 C 
ATOM      7  C   UNL d   1      10.503   6.412  -8.871  0.00  0.00     0.002 C 
BRANCH   5   8
ATOM      8  N   UNL d   1      11.928   9.080  -6.607  0.00  0.00    -0.240 NA
ATOM      9  C   UNL d   1      11.652   9.630  -5.427  0.00  0.00     0.251 C 
ATOM     10  O   UNL d   1      10.857  10.563  -5.271  0.00  0.00    -0.271 OA
BRANCH   9  11
ATOM     11  C   UNL d   1      12.282   8.938  -4.215  0.00  0.00     0.086 C 
ATOM     12  C   UNL d   1      11.817   9.636  -2.930  0.00  0.00     0.042 C 
ATOM     13  C   UNL d   1      12.323   8.922  -1.692  0.00  0.00     0.143 C 
ATOM     14  O   UNL d   1      11.867   7.568  -1.714  0.00  0.00    -0.354 OA
ATOM     15  C   UNL d   1      12.360   6.805  -2.812  0.00  0.00     0.143 C 
ATOM     16  C   UNL d   1      11.869   7.431  -4.126  0.00  0.00     0.042 C 
ENDBRANCH   9  11
ENDBRANCH   5   8
ENDBRANCH   1   2
BRANCH   1  17
ATOM     17  C   UNL d   1       9.281   5.293 -11.423  0.00  0.00     0.250 C 
BRANCH  17  18
ATOM     18  N   UNL d   1       8.462   4.861 -12.541  0.00  0.00     0.141 N 
ATOM     19  C   UNL d   1       7.140   4.416 -12.090  0.00  0.00     0.274 C 
ATOM     20  C   UNL d   1       6.306   3.937 -13.296  0.00  0.00     0.138 C 
ATOM     21  N   UNL d   1       7.038   2.940 -14.057  0.00  0.00    -0.330 N 
ATOM     22  C   UNL d   1       8.396   3.288 -14.424  0.00  0.00     0.138 C 
ATOM     23  C   UNL d   1       9.177   3.758 -13.194  0.00  0.00     0.274 C 
BRANCH  21  24
ATOM     24  C   UNL d   1       6.445   1.707 -14.447  0.00  0.00     0.141 A 
ATOM     25  C   UNL d   1       6.675   1.090 -15.705  0.00  0.00     0.040 A 
ATOM     26  C   UNL d   1       5.999  -0.145 -15.943  0.00  0.00     0.034 A 
ATOM     27  C   UNL d   1       7.462   1.486 -16.875  0.00  0.00     0.011 A 
ATOM     28  C   UNL d   1       5.143  -0.705 -14.977  0.00  0.00     0.027 A 
ATOM     29  S   UNL d   1       6.348  -0.793 -17.544  0.00  0.00    -0.086 SA
ATOM     30  C   UNL d   1       4.968   0.025 -13.794  0.00  0.00     0.101 A 
ATOM     31  N   UNL d   1       5.605   1.172 -13.534  0.00  0.00    -0.227 NA
ATOM     32  C   UNL d   1       7.413   0.537 -17.869  0.00  0.00     0.035 A 
ENDBRANCH  21  24
ENDBRANCH  17  18
ENDBRANCH   1  17
TORSDOF 6
