REMARK  8 active torsions:
REMARK  status: ('A' for Active; 'I' for Inactive)
REMARK    1  A    between atoms: O_2  and  C_3 
REMARK    2  A    between atoms: C_8  and  N_9 
REMARK    3  A    between atoms: N_12  and  C_13 
REMARK    4  A    between atoms: C_13  and  C_14 
REMARK    5  A    between atoms: C_14  and  C_16 
REMARK    6  A    between atoms: C_16  and  C_17 
REMARK    7  A    between atoms: C_17  and  N_18 
REMARK    8  A    between atoms: C_20  and  C_21 
ROOT
ATOM      1  C   UNL d   1       9.466   7.817 -10.973  0.00  0.00     0.283 C 
ENDROOT
BRANCH   1   2
ATOM      2  N   UNL d   1      10.299   7.333  -9.876  0.00  0.00     0.144 N 
ATOM      3  C   UNL d   1      11.158   8.409  -9.365  0.00  0.00     0.274 C 
ATOM      4  C   UNL d   1      12.112   7.950  -8.243  0.00  0.00     0.137 C 
ATOM      5  N   UNL d   1      11.357   7.255  -7.197  0.00  0.00    -0.343 N 
ATOM      6  C   UNL d   1      10.426   6.230  -7.630  0.00  0.00     0.137 C 
ATOM      7  C   UNL d   1       9.530   6.791  -8.741  0.00  0.00     0.274 C 
BRANCH   5   8
ATOM      8  C   UNL d   1      11.387   7.649  -5.846  0.00  0.00     0.079 A 
ATOM      9  C   UNL d   1      11.351   9.005  -5.459  0.00  0.00     0.110 A 
ATOM     10  C   UNL d   1      11.521   9.351  -4.099  0.00  0.00     0.026 A 
ATOM     11  C   UNL d   1      11.784   8.365  -3.125  0.00  0.00     0.002 A 
ATOM     12  C   UNL d   1      11.849   7.018  -3.511  0.00  0.00     0.002 A 
ATOM     13  C   UNL d   1      11.651   6.671  -4.857  0.00  0.00     0.019 A 
BRANCH   9  14
ATOM     14  O   UNL d   1      11.079   9.919  -6.450  0.00  0.00    -0.327 OA
ATOM     15  C   UNL d   1      11.773  11.130  -6.351  0.00  0.00     0.181 C 
ENDBRANCH   9  14
ENDBRANCH   5   8
ENDBRANCH   1   2
BRANCH   1  16
ATOM     16  C   UNL d   1       8.557   6.749 -11.634  0.00  0.00     0.188 C 
ATOM     17  O   UNL d   1       7.627   7.436 -12.439  0.00  0.00    -0.221 OA
BRANCH  16  18
ATOM     18  C   UNL d   1       9.354   5.758 -12.494  0.00  0.00     0.061 C 
BRANCH  18  19
ATOM     19  C   UNL d   1       8.538   4.526 -12.946  0.00  0.00     0.132 C 
BRANCH  19  20
ATOM     20  N   UNL d   1       9.257   3.653 -13.870  0.00  0.00    -0.230 N 
ATOM     21  N   UNL d   1      10.610   3.598 -13.867  0.00  0.00    -0.064 NA
ATOM     22  N   UNL d   1      10.967   2.747 -14.770  0.00  0.00    -0.129 NA
ATOM     23  C   UNL d   1       9.835   2.190 -15.368  0.00  0.00     0.123 A 
ATOM     24  C   UNL d   1       8.735   2.761 -14.784  0.00  0.00     0.118 A 
BRANCH  23  25
ATOM     25  C   UNL d   1       9.940   1.167 -16.415  0.00  0.00     0.021 A 
ATOM     26  C   UNL d   1       8.791   0.460 -16.831  0.00  0.00     0.002 A 
ATOM     27  C   UNL d   1       8.881  -0.521 -17.838  0.00  0.00     0.000 A 
ATOM     28  C   UNL d   1      10.121  -0.804 -18.439  0.00  0.00     0.000 A 
ATOM     29  C   UNL d   1      11.271  -0.100 -18.040  0.00  0.00     0.000 A 
ATOM     30  C   UNL d   1      11.180   0.880 -17.030  0.00  0.00     0.002 A 
ENDBRANCH  23  25
ENDBRANCH  19  20
ENDBRANCH  18  19
ENDBRANCH  16  18
ENDBRANCH   1  16
TORSDOF 8
