REMARK  5 active torsions:
REMARK  status: ('A' for Active; 'I' for Inactive)
REMARK    1  A    between atoms: C_2  and  C_3 
REMARK    2  A    between atoms: C_3  and  N_4 
REMARK    3  A    between atoms: N_4  and  C_5 
REMARK    4  A    between atoms: N_4  and  C_8 
REMARK    5  A    between atoms: C_5  and  C_6 
ROOT
ATOM      1  C   UNL d   1       9.864   6.643 -10.680  0.00  0.00     0.225 C 
ATOM      2  C   UNL d   1       9.888   8.162 -10.914  0.00  0.00     0.040 C 
ATOM      3  C   UNL d   1      10.698   8.930  -9.866  0.00  0.00     0.048 C 
ATOM      4  C   UNL d   1      10.538   8.385  -8.486  0.00  0.00     0.063 A 
ATOM      5  N   UNL d   1      10.949   9.100  -7.364  0.00  0.00    -0.224 NA
ATOM      6  C   UNL d   1      10.734   8.407  -6.240  0.00  0.00     0.214 A 
ATOM      7  N   UNL d   1      11.066   8.861  -4.992  0.00  0.00    -0.120 N 
ATOM      8  S   UNL d   1       9.996   6.831  -6.507  0.00  0.00    -0.050 SA
ATOM      9  C   UNL d   1      10.011   7.158  -8.215  0.00  0.00     0.026 A 
ATOM     10  C   UNL d   1       9.457   6.226  -9.233  0.00  0.00     0.068 C 
ENDROOT
BRANCH   1  11
ATOM     11  N   UNL d   1       9.092   5.956 -11.725  0.00  0.00     0.135 N 
BRANCH  11  12
ATOM     12  C   UNL d   1       7.646   6.319 -11.668  0.00  0.00     0.250 C 
BRANCH  12  13
ATOM     13  C   UNL d   1       6.783   5.596 -12.692  0.00  0.00     0.035 C 
ATOM     14  C   UNL d   1       6.360   4.162 -12.246  0.00  0.00     0.002 C 
ENDBRANCH  12  13
ENDBRANCH  11  12
BRANCH  11  15
ATOM     15  C   UNL d   1       9.339   4.511 -11.671  0.00  0.00     0.250 C 
BRANCH  15  16
ATOM     16  C   UNL d   1       9.225   3.817 -13.079  0.00  0.00     0.035 C 
ATOM     17  C   UNL d   1      10.274   4.287 -14.050  0.00  0.00     0.002 C 
ENDBRANCH  15  16
ENDBRANCH  11  15
ENDBRANCH   1  11
TORSDOF 5
