REMARK  7 active torsions:
REMARK  status: ('A' for Active; 'I' for Inactive)
REMARK    1  A    between atoms: C_2  and  C_4 
REMARK    2  A    between atoms: C_4  and  C_5 
REMARK       I    between atoms: C_5  and  N_7 
REMARK    3  A    between atoms: N_7  and  C_8 
REMARK    4  A    between atoms: C_11  and  C_12 
REMARK    5  A    between atoms: C_12  and  C_13 
REMARK    6  A    between atoms: C_13  and  N_14 
REMARK    7  A    between atoms: C_17  and  C_18 
ROOT
ATOM      1  N   UNL d   1       9.118   4.525 -13.890  0.00  0.00     0.137 N 
ATOM      2  C   UNL d   1       8.365   3.281 -13.806  0.00  0.00     0.251 C 
ATOM      3  C   UNL d   1       8.727   2.327 -14.965  0.00  0.00     0.040 C 
ATOM      4  C   UNL d   1      10.260   2.061 -15.041  0.00  0.00     0.026 C 
ATOM      5  C   UNL d   1      10.982   3.425 -14.972  0.00  0.00     0.040 C 
ATOM      6  C   UNL d   1      10.555   4.270 -13.804  0.00  0.00     0.251 C 
ENDROOT
BRANCH   1   7
ATOM      7  C   UNL d   1       8.713   5.457 -12.844  0.00  0.00     0.250 C 
BRANCH   7   8
ATOM      8  C   UNL d   1       8.915   4.871 -11.418  0.00  0.00     0.035 C 
BRANCH   8   9
ATOM      9  C   UNL d   1       8.939   5.907 -10.308  0.00  0.00     0.002 C 
ATOM     10  C   UNL d   1       9.109   5.194  -8.957  0.00  0.00     0.002 C 
ATOM     11  C   UNL d   1       9.187   6.205  -7.811  0.00  0.00     0.024 C 
ATOM     12  C   UNL d   1      10.293   7.244  -8.033  0.00  0.00     0.106 C 
ATOM     13  C   UNL d   1      10.129   7.954  -9.379  0.00  0.00     0.024 C 
ATOM     14  C   UNL d   1      10.060   6.949 -10.517  0.00  0.00     0.002 C 
BRANCH  12  15
ATOM     15  N   UNL d   1      10.263   8.210  -6.943  0.00  0.00    -0.240 NA
ATOM     16  C   UNL d   1      11.321   8.927  -6.559  0.00  0.00     0.251 C 
ATOM     17  O   UNL d   1      12.345   9.034  -7.232  0.00  0.00    -0.271 OA
BRANCH  16  18
ATOM     18  C   UNL d   1      11.260   9.568  -5.175  0.00  0.00     0.090 C 
BRANCH  18  19
ATOM     19  C   UNL d   1      12.239   8.917  -4.170  0.00  0.00     0.009 C 
ATOM     20  C   UNL d   1      12.076   7.380  -4.035  0.00  0.00     0.001 C 
ATOM     21  C   UNL d   1      12.067   9.571  -2.799  0.00  0.00     0.001 C 
ENDBRANCH  18  19
ENDBRANCH  16  18
ENDBRANCH  12  15
ENDBRANCH   8   9
ENDBRANCH   7   8
ENDBRANCH   1   7
BRANCH   4  22
ATOM     22  C   UNL d   1      10.649   1.240 -16.282  0.00  0.00    -0.024 A 
ATOM     23  C   UNL d   1      11.643   1.636 -17.234  0.00  0.00    -0.001 A 
ATOM     24  C   UNL d   1      11.935   0.859 -18.347  0.00  0.00     0.090 A 
ATOM     25  C   UNL d   1      12.542   2.843 -17.278  0.00  0.00     0.061 A 
ATOM     26  C   UNL d   1      11.255  -0.353 -18.589  0.00  0.00     0.024 A 
ATOM     27  O   UNL d   1      12.919   1.387 -19.135  0.00  0.00    -0.331 OA
ATOM     28  C   UNL d   1      10.270  -0.763 -17.668  0.00  0.00     0.002 A 
ATOM     29  C   UNL d   1       9.981   0.019 -16.527  0.00  0.00    -0.004 A 
ATOM     30  C   UNL d   1      13.351   2.627 -18.544  0.00  0.00     0.154 A 
ENDBRANCH   4  22
TORSDOF 7
