REMARK  9 active torsions:
REMARK  status: ('A' for Active; 'I' for Inactive)
REMARK    1  A    between atoms: C_3  and  S_4 
REMARK    2  A    between atoms: S_4  and  C_5 
REMARK    3  A    between atoms: C_5  and  C_6 
REMARK    4  A    between atoms: C_6  and  C_7 
REMARK    5  A    between atoms: C_7  and  N_8 
REMARK    6  A    between atoms: C_13  and  C_14 
REMARK    7  A    between atoms: C_17  and  C_18 
REMARK    8  A    between atoms: C_27  and  C_28 
REMARK    9  A    between atoms: C_31  and  C_32 
ROOT
ATOM      1  C   UNL d   1      10.112   4.358 -14.190  0.00  0.00     0.047 C 
ENDROOT
BRANCH   1   2
ATOM      2  C   UNL d   1       8.768   4.351 -13.446  0.00  0.00     0.067 C 
BRANCH   2   3
ATOM      3  S   UNL d   1       8.318   5.995 -12.808  0.00  0.00    -0.075 SA
BRANCH   3   4
ATOM      4  C   UNL d   1       8.956   5.905 -11.163  0.00  0.00     0.193 A 
ATOM      5  N   UNL d   1       9.440   6.978 -10.503  0.00  0.00    -0.289 N 
ATOM      6  C   UNL d   1       9.489   8.364 -10.944  0.00  0.00     0.134 C 
ATOM      7  C   UNL d   1       9.733   6.455  -9.292  0.00  0.00     0.168 A 
ATOM      8  N   UNL d   1       9.461   5.150  -9.208  0.00  0.00    -0.128 NA
ATOM      9  N   UNL d   1       8.960   4.790 -10.432  0.00  0.00    -0.122 NA
BRANCH   7  10
ATOM     10  C   UNL d   1      10.282   7.191  -8.162  0.00  0.00     0.055 A 
ATOM     11  C   UNL d   1       9.775   6.994  -6.862  0.00  0.00     0.102 A 
ATOM     12  N   UNL d   1      10.262   7.635  -5.778  0.00  0.00    -0.239 NA
ATOM     13  C   UNL d   1      11.270   8.520  -5.945  0.00  0.00     0.141 A 
ATOM     14  C   UNL d   1      11.837   8.787  -7.216  0.00  0.00     0.024 A 
ATOM     15  C   UNL d   1      11.337   8.105  -8.339  0.00  0.00     0.006 A 
BRANCH  13  16
ATOM     16  C   UNL d   1      11.769   9.245  -4.736  0.00  0.00     0.314 C 
ATOM     17  N   UNL d   1      13.057   9.577  -4.752  0.00  0.00    -0.101 N 
ATOM     18  O   UNL d   1      11.056   9.494  -3.764  0.00  0.00    -0.262 OA
ENDBRANCH  13  16
ENDBRANCH   7  10
ENDBRANCH   3   4
ENDBRANCH   2   3
ENDBRANCH   1   2
BRANCH   1  19
ATOM     19  C   UNL d   1      10.316   3.072 -15.020  0.00  0.00     0.251 C 
BRANCH  19  20
ATOM     20  N   UNL d   1      11.457   3.195 -15.921  0.00  0.00     0.137 N 
ATOM     21  C   UNL d   1      11.142   4.057 -17.049  0.00  0.00     0.251 C 
ATOM     22  C   UNL d   1      12.220   3.784 -18.061  0.00  0.00     0.037 A 
ATOM     23  C   UNL d   1      12.655   2.385 -17.751  0.00  0.00     0.038 C 
ATOM     24  C   UNL d   1      12.171   4.389 -19.453  0.00  0.00     0.024 A 
ATOM     25  C   UNL d   1      13.217   4.856 -18.461  0.00  0.00     0.007 A 
ATOM     26  C   UNL d   1      11.800   1.938 -16.580  0.00  0.00     0.250 C 
BRANCH  24  27
ATOM     27  C   UNL d   1      11.014   5.254 -19.841  0.00  0.00    -0.022 A 
ATOM     28  C   UNL d   1       9.765   4.680 -20.162  0.00  0.00    -0.004 A 
ATOM     29  C   UNL d   1       8.664   5.507 -20.465  0.00  0.00     0.004 A 
ATOM     30  C   UNL d   1       8.799   6.912 -20.458  0.00  0.00     0.071 A 
ATOM     31  C   UNL d   1      10.048   7.481 -20.134  0.00  0.00     0.004 A 
ATOM     32  C   UNL d   1      11.146   6.657 -19.838  0.00  0.00    -0.004 A 
BRANCH  30  33
ATOM     33  C   UNL d   1       7.612   7.800 -20.797  0.00  0.00     0.419 C 
ATOM     34  F   UNL d   1       6.854   7.231 -21.734  0.00  0.00    -0.166 F 
ATOM     35  F   UNL d   1       6.872   7.986 -19.708  0.00  0.00    -0.166 F 
ATOM     36  F   UNL d   1       8.014   8.990 -21.245  0.00  0.00    -0.166 F 
ENDBRANCH  30  33
ENDBRANCH  24  27
ENDBRANCH  19  20
ENDBRANCH   1  19
TORSDOF 9
