REMARK  5 active torsions:
REMARK  status: ('A' for Active; 'I' for Inactive)
REMARK    1  A    between atoms: C_3  and  C_4 
REMARK    2  A    between atoms: N_7  and  C_8 
REMARK    3  A    between atoms: C_8  and  C_9 
REMARK    4  A    between atoms: C_9  and  C_10 
REMARK    5  A    between atoms: C_20  and  C_21 
ROOT
ATOM      1  C   UNL d   1       9.281   5.444 -11.700  0.00  0.00     0.046 C 
ATOM      2  C   UNL d   1       9.218   4.998 -10.232  0.00  0.00     0.041 C 
ATOM      3  C   UNL d   1       9.993   5.968  -9.310  0.00  0.00     0.251 C 
ATOM      4  N   UNL d   1       9.502   7.329  -9.452  0.00  0.00     0.137 N 
ATOM      5  C   UNL d   1       9.667   7.801 -10.826  0.00  0.00     0.251 C 
ATOM      6  C   UNL d   1       8.881   6.912 -11.820  0.00  0.00     0.041 C 
ENDROOT
BRANCH   1   7
ATOM      7  C   UNL d   1       8.454   4.542 -12.613  0.00  0.00     0.078 A 
ATOM      8  C   UNL d   1       8.921   3.647 -13.619  0.00  0.00     0.013 A 
ATOM      9  C   UNL d   1      10.361   3.372 -13.987  0.00  0.00     0.034 C 
ATOM     10  C   UNL d   1       7.758   3.076 -14.085  0.00  0.00     0.100 A 
ATOM     11  N   UNL d   1       6.721   3.651 -13.381  0.00  0.00    -0.149 NA
ATOM     12  N   UNL d   1       7.145   4.540 -12.472  0.00  0.00    -0.153 NA
BRANCH  10  13
ATOM     13  C   UNL d   1       7.482   2.059 -15.095  0.00  0.00     0.019 A 
ATOM     14  C   UNL d   1       6.402   1.159 -14.945  0.00  0.00     0.002 A 
ATOM     15  C   UNL d   1       6.123   0.183 -15.927  0.00  0.00     0.011 A 
ATOM     16  C   UNL d   1       6.947   0.082 -17.068  0.00  0.00     0.058 A 
ATOM     17  C   UNL d   1       8.025   0.966 -17.228  0.00  0.00     0.011 A 
ATOM     18 CL   UNL d   1       6.618  -1.099 -18.281  0.00  0.00    -0.082 Cl
ATOM     19  C   UNL d   1       8.270   1.961 -16.268  0.00  0.00     0.002 A 
ENDBRANCH  10  13
ENDBRANCH   1   7
BRANCH   4  20
ATOM     20  C   UNL d   1      10.209   8.204  -8.512  0.00  0.00     0.255 C 
BRANCH  20  21
ATOM     21  C   UNL d   1       9.462   8.260  -7.171  0.00  0.00     0.062 C 
BRANCH  21  22
ATOM     22  C   UNL d   1      10.419   8.288  -6.002  0.00  0.00    -0.020 A 
ATOM     23  C   UNL d   1      10.749   9.494  -5.334  0.00  0.00    -0.004 A 
ATOM     24  C   UNL d   1      11.610   9.467  -4.218  0.00  0.00    -0.000 A 
ATOM     25  C   UNL d   1      12.165   8.252  -3.775  0.00  0.00    -0.000 A 
ATOM     26  C   UNL d   1      11.839   7.052  -4.435  0.00  0.00    -0.000 A 
ATOM     27  C   UNL d   1      10.969   7.077  -5.542  0.00  0.00    -0.004 A 
ENDBRANCH  21  22
ENDBRANCH  20  21
ENDBRANCH   4  20
TORSDOF 5
