REMARK  7 active torsions:
REMARK  status: ('A' for Active; 'I' for Inactive)
REMARK    1  A    between atoms: C_9  and  N_10 
REMARK    2  A    between atoms: N_13  and  C_14 
REMARK    3  A    between atoms: C_14  and  C_15 
REMARK    4  A    between atoms: C_15  and  C_16 
REMARK    5  A    between atoms: C_16  and  C_17 
REMARK    6  A    between atoms: C_17  and  N_18 
REMARK       I    between atoms: N_18  and  C_19 
REMARK    7  A    between atoms: C_19  and  C_21 
ROOT
ATOM      1  C   UNL d   1       7.650   5.110 -12.313  0.00  0.00     0.251 C 
ENDROOT
BRANCH   1   2
ATOM      2  N   UNL d   1       8.752   4.292 -12.838  0.00  0.00     0.141 N 
ATOM      3  C   UNL d   1       8.187   3.332 -13.788  0.00  0.00     0.274 C 
ATOM      4  C   UNL d   1       9.281   2.434 -14.364  0.00  0.00     0.137 C 
ATOM      5  N   UNL d   1      10.359   3.219 -14.960  0.00  0.00    -0.344 N 
ATOM      6  C   UNL d   1      10.906   4.241 -14.089  0.00  0.00     0.137 C 
ATOM      7  C   UNL d   1       9.749   5.088 -13.574  0.00  0.00     0.274 C 
BRANCH   5   8
ATOM      8  C   UNL d   1      10.841   3.039 -16.268  0.00  0.00     0.054 A 
ATOM      9  C   UNL d   1      10.801   1.777 -16.902  0.00  0.00     0.021 A 
ATOM     10  C   UNL d   1      10.307   0.443 -16.376  0.00  0.00     0.119 A 
ATOM     11  C   UNL d   1      11.298   1.607 -18.191  0.00  0.00     0.082 A 
ATOM     12  C   UNL d   1      10.610  -0.425 -17.586  0.00  0.00     0.260 A 
ATOM     13  O   UNL d   1      10.278  -1.608 -17.652  0.00  0.00    -0.270 OA
ATOM     14  N   UNL d   1      11.172   0.268 -18.568  0.00  0.00    -0.212 NA
ATOM     15  C   UNL d   1      11.852   2.663 -18.932  0.00  0.00     0.019 A 
ATOM     16  C   UNL d   1      11.900   3.933 -18.321  0.00  0.00     0.003 A 
ATOM     17  C   UNL d   1      11.401   4.119 -17.011  0.00  0.00     0.017 A 
ENDBRANCH   5   8
ENDBRANCH   1   2
BRANCH   1  18
ATOM     18  C   UNL d   1       8.091   6.548 -11.959  0.00  0.00     0.037 C 
BRANCH  18  19
ATOM     19  C   UNL d   1       9.055   6.498 -10.775  0.00  0.00     0.029 C 
BRANCH  19  20
ATOM     20  C   UNL d   1       9.790   7.816 -10.528  0.00  0.00     0.129 C 
BRANCH  20  21
ATOM     21  N   UNL d   1      10.498   7.872  -9.259  0.00  0.00    -0.234 NA
ATOM     22  C   UNL d   1      10.164   7.267  -8.103  0.00  0.00     0.275 C 
ATOM     23  O   UNL d   1       9.468   6.262  -7.996  0.00  0.00    -0.266 OA
BRANCH  22  24
ATOM     24  C   UNL d   1      10.695   7.902  -6.871  0.00  0.00     0.058 A 
ATOM     25  C   UNL d   1      11.084   7.072  -5.806  0.00  0.00     0.005 A 
ATOM     26  C   UNL d   1      11.491   7.638  -4.590  0.00  0.00     0.000 A 
ATOM     27  C   UNL d   1      11.491   9.043  -4.435  0.00  0.00     0.000 A 
ATOM     28  C   UNL d   1      11.872   6.793  -3.534  0.00  0.00     0.000 A 
ATOM     29  C   UNL d   1      11.081   9.883  -5.488  0.00  0.00     0.000 A 
ATOM     30  C   UNL d   1      11.888   9.591  -3.208  0.00  0.00     0.000 A 
ATOM     31  C   UNL d   1      10.687   9.306  -6.715  0.00  0.00     0.005 A 
ATOM     32  C   UNL d   1      12.317   8.752  -2.162  0.00  0.00     0.000 A 
ATOM     33  C   UNL d   1      12.298   7.358  -2.322  0.00  0.00     0.000 A 
ENDBRANCH  22  24
ENDBRANCH  20  21
ENDBRANCH  19  20
ENDBRANCH  18  19
ENDBRANCH   1  18
TORSDOF 7
