REMARK  4 active torsions:
REMARK  status: ('A' for Active; 'I' for Inactive)
REMARK    1  A    between atoms: C_3  and  C_4 
REMARK    2  A    between atoms: N_12  and  C_13 
REMARK    3  A    between atoms: N_16  and  C_17 
REMARK    4  A    between atoms: C_17  and  C_18 
ROOT
ATOM      1  C   UNL d   1       9.569   4.404 -14.066  0.00  0.00     0.011 A 
ATOM      2  C   UNL d   1       9.271   3.035 -13.984  0.00  0.00    -0.002 A 
ATOM      3  C   UNL d   1      10.059   2.087 -14.668  0.00  0.00     0.000 A 
ATOM      4  C   UNL d   1      11.145   2.512 -15.459  0.00  0.00     0.010 A 
ATOM      5  C   UNL d   1      11.448   3.887 -15.557  0.00  0.00     0.068 A 
ATOM      6  C   UNL d   1      12.563   4.333 -16.376  0.00  0.00     0.101 C 
ATOM      7  N   UNL d   1      13.451   4.691 -17.031  0.00  0.00    -0.191 NA
ATOM      8  C   UNL d   1      10.658   4.829 -14.860  0.00  0.00     0.008 A 
ENDROOT
BRANCH   1   9
ATOM      9  C   UNL d   1       8.698   5.408 -13.334  0.00  0.00     0.277 C 
BRANCH   9  10
ATOM     10  N   UNL d   1       9.385   6.014 -12.188  0.00  0.00     0.141 N 
ATOM     11  C   UNL d   1       9.194   5.180 -11.009  0.00  0.00     0.253 C 
ATOM     12  C   UNL d   1       9.922   5.771  -9.777  0.00  0.00     0.060 C 
ATOM     13  C   UNL d   1       9.492   7.197  -9.469  0.00  0.00     0.109 C 
ATOM     14  C   UNL d   1       9.560   8.020 -10.780  0.00  0.00     0.060 C 
ATOM     15  C   UNL d   1       8.825   7.335 -11.940  0.00  0.00     0.253 C 
BRANCH  13  16
ATOM     16  N   UNL d   1      10.288   7.774  -8.385  0.00  0.00    -0.257 N 
ATOM     17  C   UNL d   1      10.147   7.551  -7.030  0.00  0.00     0.057 A 
ATOM     18  C   UNL d   1       9.095   6.660  -6.486  0.00  0.00     0.052 C 
ATOM     19  C   UNL d   1      11.137   8.254  -6.430  0.00  0.00     0.034 A 
ATOM     20  C   UNL d   1      11.854   8.893  -7.472  0.00  0.00     0.121 A 
ATOM     21  N   UNL d   1      11.349   8.578  -8.652  0.00  0.00    -0.168 NA
BRANCH  19  22
ATOM     22  C   UNL d   1      11.466   8.321  -5.013  0.00  0.00     0.003 A 
ATOM     23  C   UNL d   1      11.492   9.571  -4.373  0.00  0.00     0.000 A 
ATOM     24  C   UNL d   1      11.857   9.668  -3.024  0.00  0.00     0.000 A 
ATOM     25  C   UNL d   1      12.230   8.514  -2.297  0.00  0.00     0.000 A 
ATOM     26  C   UNL d   1      12.204   7.258  -2.928  0.00  0.00     0.000 A 
ATOM     27  C   UNL d   1      11.833   7.166  -4.284  0.00  0.00     0.000 A 
ENDBRANCH  19  22
ENDBRANCH  13  16
ENDBRANCH   9  10
ENDBRANCH   1   9
TORSDOF 4
