REMARK  5 active torsions:
REMARK  status: ('A' for Active; 'I' for Inactive)
REMARK       I    between atoms: C_2  and  N_3 
REMARK    1  A    between atoms: C_2  and  C_18 
REMARK    2  A    between atoms: N_3  and  C_4 
REMARK    3  A    between atoms: N_7  and  C_8 
REMARK    4  A    between atoms: C_8  and  C_9 
REMARK    5  A    between atoms: C_21  and  C_22 
ROOT
ATOM      1  C   UNL d   1       9.973   6.777 -10.533  0.00  0.00     0.142 C 
ATOM      2  C   UNL d   1      10.041   8.241 -10.928  0.00  0.00     0.062 C 
ATOM      3  C   UNL d   1       9.717   9.018  -9.671  0.00  0.00     0.253 C 
ATOM      4  N   UNL d   1      10.085   8.082  -8.614  0.00  0.00     0.143 N 
ATOM      5  C   UNL d   1       9.562   6.786  -9.083  0.00  0.00     0.275 C 
ENDROOT
BRANCH   1   6
ATOM      6  N   UNL d   1       9.078   5.919 -11.324  0.00  0.00    -0.234 NA
ATOM      7  C   UNL d   1       9.310   5.406 -12.557  0.00  0.00     0.275 C 
ATOM      8  O   UNL d   1      10.278   5.646 -13.257  0.00  0.00    -0.266 OA
BRANCH   7   9
ATOM      9  C   UNL d   1       8.406   4.350 -13.072  0.00  0.00     0.058 A 
ATOM     10  C   UNL d   1       7.045   4.272 -12.699  0.00  0.00     0.005 A 
ATOM     11  C   UNL d   1       6.261   3.214 -13.199  0.00  0.00     0.001 A 
ATOM     12  C   UNL d   1       6.837   2.238 -14.041  0.00  0.00     0.006 A 
ATOM     13  C   UNL d   1       8.181   2.362 -14.460  0.00  0.00     0.001 A 
ATOM     14  C   UNL d   1       8.955   3.407 -13.967  0.00  0.00     0.005 A 
BRANCH  12  15
ATOM     15  C   UNL d   1       6.085   1.114 -14.577  0.00  0.00     0.029 A 
ATOM     16  S   UNL d   1       4.910   0.353 -13.546  0.00  0.00    -0.086 SA
ATOM     17  C   UNL d   1       4.421  -0.713 -14.829  0.00  0.00     0.035 A 
ATOM     18  C   UNL d   1       5.164  -0.511 -15.962  0.00  0.00     0.007 A 
ATOM     19  C   UNL d   1       6.133   0.528 -15.812  0.00  0.00     0.007 A 
ENDBRANCH  12  15
ENDBRANCH   7   9
ENDBRANCH   1   6
BRANCH   4  20
ATOM     20  C   UNL d   1       9.486   8.502  -7.356  0.00  0.00     0.277 C 
BRANCH  20  21
ATOM     21  C   UNL d   1      10.325   8.155  -6.147  0.00  0.00     0.012 A 
ATOM     22  C   UNL d   1      10.756   9.160  -5.274  0.00  0.00     0.010 A 
ATOM     23  C   UNL d   1      11.504   8.803  -4.115  0.00  0.00     0.068 A 
ATOM     24  C   UNL d   1      11.862   7.462  -3.885  0.00  0.00     0.068 A 
ATOM     25 CL   UNL d   1      11.851   9.993  -2.919  0.00  0.00    -0.082 Cl
ATOM     26  C   UNL d   1      11.471   6.502  -4.804  0.00  0.00     0.012 A 
ATOM     27 CL   UNL d   1      12.569   6.916  -2.429  0.00  0.00    -0.082 Cl
ATOM     28  C   UNL d   1      10.680   6.800  -5.908  0.00  0.00    -0.001 A 
ENDBRANCH  20  21
ENDBRANCH   4  20
TORSDOF 5
