REMARK  9 active torsions:
REMARK  status: ('A' for Active; 'I' for Inactive)
REMARK    1  A    between atoms: C_2  and  C_3 
REMARK    2  A    between atoms: C_3  and  N_4 
REMARK    3  A    between atoms: N_4  and  C_5 
REMARK       I    between atoms: N_4  and  C_22 
REMARK    4  A    between atoms: C_5  and  C_6 
REMARK    5  A    between atoms: C_6  and  C_7 
REMARK    6  A    between atoms: C_7  and  N_8 
REMARK    7  A    between atoms: N_11  and  C_12 
REMARK    8  A    between atoms: C_17  and  O_18 
REMARK    9  A    between atoms: C_22  and  C_24 
ROOT
ATOM      1  C   UNL d   1       9.802   5.266 -12.338  0.00  0.00     0.252 C 
ENDROOT
BRANCH   1   2
ATOM      2  C   UNL d   1       8.880   4.845 -11.167  0.00  0.00     0.060 C 
BRANCH   2   3
ATOM      3  C   UNL d   1       8.305   6.059 -10.451  0.00  0.00     0.106 C 
BRANCH   3   4
ATOM      4  N   UNL d   1       9.218   6.688  -9.455  0.00  0.00    -0.317 N 
ATOM      5  C   UNL d   1       9.055   6.462  -8.130  0.00  0.00     0.257 C 
ATOM      6  O   UNL d   1       8.324   5.593  -7.690  0.00  0.00    -0.267 OA
BRANCH   4   7
ATOM      7  C   UNL d   1      10.273   7.582  -9.965  0.00  0.00     0.104 C 
BRANCH   7   8
ATOM      8  C   UNL d   1       9.780   8.987 -10.405  0.00  0.00     0.024 C 
ATOM      9  C   UNL d   1       8.987   9.012 -11.748  0.00  0.00     0.002 C 
ENDBRANCH   7   8
ENDBRANCH   4   7
BRANCH   5  10
ATOM     10  C   UNL d   1       9.796   7.318  -7.125  0.00  0.00     0.056 C 
ATOM     11  C   UNL d   1      10.523   6.692  -6.090  0.00  0.00     0.005 C 
ATOM     12  C   UNL d   1      11.237   7.430  -5.134  0.00  0.00     0.000 C 
ATOM     13  C   UNL d   1      11.318   8.841  -5.244  0.00  0.00     0.000 C 
ATOM     14  C   UNL d   1      10.607   9.474  -6.297  0.00  0.00     0.000 C 
ATOM     15  C   UNL d   1       9.798   8.736  -7.157  0.00  0.00     0.005 C 
ENDBRANCH   5  10
ENDBRANCH   3   4
ENDBRANCH   2   3
ENDBRANCH   1   2
BRANCH   1  16
ATOM     16  N   UNL d   1      10.429   4.141 -12.986  0.00  0.00     0.141 N 
ATOM     17  C   UNL d   1      11.567   4.601 -13.796  0.00  0.00     0.274 C 
ATOM     18  C   UNL d   1      12.253   3.436 -14.456  0.00  0.00     0.137 C 
ATOM     19  N   UNL d   1      11.279   2.655 -15.201  0.00  0.00    -0.343 N 
ATOM     20  C   UNL d   1      10.105   2.253 -14.467  0.00  0.00     0.137 C 
ATOM     21  C   UNL d   1       9.441   3.477 -13.836  0.00  0.00     0.274 C 
BRANCH  19  22
ATOM     22  C   UNL d   1      11.517   2.306 -16.539  0.00  0.00     0.079 A 
ATOM     23  C   UNL d   1      11.140   1.040 -17.036  0.00  0.00     0.110 A 
ATOM     24  C   UNL d   1      11.337   0.726 -18.394  0.00  0.00     0.026 A 
ATOM     25  C   UNL d   1      11.935   1.660 -19.259  0.00  0.00     0.002 A 
ATOM     26  C   UNL d   1      12.340   2.911 -18.756  0.00  0.00     0.002 A 
ATOM     27  C   UNL d   1      12.134   3.227 -17.405  0.00  0.00     0.019 A 
BRANCH  23  28
ATOM     28  O   UNL d   1      10.622   0.125 -16.147  0.00  0.00    -0.327 OA
ATOM     29  C   UNL d   1      10.048  -1.045 -16.663  0.00  0.00     0.181 C 
ENDBRANCH  23  28
ENDBRANCH  19  22
ENDBRANCH   1  16
TORSDOF 9
