REMARK  8 active torsions:
REMARK  status: ('A' for Active; 'I' for Inactive)
REMARK    1  A    between atoms: N_2  and  C_3 
REMARK    2  A    between atoms: N_2  and  S_22 
REMARK    3  A    between atoms: N_6  and  C_7 
REMARK    4  A    between atoms: C_7  and  C_8 
REMARK    5  A    between atoms: C_8  and  O_9 
REMARK    6  A    between atoms: O_9  and  C_10 
REMARK    7  A    between atoms: C_15  and  C_16 
REMARK    8  A    between atoms: S_22  and  C_25 
ROOT
ATOM      1  C   UNL d   1      10.143   7.515  -8.985  0.00  0.00     0.096 C 
ATOM      2  C   UNL d   1      10.063   6.014  -8.689  0.00  0.00     0.058 C 
ATOM      3  C   UNL d   1       9.162   5.312  -9.716  0.00  0.00     0.252 C 
ATOM      4  N   UNL d   1       9.659   5.571 -11.069  0.00  0.00     0.140 N 
ATOM      5  C   UNL d   1       9.595   6.995 -11.386  0.00  0.00     0.252 C 
ATOM      6  C   UNL d   1      10.507   7.784 -10.437  0.00  0.00     0.058 C 
ENDROOT
BRANCH   4   7
ATOM      7  C   UNL d   1       8.882   4.824 -12.047  0.00  0.00     0.283 C 
BRANCH   7   8
ATOM      8  C   UNL d   1       9.700   3.670 -12.641  0.00  0.00     0.184 C 
BRANCH   8   9
ATOM      9  O   UNL d   1       9.930   3.857 -14.031  0.00  0.00    -0.329 OA
BRANCH   9  10
ATOM     10  C   UNL d   1      10.203   2.745 -14.807  0.00  0.00     0.090 A 
ATOM     11  C   UNL d   1      11.102   2.904 -15.900  0.00  0.00    -0.001 A 
ATOM     12  C   UNL d   1      11.332   1.787 -16.752  0.00  0.00    -0.002 A 
ATOM     13  C   UNL d   1      10.706   0.548 -16.535  0.00  0.00    -0.000 A 
ATOM     14  C   UNL d   1       9.846   0.387 -15.440  0.00  0.00     0.002 A 
ATOM     15  C   UNL d   1       9.595   1.474 -14.584  0.00  0.00     0.024 A 
BRANCH  11  16
ATOM     16  C   UNL d   1      11.797   4.268 -16.166  0.00  0.00     0.021 C 
ATOM     17  C   UNL d   1      10.770   5.382 -16.476  0.00  0.00     0.004 C 
ATOM     18  C   UNL d   1      12.745   4.209 -17.386  0.00  0.00     0.004 C 
ATOM     19  C   UNL d   1      12.642   4.707 -14.947  0.00  0.00     0.004 C 
ENDBRANCH  11  16
ENDBRANCH   9  10
ENDBRANCH   8   9
ENDBRANCH   7   8
ENDBRANCH   4   7
BRANCH   1  20
ATOM     20  N   UNL d   1      11.110   8.161  -8.072  0.00  0.00    -0.274 N 
ATOM     21  C   UNL d   1      12.499   7.697  -8.056  0.00  0.00     0.138 C 
BRANCH  20  22
ATOM     22  S   UNL d   1      10.508   9.034  -6.707  0.00  0.00     0.264 S 
ATOM     23  O   UNL d   1      11.061  10.386  -6.725  0.00  0.00    -0.200 OA
ATOM     24  O   UNL d   1       9.055   8.790  -6.642  0.00  0.00    -0.200 OA
BRANCH  22  25
ATOM     25  C   UNL d   1      11.153   8.281  -5.266  0.00  0.00     0.103 A 
ATOM     26  C   UNL d   1      11.524   9.080  -4.150  0.00  0.00     0.015 A 
ATOM     27  C   UNL d   1      12.114   8.474  -3.025  0.00  0.00     0.030 A 
ATOM     28  C   UNL d   1      12.300   7.082  -3.053  0.00  0.00     0.140 A 
ATOM     29  C   UNL d   1      11.924   6.351  -4.193  0.00  0.00     0.030 A 
ATOM     30  F   UNL d   1      12.897   6.420  -2.037  0.00  0.00    -0.204 F 
ATOM     31  C   UNL d   1      11.308   6.899  -5.303  0.00  0.00     0.015 A 
ENDBRANCH  22  25
ENDBRANCH  20  22
ENDBRANCH   1  20
TORSDOF 8
