REMARK  2 active torsions:
REMARK  status: ('A' for Active; 'I' for Inactive)
REMARK    1  A    between atoms: C_2  and  N_3 
REMARK    2  A    between atoms: N_3  and  C_5 
ROOT
ATOM      1  C   UNL d   1      10.153   8.556  -6.811  0.00  0.00     0.243 C 
ATOM      2  C   UNL d   1       9.858   7.055  -7.077  0.00  0.00     0.038 C 
ATOM      3  C   UNL d   1      11.071   6.162  -6.772  0.00  0.00     0.007 C 
ATOM      4  C   UNL d   1      11.512   6.295  -5.299  0.00  0.00     0.026 C 
ATOM      5  C   UNL d   1      11.464   7.710  -4.755  0.00  0.00    -0.021 A 
ATOM      6  C   UNL d   1      12.144   7.976  -3.555  0.00  0.00     0.016 A 
ATOM      7  C   UNL d   1      12.089   9.279  -3.051  0.00  0.00     0.099 A 
ATOM      8  N   UNL d   1      11.421  10.264  -3.668  0.00  0.00    -0.243 NA
ATOM      9  C   UNL d   1      10.817  10.023  -4.845  0.00  0.00     0.096 A 
ATOM     10  C   UNL d   1      10.784   8.744  -5.432  0.00  0.00     0.024 A 
ENDROOT
BRANCH   1  11
ATOM     11  N   UNL d   1      10.981   9.191  -7.859  0.00  0.00     0.141 N 
ATOM     12  C   UNL d   1      12.424   8.857  -7.728  0.00  0.00     0.286 C 
BRANCH  11  13
ATOM     13  C   UNL d   1      10.433   9.028  -9.218  0.00  0.00     0.251 C 
ATOM     14  C   UNL d   1      11.502   9.095 -10.295  0.00  0.00     0.037 C 
ENDBRANCH  11  13
ENDBRANCH   1  11
TORSDOF 2
