REMARK  6 active torsions:
REMARK  status: ('A' for Active; 'I' for Inactive)
REMARK    1  A    between atoms: O_2  and  C_3 
REMARK    2  A    between atoms: C_7  and  N_8 
REMARK    3  A    between atoms: N_11  and  C_12 
REMARK    4  A    between atoms: C_12  and  C_13 
REMARK    5  A    between atoms: C_13  and  C_14 
REMARK    6  A    between atoms: C_14  and  N_15 
ROOT
ATOM      1  N   UNL d   1       9.046   1.232 -15.273  0.00  0.00    -0.344 N 
ATOM      2  C   UNL d   1      10.437   0.869 -15.506  0.00  0.00     0.137 C 
ATOM      3  C   UNL d   1      11.261   2.138 -15.778  0.00  0.00     0.274 C 
ATOM      4  N   UNL d   1      11.098   3.111 -14.683  0.00  0.00     0.141 N 
ATOM      5  C   UNL d   1       9.683   3.484 -14.525  0.00  0.00     0.274 C 
ATOM      6  C   UNL d   1       8.824   2.238 -14.242  0.00  0.00     0.137 C 
ENDROOT
BRANCH   4   7
ATOM      7  C   UNL d   1      11.912   4.313 -14.882  0.00  0.00     0.252 C 
BRANCH   7   8
ATOM      8  C   UNL d   1      11.918   4.825 -16.338  0.00  0.00     0.060 C 
BRANCH   8   9
ATOM      9  C   UNL d   1      12.044   6.353 -16.443  0.00  0.00     0.111 C 
BRANCH   9  10
ATOM     10  N   UNL d   1      12.299   6.767 -17.839  0.00  0.00    -0.299 N 
ATOM     11  C   UNL d   1      11.196   6.878 -18.762  0.00  0.00     0.058 A 
ATOM     12  C   UNL d   1      11.371   7.527 -20.006  0.00  0.00    -0.006 A 
ATOM     13  C   UNL d   1       9.902   6.390 -18.429  0.00  0.00     0.017 A 
ATOM     14  C   UNL d   1      12.732   8.107 -20.334  0.00  0.00     0.038 C 
ATOM     15  C   UNL d   1      10.285   7.677 -20.896  0.00  0.00    -0.003 A 
ATOM     16  C   UNL d   1      13.868   7.296 -19.689  0.00  0.00     0.093 C 
ATOM     17  C   UNL d   1      13.589   6.973 -18.222  0.00  0.00     0.238 C 
ATOM     18  O   UNL d   1      14.549   6.869 -17.450  0.00  0.00    -0.272 OA
ATOM     19  C   UNL d   1       9.010   7.165 -20.557  0.00  0.00    -0.000 A 
ATOM     20  C   UNL d   1       8.828   6.523 -19.326  0.00  0.00     0.002 A 
ENDBRANCH   9  10
ENDBRANCH   8   9
ENDBRANCH   7   8
ENDBRANCH   4   7
BRANCH   1  21
ATOM     21  C   UNL d   1       7.980   0.663 -15.995  0.00  0.00     0.058 A 
ATOM     22  C   UNL d   1       8.114   0.338 -17.363  0.00  0.00     0.017 A 
ATOM     23  C   UNL d   1       7.044  -0.244 -18.065  0.00  0.00     0.004 A 
ATOM     24  C   UNL d   1       5.825  -0.508 -17.413  0.00  0.00     0.024 A 
ATOM     25  C   UNL d   1       5.673  -0.189 -16.042  0.00  0.00     0.096 A 
ATOM     26  C   UNL d   1       6.750   0.398 -15.353  0.00  0.00     0.041 A 
BRANCH  25  27
ATOM     27  O   UNL d   1       4.519  -0.411 -15.320  0.00  0.00    -0.328 OA
ATOM     28  C   UNL d   1       3.514  -1.225 -15.906  0.00  0.00     0.181 C 
ENDBRANCH  25  27
ENDBRANCH   1  21
TORSDOF 6
