REMARK  3 active torsions:
REMARK  status: ('A' for Active; 'I' for Inactive)
REMARK    1  A    between atoms: C_7  and  C_8 
REMARK    2  A    between atoms: C_8  and  N_9 
REMARK    3  A    between atoms: N_12  and  C_13 
ROOT
ATOM      1  N   UNL d   1       8.111   4.391 -13.582  0.00  0.00     0.146 N 
ATOM      2  C   UNL d   1       9.260   5.307 -13.675  0.00  0.00     0.275 C 
ATOM      3  C   UNL d   1       9.000   6.589 -12.843  0.00  0.00     0.137 C 
ATOM      4  N   UNL d   1       8.698   6.229 -11.471  0.00  0.00    -0.344 N 
ATOM      5  C   UNL d   1       7.630   5.268 -11.330  0.00  0.00     0.137 C 
ATOM      6  C   UNL d   1       7.971   4.048 -12.160  0.00  0.00     0.275 C 
ENDROOT
BRANCH   1   7
ATOM      7  C   UNL d   1       8.340   3.192 -14.383  0.00  0.00     0.280 C 
BRANCH   7   8
ATOM      8  C   UNL d   1       7.259   2.137 -14.546  0.00  0.00     0.050 A 
ATOM      9  C   UNL d   1       7.085   1.256 -15.591  0.00  0.00     0.082 A 
ATOM     10  C   UNL d   1       7.735   1.008 -16.833  0.00  0.00     0.019 A 
ATOM     11  N   UNL d   1       5.965   0.459 -15.266  0.00  0.00    -0.234 N 
ATOM     12  C   UNL d   1       7.231   0.019 -17.663  0.00  0.00     0.003 A 
ATOM     13  C   UNL d   1       6.080  -0.730 -17.296  0.00  0.00     0.015 A 
ATOM     14  C   UNL d   1       5.461  -0.491 -16.092  0.00  0.00     0.061 A 
ATOM     15  C   UNL d   1       4.225  -1.240 -15.625  0.00  0.00     0.052 C 
ATOM     16  N   UNL d   1       5.455   0.777 -14.048  0.00  0.00    -0.164 NA
ATOM     17  C   UNL d   1       6.171   1.794 -13.675  0.00  0.00     0.120 A 
ENDBRANCH   7   8
ENDBRANCH   1   7
BRANCH   4  18
ATOM     18  C   UNL d   1       9.385   6.758 -10.367  0.00  0.00     0.056 A 
ATOM     19  C   UNL d   1       9.492   6.019  -9.166  0.00  0.00     0.018 A 
ATOM     20  C   UNL d   1      10.141   6.574  -8.049  0.00  0.00     0.013 A 
ATOM     21  C   UNL d   1      10.687   7.865  -8.126  0.00  0.00     0.058 A 
ATOM     22  C   UNL d   1      10.595   8.604  -9.316  0.00  0.00     0.013 A 
ATOM     23 CL   UNL d   1      11.451   8.554  -6.750  0.00  0.00    -0.082 Cl
ATOM     24  C   UNL d   1       9.933   8.059 -10.433  0.00  0.00     0.018 A 
ENDBRANCH   4  18
TORSDOF 3
