REMARK  3 active torsions:
REMARK  status: ('A' for Active; 'I' for Inactive)
REMARK    1  A    between atoms: C_4  and  C_5 
REMARK    2  A    between atoms: N_15  and  C_16 
REMARK    3  A    between atoms: C_16  and  C_17 
ROOT
ATOM      1  O   UNL d   1       5.464   5.072 -12.225  0.00  0.00    -0.289 OA
ATOM      2  C   UNL d   1       6.573   4.693 -12.638  0.00  0.00     0.200 A 
ATOM      3  C   UNL d   1       6.863   3.590 -13.500  0.00  0.00     0.064 A 
ATOM      4  C   UNL d   1       8.203   3.564 -13.675  0.00  0.00     0.097 A 
ATOM      5  O   UNL d   1       8.859   4.537 -12.966  0.00  0.00    -0.328 OA
ATOM      6  C   UNL d   1       7.897   5.304 -12.228  0.00  0.00     0.157 A 
ATOM      7  C   UNL d   1       8.065   6.790 -12.550  0.00  0.00     0.071 C 
ATOM      8  C   UNL d   1       9.401   7.318 -11.996  0.00  0.00     0.254 C 
ATOM      9  N   UNL d   1       9.498   7.089 -10.548  0.00  0.00     0.142 N 
ATOM     10  C   UNL d   1       9.409   5.652 -10.269  0.00  0.00     0.254 C 
ATOM     11  C   UNL d   1       8.100   5.089 -10.748  0.00  0.00     0.071 C 
ENDROOT
BRANCH   4  12
ATOM     12  C   UNL d   1       8.980   2.594 -14.465  0.00  0.00     0.022 A 
ATOM     13  C   UNL d   1      10.327   2.896 -14.766  0.00  0.00     0.002 A 
ATOM     14  C   UNL d   1      11.085   2.007 -15.542  0.00  0.00     0.000 A 
ATOM     15  C   UNL d   1      10.518   0.817 -16.020  0.00  0.00     0.000 A 
ATOM     16  C   UNL d   1       9.175   0.512 -15.720  0.00  0.00     0.000 A 
ATOM     17  C   UNL d   1       8.402   1.401 -14.948  0.00  0.00     0.002 A 
ENDBRANCH   4  12
BRANCH   9  18
ATOM     18  C   UNL d   1      10.741   7.651 -10.021  0.00  0.00     0.277 C 
BRANCH  18  19
ATOM     19  C   UNL d   1      10.783   7.813  -8.503  0.00  0.00     0.011 A 
ATOM     20  C   UNL d   1      10.759   6.702  -7.627  0.00  0.00    -0.002 A 
ATOM     21  C   UNL d   1      10.731   6.881  -6.235  0.00  0.00    -0.000 A 
ATOM     22  C   UNL d   1      10.810   8.173  -5.690  0.00  0.00    -0.000 A 
ATOM     23  C   UNL d   1      10.898   9.287  -6.547  0.00  0.00    -0.000 A 
ATOM     24  C   UNL d   1      10.877   9.107  -7.947  0.00  0.00    -0.002 A 
ENDBRANCH  18  19
ENDBRANCH   9  18
TORSDOF 3
