REMARK  7 active torsions:
REMARK  status: ('A' for Active; 'I' for Inactive)
REMARK       I    between atoms: C_2  and  N_3 
REMARK    1  A    between atoms: C_2  and  C_27 
REMARK    2  A    between atoms: N_3  and  C_4 
REMARK    3  A    between atoms: C_7  and  C_8 
REMARK    4  A    between atoms: C_8  and  C_9 
REMARK    5  A    between atoms: C_9  and  N_10 
REMARK    6  A    between atoms: N_13  and  C_14 
REMARK    7  A    between atoms: C_30  and  N_31 
ROOT
ATOM      1  C   UNL d   1       7.673   3.955 -12.351  0.00  0.00     0.107 C 
ATOM      2  C   UNL d   1       6.802   4.585 -13.406  0.00  0.00     0.024 C 
ATOM      3  C   UNL d   1       6.303   3.495 -14.349  0.00  0.00     0.002 C 
ATOM      4  C   UNL d   1       7.496   2.746 -15.059  0.00  0.00     0.002 C 
ATOM      5  C   UNL d   1       8.389   2.096 -14.025  0.00  0.00     0.002 C 
ATOM      6  C   UNL d   1       8.860   3.193 -13.024  0.00  0.00     0.024 C 
ENDROOT
BRANCH   4   7
ATOM      7  C   UNL d   1       6.927   1.686 -16.006  0.00  0.00     0.035 C 
BRANCH   7   8
ATOM      8  C   UNL d   1       8.017   0.866 -16.713  0.00  0.00     0.250 C 
BRANCH   8   9
ATOM      9  N   UNL d   1       7.485   0.040 -17.785  0.00  0.00     0.141 N 
ATOM     10  C   UNL d   1       8.557  -0.858 -18.244  0.00  0.00     0.274 C 
ATOM     11  C   UNL d   1       8.044  -1.742 -19.401  0.00  0.00     0.138 C 
ATOM     12  N   UNL d   1       6.837  -2.460 -18.990  0.00  0.00    -0.330 N 
ATOM     13  C   UNL d   1       5.805  -1.632 -18.397  0.00  0.00     0.138 C 
ATOM     14  C   UNL d   1       6.374  -0.777 -17.297  0.00  0.00     0.274 C 
BRANCH  12  15
ATOM     15  C   UNL d   1       6.664  -3.858 -19.114  0.00  0.00     0.138 A 
ATOM     16  C   UNL d   1       5.401  -4.471 -19.320  0.00  0.00     0.036 A 
ATOM     17  C   UNL d   1       5.305  -5.847 -19.456  0.00  0.00     0.095 A 
ATOM     18  C   UNL d   1       4.029  -3.880 -19.535  0.00  0.00     0.064 A 
ATOM     19  C   UNL d   1       6.456  -6.645 -19.382  0.00  0.00     0.045 A 
ATOM     20  O   UNL d   1       4.035  -6.277 -19.712  0.00  0.00    -0.331 OA
ATOM     21  C   UNL d   1       7.676  -5.971 -19.173  0.00  0.00     0.103 A 
ATOM     22  N   UNL d   1       7.780  -4.625 -19.044  0.00  0.00    -0.228 NA
ATOM     23  C   UNL d   1       3.164  -5.137 -19.679  0.00  0.00     0.154 A 
ENDBRANCH  12  15
ENDBRANCH   8   9
ENDBRANCH   7   8
ENDBRANCH   4   7
BRANCH   1  24
ATOM     24  N   UNL d   1       8.089   4.896 -11.320  0.00  0.00    -0.236 NA
ATOM     25  C   UNL d   1       9.061   5.810 -11.428  0.00  0.00     0.276 C 
ATOM     26  O   UNL d   1       9.619   6.067 -12.494  0.00  0.00    -0.266 OA
BRANCH  25  27
ATOM     27  C   UNL d   1       9.451   6.485 -10.154  0.00  0.00     0.077 A 
ATOM     28  C   UNL d   1      10.259   7.641 -10.163  0.00  0.00     0.105 A 
ATOM     29  N   UNL d   1      10.662   8.281  -9.046  0.00  0.00    -0.227 NA
ATOM     30  C   UNL d   1      10.256   7.808  -7.849  0.00  0.00     0.140 A 
ATOM     31  C   UNL d   1       9.425   6.675  -7.733  0.00  0.00     0.037 A 
ATOM     32  C   UNL d   1       9.043   5.991  -8.900  0.00  0.00     0.009 A 
BRANCH  30  33
ATOM     33  N   UNL d   1      10.725   8.501  -6.706  0.00  0.00    -0.329 N 
ATOM     34  C   UNL d   1      10.580   7.972  -5.359  0.00  0.00     0.135 C 
ATOM     35  C   UNL d   1      11.908   8.030  -4.587  0.00  0.00     0.167 C 
ATOM     36  O   UNL d   1      12.480   9.335  -4.698  0.00  0.00    -0.350 OA
ATOM     37  C   UNL d   1      12.628   9.818  -6.036  0.00  0.00     0.167 C 
ATOM     38  C   UNL d   1      11.295   9.841  -6.768  0.00  0.00     0.135 C 
ENDBRANCH  30  33
ENDBRANCH  25  27
ENDBRANCH   1  24
TORSDOF 7
