REMARK  8 active torsions:
REMARK  status: ('A' for Active; 'I' for Inactive)
REMARK    1  A    between atoms: S_2  and  N_4 
REMARK    2  A    between atoms: S_2  and  C_22 
REMARK    3  A    between atoms: N_4  and  C_5 
REMARK    4  A    between atoms: C_5  and  C_6 
REMARK    5  A    between atoms: N_9  and  C_10 
REMARK    6  A    between atoms: C_10  and  C_11 
REMARK    7  A    between atoms: C_11  and  O_12 
REMARK    8  A    between atoms: O_12  and  C_13 
ROOT
ATOM      1  C   UNL d   1       9.054   5.801 -10.598  0.00  0.00     0.029 C 
ATOM      2  C   UNL d   1      10.140   6.883 -10.690  0.00  0.00     0.037 C 
ATOM      3  C   UNL d   1       9.992   7.949  -9.614  0.00  0.00     0.250 C 
ATOM      4  N   UNL d   1      10.030   7.344  -8.284  0.00  0.00     0.140 N 
ATOM      5  C   UNL d   1       8.947   6.371  -8.136  0.00  0.00     0.250 C 
ATOM      6  C   UNL d   1       9.056   5.242  -9.165  0.00  0.00     0.037 C 
ENDROOT
BRANCH   1   7
ATOM      7  C   UNL d   1       9.280   4.669 -11.616  0.00  0.00     0.139 C 
BRANCH   7   8
ATOM      8  N   UNL d   1       9.274   5.190 -12.987  0.00  0.00    -0.185 NA
BRANCH   8   9
ATOM      9  S   UNL d   1       9.642   4.120 -14.285  0.00  0.00     0.281 S 
ATOM     10  O   UNL d   1       9.471   4.859 -15.546  0.00  0.00    -0.199 OA
ATOM     11  O   UNL d   1      10.919   3.462 -13.978  0.00  0.00    -0.199 OA
BRANCH   9  12
ATOM     12  C   UNL d   1       8.320   2.917 -14.193  0.00  0.00     0.105 A 
ATOM     13  C   UNL d   1       8.576   1.577 -14.546  0.00  0.00     0.015 A 
ATOM     14  C   UNL d   1       7.539   0.624 -14.463  0.00  0.00     0.030 A 
ATOM     15  C   UNL d   1       6.260   1.011 -14.015  0.00  0.00     0.140 A 
ATOM     16  C   UNL d   1       6.014   2.348 -13.642  0.00  0.00     0.030 A 
ATOM     17  F   UNL d   1       5.267   0.094 -13.921  0.00  0.00    -0.204 F 
ATOM     18  C   UNL d   1       7.038   3.308 -13.749  0.00  0.00     0.015 A 
ENDBRANCH   9  12
ENDBRANCH   8   9
ENDBRANCH   7   8
ENDBRANCH   1   7
BRANCH   4  19
ATOM     19  C   UNL d   1       9.851   8.384  -7.286  0.00  0.00     0.283 C 
BRANCH  19  20
ATOM     20  C   UNL d   1      11.178   9.178  -7.139  0.00  0.00     0.184 C 
BRANCH  20  21
ATOM     21  O   UNL d   1      11.335   9.743  -5.841  0.00  0.00    -0.329 OA
BRANCH  21  22
ATOM     22  C   UNL d   1      11.611   8.879  -4.801  0.00  0.00     0.096 A 
ATOM     23  C   UNL d   1      11.862   9.450  -3.534  0.00  0.00     0.054 A 
ATOM     24  C   UNL d   1      12.152   8.634  -2.429  0.00  0.00     0.142 A 
ATOM     25  C   UNL d   1      12.146   7.233  -2.544  0.00  0.00     0.030 A 
ATOM     26  F   UNL d   1      12.411   9.196  -1.246  0.00  0.00    -0.204 F 
ATOM     27  C   UNL d   1      11.873   6.658  -3.790  0.00  0.00     0.004 A 
ATOM     28  C   UNL d   1      11.642   7.465  -4.911  0.00  0.00     0.024 A 
ENDBRANCH  21  22
ENDBRANCH  20  21
ENDBRANCH  19  20
ENDBRANCH   4  19
TORSDOF 8
