REMARK  7 active torsions:
REMARK  status: ('A' for Active; 'I' for Inactive)
REMARK    1  A    between atoms: C_5  and  C_6 
REMARK    2  A    between atoms: N_11  and  C_12 
REMARK    3  A    between atoms: C_12  and  C_13 
REMARK    4  A    between atoms: C_13  and  C_14 
REMARK    5  A    between atoms: C_14  and  C_15 
REMARK    6  A    between atoms: C_15  and  N_16 
REMARK    7  A    between atoms: N_19  and  C_20 
ROOT
ATOM      1  C   UNL d   1       7.003   2.726 -15.156  0.00  0.00     0.027 C 
ENDROOT
BRANCH   1   2
ATOM      2  C   UNL d   1       7.362   2.642 -13.690  0.00  0.00     0.112 C 
BRANCH   2   3
ATOM      3  N   UNL d   1       7.475   3.957 -13.034  0.00  0.00    -0.270 N 
ATOM      4  C   UNL d   1       6.412   4.734 -12.775  0.00  0.00     0.240 A 
ATOM      5  C   UNL d   1       6.859   5.975 -12.104  0.00  0.00     0.092 A 
ATOM      6  O   UNL d   1       5.247   4.469 -13.075  0.00  0.00    -0.272 OA
ATOM      7  C   UNL d   1       8.344   5.817 -11.980  0.00  0.00     0.099 A 
ATOM      8  C   UNL d   1       7.776   6.896 -12.873  0.00  0.00     0.024 A 
ATOM      9  C   UNL d   1       8.634   4.505 -12.617  0.00  0.00     0.243 A 
ATOM     10  O   UNL d   1       9.754   4.007 -12.736  0.00  0.00    -0.272 OA
BRANCH   7  11
ATOM     11  C   UNL d   1       9.058   6.189 -10.718  0.00  0.00    -0.014 A 
ATOM     12  C   UNL d   1       9.947   7.276 -10.694  0.00  0.00    -0.004 A 
ATOM     13  C   UNL d   1      10.628   7.631  -9.512  0.00  0.00    -0.005 A 
ATOM     14  C   UNL d   1      10.391   6.902  -8.330  0.00  0.00    -0.022 A 
ATOM     15  C   UNL d   1      11.119   7.271  -7.055  0.00  0.00     0.031 C 
ATOM     16  C   UNL d   1       9.490   5.823  -8.346  0.00  0.00    -0.005 A 
ATOM     17  C   UNL d   1       8.823   5.463  -9.530  0.00  0.00    -0.004 A 
ENDBRANCH   7  11
ENDBRANCH   2   3
ENDBRANCH   1   2
BRANCH   1  18
ATOM     18  C   UNL d   1       6.534   1.397 -15.750  0.00  0.00     0.037 C 
BRANCH  18  19
ATOM     19  C   UNL d   1       6.436   1.433 -17.291  0.00  0.00     0.251 C 
BRANCH  19  20
ATOM     20  N   UNL d   1       5.537   0.416 -17.824  0.00  0.00     0.141 N 
ATOM     21  C   UNL d   1       5.452   0.553 -19.288  0.00  0.00     0.274 C 
ATOM     22  C   UNL d   1       4.493  -0.496 -19.881  0.00  0.00     0.137 C 
ATOM     23  N   UNL d   1       4.896  -1.828 -19.450  0.00  0.00    -0.344 N 
ATOM     24  C   UNL d   1       5.089  -1.990 -18.018  0.00  0.00     0.137 C 
ATOM     25  C   UNL d   1       6.040  -0.919 -17.488  0.00  0.00     0.274 C 
BRANCH  23  26
ATOM     26  C   UNL d   1       5.084  -2.900 -20.339  0.00  0.00     0.057 A 
ATOM     27  C   UNL d   1       4.575  -4.196 -20.027  0.00  0.00     0.022 A 
ATOM     28  C   UNL d   1       4.836  -5.246 -20.970  0.00  0.00     0.031 A 
ATOM     29  C   UNL d   1       3.801  -4.678 -18.900  0.00  0.00     0.009 A 
ATOM     30  C   UNL d   1       5.559  -5.017 -22.148  0.00  0.00     0.007 A 
ATOM     31  S   UNL d   1       4.138  -6.765 -20.428  0.00  0.00    -0.086 SA
ATOM     32  C   UNL d   1       6.047  -3.734 -22.435  0.00  0.00     0.002 A 
ATOM     33  C   UNL d   1       5.806  -2.680 -21.533  0.00  0.00     0.017 A 
ATOM     34  C   UNL d   1       3.522  -6.011 -18.992  0.00  0.00     0.035 A 
ENDBRANCH  23  26
ENDBRANCH  19  20
ENDBRANCH  18  19
ENDBRANCH   1  18
TORSDOF 7
