REMARK  5 active torsions:
REMARK  status: ('A' for Active; 'I' for Inactive)
REMARK       I    between atoms: C_2  and  N_3 
REMARK       I    between atoms: C_2  and  N_15 
REMARK    1  A    between atoms: N_3  and  C_4 
REMARK    2  A    between atoms: C_8  and  S_9 
REMARK    3  A    between atoms: S_9  and  C_10 
REMARK    4  A    between atoms: C_18  and  N_19 
REMARK    5  A    between atoms: C_22  and  N_23 
ROOT
ATOM      1  O   UNL d   1      10.906   5.251 -14.398  0.00  0.00    -0.245 OA
ATOM      2  C   UNL d   1      10.187   4.485 -13.764  0.00  0.00     0.346 C 
ATOM      3  N   UNL d   1      10.094   3.155 -14.016  0.00  0.00    -0.193 NA
ATOM      4  N   UNL d   1       9.362   4.903 -12.777  0.00  0.00    -0.301 N 
ATOM      5  C   UNL d   1       9.058   4.108 -11.607  0.00  0.00     0.108 C 
ATOM      6  C   UNL d   1       9.408   4.822 -10.286  0.00  0.00     0.058 C 
ATOM      7  C   UNL d   1       8.914   6.269 -10.208  0.00  0.00     0.223 C 
ATOM      8  C   UNL d   1       9.172   7.028 -11.541  0.00  0.00     0.058 C 
ATOM      9  C   UNL d   1       8.686   6.204 -12.744  0.00  0.00     0.108 C 
ENDROOT
BRANCH   7  10
ATOM     10  N   UNL d   1       9.454   6.982  -9.037  0.00  0.00     0.135 N 
ATOM     11  C   UNL d   1       9.006   6.343  -7.786  0.00  0.00     0.252 C 
ATOM     12  C   UNL d   1       9.367   7.202  -6.576  0.00  0.00     0.058 C 
ATOM     13  C   UNL d   1      10.878   7.481  -6.571  0.00  0.00     0.094 C 
ATOM     14  C   UNL d   1      11.339   8.067  -7.929  0.00  0.00     0.058 C 
ATOM     15  C   UNL d   1      10.909   7.184  -9.063  0.00  0.00     0.252 C 
BRANCH  13  16
ATOM     16  N   UNL d   1      11.208   8.383  -5.485  0.00  0.00    -0.281 N 
ATOM     17  C   UNL d   1      11.689   7.997  -4.222  0.00  0.00     0.084 A 
ATOM     18  C   UNL d   1      11.791   9.157  -3.489  0.00  0.00     0.102 A 
ATOM     19  C   UNL d   1      11.986   6.738  -3.678  0.00  0.00     0.049 A 
ATOM     20  N   UNL d   1      11.347  10.187  -4.263  0.00  0.00    -0.191 NA
ATOM     21  C   UNL d   1      12.222   9.191  -2.163  0.00  0.00     0.023 A 
ATOM     22  C   UNL d   1      11.055   9.727  -5.475  0.00  0.00     0.350 A 
ATOM     23  O   UNL d   1      10.701  10.434  -6.398  0.00  0.00    -0.244 OA
ATOM     24  C   UNL d   1      12.650   7.980  -1.642  0.00  0.00     0.031 A 
ATOM     25  C   UNL d   1      12.529   6.760  -2.360  0.00  0.00     0.142 A 
ATOM     26  F   UNL d   1      13.001   5.645  -1.763  0.00  0.00    -0.204 F 
ENDBRANCH  13  16
ENDBRANCH   7  10
BRANCH   3  27
ATOM     27  C   UNL d   1      10.485   2.427 -15.167  0.00  0.00     0.087 A 
ATOM     28  C   UNL d   1      11.034   3.022 -16.327  0.00  0.00     0.026 A 
ATOM     29  C   UNL d   1      11.430   2.228 -17.417  0.00  0.00     0.034 A 
ATOM     30  C   UNL d   1      11.237   0.836 -17.390  0.00  0.00     0.006 A 
ATOM     31  C   UNL d   1      10.632   0.244 -16.268  0.00  0.00     0.002 A 
ATOM     32  C   UNL d   1      10.257   1.029 -15.160  0.00  0.00     0.019 A 
BRANCH  29  33
ATOM     33  S   UNL d   1      12.152   2.989 -18.831  0.00  0.00    -0.014 SA
BRANCH  33  34
ATOM     34  C   UNL d   1      13.603   3.949 -18.298  0.00  0.00     0.448 C 
ATOM     35  F   UNL d   1      14.702   3.219 -18.479  0.00  0.00    -0.160 F 
ATOM     36  F   UNL d   1      13.696   5.052 -19.038  0.00  0.00    -0.160 F 
ATOM     37  F   UNL d   1      13.530   4.306 -17.015  0.00  0.00    -0.160 F 
ENDBRANCH  33  34
ENDBRANCH  29  33
ENDBRANCH   3  27
TORSDOF 5
