REMARK  8 active torsions:
REMARK  status: ('A' for Active; 'I' for Inactive)
REMARK    1  A    between atoms: O_2  and  C_3 
REMARK    2  A    between atoms: C_8  and  O_9 
REMARK    3  A    between atoms: O_9  and  C_10 
REMARK    4  A    between atoms: C_10  and  C_11 
REMARK    5  A    between atoms: C_11  and  N_12 
REMARK    6  A    between atoms: N_12  and  C_13 
REMARK    7  A    between atoms: C_13  and  C_14 
REMARK       I    between atoms: N_18  and  C_19 
REMARK    8  A    between atoms: C_19  and  C_21 
ROOT
ATOM      1  C   UNL d   1       8.517   5.238 -11.990  0.00  0.00     0.172 C 
ATOM      2  F   UNL d   1       8.155   6.439 -12.513  0.00  0.00    -0.238 F 
ATOM      3  C   UNL d   1       9.262   4.474 -13.088  0.00  0.00     0.059 C 
ATOM      4  C   UNL d   1       8.320   4.182 -14.272  0.00  0.00     0.107 C 
ATOM      5  N   UNL d   1       7.160   3.381 -13.808  0.00  0.00    -0.317 N 
ATOM      6  C   UNL d   1       6.788   2.136 -14.223  0.00  0.00     0.257 C 
ATOM      7  O   UNL d   1       5.757   1.574 -13.855  0.00  0.00    -0.267 OA
ATOM      8  C   UNL d   1       6.352   4.130 -12.830  0.00  0.00     0.107 C 
ATOM      9  C   UNL d   1       7.213   4.501 -11.618  0.00  0.00     0.059 C 
ENDROOT
BRANCH   1  10
ATOM     10  C   UNL d   1       9.451   5.517 -10.798  0.00  0.00     0.323 C 
BRANCH  10  11
ATOM     11  N   UNL d   1       8.700   5.985  -9.651  0.00  0.00     0.345 N 
BRANCH  11  12
ATOM     12  C   UNL d   1       9.564   6.069  -8.493  0.00  0.00     0.323 C 
BRANCH  12  13
ATOM     13  C   UNL d   1       8.740   6.569  -7.289  0.00  0.00     0.187 C 
BRANCH  13  14
ATOM     14  O   UNL d   1       9.559   6.685  -6.135  0.00  0.00    -0.327 OA
BRANCH  14  15
ATOM     15  C   UNL d   1      10.438   7.737  -6.043  0.00  0.00     0.116 A 
ATOM     16  C   UNL d   1      11.305   7.768  -4.919  0.00  0.00     0.116 A 
ATOM     17  C   UNL d   1      12.196   8.857  -4.747  0.00  0.00     0.026 A 
ATOM     18  C   UNL d   1      12.257   9.864  -5.721  0.00  0.00     0.002 A 
ATOM     19  C   UNL d   1      11.410   9.819  -6.833  0.00  0.00     0.002 A 
ATOM     20  C   UNL d   1      10.499   8.774  -7.002  0.00  0.00     0.026 A 
BRANCH  16  21
ATOM     21  O   UNL d   1      11.236   6.707  -4.043  0.00  0.00    -0.326 OA
ATOM     22  C   UNL d   1      11.957   6.809  -2.828  0.00  0.00     0.181 C 
ENDBRANCH  16  21
ENDBRANCH  14  15
ENDBRANCH  13  14
ENDBRANCH  12  13
ENDBRANCH  11  12
ENDBRANCH  10  11
ENDBRANCH   1  10
BRANCH   6  23
ATOM     23  C   UNL d   1       7.690   1.401 -15.170  0.00  0.00     0.057 A 
ATOM     24  C   UNL d   1       7.182   0.903 -16.394  0.00  0.00     0.017 A 
ATOM     25  C   UNL d   1       8.034   0.218 -17.283  0.00  0.00     0.069 A 
ATOM     26  C   UNL d   1       9.391   0.006 -16.940  0.00  0.00     0.068 A 
ATOM     27 CL   UNL d   1       7.408  -0.355 -18.787  0.00  0.00    -0.082 Cl
ATOM     28  C   UNL d   1       9.877   0.487 -15.707  0.00  0.00     0.012 A 
ATOM     29 CL   UNL d   1      10.479  -0.797 -18.017  0.00  0.00    -0.082 Cl
ATOM     30  C   UNL d   1       9.026   1.147 -14.819  0.00  0.00     0.006 A 
ENDBRANCH   6  23
TORSDOF 8
