REMARK  7 active torsions:
REMARK  status: ('A' for Active; 'I' for Inactive)
REMARK    1  A    between atoms: S_2  and  N_4 
REMARK    2  A    between atoms: S_2  and  C_22 
REMARK    3  A    between atoms: N_4  and  C_5 
REMARK    4  A    between atoms: N_8  and  C_9 
REMARK    5  A    between atoms: C_9  and  C_10 
REMARK    6  A    between atoms: C_10  and  C_11 
REMARK    7  A    between atoms: C_11  and  C_12 
ROOT
ATOM      1  C   UNL d   1       7.515   5.288 -11.721  0.00  0.00     0.151 C 
ATOM      2  C   UNL d   1       7.883   6.411 -12.693  0.00  0.00     0.063 C 
ATOM      3  C   UNL d   1       9.169   6.994 -12.123  0.00  0.00     0.252 C 
ATOM      4  N   UNL d   1       9.115   6.673 -10.708  0.00  0.00     0.139 N 
ATOM      5  C   UNL d   1       8.619   5.305 -10.658  0.00  0.00     0.275 C 
ENDROOT
BRANCH   4   6
ATOM      6  C   UNL d   1      10.375   6.885 -10.005  0.00  0.00     0.251 C 
BRANCH   6   7
ATOM      7  C   UNL d   1      10.130   7.304  -8.553  0.00  0.00     0.042 C 
BRANCH   7   8
ATOM      8  C   UNL d   1      11.446   7.372  -7.755  0.00  0.00     0.050 C 
BRANCH   8   9
ATOM      9  C   UNL d   1      11.387   8.346  -6.614  0.00  0.00     0.088 A 
ATOM     10  C   UNL d   1      11.543   8.166  -5.223  0.00  0.00     0.041 A 
ATOM     11  C   UNL d   1      11.475   9.414  -4.603  0.00  0.00     0.126 A 
ATOM     12  C   UNL d   1      11.817   7.017  -4.448  0.00  0.00     0.003 A 
ATOM     13  O   UNL d   1      11.262  10.326  -5.623  0.00  0.00    -0.211 OA
ATOM     14  C   UNL d   1      11.633   9.586  -3.228  0.00  0.00     0.027 A 
ATOM     15  N   UNL d   1      11.241   9.646  -6.868  0.00  0.00    -0.131 NA
ATOM     16  C   UNL d   1      11.894   8.443  -2.445  0.00  0.00     0.002 A 
ATOM     17  C   UNL d   1      11.985   7.165  -3.052  0.00  0.00     0.000 A 
ENDBRANCH   8   9
ENDBRANCH   7   8
ENDBRANCH   6   7
ENDBRANCH   4   6
BRANCH   1  18
ATOM     18  N   UNL d   1       7.480   4.000 -12.419  0.00  0.00    -0.185 NA
BRANCH  18  19
ATOM     19  S   UNL d   1       5.976   3.370 -12.977  0.00  0.00     0.281 S 
ATOM     20  O   UNL d   1       5.328   2.711 -11.844  0.00  0.00    -0.199 OA
ATOM     21  O   UNL d   1       5.279   4.436 -13.694  0.00  0.00    -0.199 OA
BRANCH  19  22
ATOM     22  C   UNL d   1       6.447   2.082 -14.111  0.00  0.00     0.106 A 
ATOM     23  C   UNL d   1       5.687   0.891 -14.159  0.00  0.00     0.024 A 
ATOM     24  C   UNL d   1       6.027  -0.107 -15.091  0.00  0.00     0.059 A 
ATOM     25  C   UNL d   1       7.146   0.065 -15.928  0.00  0.00     0.011 A 
ATOM     26 CL   UNL d   1       5.051  -1.522 -15.233  0.00  0.00    -0.082 Cl
ATOM     27  C   UNL d   1       7.932   1.231 -15.840  0.00  0.00     0.002 A 
ATOM     28  C   UNL d   1       7.578   2.246 -14.925  0.00  0.00     0.013 A 
ENDBRANCH  19  22
ENDBRANCH  18  19
ENDBRANCH   1  18
TORSDOF 7
