REMARK  3 active torsions:
REMARK  status: ('A' for Active; 'I' for Inactive)
REMARK    1  A    between atoms: C_2  and  C_3 
REMARK    2  A    between atoms: C_3  and  N_4 
REMARK    3  A    between atoms: C_8  and  C_9 
ROOT
ATOM      1  N   UNL d   1      10.083   6.382  -9.037  0.00  0.00     0.137 N 
ATOM      2  C   UNL d   1      10.349   7.418 -10.046  0.00  0.00     0.250 C 
ATOM      3  C   UNL d   1      11.770   7.970  -9.831  0.00  0.00     0.036 C 
ATOM      4  C   UNL d   1      11.900   8.586  -8.445  0.00  0.00     0.008 C 
ATOM      5  C   UNL d   1      11.447   7.579  -7.363  0.00  0.00     0.056 C 
ATOM      6  C   UNL d   1      10.068   6.974  -7.696  0.00  0.00     0.255 C 
ENDROOT
BRANCH   5   7
ATOM      7  C   UNL d   1      11.436   8.200  -5.969  0.00  0.00    -0.021 A 
ATOM      8  C   UNL d   1      11.825   7.445  -4.836  0.00  0.00    -0.009 A 
ATOM      9  C   UNL d   1      11.855   8.039  -3.562  0.00  0.00    -0.022 A 
ATOM     10  C   UNL d   1      11.470   9.392  -3.406  0.00  0.00    -0.004 A 
ATOM     11  C   UNL d   1      12.213   7.228  -2.341  0.00  0.00     0.031 C 
ATOM     12  C   UNL d   1      11.046  10.130  -4.525  0.00  0.00    -0.001 A 
ATOM     13  C   UNL d   1      11.045   9.548  -5.801  0.00  0.00    -0.004 A 
ENDBRANCH   5   7
BRANCH   1  14
ATOM     14  C   UNL d   1       8.793   5.733  -9.304  0.00  0.00     0.250 C 
BRANCH  14  15
ATOM     15  C   UNL d   1       8.919   4.579 -10.294  0.00  0.00     0.035 C 
ATOM     16  C   UNL d   1       9.119   4.964 -11.767  0.00  0.00     0.002 C 
ENDBRANCH  14  15
ENDBRANCH   1  14
TORSDOF 3
