REMARK  2 active torsions:
REMARK  status: ('A' for Active; 'I' for Inactive)
REMARK    1  A    between atoms: C_13  and  C_14 
REMARK    2  A    between atoms: C_14  and  C_15 
ROOT
ATOM      1  C   UNL d   1       6.945   7.227 -12.691  0.00  0.00     0.286 C 
ATOM      2  N   UNL d   1       6.847   5.768 -12.655  0.00  0.00     0.142 N 
ATOM      3  C   UNL d   1       5.479   5.388 -12.984  0.00  0.00     0.255 C 
ATOM      4  C   UNL d   1       5.196   3.898 -12.714  0.00  0.00     0.061 C 
ATOM      5  C   UNL d   1       6.263   3.023 -13.356  0.00  0.00    -0.020 A 
ATOM      6  C   UNL d   1       5.994   1.654 -13.555  0.00  0.00     0.025 A 
ATOM      7  C   UNL d   1       6.996   0.817 -14.083  0.00  0.00     0.156 A 
ATOM      8  O   UNL d   1       6.768  -0.517 -14.205  0.00  0.00    -0.188 OA
ATOM      9  C   UNL d   1       8.249   1.355 -14.447  0.00  0.00     0.156 A 
ATOM     10  O   UNL d   1       9.240   0.563 -14.948  0.00  0.00    -0.188 OA
ATOM     11  C   UNL d   1       8.488   2.731 -14.316  0.00  0.00     0.027 A 
ATOM     12  C   UNL d   1       7.527   3.569 -13.706  0.00  0.00     0.007 A 
ATOM     13  C   UNL d   1       7.819   5.069 -13.516  0.00  0.00     0.246 C 
ENDROOT
BRANCH  13  14
ATOM     14  C   UNL d   1       9.277   5.386 -13.088  0.00  0.00     0.064 C 
BRANCH  14  15
ATOM     15  C   UNL d   1       9.465   5.547 -11.592  0.00  0.00    -0.018 A 
ATOM     16  C   UNL d   1       9.588   6.831 -11.035  0.00  0.00     0.025 A 
ATOM     17  C   UNL d   1       9.641   6.992  -9.641  0.00  0.00     0.156 A 
ATOM     18  C   UNL d   1       9.652   5.867  -8.818  0.00  0.00     0.156 A 
ATOM     19  O   UNL d   1       9.577   8.267  -9.121  0.00  0.00    -0.188 OA
ATOM     20  C   UNL d   1       9.581   4.562  -9.381  0.00  0.00     0.029 A 
ATOM     21  O   UNL d   1       9.810   6.011  -7.468  0.00  0.00    -0.188 OA
ATOM     22  C   UNL d   1       9.486   4.399 -10.772  0.00  0.00    -0.002 A 
ENDBRANCH  14  15
ENDBRANCH  13  14
TORSDOF 2
