REMARK  6 active torsions:
REMARK  status: ('A' for Active; 'I' for Inactive)
REMARK       I    between atoms: C_2  and  N_3 
REMARK    1  A    between atoms: C_2  and  C_27 
REMARK    2  A    between atoms: N_3  and  C_4 
REMARK    3  A    between atoms: C_7  and  C_8 
REMARK    4  A    between atoms: C_8  and  C_9 
REMARK    5  A    between atoms: C_9  and  N_10 
REMARK    6  A    between atoms: C_13  and  C_14 
ROOT
ATOM      1  N   UNL d   1       9.706   6.912  -9.957  0.00  0.00     0.137 N 
ATOM      2  C   UNL d   1      11.062   7.454  -9.967  0.00  0.00     0.251 C 
ATOM      3  C   UNL d   1      11.331   8.280  -8.708  0.00  0.00     0.040 C 
ATOM      4  C   UNL d   1      11.042   7.497  -7.411  0.00  0.00     0.028 C 
ATOM      5  C   UNL d   1       9.657   6.856  -7.502  0.00  0.00     0.040 C 
ATOM      6  C   UNL d   1       9.491   6.057  -8.789  0.00  0.00     0.251 C 
ENDROOT
BRANCH   1   7
ATOM      7  C   UNL d   1       9.460   6.217 -11.218  0.00  0.00     0.250 C 
BRANCH   7   8
ATOM      8  C   UNL d   1       8.075   5.557 -11.323  0.00  0.00     0.035 C 
BRANCH   8   9
ATOM      9  C   UNL d   1       7.788   4.868 -12.664  0.00  0.00     0.002 C 
ATOM     10  C   UNL d   1       8.960   3.987 -13.140  0.00  0.00     0.002 C 
ATOM     11  C   UNL d   1       8.656   3.299 -14.459  0.00  0.00     0.024 C 
ATOM     12  C   UNL d   1       7.378   2.437 -14.363  0.00  0.00     0.107 C 
ATOM     13  C   UNL d   1       6.175   3.256 -13.832  0.00  0.00     0.024 C 
ATOM     14  C   UNL d   1       6.510   4.003 -12.525  0.00  0.00     0.002 C 
BRANCH  12  15
ATOM     15  N   UNL d   1       7.062   1.849 -15.654  0.00  0.00    -0.233 NA
ATOM     16  C   UNL d   1       7.737   0.845 -16.231  0.00  0.00     0.347 C 
ATOM     17  O   UNL d   1       8.737   0.336 -15.727  0.00  0.00    -0.261 OA
BRANCH  16  18
ATOM     18  C   UNL d   1       7.191   0.362 -17.575  0.00  0.00     0.474 C 
ATOM     19  F   UNL d   1       5.962  -0.117 -17.401  0.00  0.00    -0.162 F 
ATOM     20  F   UNL d   1       7.141   1.395 -18.419  0.00  0.00    -0.162 F 
ATOM     21  F   UNL d   1       7.976  -0.589 -18.084  0.00  0.00    -0.162 F 
ENDBRANCH  16  18
ENDBRANCH  12  15
ENDBRANCH   8   9
ENDBRANCH   7   8
ENDBRANCH   1   7
BRANCH   4  22
ATOM     22  C   UNL d   1      11.133   8.363  -6.186  0.00  0.00     0.004 A 
ATOM     23  C   UNL d   1      11.522   7.973  -4.861  0.00  0.00     0.021 A 
ATOM     24  C   UNL d   1      11.493   9.149  -4.085  0.00  0.00     0.100 A 
ATOM     25  C   UNL d   1      11.911   6.783  -4.213  0.00  0.00     0.002 A 
ATOM     26  O   UNL d   1      11.062  10.206  -4.849  0.00  0.00    -0.305 OA
ATOM     27  C   UNL d   1      11.873   9.192  -2.727  0.00  0.00     0.025 A 
ATOM     28  C   UNL d   1      10.841   9.695  -6.096  0.00  0.00     0.118 A 
ATOM     29  C   UNL d   1      12.255   7.988  -2.109  0.00  0.00     0.002 A 
ATOM     30  C   UNL d   1      12.288   6.787  -2.847  0.00  0.00     0.000 A 
ENDBRANCH   4  22
TORSDOF 6
