REMARK  11 active torsions:
REMARK  status: ('A' for Active; 'I' for Inactive)
REMARK    1  A    between atoms: C_2  and  O_3 
REMARK    2  A    between atoms: O_3  and  C_4 
REMARK    3  A    between atoms: C_10  and  C_11 
REMARK    4  A    between atoms: C_13  and  C_14 
REMARK    5  A    between atoms: C_14  and  N_15 
REMARK    6  A    between atoms: N_15  and  C_16 
REMARK    7  A    between atoms: C_16  and  C_17 
REMARK    8  A    between atoms: C_17  and  C_18 
REMARK    9  A    between atoms: C_18  and  S_19 
REMARK   10  A    between atoms: S_19  and  C_20 
REMARK   11  A    between atoms: C_23  and  C_24 
ROOT
ATOM      1  C   UNL d   1       9.111   4.200 -12.848  0.00  0.00     0.291 C 
ENDROOT
BRANCH   1   2
ATOM      2  N   UNL d   1       8.747   5.202 -11.860  0.00  0.00     0.339 N 
BRANCH   2   3
ATOM      3  C   UNL d   1       8.624   4.578 -10.558  0.00  0.00     0.290 C 
BRANCH   3   4
ATOM      4  C   UNL d   1       8.610   5.585  -9.444  0.00  0.00     0.041 A 
ATOM      5  C   UNL d   1       9.679   5.538  -8.367  0.00  0.00     0.026 A 
ATOM      6  C   UNL d   1       8.260   5.166  -8.044  0.00  0.00     0.007 A 
BRANCH   5   7
ATOM      7  C   UNL d   1      10.301   6.784  -7.814  0.00  0.00     0.002 A 
ATOM      8  C   UNL d   1      10.659   7.832  -8.678  0.00  0.00     0.090 A 
ATOM      9  C   UNL d   1      11.181   9.031  -8.128  0.00  0.00     0.026 A 
ATOM     10  C   UNL d   1      11.356   9.165  -6.739  0.00  0.00     0.032 A 
ATOM     11  C   UNL d   1      11.015   8.103  -5.886  0.00  0.00     0.140 A 
ATOM     12  F   UNL d   1      11.194   8.224  -4.549  0.00  0.00    -0.204 F 
ATOM     13  C   UNL d   1      10.482   6.914  -6.426  0.00  0.00     0.027 A 
BRANCH   8  14
ATOM     14  O   UNL d   1      10.498   7.640 -10.030  0.00  0.00    -0.331 OA
BRANCH  14  15
ATOM     15  C   UNL d   1      10.212   8.774 -10.819  0.00  0.00     0.149 C 
ATOM     16  C   UNL d   1       9.332   8.389 -12.015  0.00  0.00     0.035 C 
ENDBRANCH  14  15
ENDBRANCH   8  14
ENDBRANCH   5   7
ENDBRANCH   3   4
ENDBRANCH   2   3
ENDBRANCH   1   2
BRANCH   1  17
ATOM     17  C   UNL d   1       9.292   4.894 -14.199  0.00  0.00     0.050 C 
BRANCH  17  18
ATOM     18  C   UNL d   1       9.733   3.930 -15.302  0.00  0.00     0.067 C 
BRANCH  18  19
ATOM     19  S   UNL d   1      11.457   3.415 -15.071  0.00  0.00    -0.075 SA
BRANCH  19  20
ATOM     20  C   UNL d   1      11.494   2.151 -16.293  0.00  0.00     0.193 A 
ATOM     21  N   UNL d   1      12.339   2.184 -17.341  0.00  0.00    -0.289 N 
ATOM     22  C   UNL d   1      12.009   1.049 -18.000  0.00  0.00     0.167 A 
ATOM     23  C   UNL d   1      13.357   3.175 -17.658  0.00  0.00     0.134 C 
ATOM     24  N   UNL d   1      11.046   0.353 -17.385  0.00  0.00    -0.128 NA
ATOM     25  N   UNL d   1      10.706   1.077 -16.267  0.00  0.00    -0.122 NA
BRANCH  22  26
ATOM     26  C   UNL d   1      12.620   0.585 -19.241  0.00  0.00     0.036 A 
ATOM     27  C   UNL d   1      12.772   1.457 -20.340  0.00  0.00     0.003 A 
ATOM     28  C   UNL d   1      13.361   0.999 -21.534  0.00  0.00     0.000 A 
ATOM     29  C   UNL d   1      13.801  -0.335 -21.637  0.00  0.00     0.000 A 
ATOM     30  C   UNL d   1      13.653  -1.210 -20.545  0.00  0.00     0.000 A 
ATOM     31  C   UNL d   1      13.061  -0.752 -19.352  0.00  0.00     0.003 A 
ENDBRANCH  22  26
ENDBRANCH  19  20
ENDBRANCH  18  19
ENDBRANCH  17  18
ENDBRANCH   1  17
TORSDOF 11
