REMARK  2 active torsions:
REMARK  status: ('A' for Active; 'I' for Inactive)
REMARK    1  A    between atoms: C_2  and  C_3 
REMARK    2  A    between atoms: C_3  and  N_4 
ROOT
ATOM      1  N   UNL d   1      10.879   7.614  -8.668  0.00  0.00     0.140 N 
ATOM      2  C   UNL d   1      11.131   9.047  -8.799  0.00  0.00     0.251 C 
ATOM      3  C   UNL d   1      11.206   9.636  -7.385  0.00  0.00     0.042 C 
ATOM      4  C   UNL d   1      10.878   8.503  -6.480  0.00  0.00     0.057 C 
ATOM      5  C   UNL d   1      11.432   8.535  -5.054  0.00  0.00     0.001 A 
ATOM      6  C   UNL d   1      11.429   9.705  -4.292  0.00  0.00     0.127 A 
ATOM      7  O   UNL d   1      10.893  10.830  -4.826  0.00  0.00    -0.191 OA
ATOM      8  C   UNL d   1      11.867   9.703  -2.962  0.00  0.00     0.027 A 
ATOM      9  C   UNL d   1      12.177   8.496  -2.331  0.00  0.00     0.002 A 
ATOM     10  C   UNL d   1      12.121   7.295  -3.062  0.00  0.00    -0.004 A 
ATOM     11  C   UNL d   1      11.802   7.343  -4.436  0.00  0.00    -0.024 A 
ATOM     12  C   UNL d   1      11.713   6.057  -5.201  0.00  0.00     0.028 C 
ATOM     13  C   UNL d   1      11.112   6.076  -6.614  0.00  0.00     0.038 C 
ATOM     14  C   UNL d   1      11.432   7.368  -7.334  0.00  0.00     0.224 C 
ENDROOT
BRANCH   1  15
ATOM     15  C   UNL d   1       9.462   7.327  -8.855  0.00  0.00     0.276 C 
BRANCH  15  16
ATOM     16  C   UNL d   1       9.230   5.839  -9.046  0.00  0.00     0.009 C 
ATOM     17  C   UNL d   1       8.330   5.142  -8.329  0.00  0.00    -0.003 C 
ENDBRANCH  15  16
ENDBRANCH   1  15
TORSDOF 2
