REMARK  3 active torsions:
REMARK  status: ('A' for Active; 'I' for Inactive)
REMARK    1  A    between atoms: O_2  and  C_3 
REMARK    2  A    between atoms: C_10  and  C_11 
REMARK    3  A    between atoms: C_11  and  N_12 
ROOT
ATOM      1  C   UNL d   1       8.713   0.131 -17.142  0.00  0.00     0.094 A 
ATOM      2  C   UNL d   1      10.096  -0.091 -17.340  0.00  0.00     0.026 A 
ATOM      3  C   UNL d   1      11.062   0.739 -16.715  0.00  0.00     0.027 A 
ATOM      4  C   UNL d   1      10.649   1.808 -15.893  0.00  0.00     0.103 A 
ATOM      5  O   UNL d   1      11.568   2.624 -15.258  0.00  0.00    -0.273 OA
ATOM      6  C   UNL d   1      11.208   3.675 -14.440  0.00  0.00     0.298 A 
ATOM      7  O   UNL d   1      12.057   4.386 -13.902  0.00  0.00    -0.259 OA
ATOM      8  C   UNL d   1       9.739   3.903 -14.260  0.00  0.00     0.074 A 
ATOM      9  C   UNL d   1       8.861   3.135 -14.917  0.00  0.00     0.005 A 
ATOM     10  C   UNL d   1       9.277   2.034 -15.735  0.00  0.00     0.025 A 
ATOM     11  C   UNL d   1       8.316   1.205 -16.320  0.00  0.00     0.026 A 
ENDROOT
BRANCH   8  12
ATOM     12  C   UNL d   1       9.313   5.049 -13.346  0.00  0.00     0.282 C 
BRANCH  12  13
ATOM     13  N   UNL d   1       7.863   5.181 -13.180  0.00  0.00     0.142 N 
ATOM     14  C   UNL d   1       7.496   6.314 -12.336  0.00  0.00     0.251 C 
ATOM     15  C   UNL d   1       6.022   6.054 -12.029  0.00  0.00     0.037 C 
ATOM     16  C   UNL d   1       5.856   4.545 -12.160  0.00  0.00     0.037 C 
ATOM     17  C   UNL d   1       7.244   4.046 -12.496  0.00  0.00     0.251 C 
ENDBRANCH  12  13
ENDBRANCH   8  12
BRANCH   1  18
ATOM     18  O   UNL d   1       7.789  -0.689 -17.767  0.00  0.00    -0.328 OA
ATOM     19  C   UNL d   1       6.404  -0.460 -17.465  0.00  0.00     0.181 C 
ENDBRANCH   1  18
TORSDOF 3
