REMARK  6 active torsions:
REMARK  status: ('A' for Active; 'I' for Inactive)
REMARK       I    between atoms: C_2  and  N_3 
REMARK    1  A    between atoms: C_2  and  C_27 
REMARK    2  A    between atoms: N_3  and  C_4 
REMARK    3  A    between atoms: C_7  and  C_8 
REMARK    4  A    between atoms: C_8  and  C_9 
REMARK    5  A    between atoms: C_9  and  N_10 
REMARK    6  A    between atoms: C_13  and  C_14 
ROOT
ATOM      1  N   UNL d   1       9.614   6.984  -9.968  0.00  0.00     0.137 N 
ATOM      2  C   UNL d   1      11.024   7.319  -9.941  0.00  0.00     0.251 C 
ATOM      3  C   UNL d   1      11.360   8.142  -8.702  0.00  0.00     0.040 C 
ATOM      4  C   UNL d   1      10.945   7.446  -7.385  0.00  0.00     0.028 C 
ATOM      5  C   UNL d   1       9.489   6.957  -7.503  0.00  0.00     0.040 C 
ATOM      6  C   UNL d   1       9.266   6.166  -8.798  0.00  0.00     0.251 C 
ENDROOT
BRANCH   1   7
ATOM      7  C   UNL d   1       9.369   6.228 -11.176  0.00  0.00     0.250 C 
BRANCH   7   8
ATOM      8  C   UNL d   1       7.896   6.307 -11.633  0.00  0.00     0.035 C 
BRANCH   8   9
ATOM      9  C   UNL d   1       7.444   5.259 -12.677  0.00  0.00     0.002 C 
ATOM     10  C   UNL d   1       8.309   3.993 -12.698  0.00  0.00     0.002 C 
ATOM     11  C   UNL d   1       7.830   2.967 -13.708  0.00  0.00     0.024 C 
ATOM     12  C   UNL d   1       6.362   2.594 -13.443  0.00  0.00     0.106 C 
ATOM     13  C   UNL d   1       5.458   3.836 -13.475  0.00  0.00     0.024 C 
ATOM     14  C   UNL d   1       5.959   4.891 -12.460  0.00  0.00     0.002 C 
BRANCH  12  15
ATOM     15  N   UNL d   1       5.985   1.597 -14.437  0.00  0.00    -0.240 NA
ATOM     16  C   UNL d   1       5.441   0.407 -14.202  0.00  0.00     0.251 C 
ATOM     17  O   UNL d   1       5.218  -0.011 -13.071  0.00  0.00    -0.271 OA
BRANCH  16  18
ATOM     18  C   UNL d   1       5.064  -0.343 -15.443  0.00  0.00     0.081 A 
ATOM     19  C   UNL d   1       5.146  -1.851 -15.390  0.00  0.00     0.010 A 
ATOM     20  C   UNL d   1       3.798  -1.175 -15.391  0.00  0.00     0.010 A 
ENDBRANCH  16  18
ENDBRANCH  12  15
ENDBRANCH   8   9
ENDBRANCH   7   8
ENDBRANCH   1   7
BRANCH   4  21
ATOM     21  C   UNL d   1      11.108   8.331  -6.200  0.00  0.00     0.004 A 
ATOM     22  C   UNL d   1      11.490   7.969  -4.868  0.00  0.00     0.021 A 
ATOM     23  C   UNL d   1      11.513   9.171  -4.122  0.00  0.00     0.100 A 
ATOM     24  C   UNL d   1      11.841   6.787  -4.180  0.00  0.00     0.002 A 
ATOM     25  O   UNL d   1      11.114  10.216  -4.917  0.00  0.00    -0.305 OA
ATOM     26  C   UNL d   1      11.886   9.234  -2.772  0.00  0.00     0.025 A 
ATOM     27  C   UNL d   1      10.922   9.691  -6.158  0.00  0.00     0.118 A 
ATOM     28  C   UNL d   1      12.247   8.042  -2.118  0.00  0.00     0.002 A 
ATOM     29  C   UNL d   1      12.215   6.818  -2.815  0.00  0.00     0.000 A 
ENDBRANCH   4  21
TORSDOF 6
