REMARK  3 active torsions:
REMARK  status: ('A' for Active; 'I' for Inactive)
REMARK    1  A    between atoms: C_7  and  C_8 
REMARK       I    between atoms: C_8  and  N_10 
REMARK    2  A    between atoms: C_13  and  C_14 
REMARK    3  A    between atoms: C_14  and  C_15 
ROOT
ATOM      1  C   UNL d   1       9.852   7.597 -10.288  0.00  0.00     0.257 C 
ATOM      2  O   UNL d   1      10.029   8.675 -10.844  0.00  0.00    -0.267 OA
ATOM      3  N   UNL d   1       9.518   6.450 -10.944  0.00  0.00    -0.317 N 
ATOM      4  C   UNL d   1       9.150   5.152 -10.334  0.00  0.00     0.104 C 
ATOM      5  C   UNL d   1       7.771   4.761 -10.868  0.00  0.00     0.025 C 
ATOM      6  C   UNL d   1       7.735   4.640 -12.397  0.00  0.00     0.008 C 
ATOM      7  C   UNL d   1       8.218   5.958 -13.021  0.00  0.00     0.025 C 
ATOM      8  C   UNL d   1       9.558   6.393 -12.423  0.00  0.00     0.104 C 
ENDROOT
BRANCH   1   9
ATOM      9  C   UNL d   1      10.065   7.523  -8.789  0.00  0.00     0.052 A 
ATOM     10  C   UNL d   1      11.233   8.026  -8.177  0.00  0.00    -0.017 A 
ATOM     11  C   UNL d   1      12.356   8.670  -8.979  0.00  0.00     0.031 C 
ATOM     12  C   UNL d   1      11.380   7.918  -6.772  0.00  0.00    -0.004 A 
ATOM     13  C   UNL d   1      10.387   7.305  -5.989  0.00  0.00    -0.000 A 
ATOM     14  C   UNL d   1       9.226   6.843  -6.595  0.00  0.00     0.000 A 
ATOM     15  C   UNL d   1       9.054   7.000  -7.977  0.00  0.00     0.004 A 
ENDBRANCH   1   9
BRANCH   6  16
ATOM     16  C   UNL d   1       6.320   4.287 -12.897  0.00  0.00     0.026 C 
BRANCH  16  17
ATOM     17  C   UNL d   1       6.225   2.879 -13.451  0.00  0.00    -0.022 A 
ATOM     18  C   UNL d   1       5.371   1.952 -12.830  0.00  0.00    -0.004 A 
ATOM     19  C   UNL d   1       5.267   0.640 -13.324  0.00  0.00    -0.000 A 
ATOM     20  C   UNL d   1       6.021   0.245 -14.445  0.00  0.00    -0.000 A 
ATOM     21  C   UNL d   1       6.883   1.168 -15.068  0.00  0.00    -0.000 A 
ATOM     22  C   UNL d   1       6.989   2.480 -14.567  0.00  0.00    -0.004 A 
ENDBRANCH  16  17
ENDBRANCH   6  16
TORSDOF 3
