REMARK  9 active torsions:
REMARK  status: ('A' for Active; 'I' for Inactive)
REMARK    1  A    between atoms: C_2  and  C_4 
REMARK    2  A    between atoms: C_7  and  C_8 
REMARK    3  A    between atoms: C_11  and  S_12 
REMARK    4  A    between atoms: S_12  and  C_13 
REMARK    5  A    between atoms: C_13  and  C_14 
REMARK    6  A    between atoms: C_14  and  C_15 
REMARK    7  A    between atoms: C_15  and  N_16 
REMARK    8  A    between atoms: C_21  and  C_22 
REMARK    9  A    between atoms: C_25  and  C_26 
ROOT
ATOM      1  C   UNL d   1       9.472   4.311 -13.935  0.00  0.00     0.047 C 
ENDROOT
BRANCH   1   2
ATOM      2  C   UNL d   1       7.971   4.556 -13.653  0.00  0.00     0.067 C 
BRANCH   2   3
ATOM      3  S   UNL d   1       7.540   4.447 -11.894  0.00  0.00    -0.075 SA
BRANCH   3   4
ATOM      4  C   UNL d   1       8.476   5.801 -11.256  0.00  0.00     0.193 A 
ATOM      5  N   UNL d   1       8.934   6.805 -12.008  0.00  0.00    -0.122 NA
ATOM      6  N   UNL d   1       9.674   7.585 -11.155  0.00  0.00    -0.128 NA
ATOM      7  C   UNL d   1       9.569   7.022  -9.951  0.00  0.00     0.167 A 
ATOM      8  N   UNL d   1       8.831   5.889  -9.957  0.00  0.00    -0.289 N 
ATOM      9  C   UNL d   1       8.474   5.029  -8.840  0.00  0.00     0.134 C 
BRANCH   7  10
ATOM     10  C   UNL d   1      10.149   7.647  -8.775  0.00  0.00     0.036 A 
ATOM     11  C   UNL d   1      11.484   8.115  -8.810  0.00  0.00     0.003 A 
ATOM     12  C   UNL d   1      12.025   8.752  -7.673  0.00  0.00     0.003 A 
ATOM     13  C   UNL d   1      11.256   8.947  -6.518  0.00  0.00     0.035 A 
ATOM     14  C   UNL d   1       9.919   8.478  -6.510  0.00  0.00     0.003 A 
ATOM     15  C   UNL d   1       9.367   7.846  -7.636  0.00  0.00     0.003 A 
BRANCH  13  16
ATOM     16  C   UNL d   1      11.851   9.587  -5.317  0.00  0.00     0.173 C 
ATOM     17  C   UNL d   1      10.919  10.300  -4.351  0.00  0.00     0.077 C 
ATOM     18  O   UNL d   1      13.054   9.593  -5.061  0.00  0.00    -0.291 OA
ENDBRANCH  13  16
ENDBRANCH   7  10
ENDBRANCH   3   4
ENDBRANCH   2   3
ENDBRANCH   1   2
BRANCH   1  19
ATOM     19  C   UNL d   1       9.834   4.689 -15.379  0.00  0.00     0.251 C 
BRANCH  19  20
ATOM     20  N   UNL d   1      11.240   5.061 -15.434  0.00  0.00     0.137 N 
ATOM     21  C   UNL d   1      11.525   5.720 -16.695  0.00  0.00     0.251 C 
ATOM     22  C   UNL d   1      13.029   5.650 -16.847  0.00  0.00     0.037 A 
ATOM     23  C   UNL d   1      13.414   4.458 -16.024  0.00  0.00     0.038 C 
ATOM     24  C   UNL d   1      13.750   6.057 -18.124  0.00  0.00     0.024 A 
ATOM     25  C   UNL d   1      13.885   6.905 -16.879  0.00  0.00     0.007 A 
ATOM     26  C   UNL d   1      12.114   3.896 -15.456  0.00  0.00     0.250 C 
BRANCH  24  27
ATOM     27  C   UNL d   1      12.961   6.528 -19.302  0.00  0.00    -0.022 A 
ATOM     28  C   UNL d   1      11.963   5.705 -19.870  0.00  0.00    -0.004 A 
ATOM     29  C   UNL d   1      11.139   6.189 -20.896  0.00  0.00     0.004 A 
ATOM     30  C   UNL d   1      11.351   7.479 -21.427  0.00  0.00     0.071 A 
ATOM     31  C   UNL d   1      12.379   8.283 -20.889  0.00  0.00     0.004 A 
ATOM     32  C   UNL d   1      13.174   7.818 -19.829  0.00  0.00    -0.004 A 
BRANCH  30  33
ATOM     33  C   UNL d   1      10.485   7.980 -22.569  0.00  0.00     0.419 C 
ATOM     34  F   UNL d   1      11.129   8.900 -23.287  0.00  0.00    -0.166 F 
ATOM     35  F   UNL d   1      10.160   6.973 -23.382  0.00  0.00    -0.166 F 
ATOM     36  F   UNL d   1       9.368   8.515 -22.078  0.00  0.00    -0.166 F 
ENDBRANCH  30  33
ENDBRANCH  24  27
ENDBRANCH  19  20
ENDBRANCH   1  19
TORSDOF 9
