REMARK  6 active torsions:
REMARK  status: ('A' for Active; 'I' for Inactive)
REMARK    1  A    between atoms: C_2  and  C_3 
REMARK    2  A    between atoms: C_3  and  C_4 
REMARK    3  A    between atoms: C_10  and  O_11 
REMARK    4  A    between atoms: O_11  and  C_12 
REMARK    5  A    between atoms: C_12  and  C_13 
REMARK       I    between atoms: C_13  and  N_15 
REMARK    6  A    between atoms: N_18  and  C_19 
ROOT
ATOM      1  C   UNL d   1       9.277   5.940 -10.161  0.00  0.00     0.264 C 
ATOM      2  O   UNL d   1       8.879   4.788  -9.998  0.00  0.00    -0.270 OA
ATOM      3  N   UNL d   1       9.474   6.771  -9.115  0.00  0.00    -0.314 N 
ATOM      4  C   UNL d   1      10.175   8.067  -9.155  0.00  0.00     0.128 C 
ATOM      5  C   UNL d   1      11.355   8.033  -8.173  0.00  0.00     0.126 C 
ATOM      6  N   UNL d   1      10.927   7.593  -6.860  0.00  0.00    -0.344 N 
ATOM      7  C   UNL d   1      10.132   6.391  -6.771  0.00  0.00     0.126 C 
ATOM      8  C   UNL d   1       8.979   6.414  -7.773  0.00  0.00     0.128 C 
ENDROOT
BRANCH   1   9
ATOM      9  C   UNL d   1       9.469   6.426 -11.608  0.00  0.00     0.236 C 
BRANCH   9  10
ATOM     10  O   UNL d   1       8.251   6.307 -12.325  0.00  0.00    -0.321 OA
BRANCH  10  11
ATOM     11  C   UNL d   1       7.899   5.106 -12.886  0.00  0.00     0.095 A 
ATOM     12  C   UNL d   1       6.519   4.814 -12.900  0.00  0.00     0.026 A 
ATOM     13  C   UNL d   1       6.061   3.622 -13.482  0.00  0.00     0.021 A 
ATOM     14  C   UNL d   1       6.994   2.735 -14.039  0.00  0.00     0.081 A 
ATOM     15  N   UNL d   1       6.835   1.510 -14.628  0.00  0.00    -0.244 NA
ATOM     16  C   UNL d   1       8.398   2.993 -14.055  0.00  0.00     0.017 A 
ATOM     17  C   UNL d   1       8.055   0.978 -14.982  0.00  0.00     0.095 A 
ATOM     18  C   UNL d   1       9.058   1.878 -14.700  0.00  0.00     0.001 A 
ATOM     19  C   UNL d   1       8.829   4.204 -13.465  0.00  0.00     0.025 A 
BRANCH  18  20
ATOM     20  C   UNL d   1      10.539   1.729 -14.972  0.00  0.00     0.069 C 
BRANCH  20  21
ATOM     21  C   UNL d   1      10.881   1.185 -16.374  0.00  0.00     0.343 C 
ATOM     22  N   UNL d   1      10.374  -0.160 -16.568  0.00  0.00     0.618 N 
ENDBRANCH  20  21
ENDBRANCH  18  20
ENDBRANCH  10  11
ENDBRANCH   9  10
ENDBRANCH   1   9
BRANCH   6  23
ATOM     23  C   UNL d   1      11.065   8.432  -5.755  0.00  0.00     0.056 A 
ATOM     24  C   UNL d   1      11.570   7.975  -4.512  0.00  0.00     0.015 A 
ATOM     25  C   UNL d   1      11.744   8.861  -3.428  0.00  0.00     0.001 A 
ATOM     26  C   UNL d   1      11.961   6.654  -4.316  0.00  0.00     0.001 A 
ATOM     27  C   UNL d   1      11.386  10.180  -3.596  0.00  0.00     0.000 A 
ATOM     28  C   UNL d   1      12.255   8.474  -2.178  0.00  0.00     0.000 A 
ATOM     29  C   UNL d   1      10.854  10.635  -4.818  0.00  0.00     0.002 A 
ATOM     30  C   UNL d   1      10.710   9.783  -5.909  0.00  0.00     0.017 A 
ATOM     31  C   UNL d   1      12.610   7.145  -2.017  0.00  0.00     0.000 A 
ATOM     32  C   UNL d   1      12.465   6.269  -3.081  0.00  0.00     0.000 A 
ENDBRANCH   6  23
TORSDOF 6
