REMARK  6 active torsions:
REMARK  status: ('A' for Active; 'I' for Inactive)
REMARK    1  A    between atoms: O_2  and  N_3 
REMARK    2  A    between atoms: C_4  and  C_5 
REMARK    3  A    between atoms: C_4  and  C_19 
REMARK    4  A    between atoms: C_5  and  C_6 
REMARK    5  A    between atoms: C_6  and  N_7 
REMARK    6  A    between atoms: N_10  and  C_11 
ROOT
ATOM      1  N   UNL d   1       8.941   1.669 -15.416  0.00  0.00     0.141 N 
ATOM      2  C   UNL d   1       9.027   1.334 -16.843  0.00  0.00     0.274 C 
ATOM      3  C   UNL d   1       7.690   1.658 -17.529  0.00  0.00     0.138 C 
ATOM      4  N   UNL d   1       6.612   0.936 -16.869  0.00  0.00    -0.330 N 
ATOM      5  C   UNL d   1       6.545   1.120 -15.422  0.00  0.00     0.138 C 
ATOM      6  C   UNL d   1       7.915   0.823 -14.789  0.00  0.00     0.274 C 
ENDROOT
BRANCH   1   7
ATOM      7  C   UNL d   1      10.215   1.461 -14.737  0.00  0.00     0.257 C 
BRANCH   7   8
ATOM      8  C   UNL d   1      11.321   2.453 -15.179  0.00  0.00     0.083 C 
BRANCH   8   9
ATOM      9  C   UNL d   1      10.971   3.907 -14.898  0.00  0.00     0.087 C 
ATOM     10  N   UNL d   1      10.607   4.235 -13.723  0.00  0.00    -0.136 NA
BRANCH  10  11
ATOM     11  O   UNL d   1      10.260   5.590 -13.632  0.00  0.00    -0.234 OA
ATOM     12  C   UNL d   1       9.396   5.752 -12.520  0.00  0.00     0.211 C 
ENDBRANCH  10  11
BRANCH   9  13
ATOM     13  C   UNL d   1      11.106   4.833 -16.050  0.00  0.00     0.016 A 
ATOM     14  C   UNL d   1      10.246   4.746 -17.165  0.00  0.00     0.001 A 
ATOM     15  C   UNL d   1      10.413   5.604 -18.270  0.00  0.00     0.000 A 
ATOM     16  C   UNL d   1      11.432   6.580 -18.256  0.00  0.00     0.000 A 
ATOM     17  C   UNL d   1      12.278   6.690 -17.136  0.00  0.00     0.000 A 
ATOM     18  C   UNL d   1      12.126   5.813 -16.043  0.00  0.00     0.001 A 
ENDBRANCH   9  13
ENDBRANCH   8   9
ENDBRANCH   7   8
ENDBRANCH   1   7
BRANCH   4  19
ATOM     19  C   UNL d   1       5.755   0.077 -17.576  0.00  0.00     0.140 A 
ATOM     20  N   UNL d   1       5.502   0.382 -18.871  0.00  0.00    -0.227 NA
ATOM     21  C   UNL d   1       4.659  -0.404 -19.571  0.00  0.00     0.101 A 
ATOM     22  C   UNL d   1       4.032  -1.536 -19.024  0.00  0.00     0.021 A 
ATOM     23  C   UNL d   1       4.301  -1.864 -17.687  0.00  0.00     0.005 A 
ATOM     24  C   UNL d   1       5.177  -1.053 -16.948  0.00  0.00     0.037 A 
ENDBRANCH   4  19
TORSDOF 6
