REMARK  10 active torsions:
REMARK  status: ('A' for Active; 'I' for Inactive)
REMARK    1  A    between atoms: C_2  and  C_4 
REMARK    2  A    between atoms: C_7  and  O_8 
REMARK    3  A    between atoms: O_8  and  C_9 
REMARK    4  A    between atoms: C_9  and  C_10 
REMARK    5  A    between atoms: C_10  and  C_11 
REMARK    6  A    between atoms: C_11  and  C_12 
REMARK    7  A    between atoms: C_12  and  C_13 
REMARK    8  A    between atoms: C_13  and  O_14 
REMARK    9  A    between atoms: O_14  and  C_15 
REMARK   10  A    between atoms: C_18  and  C_19 
ROOT
ATOM      1  C   UNL d   1       8.592   6.236 -12.125  0.00  0.00     0.005 C 
ENDROOT
BRANCH   1   2
ATOM      2  C   UNL d   1       9.381   6.418 -10.834  0.00  0.00     0.033 C 
BRANCH   2   3
ATOM      3  C   UNL d   1       8.854   5.562  -9.650  0.00  0.00     0.149 C 
BRANCH   3   4
ATOM      4  O   UNL d   1       9.855   5.397  -8.659  0.00  0.00    -0.331 OA
BRANCH   4   5
ATOM      5  C   UNL d   1      10.133   6.451  -7.822  0.00  0.00     0.094 C 
ATOM      6  C   UNL d   1       9.450   7.678  -7.839  0.00  0.00     0.024 C 
ATOM      7  C   UNL d   1       9.788   8.693  -6.944  0.00  0.00     0.005 C 
ATOM      8  C   UNL d   1      10.767   8.489  -5.958  0.00  0.00     0.040 C 
ATOM      9  C   UNL d   1      11.421   7.251  -5.906  0.00  0.00     0.005 C 
ATOM     10  C   UNL d   1      11.168   6.293  -6.891  0.00  0.00     0.024 C 
BRANCH   8  11
ATOM     11  C   UNL d   1      11.126   9.549  -4.994  0.00  0.00     0.205 C 
ATOM     12  N   UNL d   1      11.064  10.771  -5.362  0.00  0.00    -0.125 N 
ATOM     13  N   UNL d   1      11.478   9.162  -3.723  0.00  0.00    -0.125 N 
ENDBRANCH   8  11
ENDBRANCH   4   5
ENDBRANCH   3   4
ENDBRANCH   2   3
ENDBRANCH   1   2
BRANCH   1  14
ATOM     14  C   UNL d   1       8.755   4.827 -12.727  0.00  0.00     0.033 C 
BRANCH  14  15
ATOM     15  C   UNL d   1       7.996   4.669 -14.030  0.00  0.00     0.149 C 
BRANCH  15  16
ATOM     16  O   UNL d   1       8.337   3.421 -14.627  0.00  0.00    -0.331 OA
BRANCH  16  17
ATOM     17  C   UNL d   1       7.422   2.388 -14.602  0.00  0.00     0.094 A 
ATOM     18  C   UNL d   1       6.350   2.278 -13.679  0.00  0.00     0.024 A 
ATOM     19  C   UNL d   1       5.473   1.180 -13.742  0.00  0.00     0.005 A 
ATOM     20  C   UNL d   1       5.607   0.211 -14.763  0.00  0.00     0.040 A 
ATOM     21  C   UNL d   1       6.671   0.335 -15.688  0.00  0.00     0.005 A 
ATOM     22  C   UNL d   1       7.582   1.400 -15.591  0.00  0.00     0.024 A 
BRANCH  20  23
ATOM     23  C   UNL d   1       4.625  -0.899 -14.886  0.00  0.00     0.205 C 
ATOM     24  N   UNL d   1       3.462  -0.802 -14.352  0.00  0.00    -0.125 N 
ATOM     25  N   UNL d   1       5.056  -2.041 -15.528  0.00  0.00    -0.125 N 
ENDBRANCH  20  23
ENDBRANCH  16  17
ENDBRANCH  15  16
ENDBRANCH  14  15
ENDBRANCH   1  14
TORSDOF 10
