REMARK  2 active torsions:
REMARK  status: ('A' for Active; 'I' for Inactive)
REMARK    1  A    between atoms: C_2  and  C_3 
REMARK    2  A    between atoms: C_3  and  N_4 
ROOT
ATOM      1  N   UNL d   1      11.792   8.192  -4.857  0.00  0.00     0.143 N 
ATOM      2  C   UNL d   1      11.958   9.629  -4.992  0.00  0.00     0.282 C 
ATOM      3  C   UNL d   1      12.368  10.025  -6.403  0.00  0.00     0.178 C 
ATOM      4  O   UNL d   1      11.426   9.613  -7.360  0.00  0.00    -0.348 OA
ATOM      5  C   UNL d   1      11.327   8.211  -7.309  0.00  0.00     0.173 C 
ATOM      6  C   UNL d   1      10.503   7.643  -8.442  0.00  0.00     0.031 C 
ATOM      7  C   UNL d   1      10.595   8.210  -9.721  0.00  0.00     0.028 C 
ATOM      8  C   UNL d   1       9.789   7.687 -10.738  0.00  0.00     0.131 C 
ATOM      9  O   UNL d   1       9.636   8.354 -11.914  0.00  0.00    -0.190 OA
ATOM     10  C   UNL d   1       9.025   6.527 -10.515  0.00  0.00     0.029 C 
ATOM     11  C   UNL d   1       8.898   6.003  -9.218  0.00  0.00     0.026 C 
ATOM     12  C   UNL d   1       9.652   6.548  -8.182  0.00  0.00     0.092 C 
ATOM     13  O   UNL d   1       9.465   6.098  -6.898  0.00  0.00    -0.329 OA
ATOM     14  C   UNL d   1      10.501   6.347  -5.958  0.00  0.00     0.185 C 
ATOM     15  C   UNL d   1      10.814   7.806  -5.896  0.00  0.00     0.280 C 
ENDROOT
BRANCH   1  16
ATOM     16  C   UNL d   1      11.463   7.836  -3.469  0.00  0.00     0.251 C 
BRANCH  16  17
ATOM     17  C   UNL d   1      12.639   7.635  -2.510  0.00  0.00     0.035 C 
ATOM     18  C   UNL d   1      13.115   8.926  -1.885  0.00  0.00     0.002 C 
ENDBRANCH  16  17
ENDBRANCH   1  16
TORSDOF 2
