REMARK  6 active torsions:
REMARK  status: ('A' for Active; 'I' for Inactive)
REMARK    1  A    between atoms: C_6  and  C_7 
REMARK       I    between atoms: C_7  and  N_9 
REMARK    2  A    between atoms: N_9  and  C_10 
REMARK    3  A    between atoms: C_13  and  C_14 
REMARK    4  A    between atoms: C_14  and  C_15 
REMARK    5  A    between atoms: C_15  and  N_16 
REMARK    6  A    between atoms: N_19  and  C_20 
ROOT
ATOM      1  N   UNL d   1      11.397  10.381  -5.313  0.00  0.00    -0.191 NA
ATOM      2  C   UNL d   1      11.047   9.558  -6.037  0.00  0.00     0.101 C 
ATOM      3  C   UNL d   1      10.600   8.527  -6.953  0.00  0.00     0.068 A 
ATOM      4  C   UNL d   1       9.523   7.699  -6.590  0.00  0.00     0.010 A 
ATOM      5  C   UNL d   1       9.066   6.702  -7.466  0.00  0.00     0.005 A 
ATOM      6  C   UNL d   1       9.683   6.537  -8.720  0.00  0.00     0.058 A 
ATOM      7  C   UNL d   1      10.770   7.368  -9.086  0.00  0.00     0.005 A 
ATOM      8  C   UNL d   1      11.224   8.369  -8.204  0.00  0.00     0.010 A 
ENDROOT
BRANCH   6   9
ATOM      9  C   UNL d   1       9.197   5.464  -9.646  0.00  0.00     0.275 C 
ATOM     10  O   UNL d   1       8.745   4.407  -9.209  0.00  0.00    -0.266 OA
ATOM     11  N   UNL d   1       9.287   5.764 -10.949  0.00  0.00    -0.236 NA
BRANCH  11  12
ATOM     12  C   UNL d   1       8.875   4.919 -12.056  0.00  0.00     0.107 C 
ATOM     13  C   UNL d   1       9.909   3.818 -12.315  0.00  0.00     0.024 C 
ATOM     14  C   UNL d   1       9.575   2.959 -13.533  0.00  0.00     0.002 C 
ATOM     15  C   UNL d   1       9.409   3.818 -14.791  0.00  0.00     0.002 C 
ATOM     16  C   UNL d   1       8.407   4.946 -14.521  0.00  0.00     0.002 C 
ATOM     17  C   UNL d   1       8.745   5.793 -13.296  0.00  0.00     0.024 C 
BRANCH  15  18
ATOM     18  C   UNL d   1       8.938   2.969 -15.986  0.00  0.00     0.035 C 
BRANCH  18  19
ATOM     19  C   UNL d   1       9.860   1.778 -16.293  0.00  0.00     0.250 C 
BRANCH  19  20
ATOM     20  N   UNL d   1       9.622   1.188 -17.611  0.00  0.00     0.141 N 
ATOM     21  C   UNL d   1      10.064   2.045 -18.723  0.00  0.00     0.274 C 
ATOM     22  C   UNL d   1      11.584   2.302 -18.674  0.00  0.00     0.137 C 
ATOM     23  N   UNL d   1      12.295   1.027 -18.622  0.00  0.00    -0.343 N 
ATOM     24  C   UNL d   1      11.834   0.059 -17.630  0.00  0.00     0.137 C 
ATOM     25  C   UNL d   1      10.303  -0.106 -17.736  0.00  0.00     0.274 C 
BRANCH  23  26
ATOM     26  C   UNL d   1      13.379   0.758 -19.468  0.00  0.00     0.081 A 
ATOM     27  C   UNL d   1      14.218   1.790 -19.938  0.00  0.00     0.135 A 
ATOM     28  C   UNL d   1      15.266   1.549 -20.798  0.00  0.00     0.121 A 
ATOM     29  O   UNL d   1      14.166   3.121 -19.661  0.00  0.00    -0.298 OA
ATOM     30  C   UNL d   1      15.574   0.252 -21.244  0.00  0.00     0.026 A 
ATOM     31  O   UNL d   1      15.893   2.717 -21.093  0.00  0.00    -0.299 OA
ATOM     32  C   UNL d   1      14.764  -0.811 -20.780  0.00  0.00     0.004 A 
ATOM     33  C   UNL d   1      13.677  -0.557 -19.909  0.00  0.00     0.019 A 
ATOM     34  C   UNL d   1      15.192   3.717 -20.401  0.00  0.00     0.304 A 
ENDBRANCH  23  26
ENDBRANCH  19  20
ENDBRANCH  18  19
ENDBRANCH  15  18
ENDBRANCH  11  12
ENDBRANCH   6   9
TORSDOF 6
