REMARK  7 active torsions:
REMARK  status: ('A' for Active; 'I' for Inactive)
REMARK    1  A    between atoms: C_8  and  O_9 
REMARK    2  A    between atoms: O_9  and  C_10 
REMARK    3  A    between atoms: C_10  and  C_11 
REMARK    4  A    between atoms: C_11  and  C_12 
REMARK    5  A    between atoms: C_12  and  C_13 
REMARK    6  A    between atoms: C_13  and  N_14 
REMARK    7  A    between atoms: N_17  and  C_18 
ROOT
ATOM      1  N   UNL d   1       5.215   3.635 -13.064  0.00  0.00     0.141 N 
ATOM      2  C   UNL d   1       5.465   3.978 -11.659  0.00  0.00     0.274 C 
ATOM      3  C   UNL d   1       6.948   4.140 -11.313  0.00  0.00     0.137 C 
ATOM      4  N   UNL d   1       7.591   5.105 -12.172  0.00  0.00    -0.343 N 
ATOM      5  C   UNL d   1       7.356   4.867 -13.591  0.00  0.00     0.137 C 
ATOM      6  C   UNL d   1       5.800   4.708 -13.831  0.00  0.00     0.274 C 
ENDROOT
BRANCH   1   7
ATOM      7  C   UNL d   1       5.832   2.407 -13.525  0.00  0.00     0.251 C 
BRANCH   7   8
ATOM      8  C   UNL d   1       5.138   1.141 -13.011  0.00  0.00     0.038 C 
BRANCH   8   9
ATOM      9  C   UNL d   1       5.706  -0.112 -13.700  0.00  0.00     0.035 C 
BRANCH   9  10
ATOM     10  C   UNL d   1       4.767  -0.626 -14.808  0.00  0.00     0.151 C 
BRANCH  10  11
ATOM     11  O   UNL d   1       5.340  -1.774 -15.398  0.00  0.00    -0.315 OA
BRANCH  11  12
ATOM     12  C   UNL d   1       4.929  -2.090 -16.675  0.00  0.00     0.179 A 
ATOM     13  C   UNL d   1       3.769  -1.580 -17.308  0.00  0.00     0.044 A 
ATOM     14  C   UNL d   1       3.553  -1.942 -18.656  0.00  0.00     0.002 A 
ATOM     15  C   UNL d   1       4.472  -2.784 -19.307  0.00  0.00     0.014 A 
ATOM     16  C   UNL d   1       4.292  -3.136 -20.763  0.00  0.00     0.039 C 
ATOM     17  C   UNL d   1       5.593  -3.264 -18.586  0.00  0.00     0.163 A 
ATOM     18  C   UNL d   1       5.068  -4.384 -21.210  0.00  0.00     0.095 C 
ATOM     19  C   UNL d   1       6.422  -4.557 -20.497  0.00  0.00     0.257 C 
ATOM     20  O   UNL d   1       7.318  -5.185 -21.045  0.00  0.00    -0.270 OA
ATOM     21  N   UNL d   1       6.555  -4.044 -19.271  0.00  0.00    -0.193 NA
ATOM     22  N   UNL d   1       5.791  -2.933 -17.302  0.00  0.00    -0.204 NA
ENDBRANCH  11  12
ENDBRANCH  10  11
ENDBRANCH   9  10
ENDBRANCH   8   9
ENDBRANCH   7   8
ENDBRANCH   1   7
BRANCH   4  23
ATOM     23  C   UNL d   1       8.404   6.152 -11.661  0.00  0.00     0.078 A 
ATOM     24  C   UNL d   1       9.118   6.042 -10.453  0.00  0.00     0.105 A 
ATOM     25  C   UNL d   1       9.822   7.161  -9.900  0.00  0.00     0.002 A 
ATOM     26  O   UNL d   1       9.041   4.840  -9.811  0.00  0.00    -0.330 OA
ATOM     27  C   UNL d   1       9.889   8.358 -10.629  0.00  0.00    -0.002 A 
ATOM     28  C   UNL d   1      10.405   7.074  -8.505  0.00  0.00     0.031 C 
ATOM     29  C   UNL d   1       9.198   8.464 -11.853  0.00  0.00     0.001 A 
ATOM     30  C   UNL d   1       8.433   7.381 -12.329  0.00  0.00     0.019 A 
ATOM     31  C   UNL d   1       9.863   5.869  -7.721  0.00  0.00     0.037 C 
ATOM     32  C   UNL d   1       9.749   4.650  -8.624  0.00  0.00     0.149 C 
ENDBRANCH   4  23
TORSDOF 7
