REMARK  8 active torsions:
REMARK  status: ('A' for Active; 'I' for Inactive)
REMARK    1  A    between atoms: O_2  and  C_3 
REMARK    2  A    between atoms: C_8  and  N_9 
REMARK    3  A    between atoms: N_12  and  C_13 
REMARK    4  A    between atoms: C_13  and  C_14 
REMARK    5  A    between atoms: C_14  and  C_15 
REMARK    6  A    between atoms: C_15  and  C_16 
REMARK       I    between atoms: C_16  and  N_18 
REMARK    7  A    between atoms: N_18  and  C_19 
REMARK    8  A    between atoms: C_25  and  C_26 
ROOT
ATOM      1  C   UNL d   1       8.874   6.819 -10.934  0.00  0.00     0.045 C 
ENDROOT
BRANCH   1   2
ATOM      2  C   UNL d   1       8.972   6.211  -9.529  0.00  0.00     0.251 C 
BRANCH   2   3
ATOM      3  N   UNL d   1      10.007   6.880  -8.772  0.00  0.00     0.141 N 
ATOM      4  C   UNL d   1      10.634   5.919  -7.861  0.00  0.00     0.274 C 
ATOM      5  C   UNL d   1      11.742   6.574  -7.014  0.00  0.00     0.137 C 
ATOM      6  N   UNL d   1      11.175   7.690  -6.293  0.00  0.00    -0.343 N 
ATOM      7  C   UNL d   1      10.463   8.650  -7.151  0.00  0.00     0.137 C 
ATOM      8  C   UNL d   1       9.382   7.936  -7.960  0.00  0.00     0.274 C 
BRANCH   6   9
ATOM      9  C   UNL d   1      11.464   7.888  -4.927  0.00  0.00     0.079 A 
ATOM     10  C   UNL d   1      11.593   9.185  -4.363  0.00  0.00     0.110 A 
ATOM     11  C   UNL d   1      11.830   9.316  -2.977  0.00  0.00     0.026 A 
ATOM     12  C   UNL d   1      11.953   8.179  -2.141  0.00  0.00     0.002 A 
ATOM     13  C   UNL d   1      11.861   6.898  -2.716  0.00  0.00     0.002 A 
ATOM     14  C   UNL d   1      11.629   6.772  -4.085  0.00  0.00     0.019 A 
BRANCH  10  15
ATOM     15  O   UNL d   1      11.436  10.312  -5.130  0.00  0.00    -0.327 OA
ATOM     16  C   UNL d   1      12.508  10.540  -6.019  0.00  0.00     0.181 C 
ENDBRANCH  10  15
ENDBRANCH   6   9
ENDBRANCH   2   3
ENDBRANCH   1   2
BRANCH   1  17
ATOM     17  C   UNL d   1       7.711   6.187 -11.727  0.00  0.00     0.092 C 
BRANCH  17  18
ATOM     18  C   UNL d   1       8.069   4.885 -12.427  0.00  0.00     0.256 C 
ATOM     19  O   UNL d   1       9.241   4.490 -12.440  0.00  0.00    -0.270 OA
ATOM     20  N   UNL d   1       7.056   4.223 -13.017  0.00  0.00    -0.212 NA
BRANCH  20  21
ATOM     21  C   UNL d   1       7.205   3.127 -13.917  0.00  0.00     0.087 A 
ATOM     22  C   UNL d   1       6.214   2.169 -13.954  0.00  0.00     0.038 A 
ATOM     23  C   UNL d   1       6.300   1.096 -14.900  0.00  0.00     0.087 A 
ATOM     24  N   UNL d   1       7.421   1.081 -15.761  0.00  0.00    -0.228 N 
ATOM     25  C   UNL d   1       5.540   0.012 -15.278  0.00  0.00     0.060 A 
ATOM     26  C   UNL d   1       8.408   2.006 -15.706  0.00  0.00     0.102 A 
ATOM     27  N   UNL d   1       7.365   0.049 -16.657  0.00  0.00    -0.164 NA
ATOM     28  C   UNL d   1       8.312   3.033 -14.807  0.00  0.00     0.040 A 
ATOM     29  C   UNL d   1       6.257  -0.584 -16.341  0.00  0.00     0.124 A 
BRANCH  25  30
ATOM     30  C   UNL d   1       4.260  -0.410 -14.661  0.00  0.00     0.134 C 
ATOM     31  N   UNL d   1       3.439  -1.307 -14.982  0.00  0.00    -0.095 NA
ATOM     32  O   UNL d   1       3.853  -2.009 -16.152  0.00  0.00    -0.061 OA
ENDBRANCH  25  30
ENDBRANCH  20  21
ENDBRANCH  17  18
ENDBRANCH   1  17
TORSDOF 8
