REMARK  3 active torsions:
REMARK  status: ('A' for Active; 'I' for Inactive)
REMARK    1  A    between atoms: N_6  and  C_7 
REMARK    2  A    between atoms: N_10  and  C_11 
REMARK    3  A    between atoms: C_11  and  C_12 
ROOT
ATOM      1  C   UNL d   1       9.524   7.321  -9.186  0.00  0.00     0.090 C 
ATOM      2  C   UNL d   1      10.017   5.897  -9.396  0.00  0.00     0.058 C 
ATOM      3  C   UNL d   1       9.352   5.202 -10.601  0.00  0.00     0.253 C 
ATOM      4  N   UNL d   1       9.542   5.995 -11.819  0.00  0.00     0.141 N 
ATOM      5  C   UNL d   1       8.922   7.303 -11.669  0.00  0.00     0.253 C 
ATOM      6  C   UNL d   1       9.570   8.101 -10.525  0.00  0.00     0.058 C 
ENDROOT
BRANCH   4   7
ATOM      7  C   UNL d   1       8.972   5.317 -12.975  0.00  0.00     0.277 C 
BRANCH   7   8
ATOM      8  C   UNL d   1       9.985   4.494 -13.748  0.00  0.00     0.011 A 
ATOM      9  C   UNL d   1       9.909   3.092 -13.753  0.00  0.00    -0.002 A 
ATOM     10  C   UNL d   1      10.830   2.336 -14.501  0.00  0.00    -0.000 A 
ATOM     11  C   UNL d   1      11.830   2.987 -15.256  0.00  0.00    -0.000 A 
ATOM     12  C   UNL d   1      11.916   4.388 -15.248  0.00  0.00    -0.000 A 
ATOM     13  C   UNL d   1      10.990   5.143 -14.504  0.00  0.00    -0.002 A 
ENDBRANCH   7   8
ENDBRANCH   4   7
BRANCH   1  14
ATOM     14  N   UNL d   1      10.254   8.018  -8.127  0.00  0.00    -0.324 N 
ATOM     15  C   UNL d   1      11.597   8.380  -8.069  0.00  0.00     0.090 A 
ATOM     16  I   UNL d   1      13.078   7.988  -9.493  0.00  0.00    -0.023 I 
ATOM     17  C   UNL d   1      11.861   9.055  -6.912  0.00  0.00     0.025 A 
ATOM     18  C   UNL d   1      10.643   9.089  -6.188  0.00  0.00     0.021 A 
ATOM     19  C   UNL d   1       9.685   8.457  -6.945  0.00  0.00     0.076 A 
ENDBRANCH   1  14
TORSDOF 3
