REMARK  2 active torsions:
REMARK  status: ('A' for Active; 'I' for Inactive)
REMARK    1  A    between atoms: C_5  and  C_6 
REMARK    2  A    between atoms: C_6  and  C_7 
ROOT
ATOM      1  C   UNL d   1      10.622   9.127  -7.336  0.00  0.00     0.053 C 
ENDROOT
BRANCH   1   2
ATOM      2  C   UNL d   1      10.031   8.053  -8.262  0.00  0.00    -0.018 A 
ATOM      3  C   UNL d   1      10.312   8.077  -9.639  0.00  0.00    -0.003 A 
ATOM      4  C   UNL d   1       9.848   7.019 -10.475  0.00  0.00     0.014 A 
ATOM      5  C   UNL d   1       9.133   5.952  -9.907  0.00  0.00     0.070 A 
ATOM      6  N   UNL d   1       8.731   4.859 -10.705  0.00  0.00    -0.101 NA
ATOM      7  C   UNL d   1       8.818   5.941  -8.551  0.00  0.00     0.014 A 
ATOM      8  C   UNL d   1       9.223   7.036  -7.712  0.00  0.00    -0.003 A 
ENDBRANCH   1   2
BRANCH   1   9
ATOM      9  C   UNL d   1      11.126   8.630  -5.977  0.00  0.00    -0.018 A 
ATOM     10  C   UNL d   1      11.229   7.252  -5.686  0.00  0.00    -0.003 A 
ATOM     11  C   UNL d   1      11.555   6.835  -4.384  0.00  0.00     0.014 A 
ATOM     12  C   UNL d   1      11.881   7.777  -3.396  0.00  0.00     0.070 A 
ATOM     13  C   UNL d   1      11.868   9.162  -3.683  0.00  0.00     0.014 A 
ATOM     14  N   UNL d   1      12.235   7.313  -2.120  0.00  0.00    -0.101 NA
ATOM     15  C   UNL d   1      11.464   9.585  -4.980  0.00  0.00    -0.003 A 
ENDBRANCH   1   9
TORSDOF 2
