REMARK  7 active torsions:
REMARK  status: ('A' for Active; 'I' for Inactive)
REMARK    1  A    between atoms: C_8  and  O_9 
REMARK    2  A    between atoms: O_9  and  C_10 
REMARK    3  A    between atoms: C_10  and  C_11 
REMARK    4  A    between atoms: C_11  and  C_12 
REMARK    5  A    between atoms: C_12  and  C_13 
REMARK    6  A    between atoms: C_13  and  N_14 
REMARK    7  A    between atoms: N_17  and  C_18 
ROOT
ATOM      1  N   UNL d   1       9.327   5.997  -9.234  0.00  0.00     0.141 N 
ATOM      2  C   UNL d   1      10.495   5.512  -8.508  0.00  0.00     0.274 C 
ATOM      3  C   UNL d   1      10.484   6.006  -7.086  0.00  0.00     0.137 C 
ATOM      4  N   UNL d   1      10.382   7.418  -7.016  0.00  0.00    -0.344 N 
ATOM      5  C   UNL d   1       9.287   7.992  -7.784  0.00  0.00     0.137 C 
ATOM      6  C   UNL d   1       9.445   7.454  -9.219  0.00  0.00     0.274 C 
ENDROOT
BRANCH   1   7
ATOM      7  C   UNL d   1       9.423   5.492 -10.595  0.00  0.00     0.251 C 
BRANCH   7   8
ATOM      8  C   UNL d   1       8.081   5.692 -11.326  0.00  0.00     0.038 C 
BRANCH   8   9
ATOM      9  C   UNL d   1       7.276   4.407 -11.394  0.00  0.00     0.035 C 
BRANCH   9  10
ATOM     10  C   UNL d   1       5.963   4.559 -12.211  0.00  0.00     0.149 C 
BRANCH  10  11
ATOM     11  O   UNL d   1       5.450   3.283 -12.617  0.00  0.00    -0.331 OA
BRANCH  11  12
ATOM     12  C   UNL d   1       6.184   2.594 -13.570  0.00  0.00     0.094 A 
ATOM     13  C   UNL d   1       5.778   1.288 -13.965  0.00  0.00     0.024 A 
ATOM     14  C   UNL d   1       6.521   0.549 -14.924  0.00  0.00    -0.000 A 
ATOM     15  C   UNL d   1       7.701   1.130 -15.421  0.00  0.00     0.007 A 
ATOM     16  C   UNL d   1       8.705   0.634 -16.425  0.00  0.00     0.155 A 
ATOM     17  C   UNL d   1       8.110   2.370 -15.019  0.00  0.00     0.057 A 
ATOM     18  N   UNL d   1       9.685   1.735 -16.469  0.00  0.00    -0.229 NA
ATOM     19  C   UNL d   1       9.383   2.760 -15.651  0.00  0.00     0.275 A 
ATOM     20  O   UNL d   1       9.995   3.802 -15.466  0.00  0.00    -0.266 OA
ATOM     21  C   UNL d   1       7.365   3.141 -14.141  0.00  0.00     0.029 A 
ENDBRANCH  11  12
ENDBRANCH  10  11
ENDBRANCH   9  10
ENDBRANCH   8   9
ENDBRANCH   7   8
ENDBRANCH   1   7
BRANCH   4  22
ATOM     22  C   UNL d   1      11.196   8.174  -6.202  0.00  0.00     0.052 C 
ATOM     23  C   UNL d   1      11.531   7.800  -4.864  0.00  0.00    -0.011 C 
ATOM     24  C   UNL d   1      12.439   8.570  -4.113  0.00  0.00    -0.025 C 
ATOM     25  C   UNL d   1      10.964   6.555  -4.198  0.00  0.00     0.028 C 
ATOM     26  C   UNL d   1      13.020   9.642  -4.737  0.00  0.00    -0.004 C 
ATOM     27  C   UNL d   1      12.798   8.297  -2.655  0.00  0.00     0.026 C 
ATOM     28  C   UNL d   1      12.614  10.091  -5.999  0.00  0.00     0.001 C 
ATOM     29  C   UNL d   1      11.734   9.345  -6.764  0.00  0.00     0.017 C 
ATOM     30  C   UNL d   1      12.520   6.849  -2.306  0.00  0.00     0.005 C 
ATOM     31  C   UNL d   1      11.121   6.564  -2.679  0.00  0.00     0.005 C 
ENDBRANCH   4  22
TORSDOF 7
