REMARK  5 active torsions:
REMARK  status: ('A' for Active; 'I' for Inactive)
REMARK    1  A    between atoms: N_2  and  C_4 
REMARK    2  A    between atoms: C_12  and  C_13 
REMARK    3  A    between atoms: C_13  and  C_14 
REMARK    4  A    between atoms: C_14  and  N_15 
REMARK    5  A    between atoms: C_18  and  C_19 
ROOT
ATOM      1  N   UNL d   1       8.822   6.040  -9.524  0.00  0.00     0.137 N 
ATOM      2  C   UNL d   1      10.281   6.091  -9.537  0.00  0.00     0.251 C 
ATOM      3  C   UNL d   1      10.788   7.167  -8.584  0.00  0.00     0.041 C 
ATOM      4  C   UNL d   1      10.319   6.912  -7.152  0.00  0.00     0.047 C 
ATOM      5  C   UNL d   1       8.799   6.705  -7.138  0.00  0.00     0.041 C 
ATOM      6  C   UNL d   1       8.380   5.653  -8.180  0.00  0.00     0.251 C 
ENDROOT
BRANCH   1   7
ATOM      7  C   UNL d   1       8.307   5.101 -10.514  0.00  0.00     0.250 C 
BRANCH   7   8
ATOM      8  C   UNL d   1       8.622   5.504 -11.982  0.00  0.00     0.038 C 
BRANCH   8   9
ATOM      9  C   UNL d   1       8.599   4.301 -12.941  0.00  0.00     0.037 C 
ATOM     10  C   UNL d   1       7.218   3.621 -13.022  0.00  0.00     0.174 C 
ATOM     11  C   UNL d   1       7.173   2.531 -14.086  0.00  0.00     0.005 A 
ATOM     12  O   UNL d   1       6.198   4.587 -13.220  0.00  0.00    -0.219 OA
ATOM     13  C   UNL d   1       8.106   2.456 -15.146  0.00  0.00    -0.024 A 
ATOM     14  C   UNL d   1       6.133   1.585 -14.007  0.00  0.00     0.021 A 
ATOM     15  C   UNL d   1       7.955   1.480 -16.138  0.00  0.00    -0.003 A 
ATOM     16  C   UNL d   1       9.268   3.441 -15.245  0.00  0.00     0.026 C 
ATOM     17  C   UNL d   1       6.888   0.558 -16.067  0.00  0.00     0.023 A 
ATOM     18  C   UNL d   1       5.969   0.596 -14.987  0.00  0.00     0.126 A 
ATOM     19  C   UNL d   1       9.109   4.677 -14.341  0.00  0.00     0.008 C 
BRANCH  18  20
ATOM     20  N   UNL d   1       4.821  -0.346 -14.911  0.00  0.00    -0.114 N 
ATOM     21  O   UNL d   1       4.233  -0.449 -13.824  0.00  0.00    -0.532 OA
ATOM     22  O   UNL d   1       4.492  -0.948 -15.918  0.00  0.00    -0.532 OA
ENDBRANCH  18  20
ENDBRANCH   8   9
ENDBRANCH   7   8
ENDBRANCH   1   7
BRANCH   4  23
ATOM     23  C   UNL d   1      10.755   8.021  -6.231  0.00  0.00     0.087 A 
ATOM     24  C   UNL d   1      11.365   7.970  -4.961  0.00  0.00     0.041 A 
ATOM     25  C   UNL d   1      11.539   9.272  -4.493  0.00  0.00     0.129 A 
ATOM     26  C   UNL d   1      11.745   6.878  -4.157  0.00  0.00     0.006 A 
ATOM     27  O   UNL d   1      11.046  10.093  -5.484  0.00  0.00    -0.211 OA
ATOM     28  C   UNL d   1      12.084   9.557  -3.234  0.00  0.00     0.057 A 
ATOM     29  N   UNL d   1      10.551   9.299  -6.553  0.00  0.00    -0.131 NA
ATOM     30  C   UNL d   1      12.481   8.470  -2.435  0.00  0.00     0.142 A 
ATOM     31  F   UNL d   1      13.052   8.708  -1.236  0.00  0.00    -0.204 F 
ATOM     32  C   UNL d   1      12.307   7.138  -2.885  0.00  0.00     0.030 A 
ENDBRANCH   4  23
TORSDOF 5
