REMARK  5 active torsions:
REMARK  status: ('A' for Active; 'I' for Inactive)
REMARK    1  A    between atoms: C_7  and  C_8 
REMARK    2  A    between atoms: C_8  and  C_9 
REMARK    3  A    between atoms: C_9  and  C_10 
REMARK    4  A    between atoms: C_10  and  N_11 
REMARK    5  A    between atoms: N_14  and  C_15 
ROOT
ATOM      1  N   UNL d   1       9.595   6.056 -10.645  0.00  0.00     0.141 N 
ATOM      2  C   UNL d   1       8.282   6.448 -11.153  0.00  0.00     0.274 C 
ATOM      3  C   UNL d   1       7.926   5.849 -12.505  0.00  0.00     0.137 C 
ATOM      4  N   UNL d   1       8.111   4.424 -12.454  0.00  0.00    -0.343 N 
ATOM      5  C   UNL d   1       9.383   3.973 -11.892  0.00  0.00     0.137 C 
ATOM      6  C   UNL d   1       9.540   4.607 -10.478  0.00  0.00     0.274 C 
ENDROOT
BRANCH   1   7
ATOM      7  C   UNL d   1       9.851   6.697  -9.355  0.00  0.00     0.251 C 
BRANCH   7   8
ATOM      8  C   UNL d   1      10.358   8.148  -9.530  0.00  0.00     0.040 C 
BRANCH   8   9
ATOM      9  C   UNL d   1      11.698   8.405  -8.818  0.00  0.00     0.030 C 
BRANCH   9  10
ATOM     10  C   UNL d   1      11.506   8.875  -7.400  0.00  0.00    -0.002 A 
ATOM     11  C   UNL d   1      11.434   8.145  -6.197  0.00  0.00     0.017 A 
ATOM     12  C   UNL d   1      11.540   6.790  -5.915  0.00  0.00     0.001 A 
ATOM     13  C   UNL d   1      11.443   9.045  -5.085  0.00  0.00     0.108 A 
ATOM     14  C   UNL d   1      11.668   6.410  -4.578  0.00  0.00     0.002 A 
ATOM     15  C   UNL d   1      11.640   7.283  -3.491  0.00  0.00     0.031 A 
ATOM     16  C   UNL d   1      11.552   8.649  -3.761  0.00  0.00     0.158 A 
ATOM     17  F   UNL d   1      11.522   9.573  -2.772  0.00  0.00    -0.203 F 
ATOM     18  N   UNL d   1      11.367  10.286  -5.607  0.00  0.00    -0.242 NA
ATOM     19  C   UNL d   1      11.416  10.187  -6.979  0.00  0.00     0.095 A 
ENDBRANCH   9  10
ENDBRANCH   8   9
ENDBRANCH   7   8
ENDBRANCH   1   7
BRANCH   4  20
ATOM     20  C   UNL d   1       7.111   3.606 -12.937  0.00  0.00     0.081 A 
ATOM     21  C   UNL d   1       7.348   2.740 -14.033  0.00  0.00     0.132 A 
ATOM     22  C   UNL d   1       6.443   1.702 -14.348  0.00  0.00     0.118 A 
ATOM     23  O   UNL d   1       8.547   2.843 -14.704  0.00  0.00    -0.325 OA
ATOM     24  C   UNL d   1       5.314   1.513 -13.556  0.00  0.00     0.026 A 
ATOM     25  O   UNL d   1       6.609   0.860 -15.404  0.00  0.00    -0.326 OA
ATOM     26  C   UNL d   1       5.059   2.452 -12.555  0.00  0.00     0.004 A 
ATOM     27  C   UNL d   1       5.903   3.474 -12.215  0.00  0.00     0.019 A 
ATOM     28  C   UNL d   1       7.949   0.770 -15.838  0.00  0.00     0.181 C 
ATOM     29  C   UNL d   1       8.553   2.175 -15.942  0.00  0.00     0.182 C 
ENDBRANCH   4  20
TORSDOF 5
