REMARK  4 active torsions:
REMARK  status: ('A' for Active; 'I' for Inactive)
REMARK    1  A    between atoms: C_13  and  C_14 
REMARK    2  A    between atoms: C_17  and  N_18 
REMARK    3  A    between atoms: N_18  and  C_19 
REMARK    4  A    between atoms: C_22  and  N_23 
ROOT
ATOM      1  C   UNL d   1       9.752   4.054 -14.498  0.00  0.00    -0.016 A 
ATOM      2  C   UNL d   1       8.677   4.965 -14.390  0.00  0.00    -0.002 A 
ATOM      3  C   UNL d   1       8.147   5.328 -13.138  0.00  0.00     0.019 A 
ATOM      4  C   UNL d   1       8.730   4.829 -11.964  0.00  0.00     0.081 A 
ATOM      5  C   UNL d   1       9.817   3.951 -12.063  0.00  0.00     0.019 A 
ATOM      6  C   UNL d   1      10.293   3.537 -13.319  0.00  0.00    -0.002 A 
ENDROOT
BRANCH   1   7
ATOM      7  C   UNL d   1      10.349   3.614 -15.846  0.00  0.00     0.078 C 
ATOM      8  C   UNL d   1      11.416   4.586 -16.385  0.00  0.00    -0.018 A 
ATOM      9  C   UNL d   1      12.154   4.278 -17.556  0.00  0.00    -0.023 A 
ATOM     10  C   UNL d   1      11.688   5.811 -15.727  0.00  0.00     0.024 A 
ATOM     11  C   UNL d   1      11.922   2.990 -18.325  0.00  0.00     0.061 C 
ATOM     12  C   UNL d   1      13.120   5.186 -18.044  0.00  0.00     0.004 A 
ATOM     13  C   UNL d   1      10.503   2.877 -18.897  0.00  0.00     0.255 C 
ATOM     14  N   UNL d   1       9.552   2.370 -17.913  0.00  0.00     0.140 N 
ATOM     15  C   UNL d   1       8.321   2.016 -18.611  0.00  0.00     0.285 C 
ATOM     16  C   UNL d   1       9.220   3.325 -16.859  0.00  0.00     0.259 C 
ATOM     17  C   UNL d   1      13.369   6.400 -17.384  0.00  0.00     0.060 A 
ATOM     18 BR   UNL d   1      14.681   7.595 -18.075  0.00  0.00    -0.047 Br
ATOM     19  C   UNL d   1      12.651   6.714 -16.215  0.00  0.00     0.137 A 
ATOM     20  O   UNL d   1      12.888   7.887 -15.552  0.00  0.00    -0.190 OA
ENDBRANCH   1   7
BRANCH   4  21
ATOM     21  N   UNL d   1       8.216   5.150 -10.708  0.00  0.00    -0.244 NA
BRANCH  21  22
ATOM     22  C   UNL d   1       8.835   5.932  -9.723  0.00  0.00     0.103 A 
ATOM     23  C   UNL d   1       9.571   7.088 -10.004  0.00  0.00     0.149 A 
ATOM     24  C   UNL d   1      10.136   7.868  -8.934  0.00  0.00     0.153 A 
ATOM     25  N   UNL d   1       9.840   7.675 -11.172  0.00  0.00    -0.100 NA
ATOM     26  C   UNL d   1       9.921   7.500  -7.603  0.00  0.00     0.148 A 
ATOM     27  N   UNL d   1      10.832   8.887  -9.442  0.00  0.00    -0.100 NA
ATOM     28  C   UNL d   1       9.132   6.367  -7.345  0.00  0.00     0.027 A 
ATOM     29  C   UNL d   1       8.613   5.583  -8.385  0.00  0.00     0.022 A 
ATOM     30  O   UNL d   1      10.616   8.780 -10.817  0.00  0.00    -0.106 OA
BRANCH  26  31
ATOM     31  N   UNL d   1      10.505   8.244  -6.479  0.00  0.00    -0.112 N 
ATOM     32  O   UNL d   1      10.734   7.609  -5.450  0.00  0.00    -0.532 OA
ATOM     33  O   UNL d   1      10.742   9.435  -6.596  0.00  0.00    -0.532 OA
ENDBRANCH  26  31
ENDBRANCH  21  22
ENDBRANCH   4  21
TORSDOF 4
