REMARK  6 active torsions:
REMARK  status: ('A' for Active; 'I' for Inactive)
REMARK    1  A    between atoms: C_5  and  C_6 
REMARK    2  A    between atoms: N_14  and  C_15 
REMARK    3  A    between atoms: C_15  and  C_16 
REMARK    4  A    between atoms: C_18  and  C_19 
REMARK    5  A    between atoms: C_19  and  N_20 
REMARK       I    between atoms: N_20  and  C_21 
REMARK    6  A    between atoms: C_21  and  C_23 
ROOT
ATOM      1  C   UNL d   1       8.592   4.373 -13.709  0.00  0.00     0.035 A 
ATOM      2  C   UNL d   1       7.156   4.078 -13.321  0.00  0.00     0.004 A 
ATOM      3  C   UNL d   1       8.120   4.646 -12.316  0.00  0.00     0.026 A 
ENDROOT
BRANCH   1   4
ATOM      4  C   UNL d   1       9.629   3.279 -13.859  0.00  0.00     0.250 C 
BRANCH   4   5
ATOM      5  N   UNL d   1      10.166   3.130 -15.209  0.00  0.00     0.140 N 
ATOM      6  C   UNL d   1      10.996   1.928 -15.370  0.00  0.00     0.249 C 
ATOM      7  C   UNL d   1      10.257   0.602 -15.091  0.00  0.00     0.038 C 
ATOM      8  C   UNL d   1      11.585   1.870 -16.799  0.00  0.00     0.176 C 
ATOM      9  O   UNL d   1      12.308   3.055 -17.107  0.00  0.00    -0.348 OA
ATOM     10  C   UNL d   1      11.511   4.227 -17.015  0.00  0.00     0.172 C 
ATOM     11  C   UNL d   1      10.946   4.314 -15.592  0.00  0.00     0.284 C 
BRANCH  10  12
ATOM     12  C   UNL d   1      12.312   5.462 -17.366  0.00  0.00     0.026 A 
ATOM     13  C   UNL d   1      13.598   5.657 -16.818  0.00  0.00     0.098 A 
ATOM     14  N   UNL d   1      14.360   6.741 -17.077  0.00  0.00    -0.230 NA
ATOM     15  C   UNL d   1      13.861   7.674 -17.910  0.00  0.00     0.151 A 
ATOM     16  C   UNL d   1      12.588   7.587 -18.501  0.00  0.00     0.033 A 
ATOM     17  N   UNL d   1      14.682   8.760 -18.186  0.00  0.00    -0.080 NA
ATOM     18  C   UNL d   1      11.794   6.461 -18.214  0.00  0.00     0.002 A 
ENDBRANCH  10  12
ENDBRANCH   4   5
ENDBRANCH   1   4
BRANCH   3  19
ATOM     19  C   UNL d   1       8.046   6.071 -11.840  0.00  0.00     0.129 C 
BRANCH  19  20
ATOM     20  N   UNL d   1       9.073   6.506 -10.911  0.00  0.00    -0.233 NA
ATOM     21  C   UNL d   1       9.313   5.946  -9.718  0.00  0.00     0.293 C 
ATOM     22  O   UNL d   1       8.988   4.803  -9.403  0.00  0.00    -0.264 OA
BRANCH  21  23
ATOM     23  C   UNL d   1       9.969   6.820  -8.731  0.00  0.00     0.139 A 
ATOM     24  N   UNL d   1      10.190   6.290  -7.479  0.00  0.00    -0.241 NA
ATOM     25  C   UNL d   1      10.712   7.223  -6.618  0.00  0.00     0.082 A 
ATOM     26  C   UNL d   1      10.843   8.408  -7.397  0.00  0.00     0.019 A 
ATOM     27  C   UNL d   1      11.066   7.162  -5.255  0.00  0.00     0.019 A 
ATOM     28  C   UNL d   1      10.381   8.127  -8.733  0.00  0.00     0.025 A 
ATOM     29  C   UNL d   1      11.349   9.546  -6.746  0.00  0.00     0.002 A 
ATOM     30  C   UNL d   1      11.703   9.498  -5.380  0.00  0.00     0.000 A 
ATOM     31  C   UNL d   1      11.565   8.314  -4.634  0.00  0.00     0.002 A 
ENDBRANCH  21  23
ENDBRANCH  19  20
ENDBRANCH   3  19
TORSDOF 6
