REMARK  10 active torsions:
REMARK  status: ('A' for Active; 'I' for Inactive)
REMARK    1  A    between atoms: O_2  and  C_3 
REMARK    2  A    between atoms: C_8  and  N_9 
REMARK    3  A    between atoms: N_12  and  C_13 
REMARK    4  A    between atoms: C_13  and  C_14 
REMARK    5  A    between atoms: C_14  and  C_15 
REMARK    6  A    between atoms: C_15  and  N_16 
REMARK       I    between atoms: N_16  and  C_17 
REMARK       I    between atoms: C_17  and  N_19 
REMARK    7  A    between atoms: N_19  and  N_20 
REMARK    8  A    between atoms: N_20  and  C_21 
REMARK    9  A    between atoms: N_20  and  C_28 
REMARK   10  A    between atoms: C_21  and  C_22 
ROOT
ATOM      1  N   UNL d   1       9.155   4.652 -12.762  0.00  0.00    -0.216 NA
ATOM      2  C   UNL d   1       8.218   4.120 -13.560  0.00  0.00     0.381 C 
ATOM      3  O   UNL d   1       7.106   4.615 -13.689  0.00  0.00    -0.241 OA
ATOM      4  N   UNL d   1       8.656   3.005 -14.190  0.00  0.00    -0.110 NA
ENDROOT
BRANCH   1   5
ATOM      5  C   UNL d   1       8.991   5.949 -12.089  0.00  0.00     0.133 C 
BRANCH   5   6
ATOM      6  C   UNL d   1       9.857   6.007 -10.832  0.00  0.00     0.062 C 
BRANCH   6   7
ATOM      7  C   UNL d   1       9.711   7.260  -9.968  0.00  0.00     0.253 C 
BRANCH   7   8
ATOM      8  N   UNL d   1       9.682   6.935  -8.551  0.00  0.00     0.141 N 
ATOM      9  C   UNL d   1      11.033   6.603  -8.107  0.00  0.00     0.274 C 
ATOM     10  C   UNL d   1      11.019   6.194  -6.651  0.00  0.00     0.137 C 
ATOM     11  N   UNL d   1      10.426   7.199  -5.828  0.00  0.00    -0.343 N 
ATOM     12  C   UNL d   1       9.136   7.676  -6.311  0.00  0.00     0.137 C 
ATOM     13  C   UNL d   1       9.220   8.085  -7.790  0.00  0.00     0.274 C 
BRANCH  11  14
ATOM     14  C   UNL d   1      11.131   7.735  -4.735  0.00  0.00     0.079 A 
ATOM     15  C   UNL d   1      11.268   9.129  -4.614  0.00  0.00     0.110 A 
ATOM     16  C   UNL d   1      11.829   9.655  -3.440  0.00  0.00     0.026 A 
ATOM     17  C   UNL d   1      12.352   8.810  -2.446  0.00  0.00     0.002 A 
ATOM     18  C   UNL d   1      12.217   7.415  -2.569  0.00  0.00     0.002 A 
ATOM     19  C   UNL d   1      11.590   6.885  -3.706  0.00  0.00     0.019 A 
BRANCH  15  20
ATOM     20  O   UNL d   1      10.775   9.890  -5.647  0.00  0.00    -0.327 OA
ATOM     21  C   UNL d   1      11.546  11.009  -5.987  0.00  0.00     0.181 C 
ENDBRANCH  15  20
ENDBRANCH  11  14
ENDBRANCH   7   8
ENDBRANCH   6   7
ENDBRANCH   5   6
ENDBRANCH   1   5
BRANCH   4  22
ATOM     22  N   UNL d   1       8.064   2.477 -15.363  0.00  0.00    -0.243 N 
BRANCH  22  23
ATOM     23  C   UNL d   1       8.886   2.740 -16.558  0.00  0.00     0.154 C 
BRANCH  23  24
ATOM     24  C   UNL d   1       9.339   1.522 -17.347  0.00  0.00     0.002 A 
ATOM     25  C   UNL d   1       9.110   1.457 -18.742  0.00  0.00    -0.002 A 
ATOM     26  C   UNL d   1       9.400   0.281 -19.455  0.00  0.00    -0.000 A 
ATOM     27  C   UNL d   1       9.923  -0.836 -18.774  0.00  0.00    -0.000 A 
ATOM     28  C   UNL d   1      10.174  -0.770 -17.395  0.00  0.00    -0.000 A 
ATOM     29  C   UNL d   1       9.881   0.406 -16.680  0.00  0.00    -0.002 A 
ENDBRANCH  23  24
ENDBRANCH  22  23
BRANCH  22  30
ATOM     30  C   UNL d   1       7.017   1.512 -15.333  0.00  0.00     0.079 A 
ATOM     31  C   UNL d   1       6.336   1.246 -14.117  0.00  0.00     0.021 A 
ATOM     32  C   UNL d   1       5.359   0.226 -14.032  0.00  0.00     0.031 A 
ATOM     33  C   UNL d   1       5.038  -0.548 -15.167  0.00  0.00     0.140 A 
ATOM     34  C   UNL d   1       5.671  -0.262 -16.394  0.00  0.00     0.031 A 
ATOM     35  F   UNL d   1       4.099  -1.531 -15.093  0.00  0.00    -0.204 F 
ATOM     36  C   UNL d   1       6.605   0.785 -16.489  0.00  0.00     0.021 A 
ENDBRANCH  22  30
ENDBRANCH   4  22
TORSDOF 10
