REMARK  7 active torsions:
REMARK  status: ('A' for Active; 'I' for Inactive)
REMARK    1  A    between atoms: C_2  and  C_3 
REMARK    2  A    between atoms: C_3  and  N_4 
REMARK    3  A    between atoms: N_4  and  C_5 
REMARK    4  A    between atoms: N_4  and  C_19 
REMARK    5  A    between atoms: C_5  and  C_6 
REMARK    6  A    between atoms: C_6  and  N_7 
REMARK    7  A    between atoms: N_10  and  C_11 
ROOT
ATOM      1  N   UNL d   1       9.323   6.022 -12.744  0.00  0.00     0.137 N 
ENDROOT
BRANCH   1   2
ATOM      2  C   UNL d   1       8.134   6.852 -12.996  0.00  0.00     0.250 C 
BRANCH   2   3
ATOM      3  C   UNL d   1       6.824   6.477 -12.302  0.00  0.00     0.035 C 
ATOM      4  C   UNL d   1       5.776   7.574 -12.470  0.00  0.00     0.002 C 
ENDBRANCH   2   3
ENDBRANCH   1   2
BRANCH   1   5
ATOM      5  C   UNL d   1       9.463   5.890 -11.289  0.00  0.00     0.285 C 
BRANCH   5   6
ATOM      6  C   UNL d   1       9.733   7.222 -10.559  0.00  0.00     0.286 C 
BRANCH   6   7
ATOM      7  N   UNL d   1       9.485   7.113  -9.139  0.00  0.00     0.143 N 
ATOM      8  C   UNL d   1       9.438   8.427  -8.516  0.00  0.00     0.274 C 
ATOM      9  C   UNL d   1       9.126   8.323  -7.024  0.00  0.00     0.137 C 
ATOM     10  N   UNL d   1      10.145   7.491  -6.375  0.00  0.00    -0.344 N 
ATOM     11  C   UNL d   1      10.272   6.172  -6.996  0.00  0.00     0.137 C 
ATOM     12  C   UNL d   1      10.511   6.320  -8.488  0.00  0.00     0.274 C 
BRANCH  10  13
ATOM     13  C   UNL d   1      10.913   7.895  -5.270  0.00  0.00     0.056 A 
ATOM     14  C   UNL d   1      11.534   6.936  -4.418  0.00  0.00     0.017 A 
ATOM     15  C   UNL d   1      12.274   7.324  -3.280  0.00  0.00     0.002 A 
ATOM     16  C   UNL d   1      12.373   8.680  -2.939  0.00  0.00     0.000 A 
ATOM     17  C   UNL d   1      11.726   9.634  -3.729  0.00  0.00     0.002 A 
ATOM     18  C   UNL d   1      11.045   9.264  -4.906  0.00  0.00     0.017 A 
ENDBRANCH  10  13
ENDBRANCH   6   7
ENDBRANCH   5   6
ENDBRANCH   1   5
BRANCH   1  19
ATOM     19  C   UNL d   1       9.334   4.782 -13.530  0.00  0.00     0.224 C 
ATOM     20  C   UNL d   1       9.541   5.013 -15.060  0.00  0.00     0.059 C 
ATOM     21  C   UNL d   1       9.693   3.753 -15.879  0.00  0.00    -0.024 A 
ATOM     22  C   UNL d   1      10.055   2.517 -15.282  0.00  0.00    -0.024 A 
ATOM     23  C   UNL d   1       9.467   3.790 -17.275  0.00  0.00    -0.002 A 
ATOM     24  C   UNL d   1      10.257   2.432 -13.803  0.00  0.00     0.028 C 
ATOM     25  C   UNL d   1      10.197   1.354 -16.064  0.00  0.00     0.023 A 
ATOM     26  C   UNL d   1      10.415   3.765 -13.097  0.00  0.00     0.038 C 
ATOM     27  C   UNL d   1       9.986   1.421 -17.446  0.00  0.00     0.131 A 
ATOM     28  O   UNL d   1      10.148   0.292 -18.210  0.00  0.00    -0.190 OA
ATOM     29  C   UNL d   1       9.617   2.633 -18.048  0.00  0.00     0.027 A 
ENDBRANCH   1  19
TORSDOF 7
