REMARK  6 active torsions:
REMARK  status: ('A' for Active; 'I' for Inactive)
REMARK    1  A    between atoms: N_3  and  C_4 
REMARK    2  A    between atoms: C_4  and  C_5 
REMARK    3  A    between atoms: C_5  and  C_6 
REMARK    4  A    between atoms: C_6  and  C_7 
REMARK    5  A    between atoms: C_7  and  N_8 
REMARK    6  A    between atoms: C_11  and  C_12 
ROOT
ATOM      1  N   UNL d   1      11.727   4.276 -15.444  0.00  0.00     0.137 N 
ATOM      2  C   UNL d   1      11.317   5.584 -15.966  0.00  0.00     0.251 C 
ATOM      3  C   UNL d   1      12.469   6.223 -16.746  0.00  0.00     0.040 C 
ATOM      4  C   UNL d   1      12.930   5.317 -17.894  0.00  0.00     0.026 C 
ATOM      5  C   UNL d   1      13.178   3.873 -17.401  0.00  0.00     0.040 C 
ATOM      6  C   UNL d   1      11.995   3.364 -16.553  0.00  0.00     0.251 C 
ENDROOT
BRANCH   1   7
ATOM      7  C   UNL d   1      10.665   3.678 -14.617  0.00  0.00     0.250 C 
BRANCH   7   8
ATOM      8  C   UNL d   1      10.321   4.526 -13.382  0.00  0.00     0.037 C 
BRANCH   8   9
ATOM      9  C   UNL d   1       9.315   3.843 -12.436  0.00  0.00     0.029 C 
BRANCH   9  10
ATOM     10  C   UNL d   1       8.306   4.827 -11.804  0.00  0.00     0.133 C 
BRANCH  10  11
ATOM     11  N   UNL d   1       8.929   5.667 -10.786  0.00  0.00    -0.201 N 
ATOM     12  C   UNL d   1       9.044   5.399  -9.477  0.00  0.00     0.352 A 
ATOM     13  O   UNL d   1       8.679   4.388  -8.869  0.00  0.00    -0.244 OA
ATOM     14  N   UNL d   1       9.674   6.458  -8.990  0.00  0.00    -0.241 N 
ATOM     15  C   UNL d   1       9.906   7.336 -10.034  0.00  0.00     0.171 A 
ATOM     16  C   UNL d   1      10.038   6.694  -7.661  0.00  0.00     0.086 A 
ATOM     17  N   UNL d   1       9.458   6.867 -11.146  0.00  0.00    -0.147 NA
ATOM     18  C   UNL d   1      10.598   8.566  -9.685  0.00  0.00     0.039 A 
ATOM     19  C   UNL d   1      10.959   8.795  -8.399  0.00  0.00     0.005 A 
ATOM     20  C   UNL d   1      10.673   7.836  -7.343  0.00  0.00     0.019 A 
ENDBRANCH  10  11
ENDBRANCH   9  10
ENDBRANCH   8   9
ENDBRANCH   7   8
ENDBRANCH   1   7
BRANCH   4  21
ATOM     21  C   UNL d   1      14.147   5.918 -18.607  0.00  0.00    -0.017 A 
ATOM     22  C   UNL d   1      15.407   6.052 -17.971  0.00  0.00     0.043 A 
ATOM     23  C   UNL d   1      16.486   6.594 -18.678  0.00  0.00     0.129 A 
ATOM     24  C   UNL d   1      15.856   5.731 -16.672  0.00  0.00     0.130 A 
ATOM     25  C   UNL d   1      16.381   7.045 -20.000  0.00  0.00     0.057 A 
ATOM     26  O   UNL d   1      17.561   6.551 -17.802  0.00  0.00    -0.211 OA
ATOM     27  C   UNL d   1      15.129   6.930 -20.634  0.00  0.00     0.142 A 
ATOM     28  C   UNL d   1      14.024   6.371 -19.947  0.00  0.00     0.026 A 
ATOM     29  F   UNL d   1      14.987   7.352 -21.915  0.00  0.00    -0.204 F 
ATOM     30  N   UNL d   1      17.163   5.983 -16.559  0.00  0.00    -0.125 NA
ENDBRANCH   4  21
TORSDOF 6
