REMARK  16 active torsions:
REMARK  status: ('A' for Active; 'I' for Inactive)
REMARK       I    between atoms: C_2  and  N_3 
REMARK    1  A    between atoms: C_2  and  C_24 
REMARK    2  A    between atoms: N_3  and  C_4 
REMARK    3  A    between atoms: C_4  and  C_5 
REMARK    4  A    between atoms: C_5  and  C_6 
REMARK    5  A    between atoms: C_6  and  C_7 
REMARK    6  A    between atoms: C_7  and  N_8 
REMARK    7  A    between atoms: N_11  and  C_12 
REMARK    8  A    between atoms: C_17  and  O_18 
REMARK    9  A    between atoms: O_18  and  C_19 
REMARK   10  A    between atoms: C_19  and  C_20 
REMARK   11  A    between atoms: C_27  and  O_28 
REMARK   12  A    between atoms: O_28  and  C_29 
REMARK   13  A    between atoms: C_29  and  C_30 
REMARK   14  A    between atoms: C_30  and  O_31 
REMARK   15  A    between atoms: O_31  and  C_32 
REMARK   16  A    between atoms: C_32  and  C_33 
ROOT
ATOM      1  C   UNL d   1      10.055   4.816 -13.417  0.00  0.00     0.029 C 
ENDROOT
BRANCH   1   2
ATOM      2  C   UNL d   1       8.915   4.678 -12.388  0.00  0.00     0.129 C 
BRANCH   2   3
ATOM      3  N   UNL d   1       9.228   5.309 -11.119  0.00  0.00    -0.234 NA
ATOM      4  C   UNL d   1       9.414   6.623 -10.941  0.00  0.00     0.275 C 
ATOM      5  O   UNL d   1       9.355   7.453 -11.845  0.00  0.00    -0.266 OA
BRANCH   4   6
ATOM      6  C   UNL d   1       9.778   7.029  -9.551  0.00  0.00     0.058 A 
ATOM      7  C   UNL d   1       9.154   6.438  -8.422  0.00  0.00     0.007 A 
ATOM      8  C   UNL d   1       9.490   6.905  -7.127  0.00  0.00     0.024 A 
ATOM      9  C   UNL d   1      10.431   7.952  -6.955  0.00  0.00     0.094 A 
ATOM     10  C   UNL d   1      11.011   8.538  -8.101  0.00  0.00     0.024 A 
ATOM     11  C   UNL d   1      10.701   8.075  -9.373  0.00  0.00     0.007 A 
BRANCH   9  12
ATOM     12  O   UNL d   1      10.769   8.349  -5.678  0.00  0.00    -0.328 OA
BRANCH  12  13
ATOM     13  C   UNL d   1      11.709   9.415  -5.524  0.00  0.00     0.181 C 
BRANCH  13  14
ATOM     14  C   UNL d   1      12.606   9.168  -4.319  0.00  0.00     0.175 C 
BRANCH  14  15
ATOM     15  O   UNL d   1      11.843   9.326  -3.140  0.00  0.00    -0.348 OA
BRANCH  15  16
ATOM     16  C   UNL d   1      12.424   8.721  -2.005  0.00  0.00     0.180 C 
BRANCH  16  17
ATOM     17  C   UNL d   1      12.336   7.179  -2.081  0.00  0.00     0.225 C 
ATOM     18  F   UNL d   1      11.064   6.790  -2.075  0.00  0.00    -0.232 F 
ENDBRANCH  16  17
ENDBRANCH  15  16
ENDBRANCH  14  15
ENDBRANCH  13  14
ENDBRANCH  12  13
ENDBRANCH   9  12
ENDBRANCH   4   6
ENDBRANCH   2   3
ENDBRANCH   1   2
BRANCH   1  19
ATOM     19  C   UNL d   1       9.670   4.217 -14.765  0.00  0.00     0.037 C 
BRANCH  19  20
ATOM     20  C   UNL d   1      10.773   4.442 -15.836  0.00  0.00     0.251 C 
BRANCH  20  21
ATOM     21  N   UNL d   1      10.243   4.616 -17.186  0.00  0.00     0.141 N 
ATOM     22  C   UNL d   1       9.567   5.910 -17.271  0.00  0.00     0.274 C 
ATOM     23  C   UNL d   1       8.964   6.167 -18.649  0.00  0.00     0.137 C 
ATOM     24  N   UNL d   1      10.001   6.056 -19.659  0.00  0.00    -0.343 N 
ATOM     25  C   UNL d   1      10.784   4.829 -19.585  0.00  0.00     0.137 C 
ATOM     26  C   UNL d   1      11.338   4.630 -18.160  0.00  0.00     0.274 C 
BRANCH  24  27
ATOM     27  C   UNL d   1      10.214   7.038 -20.634  0.00  0.00     0.079 A 
ATOM     28  C   UNL d   1       9.128   7.696 -21.282  0.00  0.00     0.110 A 
ATOM     29  C   UNL d   1       9.408   8.685 -22.252  0.00  0.00     0.026 A 
ATOM     30  C   UNL d   1      10.729   9.003 -22.609  0.00  0.00     0.002 A 
ATOM     31  C   UNL d   1      11.796   8.348 -21.975  0.00  0.00     0.002 A 
ATOM     32  C   UNL d   1      11.541   7.379 -20.995  0.00  0.00     0.019 A 
BRANCH  28  33
ATOM     33  O   UNL d   1       7.843   7.291 -20.957  0.00  0.00    -0.326 OA
BRANCH  33  34
ATOM     34  C   UNL d   1       6.722   7.991 -21.486  0.00  0.00     0.187 C 
BRANCH  34  35
ATOM     35  C   UNL d   1       6.493   9.311 -20.726  0.00  0.00     0.226 C 
ATOM     36  F   UNL d   1       5.456   9.962 -21.252  0.00  0.00    -0.232 F 
ENDBRANCH  34  35
ENDBRANCH  33  34
ENDBRANCH  28  33
ENDBRANCH  24  27
ENDBRANCH  20  21
ENDBRANCH  19  20
ENDBRANCH   1  19
TORSDOF 16
