REMARK  7 active torsions:
REMARK  status: ('A' for Active; 'I' for Inactive)
REMARK    1  A    between atoms: C_8  and  O_9 
REMARK    2  A    between atoms: O_9  and  C_10 
REMARK    3  A    between atoms: C_10  and  C_11 
REMARK    4  A    between atoms: C_11  and  C_12 
REMARK    5  A    between atoms: C_12  and  C_13 
REMARK    6  A    between atoms: C_13  and  N_14 
REMARK    7  A    between atoms: N_17  and  C_18 
ROOT
ATOM      1  C   UNL d   1       9.599   7.592 -11.175  0.00  0.00     0.038 C 
ENDROOT
BRANCH   1   2
ATOM      2  C   UNL d   1      10.325   8.199  -9.966  0.00  0.00     0.035 C 
BRANCH   2   3
ATOM      3  C   UNL d   1       9.357   8.780  -8.904  0.00  0.00     0.152 C 
BRANCH   3   4
ATOM      4  O   UNL d   1      10.004   9.448  -7.823  0.00  0.00    -0.300 OA
BRANCH   4   5
ATOM      5  C   UNL d   1      10.569   8.716  -6.853  0.00  0.00     0.272 A 
ATOM      6  N   UNL d   1      10.705   7.406  -7.059  0.00  0.00    -0.204 NA
ATOM      7  C   UNL d   1      11.219   6.694  -6.060  0.00  0.00     0.106 A 
ATOM      8  C   UNL d   1      11.564   7.303  -4.847  0.00  0.00     0.055 A 
ATOM      9  C   UNL d   1      12.086   6.572  -3.725  0.00  0.00     0.010 A 
ATOM     10  C   UNL d   1      11.422   8.694  -4.736  0.00  0.00     0.171 A 
ATOM     11  C   UNL d   1      12.406   7.175  -2.574  0.00  0.00     0.063 A 
ATOM     12  C   UNL d   1      12.257   8.619  -2.423  0.00  0.00     0.281 A 
ATOM     13  O   UNL d   1      12.535   9.187  -1.386  0.00  0.00    -0.265 OA
ATOM     14  N   UNL d   1      11.788   9.288  -3.499  0.00  0.00    -0.189 NA
ATOM     15  N   UNL d   1      10.925   9.405  -5.762  0.00  0.00    -0.186 NA
ENDBRANCH   4   5
ENDBRANCH   3   4
ENDBRANCH   2   3
ENDBRANCH   1   2
BRANCH   1  16
ATOM     16  C   UNL d   1       9.368   6.077 -11.037  0.00  0.00     0.251 C 
BRANCH  16  17
ATOM     17  N   UNL d   1       9.146   5.473 -12.350  0.00  0.00     0.141 N 
ATOM     18  C   UNL d   1       9.611   4.085 -12.339  0.00  0.00     0.274 C 
ATOM     19  C   UNL d   1       9.422   3.382 -13.690  0.00  0.00     0.137 C 
ATOM     20  N   UNL d   1       8.025   3.452 -14.040  0.00  0.00    -0.344 N 
ATOM     21  C   UNL d   1       7.434   4.776 -13.974  0.00  0.00     0.137 C 
ATOM     22  C   UNL d   1       7.704   5.446 -12.616  0.00  0.00     0.274 C 
BRANCH  20  23
ATOM     23  C   UNL d   1       7.292   2.329 -14.444  0.00  0.00     0.068 A 
ATOM     24  C   UNL d   1       7.616   1.620 -15.629  0.00  0.00     0.084 A 
ATOM     25  C   UNL d   1       6.848   0.496 -16.005  0.00  0.00     0.070 A 
ATOM     26 CL   UNL d   1       8.907   2.151 -16.658  0.00  0.00    -0.080 Cl
ATOM     27  C   UNL d   1       5.782   0.066 -15.196  0.00  0.00     0.012 A 
ATOM     28 CL   UNL d   1       7.180  -0.341 -17.480  0.00  0.00    -0.081 Cl
ATOM     29  C   UNL d   1       5.462   0.764 -14.019  0.00  0.00     0.002 A 
ATOM     30  C   UNL d   1       6.203   1.903 -13.652  0.00  0.00     0.018 A 
ENDBRANCH  20  23
ENDBRANCH  16  17
ENDBRANCH   1  16
TORSDOF 7
