REMARK  4 active torsions:
REMARK  status: ('A' for Active; 'I' for Inactive)
REMARK    1  A    between atoms: C_10  and  C_11 
REMARK    2  A    between atoms: C_11  and  C_12 
REMARK    3  A    between atoms: C_12  and  N_13 
REMARK    4  A    between atoms: C_16  and  C_17 
ROOT
ATOM      1  N   UNL d   1       9.464   7.263 -10.270  0.00  0.00     0.137 N 
ATOM      2  C   UNL d   1      10.841   7.752 -10.342  0.00  0.00     0.251 C 
ATOM      3  C   UNL d   1      11.185   8.582  -9.103  0.00  0.00     0.041 C 
ATOM      4  C   UNL d   1      10.921   7.803  -7.796  0.00  0.00     0.047 C 
ATOM      5  C   UNL d   1       9.518   7.209  -7.817  0.00  0.00     0.041 C 
ATOM      6  C   UNL d   1       9.283   6.413  -9.094  0.00  0.00     0.251 C 
ENDROOT
BRANCH   1   7
ATOM      7  C   UNL d   1       9.139   6.584 -11.530  0.00  0.00     0.251 C 
BRANCH   7   8
ATOM      8  C   UNL d   1       7.998   5.540 -11.432  0.00  0.00     0.043 C 
BRANCH   8   9
ATOM      9  C   UNL d   1       7.654   4.809 -12.736  0.00  0.00     0.064 C 
ATOM     10  C   UNL d   1       8.806   3.897 -13.223  0.00  0.00     0.172 C 
ATOM     11  C   UNL d   1       8.451   2.791 -14.130  0.00  0.00     0.032 A 
ATOM     12  O   UNL d   1       9.968   4.083 -12.849  0.00  0.00    -0.291 OA
ATOM     13  C   UNL d   1       7.099   2.458 -14.430  0.00  0.00    -0.019 A 
ATOM     14  C   UNL d   1       9.494   2.009 -14.681  0.00  0.00     0.017 A 
ATOM     15  C   UNL d   1       6.825   1.368 -15.280  0.00  0.00    -0.003 A 
ATOM     16  C   UNL d   1       5.949   3.252 -13.824  0.00  0.00     0.027 C 
ATOM     17  C   UNL d   1       7.874   0.610 -15.830  0.00  0.00     0.014 A 
ATOM     18  C   UNL d   1       9.213   0.924 -15.523  0.00  0.00     0.070 A 
ATOM     19  N   UNL d   1      10.261   0.175 -16.038  0.00  0.00    -0.101 NA
ATOM     20  C   UNL d   1       6.346   3.999 -12.554  0.00  0.00     0.012 C 
ENDBRANCH   8   9
ENDBRANCH   7   8
ENDBRANCH   1   7
BRANCH   4  21
ATOM     21  C   UNL d   1      11.105   8.675  -6.571  0.00  0.00     0.087 A 
ATOM     22  C   UNL d   1      11.488   8.353  -5.255  0.00  0.00     0.041 A 
ATOM     23  C   UNL d   1      11.481   9.522  -4.489  0.00  0.00     0.129 A 
ATOM     24  C   UNL d   1      11.858   7.130  -4.645  0.00  0.00     0.006 A 
ATOM     25  O   UNL d   1      11.057  10.524  -5.332  0.00  0.00    -0.211 OA
ATOM     26  C   UNL d   1      11.858   9.564  -3.145  0.00  0.00     0.057 A 
ATOM     27  N   UNL d   1      10.817   9.972  -6.618  0.00  0.00    -0.131 NA
ATOM     28  C   UNL d   1      12.236   8.352  -2.537  0.00  0.00     0.142 A 
ATOM     29  F   UNL d   1      12.615   8.356  -1.236  0.00  0.00    -0.204 F 
ATOM     30  C   UNL d   1      12.227   7.140  -3.277  0.00  0.00     0.030 A 
ENDBRANCH   4  21
TORSDOF 4
