REMARK  7 active torsions:
REMARK  status: ('A' for Active; 'I' for Inactive)
REMARK    1  A    between atoms: C_2  and  C_4 
REMARK    2  A    between atoms: C_9  and  O_10 
REMARK    3  A    between atoms: O_10  and  C_11 
REMARK    4  A    between atoms: C_11  and  C_12 
REMARK    5  A    between atoms: C_12  and  N_13 
REMARK    6  A    between atoms: C_16  and  N_17 
REMARK       I    between atoms: N_17  and  C_18 
REMARK    7  A    between atoms: C_18  and  C_20 
ROOT
ATOM      1  N   UNL d   1       8.222   4.618 -13.117  0.00  0.00     0.142 N 
ATOM      2  C   UNL d   1       7.335   4.563 -11.955  0.00  0.00     0.253 C 
ATOM      3  C   UNL d   1       7.296   5.987 -11.442  0.00  0.00     0.062 C 
ATOM      4  C   UNL d   1       8.665   6.544 -11.855  0.00  0.00     0.142 C 
ATOM      5  C   UNL d   1       9.338   5.417 -12.638  0.00  0.00     0.275 C 
ENDROOT
BRANCH   4   6
ATOM      6  N   UNL d   1       9.483   7.020 -10.745  0.00  0.00    -0.233 NA
ATOM      7  C   UNL d   1       9.732   6.375  -9.589  0.00  0.00     0.293 C 
ATOM      8  O   UNL d   1       9.457   5.188  -9.405  0.00  0.00    -0.264 OA
BRANCH   7   9
ATOM      9  C   UNL d   1      10.344   7.207  -8.489  0.00  0.00     0.139 A 
ATOM     10  N   UNL d   1      10.558   6.588  -7.300  0.00  0.00    -0.241 NA
ATOM     11  C   UNL d   1      11.064   7.282  -6.262  0.00  0.00     0.082 A 
ATOM     12  C   UNL d   1      11.404   8.649  -6.377  0.00  0.00     0.018 A 
ATOM     13  C   UNL d   1      11.301   6.657  -5.019  0.00  0.00     0.019 A 
ATOM     14  C   UNL d   1      11.193   9.296  -7.603  0.00  0.00     0.003 A 
ATOM     15  C   UNL d   1      11.961   9.360  -5.299  0.00  0.00     0.002 A 
ATOM     16  C   UNL d   1      10.658   8.575  -8.681  0.00  0.00     0.024 A 
ATOM     17  C   UNL d   1      12.194   8.716  -4.071  0.00  0.00     0.000 A 
ATOM     18  C   UNL d   1      11.862   7.354  -3.937  0.00  0.00     0.002 A 
ENDBRANCH   7   9
ENDBRANCH   4   6
BRANCH   1  19
ATOM     19  C   UNL d   1       8.721   3.301 -13.503  0.00  0.00     0.283 C 
BRANCH  19  20
ATOM     20  C   UNL d   1       7.601   2.418 -14.079  0.00  0.00     0.184 C 
BRANCH  20  21
ATOM     21  O   UNL d   1       8.053   1.077 -14.194  0.00  0.00    -0.329 OA
BRANCH  21  22
ATOM     22  C   UNL d   1       8.663   0.771 -15.378  0.00  0.00     0.090 A 
ATOM     23  C   UNL d   1       7.904   0.383 -16.513  0.00  0.00    -0.000 A 
ATOM     24  C   UNL d   1       8.587   0.004 -17.691  0.00  0.00    -0.002 A 
ATOM     25  C   UNL d   1       9.992   0.036 -17.746  0.00  0.00    -0.000 A 
ATOM     26  C   UNL d   1      10.734   0.427 -16.618  0.00  0.00     0.002 A 
ATOM     27  C   UNL d   1      10.069   0.781 -15.431  0.00  0.00     0.024 A 
BRANCH  23  28
ATOM     28  C   UNL d   1       6.376   0.339 -16.465  0.00  0.00     0.024 C 
ATOM     29  C   UNL d   1       5.857  -1.080 -16.211  0.00  0.00     0.005 C 
ATOM     30  C   UNL d   1       5.742   0.961 -17.718  0.00  0.00     0.005 C 
ENDBRANCH  23  28
ENDBRANCH  21  22
ENDBRANCH  20  21
ENDBRANCH  19  20
ENDBRANCH   1  19
TORSDOF 7
