REMARK  4 active torsions:
REMARK  status: ('A' for Active; 'I' for Inactive)
REMARK    1  A    between atoms: O_2  and  C_3 
REMARK    2  A    between atoms: C_3  and  C_4 
REMARK    3  A    between atoms: C_4  and  N_6 
REMARK    4  A    between atoms: N_9  and  C_10 
ROOT
ATOM      1  C   UNL d   1       7.627   2.651 -14.283  0.00  0.00     0.068 A 
ATOM      2  C   UNL d   1       6.518   3.225 -13.637  0.00  0.00     0.018 A 
ATOM      3  C   UNL d   1       6.669   4.389 -12.849  0.00  0.00     0.004 A 
ATOM      4  C   UNL d   1       7.941   4.972 -12.713  0.00  0.00     0.030 A 
ATOM      5  C   UNL d   1       9.055   4.410 -13.357  0.00  0.00     0.151 A 
ATOM      6  F   UNL d   1      10.269   4.989 -13.212  0.00  0.00    -0.203 F 
ATOM      7  C   UNL d   1       8.912   3.244 -14.146  0.00  0.00     0.111 A 
ATOM      8  C   UNL d   1      10.113   2.681 -14.761  0.00  0.00     0.105 C 
ATOM      9  N   UNL d   1      11.053   2.225 -15.259  0.00  0.00    -0.191 NA
ENDROOT
BRANCH   1  10
ATOM     10  N   UNL d   1       7.420   1.480 -15.044  0.00  0.00    -0.344 N 
ATOM     11  C   UNL d   1       7.843   1.396 -16.423  0.00  0.00     0.137 C 
ATOM     12  C   UNL d   1       6.681   0.928 -17.290  0.00  0.00     0.274 C 
ATOM     13  N   UNL d   1       6.069  -0.331 -16.827  0.00  0.00     0.142 N 
ATOM     14  C   UNL d   1       5.632  -0.132 -15.428  0.00  0.00     0.274 C 
ATOM     15  C   UNL d   1       6.767   0.308 -14.492  0.00  0.00     0.137 C 
BRANCH  13  16
ATOM     16  C   UNL d   1       4.967  -0.784 -17.706  0.00  0.00     0.249 C 
ATOM     17  C   UNL d   1       4.254  -2.043 -17.169  0.00  0.00     0.038 C 
BRANCH  16  18
ATOM     18  C   UNL d   1       5.386  -1.092 -19.169  0.00  0.00     0.176 C 
BRANCH  18  19
ATOM     19  O   UNL d   1       5.886   0.021 -19.899  0.00  0.00    -0.349 OA
ATOM     20  C   UNL d   1       4.922   0.726 -20.643  0.00  0.00     0.174 C 
ENDBRANCH  18  19
ENDBRANCH  16  18
ENDBRANCH  13  16
ENDBRANCH   1  10
TORSDOF 4
