REMARK  7 active torsions:
REMARK  status: ('A' for Active; 'I' for Inactive)
REMARK    1  A    between atoms: C_6  and  C_7 
REMARK    2  A    between atoms: C_10  and  S_11 
REMARK    3  A    between atoms: S_11  and  C_12 
REMARK    4  A    between atoms: C_12  and  C_13 
REMARK    5  A    between atoms: C_13  and  C_14 
REMARK    6  A    between atoms: C_14  and  N_15 
REMARK    7  A    between atoms: N_20  and  C_21 
ROOT
ATOM      1  C   UNL d   1       8.845   5.189 -10.050  0.00  0.00     0.251 C 
ENDROOT
BRANCH   1   2
ATOM      2  C   UNL d   1       8.407   5.358 -11.523  0.00  0.00     0.047 C 
BRANCH   2   3
ATOM      3  C   UNL d   1       8.152   4.015 -12.162  0.00  0.00     0.067 C 
BRANCH   3   4
ATOM      4  S   UNL d   1       7.897   4.054 -13.940  0.00  0.00    -0.075 SA
BRANCH   4   5
ATOM      5  C   UNL d   1       9.566   4.146 -14.529  0.00  0.00     0.193 A 
ATOM      6  N   UNL d   1      10.560   4.777 -13.905  0.00  0.00    -0.122 NA
ATOM      7  N   UNL d   1      11.657   4.647 -14.710  0.00  0.00    -0.126 NA
ATOM      8  C   UNL d   1      11.255   3.916 -15.757  0.00  0.00     0.191 A 
ATOM      9  N   UNL d   1       9.939   3.597 -15.704  0.00  0.00    -0.287 N 
ATOM     10  C   UNL d   1       9.130   2.866 -16.671  0.00  0.00     0.134 C 
BRANCH   8  11
ATOM     11  C   UNL d   1      12.169   3.568 -16.831  0.00  0.00     0.151 A 
ATOM     12  C   UNL d   1      13.361   4.120 -17.248  0.00  0.00     0.087 A 
ATOM     13  C   UNL d   1      14.104   5.301 -16.706  0.00  0.00     0.054 C 
ATOM     14  N   UNL d   1      13.830   3.389 -18.328  0.00  0.00    -0.221 NA
ATOM     15  C   UNL d   1      12.921   2.436 -18.502  0.00  0.00     0.225 A 
ATOM     16  O   UNL d   1      11.878   2.500 -17.635  0.00  0.00    -0.282 OA
ENDBRANCH   8  11
ENDBRANCH   4   5
ENDBRANCH   3   4
ENDBRANCH   2   3
ENDBRANCH   1   2
BRANCH   1  17
ATOM     17  N   UNL d   1       9.130   6.468  -9.421  0.00  0.00     0.138 N 
ATOM     18  C   UNL d   1       9.860   6.375  -8.171  0.00  0.00     0.266 C 
ATOM     19  C   UNL d   1      10.208   7.832  -7.875  0.00  0.00     0.097 C 
ATOM     20  C   UNL d   1      10.359   8.465  -9.255  0.00  0.00     0.052 C 
ATOM     21  N   UNL d   1      11.486   7.981  -7.207  0.00  0.00    -0.252 NA
ATOM     22  C   UNL d   1       9.873   7.423 -10.234  0.00  0.00     0.252 C 
ATOM     23  C   UNL d   1      11.838   8.789  -9.409  0.00  0.00     0.021 C 
ATOM     24  C   UNL d   1      12.272   8.938  -7.954  0.00  0.00     0.077 C 
BRANCH  21  25
ATOM     25  C   UNL d   1      11.457   8.075  -5.808  0.00  0.00     0.037 A 
ATOM     26  C   UNL d   1      11.360   6.860  -5.118  0.00  0.00     0.013 A 
ATOM     27  C   UNL d   1      11.560   6.799  -3.727  0.00  0.00     0.031 A 
ATOM     28  C   UNL d   1      11.861   7.968  -3.005  0.00  0.00     0.140 A 
ATOM     29  C   UNL d   1      11.943   9.192  -3.678  0.00  0.00     0.031 A 
ATOM     30  F   UNL d   1      12.056   7.918  -1.670  0.00  0.00    -0.204 F 
ATOM     31  C   UNL d   1      11.775   9.250  -5.076  0.00  0.00     0.013 A 
ENDBRANCH  21  25
ENDBRANCH   1  17
TORSDOF 7
