REMARK  7 active torsions:
REMARK  status: ('A' for Active; 'I' for Inactive)
REMARK    1  A    between atoms: C_2  and  C_5 
REMARK       I    between atoms: C_5  and  N_7 
REMARK    2  A    between atoms: N_7  and  C_8 
REMARK    3  A    between atoms: C_8  and  C_9 
REMARK    4  A    between atoms: C_9  and  C_10 
REMARK    5  A    between atoms: C_10  and  C_11 
REMARK    6  A    between atoms: C_11  and  N_12 
REMARK    7  A    between atoms: N_15  and  C_16 
ROOT
ATOM      1  N   UNL d   1       8.974   5.804 -11.641  0.00  0.00     0.141 N 
ATOM      2  C   UNL d   1       9.583   4.942 -12.658  0.00  0.00     0.274 C 
ATOM      3  C   UNL d   1       8.570   4.619 -13.784  0.00  0.00     0.137 C 
ATOM      4  N   UNL d   1       7.367   4.006 -13.234  0.00  0.00    -0.344 N 
ATOM      5  C   UNL d   1       6.780   4.747 -12.118  0.00  0.00     0.137 C 
ATOM      6  C   UNL d   1       7.847   5.073 -11.061  0.00  0.00     0.274 C 
ENDROOT
BRANCH   1   7
ATOM      7  C   UNL d   1       9.941   6.115 -10.590  0.00  0.00     0.251 C 
BRANCH   7   8
ATOM      8  C   UNL d   1       9.470   7.234  -9.647  0.00  0.00     0.037 C 
BRANCH   8   9
ATOM      9  C   UNL d   1      10.527   7.608  -8.604  0.00  0.00     0.029 C 
BRANCH   9  10
ATOM     10  C   UNL d   1      10.016   8.668  -7.620  0.00  0.00     0.129 C 
BRANCH  10  11
ATOM     11  N   UNL d   1      11.023   9.042  -6.626  0.00  0.00    -0.238 NA
ATOM     12  C   UNL d   1      11.267   8.350  -5.502  0.00  0.00     0.250 C 
ATOM     13  O   UNL d   1      10.832   7.209  -5.329  0.00  0.00    -0.271 OA
BRANCH  12  14
ATOM     14  C   UNL d   1      12.061   9.059  -4.375  0.00  0.00     0.073 C 
ATOM     15  C   UNL d   1      12.571   8.046  -3.329  0.00  0.00     0.009 C 
ATOM     16  C   UNL d   1      11.130  10.064  -3.688  0.00  0.00     0.009 C 
ATOM     17  C   UNL d   1      13.267   9.821  -4.924  0.00  0.00     0.009 C 
ENDBRANCH  12  14
ENDBRANCH  10  11
ENDBRANCH   9  10
ENDBRANCH   8   9
ENDBRANCH   7   8
ENDBRANCH   1   7
BRANCH   4  18
ATOM     18  C   UNL d   1       6.835   2.747 -13.679  0.00  0.00     0.056 A 
ATOM     19  C   UNL d   1       5.565   2.299 -13.241  0.00  0.00     0.017 A 
ATOM     20  C   UNL d   1       5.080   1.026 -13.620  0.00  0.00     0.008 A 
ATOM     21  C   UNL d   1       5.817   0.210 -14.492  0.00  0.00     0.035 A 
ATOM     22  C   UNL d   1       7.077   0.635 -14.935  0.00  0.00     0.008 A 
ATOM     23 BR   UNL d   1       5.064  -1.416 -15.128  0.00  0.00    -0.049 Br
ATOM     24  C   UNL d   1       7.590   1.886 -14.525  0.00  0.00     0.017 A 
ENDBRANCH   4  18
TORSDOF 7
