REMARK  8 active torsions:
REMARK  status: ('A' for Active; 'I' for Inactive)
REMARK    1  A    between atoms: O_2  and  C_3 
REMARK    2  A    between atoms: C_5  and  N_6 
REMARK    3  A    between atoms: N_11  and  C_12 
REMARK    4  A    between atoms: C_12  and  C_13 
REMARK    5  A    between atoms: C_13  and  C_14 
REMARK    6  A    between atoms: C_14  and  S_15 
REMARK    7  A    between atoms: S_15  and  C_16 
REMARK    8  A    between atoms: C_19  and  C_20 
ROOT
ATOM      1  N   UNL d   1      10.669   1.345 -18.521  0.00  0.00    -0.252 NA
ATOM      2  C   UNL d   1       9.706   0.749 -19.439  0.00  0.00     0.077 C 
ATOM      3  C   UNL d   1       8.534   0.334 -18.558  0.00  0.00     0.021 C 
ATOM      4  C   UNL d   1       9.223  -0.113 -17.264  0.00  0.00     0.052 C 
ATOM      5  C   UNL d   1       8.512   0.291 -15.973  0.00  0.00     0.252 C 
ATOM      6  N   UNL d   1       9.011   1.636 -15.710  0.00  0.00     0.138 N 
ATOM      7  C   UNL d   1      10.438   1.596 -16.035  0.00  0.00     0.266 C 
ATOM      8  C   UNL d   1      10.545   0.650 -17.242  0.00  0.00     0.097 C 
ENDROOT
BRANCH   6   9
ATOM      9  C   UNL d   1       8.744   2.048 -14.336  0.00  0.00     0.251 C 
BRANCH   9  10
ATOM     10  C   UNL d   1       9.020   3.546 -14.126  0.00  0.00     0.047 C 
BRANCH  10  11
ATOM     11  C   UNL d   1       8.790   3.979 -12.673  0.00  0.00     0.067 C 
BRANCH  11  12
ATOM     12  S   UNL d   1       9.060   5.759 -12.461  0.00  0.00    -0.075 SA
BRANCH  12  13
ATOM     13  C   UNL d   1       9.298   5.863 -10.704  0.00  0.00     0.193 A 
ATOM     14  N   UNL d   1       9.795   6.967 -10.110  0.00  0.00    -0.287 N 
ATOM     15  C   UNL d   1       9.832   6.610  -8.801  0.00  0.00     0.186 A 
ATOM     16  C   UNL d   1      10.187   8.213 -10.764  0.00  0.00     0.134 C 
ATOM     17  N   UNL d   1       9.398   5.350  -8.617  0.00  0.00    -0.127 NA
ATOM     18  N   UNL d   1       9.049   4.869  -9.854  0.00  0.00    -0.122 NA
BRANCH  15  19
ATOM     19  C   UNL d   1      10.268   7.438  -7.659  0.00  0.00     0.136 A 
ATOM     20  N   UNL d   1      10.682   6.787  -6.544  0.00  0.00    -0.238 NA
ATOM     21  C   UNL d   1      11.065   7.520  -5.469  0.00  0.00     0.120 A 
ATOM     22  C   UNL d   1      11.088   8.927  -5.521  0.00  0.00     0.120 A 
ATOM     23  N   UNL d   1      10.695   9.590  -6.624  0.00  0.00    -0.239 NA
ATOM     24  C   UNL d   1      10.271   8.856  -7.670  0.00  0.00     0.121 A 
ENDBRANCH  15  19
ENDBRANCH  12  13
ENDBRANCH  11  12
ENDBRANCH  10  11
ENDBRANCH   9  10
ENDBRANCH   6   9
BRANCH   1  25
ATOM     25  C   UNL d   1      11.988   1.509 -18.981  0.00  0.00     0.039 A 
ATOM     26  C   UNL d   1      12.700   0.487 -19.647  0.00  0.00     0.038 A 
ATOM     27  C   UNL d   1      14.019   0.684 -20.087  0.00  0.00     0.122 A 
ATOM     28  C   UNL d   1      14.629   1.957 -19.904  0.00  0.00     0.162 A 
ATOM     29  C   UNL d   1      13.931   2.974 -19.232  0.00  0.00     0.033 A 
ATOM     30  F   UNL d   1      15.862   2.217 -20.390  0.00  0.00    -0.202 F 
ATOM     31  C   UNL d   1      12.620   2.753 -18.765  0.00  0.00     0.014 A 
BRANCH  27  32
ATOM     32  O   UNL d   1      14.618  -0.361 -20.741  0.00  0.00    -0.326 OA
ATOM     33  C   UNL d   1      15.872  -0.768 -20.205  0.00  0.00     0.181 C 
ENDBRANCH  27  32
ENDBRANCH   1  25
TORSDOF 8
