REMARK  10 active torsions:
REMARK  status: ('A' for Active; 'I' for Inactive)
REMARK    1  A    between atoms: O_2  and  C_3 
REMARK    2  A    between atoms: C_8  and  C_9 
REMARK    3  A    between atoms: C_11  and  C_12 
REMARK    4  A    between atoms: C_12  and  N_13 
REMARK    5  A    between atoms: N_13  and  C_14 
REMARK    6  A    between atoms: C_14  and  C_15 
REMARK    7  A    between atoms: C_15  and  C_16 
REMARK    8  A    between atoms: C_19  and  N_20 
REMARK    9  A    between atoms: N_20  and  S_21 
REMARK   10  A    between atoms: S_21  and  C_24 
ROOT
ATOM      1  C   UNL d   1       9.504   4.669 -15.043  0.00  0.00     0.002 C 
ATOM      2  C   UNL d   1      10.949   4.365 -15.498  0.00  0.00     0.002 C 
ATOM      3  C   UNL d   1      10.976   3.494 -16.771  0.00  0.00     0.025 C 
ATOM      4  C   UNL d   1      10.174   2.199 -16.573  0.00  0.00     0.116 C 
ATOM      5  C   UNL d   1       8.728   2.494 -16.163  0.00  0.00     0.025 C 
ATOM      6  C   UNL d   1       8.692   3.361 -14.900  0.00  0.00     0.002 C 
ENDROOT
BRANCH   1   7
ATOM      7  C   UNL d   1       9.428   5.548 -13.768  0.00  0.00     0.038 C 
BRANCH   7   8
ATOM      8  C   UNL d   1       9.273   4.800 -12.454  0.00  0.00     0.290 C 
BRANCH   8   9
ATOM      9  N   UNL d   1       9.208   5.754 -11.364  0.00  0.00     0.339 N 
BRANCH   9  10
ATOM     10  C   UNL d   1       8.747   5.037 -10.192  0.00  0.00     0.290 C 
BRANCH  10  11
ATOM     11  C   UNL d   1       8.739   5.970  -9.010  0.00  0.00     0.041 A 
ATOM     12  C   UNL d   1       9.723   5.743  -7.888  0.00  0.00     0.026 A 
ATOM     13  C   UNL d   1       8.248   5.502  -7.669  0.00  0.00     0.007 A 
BRANCH  12  14
ATOM     14  C   UNL d   1      10.417   6.878  -7.191  0.00  0.00    -0.000 A 
ATOM     15  C   UNL d   1      10.905   7.987  -7.918  0.00  0.00     0.090 A 
ATOM     16  C   UNL d   1      11.469   9.078  -7.207  0.00  0.00     0.024 A 
ATOM     17  C   UNL d   1      11.585   9.051  -5.811  0.00  0.00     0.002 A 
ATOM     18  C   UNL d   1      11.136   7.927  -5.100  0.00  0.00    -0.000 A 
ATOM     19  C   UNL d   1      10.544   6.854  -5.790  0.00  0.00    -0.002 A 
BRANCH  15  20
ATOM     20  O   UNL d   1      10.821   7.936  -9.285  0.00  0.00    -0.328 OA
ATOM     21  C   UNL d   1      11.214   9.056 -10.039  0.00  0.00     0.181 C 
ENDBRANCH  15  20
ENDBRANCH  12  14
ENDBRANCH  10  11
ENDBRANCH   9  10
ENDBRANCH   8   9
ENDBRANCH   7   8
ENDBRANCH   1   7
BRANCH   4  22
ATOM     22  N   UNL d   1      10.163   1.415 -17.807  0.00  0.00    -0.187 NA
BRANCH  22  23
ATOM     23  S   UNL d   1      10.515  -0.263 -17.747  0.00  0.00     0.281 S 
ATOM     24  O   UNL d   1      11.933  -0.414 -18.106  0.00  0.00    -0.199 OA
ATOM     25  O   UNL d   1       9.999  -0.790 -16.478  0.00  0.00    -0.199 OA
BRANCH  23  26
ATOM     26  C   UNL d   1       9.516  -0.903 -19.080  0.00  0.00     0.105 A 
ATOM     27  C   UNL d   1       8.330  -1.605 -18.798  0.00  0.00     0.013 A 
ATOM     28  C   UNL d   1       7.560  -2.132 -19.853  0.00  0.00     0.001 A 
ATOM     29  C   UNL d   1       7.979  -1.948 -21.187  0.00  0.00     0.000 A 
ATOM     30  C   UNL d   1       9.166  -1.237 -21.466  0.00  0.00     0.001 A 
ATOM     31  C   UNL d   1       9.939  -0.714 -20.412  0.00  0.00     0.013 A 
ENDBRANCH  23  26
ENDBRANCH  22  23
ENDBRANCH   4  22
TORSDOF 10
