REMARK  3 active torsions:
REMARK  status: ('A' for Active; 'I' for Inactive)
REMARK    1  A    between atoms: C_2  and  C_3 
REMARK    2  A    between atoms: C_3  and  N_4 
REMARK    3  A    between atoms: N_4  and  C_5 
ROOT
ATOM      1  C   UNL d   1      10.336   7.653  -7.288  0.00  0.00     0.262 C 
ATOM      2  C   UNL d   1      11.134   8.955  -7.534  0.00  0.00     0.043 C 
ATOM      3  C   UNL d   1      11.304   9.793  -6.248  0.00  0.00     0.048 C 
ATOM      4  C   UNL d   1      11.601   8.940  -5.061  0.00  0.00     0.063 A 
ATOM      5  N   UNL d   1      12.025   9.484  -3.852  0.00  0.00    -0.224 NA
ATOM      6  C   UNL d   1      12.218   8.538  -2.933  0.00  0.00     0.214 A 
ATOM      7  N   UNL d   1      12.654   8.790  -1.649  0.00  0.00    -0.120 N 
ATOM      8  S   UNL d   1      11.860   6.910  -3.484  0.00  0.00    -0.050 SA
ATOM      9  C   UNL d   1      11.457   7.577  -5.040  0.00  0.00     0.026 A 
ATOM     10  C   UNL d   1      11.005   6.769  -6.207  0.00  0.00     0.070 C 
ENDROOT
BRANCH   1  11
ATOM     11  N   UNL d   1      10.232   6.911  -8.539  0.00  0.00     0.337 N 
BRANCH  11  12
ATOM     12  C   UNL d   1       9.124   5.973  -8.516  0.00  0.00     0.290 C 
BRANCH  12  13
ATOM     13  C   UNL d   1       9.127   5.124  -9.788  0.00  0.00     0.038 C 
ATOM     14  C   UNL d   1       8.820   5.921 -11.062  0.00  0.00     0.002 C 
ENDBRANCH  12  13
ENDBRANCH  11  12
ENDBRANCH   1  11
TORSDOF 3
