REMARK  7 active torsions:
REMARK  status: ('A' for Active; 'I' for Inactive)
REMARK    1  A    between atoms: C_5  and  C_6 
REMARK    2  A    between atoms: N_14  and  C_15 
REMARK    3  A    between atoms: C_15  and  C_16 
REMARK    4  A    between atoms: C_16  and  C_17 
REMARK    5  A    between atoms: C_17  and  S_18 
REMARK    6  A    between atoms: S_18  and  C_19 
REMARK    7  A    between atoms: C_22  and  C_23 
ROOT
ATOM      1  C   UNL d   1       9.379   3.307 -14.208  0.00  0.00     0.251 C 
ENDROOT
BRANCH   1   2
ATOM      2  N   UNL d   1       8.784   2.820 -15.455  0.00  0.00     0.138 N 
ATOM      3  C   UNL d   1       7.876   1.713 -15.152  0.00  0.00     0.255 C 
ATOM      4  C   UNL d   1       6.945   1.349 -16.321  0.00  0.00     0.061 C 
ATOM      5  C   UNL d   1       7.590   0.471 -17.378  0.00  0.00    -0.024 A 
ATOM      6  C   UNL d   1       8.720   0.911 -18.104  0.00  0.00    -0.024 A 
ATOM      7  C   UNL d   1       7.044  -0.803 -17.645  0.00  0.00    -0.001 A 
ATOM      8  C   UNL d   1       9.292   0.070 -19.081  0.00  0.00    -0.004 A 
ATOM      9  C   UNL d   1       9.331   2.278 -17.845  0.00  0.00     0.061 C 
ATOM     10  C   UNL d   1       8.743  -1.200 -19.340  0.00  0.00     0.003 A 
ATOM     11  C   UNL d   1       7.614  -1.645 -18.624  0.00  0.00     0.041 A 
ATOM     12  C   UNL d   1       9.840   2.465 -16.404  0.00  0.00     0.255 C 
BRANCH  11  13
ATOM     13  C   UNL d   1       7.050  -2.967 -18.888  0.00  0.00     0.182 A 
ATOM     14  N   UNL d   1       7.453  -3.881 -19.773  0.00  0.00    -0.219 NA
ATOM     15  C   UNL d   1       6.582  -4.947 -19.622  0.00  0.00     0.121 A 
ATOM     16  C   UNL d   1       5.685  -4.626 -18.642  0.00  0.00     0.099 A 
ATOM     17  C   UNL d   1       4.524  -5.346 -18.046  0.00  0.00     0.060 C 
ATOM     18  O   UNL d   1       5.970  -3.375 -18.165  0.00  0.00    -0.292 OA
ENDBRANCH  11  13
ENDBRANCH   1   2
BRANCH   1  19
ATOM     19  C   UNL d   1       8.551   4.458 -13.618  0.00  0.00     0.047 C 
BRANCH  19  20
ATOM     20  C   UNL d   1       9.310   5.194 -12.502  0.00  0.00     0.067 C 
BRANCH  20  21
ATOM     21  S   UNL d   1       8.364   5.275 -10.955  0.00  0.00    -0.075 SA
BRANCH  21  22
ATOM     22  C   UNL d   1       9.324   6.476 -10.084  0.00  0.00     0.193 A 
ATOM     23  N   UNL d   1       9.434   6.487  -8.740  0.00  0.00    -0.289 N 
ATOM     24  C   UNL d   1      10.308   7.496  -8.523  0.00  0.00     0.167 A 
ATOM     25  C   UNL d   1       8.763   5.615  -7.801  0.00  0.00     0.134 C 
ATOM     26  N   UNL d   1      10.669   8.109  -9.657  0.00  0.00    -0.128 NA
ATOM     27  N   UNL d   1      10.015   7.448 -10.672  0.00  0.00    -0.122 NA
BRANCH  24  28
ATOM     28  C   UNL d   1      10.835   7.936  -7.225  0.00  0.00     0.036 A 
ATOM     29  C   UNL d   1      11.024   7.033  -6.154  0.00  0.00     0.005 A 
ATOM     30  C   UNL d   1      11.477   7.471  -4.891  0.00  0.00     0.019 A 
ATOM     31  C   UNL d   1      11.800   8.855  -4.742  0.00  0.00     0.081 A 
ATOM     32  C   UNL d   1      11.752   6.814  -3.645  0.00  0.00     0.022 A 
ATOM     33  C   UNL d   1      11.653   9.764  -5.806  0.00  0.00     0.019 A 
ATOM     34  N   UNL d   1      12.246   8.993  -3.440  0.00  0.00    -0.244 NA
ATOM     35  C   UNL d   1      11.166   9.297  -7.043  0.00  0.00     0.005 A 
ATOM     36  C   UNL d   1      12.212   7.771  -2.783  0.00  0.00     0.099 A 
ENDBRANCH  24  28
ENDBRANCH  21  22
ENDBRANCH  20  21
ENDBRANCH  19  20
ENDBRANCH   1  19
TORSDOF 7
