REMARK  8 active torsions:
REMARK  status: ('A' for Active; 'I' for Inactive)
REMARK    1  A    between atoms: O_2  and  C_3 
REMARK    2  A    between atoms: C_6  and  C_7 
REMARK    3  A    between atoms: N_12  and  C_13 
REMARK    4  A    between atoms: C_13  and  C_14 
REMARK    5  A    between atoms: C_14  and  C_16 
REMARK    6  A    between atoms: C_16  and  N_17 
REMARK    7  A    between atoms: N_20  and  C_21 
REMARK    8  A    between atoms: C_26  and  O_27 
ROOT
ATOM      1  C   UNL d   1      11.990  -0.493 -21.946  0.00  0.00     0.148 C 
ENDROOT
BRANCH   1   2
ATOM      2  N   UNL d   1      13.348  -0.189 -21.475  0.00  0.00    -0.247 N 
ATOM      3  C   UNL d   1      13.923  -0.720 -20.380  0.00  0.00     0.348 C 
ATOM      4  N   UNL d   1      15.109  -0.128 -20.196  0.00  0.00    -0.209 NA
ATOM      5  O   UNL d   1      13.460  -1.591 -19.650  0.00  0.00    -0.245 OA
ATOM      6  C   UNL d   1      15.355   0.947 -21.143  0.00  0.00     0.179 C 
ATOM      7  C   UNL d   1      14.142   0.729 -22.039  0.00  0.00     0.265 C 
ATOM      8  C   UNL d   1      16.683   0.693 -21.885  0.00  0.00     0.039 C 
ATOM      9  O   UNL d   1      13.945   1.335 -23.094  0.00  0.00    -0.269 OA
BRANCH   6  10
ATOM     10  C   UNL d   1      15.248   2.348 -20.514  0.00  0.00     0.006 A 
ATOM     11  C   UNL d   1      15.701   3.486 -21.221  0.00  0.00     0.000 A 
ATOM     12  C   UNL d   1      15.565   4.775 -20.671  0.00  0.00     0.024 A 
ATOM     13  C   UNL d   1      14.964   4.966 -19.412  0.00  0.00     0.094 A 
ATOM     14  C   UNL d   1      14.508   3.831 -18.700  0.00  0.00     0.024 A 
ATOM     15  C   UNL d   1      14.648   2.542 -19.246  0.00  0.00     0.000 A 
BRANCH  13  16
ATOM     16  O   UNL d   1      14.854   6.262 -18.957  0.00  0.00    -0.328 OA
ATOM     17  C   UNL d   1      14.174   6.484 -17.730  0.00  0.00     0.181 C 
ENDBRANCH  13  16
ENDBRANCH   6  10
ENDBRANCH   1   2
BRANCH   1  18
ATOM     18  C   UNL d   1      10.959   0.495 -21.349  0.00  0.00     0.208 C 
ATOM     19  O   UNL d   1      10.798   1.556 -22.266  0.00  0.00    -0.219 OA
BRANCH  18  20
ATOM     20  C   UNL d   1       9.563  -0.133 -21.153  0.00  0.00     0.285 C 
BRANCH  20  21
ATOM     21  N   UNL d   1       8.716   0.540 -20.159  0.00  0.00     0.144 N 
ATOM     22  C   UNL d   1       7.318   0.102 -20.275  0.00  0.00     0.274 C 
ATOM     23  C   UNL d   1       6.394   0.837 -19.283  0.00  0.00     0.137 C 
ATOM     24  N   UNL d   1       6.895   0.669 -17.918  0.00  0.00    -0.343 N 
ATOM     25  C   UNL d   1       8.306   0.998 -17.726  0.00  0.00     0.137 C 
ATOM     26  C   UNL d   1       9.166   0.277 -18.782  0.00  0.00     0.274 C 
BRANCH  24  27
ATOM     27  C   UNL d   1       6.122   0.125 -16.869  0.00  0.00     0.079 A 
ATOM     28  C   UNL d   1       5.207  -0.943 -17.077  0.00  0.00     0.110 A 
ATOM     29  C   UNL d   1       4.426  -1.408 -15.986  0.00  0.00     0.026 A 
ATOM     30  C   UNL d   1       4.563  -0.845 -14.706  0.00  0.00     0.002 A 
ATOM     31  C   UNL d   1       5.489   0.186 -14.489  0.00  0.00     0.002 A 
ATOM     32  C   UNL d   1       6.261   0.667 -15.567  0.00  0.00     0.019 A 
BRANCH  28  33
ATOM     33  O   UNL d   1       5.136  -1.517 -18.332  0.00  0.00    -0.327 OA
ATOM     34  C   UNL d   1       4.126  -2.479 -18.592  0.00  0.00     0.181 C 
ENDBRANCH  28  33
ENDBRANCH  24  27
ENDBRANCH  20  21
ENDBRANCH  18  20
ENDBRANCH   1  18
TORSDOF 8
