REMARK  8 active torsions:
REMARK  status: ('A' for Active; 'I' for Inactive)
REMARK    1  A    between atoms: C_6  and  C_7 
REMARK    2  A    between atoms: C_10  and  S_11 
REMARK    3  A    between atoms: S_11  and  C_12 
REMARK    4  A    between atoms: C_12  and  C_13 
REMARK    5  A    between atoms: C_13  and  C_14 
REMARK    6  A    between atoms: C_14  and  N_15 
REMARK    7  A    between atoms: C_20  and  C_21 
REMARK    8  A    between atoms: C_25  and  C_26 
ROOT
ATOM      1  N   UNL d   1       8.901   3.040 -16.380  0.00  0.00     0.137 N 
ATOM      2  C   UNL d   1       8.932   1.808 -17.162  0.00  0.00     0.250 C 
ATOM      3  C   UNL d   1       8.787   2.106 -18.669  0.00  0.00     0.036 C 
ATOM      4  C   UNL d   1       9.677   3.232 -19.152  0.00  0.00     0.008 A 
ATOM      5  C   UNL d   1       9.264   4.681 -18.982  0.00  0.00     0.006 A 
ATOM      6  C   UNL d   1      10.360   4.107 -18.112  0.00  0.00     0.051 A 
ATOM      7  C   UNL d   1      10.111   3.827 -16.626  0.00  0.00     0.254 C 
ENDROOT
BRANCH   1   8
ATOM      8  C   UNL d   1       8.713   2.765 -14.958  0.00  0.00     0.251 C 
BRANCH   8   9
ATOM      9  C   UNL d   1       8.204   4.007 -14.202  0.00  0.00     0.047 C 
BRANCH   9  10
ATOM     10  C   UNL d   1       7.721   3.662 -12.808  0.00  0.00     0.067 C 
BRANCH  10  11
ATOM     11  S   UNL d   1       6.800   5.013 -12.040  0.00  0.00    -0.075 SA
BRANCH  11  12
ATOM     12  C   UNL d   1       8.148   6.064 -11.698  0.00  0.00     0.193 C 
ATOM     13  N   UNL d   1       8.589   6.926 -12.589  0.00  0.00    -0.122 NA
ATOM     14  N   UNL d   1       9.445   7.755 -11.912  0.00  0.00    -0.126 NA
ATOM     15  C   UNL d   1       9.592   7.221 -10.690  0.00  0.00     0.191 C 
ATOM     16  N   UNL d   1       8.757   6.176 -10.480  0.00  0.00    -0.287 N 
ATOM     17  C   UNL d   1       8.442   5.524  -9.230  0.00  0.00     0.134 C 
BRANCH  15  18
ATOM     18  C   UNL d   1      10.555   7.769  -9.726  0.00  0.00     0.151 A 
ATOM     19  C   UNL d   1      10.416   8.456  -8.545  0.00  0.00     0.087 A 
ATOM     20  C   UNL d   1       9.199   8.909  -7.827  0.00  0.00     0.054 C 
ATOM     21  N   UNL d   1      11.683   8.752  -8.073  0.00  0.00    -0.221 NA
ATOM     22  C   UNL d   1      12.521   8.278  -8.978  0.00  0.00     0.225 A 
ATOM     23  O   UNL d   1      11.887   7.663 -10.010  0.00  0.00    -0.282 OA
ENDBRANCH  15  18
ENDBRANCH  11  12
ENDBRANCH  10  11
ENDBRANCH   9  10
ENDBRANCH   8   9
ENDBRANCH   1   8
BRANCH   6  24
ATOM     24  C   UNL d   1      11.759   4.593 -18.323  0.00  0.00    -0.021 A 
ATOM     25  C   UNL d   1      12.191   5.788 -17.709  0.00  0.00    -0.000 A 
ATOM     26  C   UNL d   1      13.494   6.261 -17.894  0.00  0.00     0.071 A 
ATOM     27  C   UNL d   1      14.412   5.532 -18.691  0.00  0.00     0.004 A 
ATOM     28  C   UNL d   1      13.989   4.344 -19.315  0.00  0.00    -0.000 A 
ATOM     29  C   UNL d   1      12.683   3.878 -19.134  0.00  0.00    -0.004 A 
BRANCH  26  30
ATOM     30  C   UNL d   1      13.978   7.489 -17.163  0.00  0.00     0.419 C 
ATOM     31  F   UNL d   1      14.622   7.014 -16.104  0.00  0.00    -0.166 F 
ATOM     32  F   UNL d   1      14.822   8.191 -17.910  0.00  0.00    -0.166 F 
ATOM     33  F   UNL d   1      12.972   8.283 -16.787  0.00  0.00    -0.166 F 
ENDBRANCH  26  30
ENDBRANCH   6  24
TORSDOF 8
