REMARK  4 active torsions:
REMARK  status: ('A' for Active; 'I' for Inactive)
REMARK    1  A    between atoms: C_2  and  S_3 
REMARK    2  A    between atoms: C_2  and  C_11 
REMARK    3  A    between atoms: S_3  and  C_4 
REMARK    4  A    between atoms: C_16  and  N_17 
ROOT
ATOM      1  C   UNL d   1       8.712   4.723 -11.568  0.00  0.00     0.186 A 
ATOM      2  N   UNL d   1       7.387   4.869 -11.688  0.00  0.00    -0.041 NA
ATOM      3  C   UNL d   1       6.923   4.382 -12.840  0.00  0.00     0.785 A 
ATOM      4  N   UNL d   1       5.561   4.420 -12.981  0.00  0.00     0.063 N 
ATOM      5  N   UNL d   1       7.607   3.836 -13.842  0.00  0.00     0.134 NA
ATOM      6  C   UNL d   1       8.918   3.773 -13.583  0.00  0.00     0.744 A 
ATOM      7  N   UNL d   1       9.541   4.184 -12.470  0.00  0.00    -0.044 NA
ENDROOT
BRANCH   1   8
ATOM      8  C   UNL d   1       9.342   5.207 -10.261  0.00  0.00     0.112 C 
ATOM      9  C   UNL d   1       8.450   4.939  -9.033  0.00  0.00     0.020 C 
BRANCH   8  10
ATOM     10  S   UNL d   1       9.847   6.960 -10.436  0.00  0.00    -0.106 SA
BRANCH  10  11
ATOM     11  C   UNL d   1      10.243   7.573  -8.827  0.00  0.00     0.036 A 
ATOM     12  C   UNL d   1      11.551   8.007  -8.495  0.00  0.00     0.063 A 
ATOM     13  C   UNL d   1      11.824   8.486  -7.194  0.00  0.00     0.012 A 
ATOM     14 CL   UNL d   1      12.840   7.954  -9.656  0.00  0.00    -0.082 Cl
ATOM     15  C   UNL d   1      10.819   8.486  -6.208  0.00  0.00     0.001 A 
ATOM     16  C   UNL d   1       9.521   8.044  -6.550  0.00  0.00     0.001 A 
ATOM     17  C   UNL d   1       9.239   7.610  -7.847  0.00  0.00     0.007 A 
ENDBRANCH  10  11
ENDBRANCH   8  10
ENDBRANCH   1   8
BRANCH   6  18
ATOM     18  N   UNL d   1       9.716   3.228 -14.577  0.00  0.00    -0.178 N 
ATOM     19  C   UNL d   1      10.790   2.290 -14.290  0.00  0.00     0.155 C 
ATOM     20  C   UNL d   1      10.621   1.020 -15.152  0.00  0.00     0.275 C 
ATOM     21  N   UNL d   1      10.577   1.376 -16.575  0.00  0.00     0.143 N 
ATOM     22  C   UNL d   1       9.417   2.241 -16.812  0.00  0.00     0.275 C 
ATOM     23  C   UNL d   1      10.452   0.170 -17.382  0.00  0.00     0.286 C 
ATOM     24  C   UNL d   1       9.550   3.534 -15.989  0.00  0.00     0.155 C 
ENDBRANCH   6  18
TORSDOF 4
