REMARK  4 active torsions:
REMARK  status: ('A' for Active; 'I' for Inactive)
REMARK    1  A    between atoms: C_7  and  C_8 
REMARK    2  A    between atoms: C_8  and  N_9 
REMARK    3  A    between atoms: C_12  and  N_13 
REMARK    4  A    between atoms: C_16  and  N_17 
ROOT
ATOM      1  N   UNL d   1       9.194   6.141  -9.339  0.00  0.00     0.135 N 
ATOM      2  C   UNL d   1      10.649   6.019  -9.119  0.00  0.00     0.252 C 
ATOM      3  C   UNL d   1      11.148   7.103  -8.165  0.00  0.00     0.058 C 
ATOM      4  C   UNL d   1      10.460   6.974  -6.791  0.00  0.00     0.094 C 
ATOM      5  C   UNL d   1       8.928   6.979  -7.028  0.00  0.00     0.058 C 
ATOM      6  C   UNL d   1       8.523   5.917  -8.066  0.00  0.00     0.252 C 
ENDROOT
BRANCH   1   7
ATOM      7  C   UNL d   1       8.671   5.173 -10.336  0.00  0.00     0.223 C 
ATOM      8  C   UNL d   1       9.723   4.739 -11.342  0.00  0.00     0.069 C 
ATOM      9  C   UNL d   1       9.323   3.805 -12.469  0.00  0.00     0.253 C 
ATOM     10  N   UNL d   1       8.221   4.423 -13.185  0.00  0.00     0.141 N 
ATOM     11  C   UNL d   1       7.109   4.695 -12.259  0.00  0.00     0.253 C 
ATOM     12  C   UNL d   1       7.516   5.724 -11.168  0.00  0.00     0.069 C 
BRANCH  10  13
ATOM     13  C   UNL d   1       7.798   3.460 -14.195  0.00  0.00     0.276 C 
BRANCH  13  14
ATOM     14  C   UNL d   1       8.895   3.145 -15.216  0.00  0.00     0.007 A 
ATOM     15  C   UNL d   1       9.216   1.814 -15.584  0.00  0.00    -0.024 A 
ATOM     16  C   UNL d   1       8.483   0.629 -14.979  0.00  0.00     0.031 C 
ATOM     17  C   UNL d   1      10.237   1.576 -16.533  0.00  0.00    -0.004 A 
ATOM     18  C   UNL d   1      10.945   2.650 -17.107  0.00  0.00    -0.000 A 
ATOM     19  C   UNL d   1      10.645   3.971 -16.729  0.00  0.00    -0.000 A 
ATOM     20  C   UNL d   1       9.628   4.213 -15.787  0.00  0.00    -0.003 A 
ENDBRANCH  13  14
ENDBRANCH  10  13
ENDBRANCH   1   7
BRANCH   4  21
ATOM     21  N   UNL d   1      10.877   8.065  -5.897  0.00  0.00    -0.281 N 
ATOM     22  C   UNL d   1      11.374   7.915  -4.584  0.00  0.00     0.084 A 
ATOM     23  C   UNL d   1      11.626   9.188  -4.110  0.00  0.00     0.102 A 
ATOM     24  C   UNL d   1      11.556   6.788  -3.789  0.00  0.00     0.049 A 
ATOM     25  N   UNL d   1      11.304  10.066  -5.127  0.00  0.00    -0.191 NA
ATOM     26  C   UNL d   1      12.082   9.454  -2.828  0.00  0.00     0.023 A 
ATOM     27  C   UNL d   1      10.868   9.389  -6.191  0.00  0.00     0.350 A 
ATOM     28  O   UNL d   1      10.540   9.915  -7.228  0.00  0.00    -0.244 OA
ATOM     29  C   UNL d   1      12.281   8.336  -2.006  0.00  0.00     0.031 A 
ATOM     30  C   UNL d   1      12.039   7.015  -2.478  0.00  0.00     0.142 A 
ATOM     31  F   UNL d   1      12.283   5.985  -1.661  0.00  0.00    -0.204 F 
ENDBRANCH   4  21
TORSDOF 4
