REMARK  9 active torsions:
REMARK  status: ('A' for Active; 'I' for Inactive)
REMARK    1  A    between atoms: N_13  and  C_14 
REMARK    2  A    between atoms: C_14  and  C_15 
REMARK    3  A    between atoms: C_15  and  C_16 
REMARK    4  A    between atoms: C_16  and  C_17 
REMARK    5  A    between atoms: C_17  and  C_18 
REMARK    6  A    between atoms: C_18  and  C_19 
REMARK    7  A    between atoms: C_19  and  N_20 
REMARK    8  A    between atoms: N_23  and  C_24 
REMARK    9  A    between atoms: C_29  and  N_30 
ROOT
ATOM      1  C   UNL d   1       5.459   3.596 -12.614  0.00  0.00     0.002 C 
ENDROOT
BRANCH   1   2
ATOM      2  C   UNL d   1       5.170   2.099 -12.840  0.00  0.00     0.002 C 
BRANCH   2   3
ATOM      3  C   UNL d   1       6.049   1.472 -13.935  0.00  0.00     0.025 C 
BRANCH   3   4
ATOM      4  C   UNL d   1       5.899  -0.049 -14.054  0.00  0.00     0.109 C 
BRANCH   4   5
ATOM      5  N   UNL d   1       5.584  -0.455 -15.416  0.00  0.00    -0.296 N 
ATOM      6  C   UNL d   1       4.390  -0.932 -15.833  0.00  0.00     0.261 A 
ATOM      7  O   UNL d   1       3.358  -1.081 -15.182  0.00  0.00    -0.267 OA
ATOM      8  C   UNL d   1       4.576  -1.190 -17.290  0.00  0.00     0.058 A 
ATOM      9  C   UNL d   1       5.858  -0.852 -17.662  0.00  0.00     0.021 A 
ATOM     10  C   UNL d   1       3.712  -1.686 -18.283  0.00  0.00     0.005 A 
ATOM     11  C   UNL d   1       6.414  -0.969 -18.937  0.00  0.00     0.002 A 
ATOM     12  C   UNL d   1       6.481  -0.385 -16.519  0.00  0.00     0.063 A 
ATOM     13  C   UNL d   1       5.547  -1.479 -19.929  0.00  0.00     0.000 A 
ATOM     14  C   UNL d   1       7.765  -0.569 -19.042  0.00  0.00     0.000 A 
ATOM     15  C   UNL d   1       4.209  -1.830 -19.603  0.00  0.00     0.000 A 
ATOM     16  C   UNL d   1       8.462  -0.081 -17.904  0.00  0.00     0.002 A 
ATOM     17  C   UNL d   1       7.826   0.020 -16.639  0.00  0.00     0.017 A 
ENDBRANCH   4   5
ENDBRANCH   3   4
ENDBRANCH   2   3
ENDBRANCH   1   2
BRANCH   1  18
ATOM     18  C   UNL d   1       6.875   3.840 -12.123  0.00  0.00     0.035 C 
BRANCH  18  19
ATOM     19  C   UNL d   1       7.191   5.291 -11.812  0.00  0.00     0.250 C 
BRANCH  19  20
ATOM     20  N   UNL d   1       8.484   5.336 -11.151  0.00  0.00     0.141 N 
ATOM     21  C   UNL d   1       8.326   5.098  -9.703  0.00  0.00     0.274 C 
ATOM     22  C   UNL d   1       9.666   5.227  -8.952  0.00  0.00     0.137 C 
ATOM     23  N   UNL d   1      10.206   6.554  -9.194  0.00  0.00    -0.343 N 
ATOM     24  C   UNL d   1      10.246   6.946 -10.592  0.00  0.00     0.137 C 
ATOM     25  C   UNL d   1       8.958   6.702 -11.316  0.00  0.00     0.274 C 
BRANCH  23  26
ATOM     26  C   UNL d   1      10.668   7.393  -8.140  0.00  0.00     0.078 A 
ATOM     27  C   UNL d   1      11.775   8.284  -8.248  0.00  0.00     0.142 A 
ATOM     28  C   UNL d   1      12.159   9.074  -7.143  0.00  0.00     0.025 A 
ATOM     29  C   UNL d   1      11.489   8.985  -5.921  0.00  0.00     0.002 A 
ATOM     30  C   UNL d   1      10.417   8.098  -5.806  0.00  0.00     0.002 A 
ATOM     31  C   UNL d   1      10.002   7.323  -6.901  0.00  0.00     0.019 A 
BRANCH  27  32
ATOM     32  N   UNL d   1      12.569   8.419  -9.461  0.00  0.00    -0.112 N 
ATOM     33  O   UNL d   1      13.659   7.869  -9.553  0.00  0.00    -0.532 OA
ATOM     34  O   UNL d   1      12.106   9.175 -10.324  0.00  0.00    -0.532 OA
ENDBRANCH  27  32
ENDBRANCH  23  26
ENDBRANCH  19  20
ENDBRANCH  18  19
ENDBRANCH   1  18
TORSDOF 9
