REMARK  8 active torsions:
REMARK  status: ('A' for Active; 'I' for Inactive)
REMARK    1  A    between atoms: C_6  and  C_7 
REMARK    2  A    between atoms: C_10  and  S_11 
REMARK    3  A    between atoms: S_11  and  C_12 
REMARK    4  A    between atoms: C_12  and  C_13 
REMARK    5  A    between atoms: C_13  and  C_14 
REMARK    6  A    between atoms: C_14  and  N_15 
REMARK    7  A    between atoms: C_19  and  C_20 
REMARK    8  A    between atoms: C_23  and  C_24 
ROOT
ATOM      1  N   UNL d   1       8.384   3.385 -14.229  0.00  0.00     0.143 N 
ATOM      2  C   UNL d   1       9.721   3.285 -14.822  0.00  0.00     0.282 C 
ATOM      3  C   UNL d   1      10.439   4.646 -14.855  0.00  0.00     0.178 C 
ATOM      4  O   UNL d   1      10.519   5.187 -13.533  0.00  0.00    -0.348 OA
ATOM      5  C   UNL d   1       9.237   5.330 -12.916  0.00  0.00     0.173 C 
ATOM      6  C   UNL d   1       8.522   3.966 -12.909  0.00  0.00     0.284 C 
ENDROOT
BRANCH   1   7
ATOM      7  C   UNL d   1       7.721   2.084 -14.102  0.00  0.00     0.251 C 
BRANCH   7   8
ATOM      8  C   UNL d   1       7.239   1.537 -15.436  0.00  0.00     0.047 C 
BRANCH   8   9
ATOM      9  C   UNL d   1       6.799   0.069 -15.415  0.00  0.00     0.067 C 
BRANCH   9  10
ATOM     10  S   UNL d   1       5.487  -0.300 -16.630  0.00  0.00    -0.075 SA
BRANCH  10  11
ATOM     11  C   UNL d   1       6.178   0.321 -18.137  0.00  0.00     0.193 A 
ATOM     12  N   UNL d   1       7.410   0.844 -18.224  0.00  0.00    -0.122 NA
ATOM     13  N   UNL d   1       7.522   1.274 -19.534  0.00  0.00    -0.126 NA
ATOM     14  C   UNL d   1       6.383   0.939 -20.130  0.00  0.00     0.191 A 
ATOM     15  N   UNL d   1       5.494   0.344 -19.296  0.00  0.00    -0.287 N 
ATOM     16  C   UNL d   1       4.152  -0.156 -19.584  0.00  0.00     0.134 C 
BRANCH  14  17
ATOM     17  C   UNL d   1       6.202   1.213 -21.550  0.00  0.00     0.151 A 
ATOM     18  C   UNL d   1       6.992   1.834 -22.486  0.00  0.00     0.087 A 
ATOM     19  C   UNL d   1       8.345   2.467 -22.334  0.00  0.00     0.054 C 
ATOM     20  N   UNL d   1       6.338   1.808 -23.713  0.00  0.00    -0.221 NA
ATOM     21  C   UNL d   1       5.200   1.168 -23.460  0.00  0.00     0.225 A 
ATOM     22  O   UNL d   1       5.063   0.782 -22.166  0.00  0.00    -0.282 OA
ENDBRANCH  14  17
ENDBRANCH  10  11
ENDBRANCH   9  10
ENDBRANCH   8   9
ENDBRANCH   7   8
ENDBRANCH   1   7
BRANCH   5  23
ATOM     23  C   UNL d   1       9.359   5.915 -11.501  0.00  0.00     0.034 A 
ATOM     24  C   UNL d   1       9.469   7.312 -11.322  0.00  0.00     0.138 A 
ATOM     25  C   UNL d   1       9.686   7.847 -10.032  0.00  0.00     0.033 A 
ATOM     26  F   UNL d   1       9.427   8.146 -12.388  0.00  0.00    -0.204 F 
ATOM     27  C   UNL d   1       9.700   7.000  -8.905  0.00  0.00     0.074 A 
ATOM     28  C   UNL d   1       9.565   5.613  -9.079  0.00  0.00     0.004 A 
ATOM     29  C   UNL d   1       9.391   5.075 -10.368  0.00  0.00     0.000 A 
BRANCH  27  30
ATOM     30  C   UNL d   1       9.865   7.564  -7.506  0.00  0.00     0.419 C 
ATOM     31  F   UNL d   1       9.380   8.804  -7.432  0.00  0.00    -0.166 F 
ATOM     32  F   UNL d   1       9.214   6.806  -6.620  0.00  0.00    -0.166 F 
ATOM     33  F   UNL d   1      11.159   7.580  -7.187  0.00  0.00    -0.166 F 
ENDBRANCH  27  30
ENDBRANCH   5  23
TORSDOF 8
