REMARK  4 active torsions:
REMARK  status: ('A' for Active; 'I' for Inactive)
REMARK    1  A    between atoms: O_2  and  C_3 
REMARK    2  A    between atoms: C_5  and  C_6 
REMARK    3  A    between atoms: C_6  and  N_7 
REMARK    4  A    between atoms: N_10  and  C_11 
ROOT
ATOM      1  N   UNL d   1       9.240   5.101 -13.127  0.00  0.00     0.144 N 
ATOM      2  C   UNL d   1       8.579   5.086 -14.441  0.00  0.00     0.268 C 
ATOM      3  C   UNL d   1       9.537   4.525 -15.525  0.00  0.00     0.112 C 
ATOM      4  N   UNL d   1       9.971   3.181 -15.175  0.00  0.00    -0.248 NA
ATOM      5  C   UNL d   1      10.572   3.129 -13.846  0.00  0.00     0.112 C 
ATOM      6  C   UNL d   1       9.652   3.733 -12.747  0.00  0.00     0.268 C 
ENDROOT
BRANCH   1   7
ATOM      7  C   UNL d   1       8.279   5.621 -12.153  0.00  0.00     0.277 C 
BRANCH   7   8
ATOM      8  C   UNL d   1       8.934   5.919 -10.818  0.00  0.00     0.013 A 
ATOM      9  C   UNL d   1       9.766   7.053 -10.698  0.00  0.00     0.024 A 
ATOM     10  C   UNL d   1      10.398   7.341  -9.457  0.00  0.00     0.121 A 
ATOM     11  C   UNL d   1      10.160   6.510  -8.358  0.00  0.00     0.162 A 
ATOM     12  C   UNL d   1       9.340   5.374  -8.484  0.00  0.00     0.031 A 
ATOM     13  F   UNL d   1      10.689   6.772  -7.127  0.00  0.00    -0.202 F 
ATOM     14  C   UNL d   1       8.727   5.080  -9.723  0.00  0.00     0.000 A 
BRANCH  10  15
ATOM     15  O   UNL d   1      11.190   8.465  -9.408  0.00  0.00    -0.326 OA
ATOM     16  C   UNL d   1      12.525   8.236  -8.983  0.00  0.00     0.181 C 
ENDBRANCH  10  15
ENDBRANCH   7   8
ENDBRANCH   1   7
BRANCH   4  17
ATOM     17  C   UNL d   1       9.030   2.167 -15.485  0.00  0.00     0.039 A 
ATOM     18  C   UNL d   1       7.828   2.024 -14.748  0.00  0.00     0.037 A 
ATOM     19  C   UNL d   1       6.941   0.998 -15.026  0.00  0.00     0.117 A 
ATOM     20  C   UNL d   1       7.170   0.106 -16.122  0.00  0.00     0.116 A 
ATOM     21  O   UNL d   1       5.845   0.892 -14.213  0.00  0.00    -0.326 OA
ATOM     22  C   UNL d   1       8.356   0.254 -16.873  0.00  0.00     0.027 A 
ATOM     23  O   UNL d   1       6.245  -0.855 -16.428  0.00  0.00    -0.326 OA
ATOM     24  C   UNL d   1       9.290   1.273 -16.561  0.00  0.00     0.013 A 
ATOM     25  C   UNL d   1       4.983  -0.691 -15.780  0.00  0.00     0.181 C 
ATOM     26  C   UNL d   1       5.152  -0.329 -14.292  0.00  0.00     0.181 C 
ENDBRANCH   4  17
TORSDOF 4
