REMARK  6 active torsions:
REMARK  status: ('A' for Active; 'I' for Inactive)
REMARK    1  A    between atoms: C_2  and  C_3 
REMARK    2  A    between atoms: N_13  and  C_14 
REMARK    3  A    between atoms: C_14  and  C_15 
REMARK    4  A    between atoms: C_15  and  C_17 
REMARK    5  A    between atoms: C_17  and  N_18 
REMARK    6  A    between atoms: N_21  and  C_22 
ROOT
ATOM      1  C   UNL d   1      11.334   7.726  -5.530  0.00  0.00     0.066 A 
ATOM      2  C   UNL d   1      11.463   6.606  -4.712  0.00  0.00     0.018 A 
ATOM      3  C   UNL d   1      11.873   6.757  -3.379  0.00  0.00     0.002 A 
ATOM      4  C   UNL d   1      12.173   8.018  -2.857  0.00  0.00     0.001 A 
ATOM      5  C   UNL d   1      12.087   9.133  -3.683  0.00  0.00     0.012 A 
ATOM      6  C   UNL d   1      11.687   8.964  -5.002  0.00  0.00     0.084 A 
ATOM      7  C   UNL d   1      11.681  10.124  -5.784  0.00  0.00     0.102 C 
ATOM      8  N   UNL d   1      11.686  11.071  -6.419  0.00  0.00    -0.191 NA
ENDROOT
BRANCH   1   9
ATOM      9  N   UNL d   1      10.894   7.512  -6.830  0.00  0.00    -0.344 N 
ATOM     10  C   UNL d   1       9.916   8.273  -7.555  0.00  0.00     0.137 C 
ATOM     11  C   UNL d   1       8.954   7.269  -8.188  0.00  0.00     0.274 C 
ATOM     12  N   UNL d   1       9.579   6.366  -9.153  0.00  0.00     0.144 N 
ATOM     13  C   UNL d   1      10.521   5.633  -8.365  0.00  0.00     0.274 C 
ATOM     14  C   UNL d   1      11.532   6.539  -7.638  0.00  0.00     0.137 C 
BRANCH  12  15
ATOM     15  C   UNL d   1       8.588   5.478  -9.795  0.00  0.00     0.285 C 
BRANCH  15  16
ATOM     16  C   UNL d   1       9.023   4.763 -11.112  0.00  0.00     0.208 C 
ATOM     17  O   UNL d   1       7.890   4.080 -11.611  0.00  0.00    -0.219 OA
BRANCH  16  18
ATOM     18  C   UNL d   1       9.477   5.684 -12.269  0.00  0.00     0.148 C 
BRANCH  18  19
ATOM     19  N   UNL d   1       9.929   4.919 -13.492  0.00  0.00    -0.247 N 
ATOM     20  C   UNL d   1      11.152   4.528 -13.862  0.00  0.00     0.348 A 
ATOM     21  N   UNL d   1      11.034   3.818 -15.021  0.00  0.00    -0.209 NA
ATOM     22  O   UNL d   1      12.155   4.712 -13.256  0.00  0.00    -0.245 OA
ATOM     23  C   UNL d   1       9.686   3.771 -15.543  0.00  0.00     0.179 A 
ATOM     24  C   UNL d   1       9.259   2.301 -15.601  0.00  0.00     0.039 C 
ATOM     25  C   UNL d   1       9.015   4.491 -14.370  0.00  0.00     0.265 A 
ATOM     26  O   UNL d   1       7.829   4.650 -14.205  0.00  0.00    -0.269 OA
BRANCH  23  27
ATOM     27  C   UNL d   1       9.657   4.542 -16.878  0.00  0.00     0.006 C 
ATOM     28  C   UNL d   1      10.256   5.826 -17.017  0.00  0.00    -0.001 C 
ATOM     29  C   UNL d   1      10.133   6.550 -18.226  0.00  0.00     0.011 C 
ATOM     30  C   UNL d   1       9.412   6.015 -19.295  0.00  0.00     0.058 C 
ATOM     31  C   UNL d   1       8.904   4.713 -19.203  0.00  0.00     0.011 C 
ATOM     32 CL   UNL d   1       9.224   6.943 -20.734  0.00  0.00    -0.082 Cl
ATOM     33  C   UNL d   1       9.058   3.983 -18.020  0.00  0.00    -0.001 C 
ENDBRANCH  23  27
ENDBRANCH  18  19
ENDBRANCH  16  18
ENDBRANCH  15  16
ENDBRANCH  12  15
ENDBRANCH   1   9
TORSDOF 6
