REMARK  11 active torsions:
REMARK  status: ('A' for Active; 'I' for Inactive)
REMARK    1  A    between atoms: O_2  and  C_3 
REMARK    2  A    between atoms: C_8  and  C_9 
REMARK    3  A    between atoms: C_11  and  C_12 
REMARK    4  A    between atoms: C_12  and  N_13 
REMARK    5  A    between atoms: N_13  and  C_14 
REMARK    6  A    between atoms: C_14  and  C_15 
REMARK    7  A    between atoms: C_15  and  C_16 
REMARK    8  A    between atoms: C_16  and  C_17 
REMARK    9  A    between atoms: C_17  and  C_18 
REMARK   10  A    between atoms: C_18  and  O_19 
REMARK   11  A    between atoms: O_19  and  C_20 
ROOT
ATOM      1  C   UNL d   1       9.355   3.274 -13.604  0.00  0.00     0.038 C 
ENDROOT
BRANCH   1   2
ATOM      2  C   UNL d   1      10.013   4.630 -13.823  0.00  0.00     0.290 C 
BRANCH   2   3
ATOM      3  N   UNL d   1      11.448   4.480 -14.060  0.00  0.00     0.339 N 
BRANCH   3   4
ATOM      4  C   UNL d   1      11.796   4.271 -15.463  0.00  0.00     0.290 C 
BRANCH   4   5
ATOM      5  C   UNL d   1      11.575   5.537 -16.250  0.00  0.00     0.041 A 
ATOM      6  C   UNL d   1      11.973   5.598 -17.692  0.00  0.00     0.026 A 
ATOM      7  C   UNL d   1      12.732   6.423 -16.660  0.00  0.00     0.007 A 
BRANCH   6   8
ATOM      8  C   UNL d   1      11.086   6.269 -18.684  0.00  0.00    -0.000 A 
ATOM      9  C   UNL d   1      11.622   7.248 -19.550  0.00  0.00     0.090 A 
ATOM     10  C   UNL d   1      10.772   7.908 -20.464  0.00  0.00     0.024 A 
ATOM     11  C   UNL d   1       9.398   7.598 -20.514  0.00  0.00     0.002 A 
ATOM     12  C   UNL d   1       8.863   6.623 -19.649  0.00  0.00    -0.000 A 
ATOM     13  C   UNL d   1       9.704   5.959 -18.744  0.00  0.00    -0.002 A 
BRANCH   9  14
ATOM     14  O   UNL d   1      12.974   7.513 -19.433  0.00  0.00    -0.328 OA
ATOM     15  C   UNL d   1      13.529   8.556 -20.214  0.00  0.00     0.181 C 
ENDBRANCH   9  14
ENDBRANCH   6   8
ENDBRANCH   4   5
ENDBRANCH   3   4
ENDBRANCH   2   3
ENDBRANCH   1   2
BRANCH   1  16
ATOM     16  C   UNL d   1       9.469   2.338 -14.830  0.00  0.00     0.005 C 
BRANCH  16  17
ATOM     17  C   UNL d   1       8.743   1.009 -14.676  0.00  0.00     0.033 C 
BRANCH  17  18
ATOM     18  C   UNL d   1       7.225   1.150 -14.740  0.00  0.00     0.149 C 
BRANCH  18  19
ATOM     19  O   UNL d   1       6.867   1.317 -16.109  0.00  0.00    -0.331 OA
BRANCH  19  20
ATOM     20  C   UNL d   1       6.161   0.307 -16.720  0.00  0.00     0.096 A 
ATOM     21  C   UNL d   1       6.306   0.132 -18.114  0.00  0.00     0.043 A 
ATOM     22  C   UNL d   1       5.624  -0.924 -18.764  0.00  0.00     0.082 A 
ATOM     23  C   UNL d   1       4.788  -1.778 -18.016  0.00  0.00    -0.004 A 
ATOM     24  N   UNL d   1       5.773  -1.114 -20.161  0.00  0.00    -0.212 NA
ATOM     25  C   UNL d   1       4.627  -1.591 -16.635  0.00  0.00    -0.001 A 
ATOM     26  C   UNL d   1       4.027  -2.872 -18.731  0.00  0.00     0.038 C 
ATOM     27  C   UNL d   1       5.293  -0.541 -15.993  0.00  0.00     0.024 A 
ATOM     28  C   UNL d   1       4.790  -3.372 -19.972  0.00  0.00     0.095 C 
ATOM     29  C   UNL d   1       5.369  -2.224 -20.808  0.00  0.00     0.256 C 
ATOM     30  O   UNL d   1       5.486  -2.341 -22.025  0.00  0.00    -0.270 OA
ENDBRANCH  19  20
ENDBRANCH  18  19
ENDBRANCH  17  18
ENDBRANCH  16  17
ENDBRANCH   1  16
TORSDOF 11
