REMARK  7 active torsions:
REMARK  status: ('A' for Active; 'I' for Inactive)
REMARK    1  A    between atoms: C_2  and  C_3 
REMARK    2  A    between atoms: N_13  and  C_14 
REMARK    3  A    between atoms: C_14  and  C_15 
REMARK    4  A    between atoms: C_15  and  C_17 
REMARK    5  A    between atoms: C_17  and  N_18 
REMARK    6  A    between atoms: C_21  and  O_22 
REMARK    7  A    between atoms: O_22  and  C_23 
ROOT
ATOM      1  C   UNL d   1       9.697   4.588 -13.819  0.00  0.00     0.208 C 
ATOM      2  O   UNL d   1      11.087   4.364 -13.643  0.00  0.00    -0.219 OA
ENDROOT
BRANCH   1   3
ATOM      3  C   UNL d   1       9.114   3.412 -14.619  0.00  0.00     0.148 C 
BRANCH   3   4
ATOM      4  N   UNL d   1       9.898   3.083 -15.816  0.00  0.00    -0.247 N 
ATOM      5  C   UNL d   1      10.623   1.962 -15.941  0.00  0.00     0.348 A 
ATOM      6  N   UNL d   1      11.231   1.980 -17.133  0.00  0.00    -0.209 NA
ATOM      7  O   UNL d   1      10.728   1.057 -15.112  0.00  0.00    -0.245 OA
ATOM      8  C   UNL d   1      10.957   3.193 -17.888  0.00  0.00     0.179 A 
ATOM      9  C   UNL d   1      10.225   2.824 -19.195  0.00  0.00     0.039 C 
ATOM     10  C   UNL d   1      10.013   3.867 -16.896  0.00  0.00     0.265 A 
ATOM     11  O   UNL d   1       9.460   4.951 -17.084  0.00  0.00    -0.269 OA
BRANCH   8  12
ATOM     12  C   UNL d   1      12.202   4.065 -18.138  0.00  0.00     0.006 A 
ATOM     13  C   UNL d   1      12.088   5.264 -18.879  0.00  0.00     0.000 A 
ATOM     14  C   UNL d   1      13.214   6.075 -19.119  0.00  0.00     0.029 A 
ATOM     15  C   UNL d   1      14.473   5.699 -18.618  0.00  0.00     0.140 A 
ATOM     16  C   UNL d   1      14.603   4.510 -17.879  0.00  0.00     0.029 A 
ATOM     17  F   UNL d   1      15.558   6.476 -18.845  0.00  0.00    -0.204 F 
ATOM     18  C   UNL d   1      13.476   3.699 -17.640  0.00  0.00     0.000 A 
ENDBRANCH   8  12
ENDBRANCH   3   4
ENDBRANCH   1   3
BRANCH   1  19
ATOM     19  C   UNL d   1       9.028   4.672 -12.431  0.00  0.00     0.285 C 
BRANCH  19  20
ATOM     20  N   UNL d   1       9.607   5.714 -11.579  0.00  0.00     0.140 N 
ATOM     21  C   UNL d   1       8.867   6.977 -11.632  0.00  0.00     0.253 C 
ATOM     22  C   UNL d   1       9.504   8.076 -10.742  0.00  0.00     0.066 C 
ATOM     23  C   UNL d   1       9.683   7.593  -9.261  0.00  0.00     0.125 C 
ATOM     24  C   UNL d   1      10.434   6.243  -9.306  0.00  0.00     0.066 C 
ATOM     25  C   UNL d   1       9.680   5.273 -10.196  0.00  0.00     0.253 C 
BRANCH  23  26
ATOM     26  O   UNL d   1      10.391   8.601  -8.539  0.00  0.00    -0.333 OA
BRANCH  26  27
ATOM     27  C   UNL d   1      10.725   8.460  -7.206  0.00  0.00     0.094 A 
ATOM     28  C   UNL d   1      10.491   7.311  -6.401  0.00  0.00     0.025 A 
ATOM     29  C   UNL d   1      11.032   7.249  -5.104  0.00  0.00     0.013 A 
ATOM     30  C   UNL d   1      11.690   8.359  -4.528  0.00  0.00     0.058 A 
ATOM     31  C   UNL d   1      11.820   9.533  -5.299  0.00  0.00     0.013 A 
ATOM     32 CL   UNL d   1      12.251   8.311  -2.884  0.00  0.00    -0.082 Cl
ATOM     33  C   UNL d   1      11.366   9.580  -6.636  0.00  0.00     0.025 A 
ENDBRANCH  26  27
ENDBRANCH  23  26
ENDBRANCH  19  20
ENDBRANCH   1  19
TORSDOF 7
