REMARK  12 active torsions:
REMARK  status: ('A' for Active; 'I' for Inactive)
REMARK    1  A    between atoms: C_2  and  C_4 
REMARK    2  A    between atoms: C_5  and  C_6 
REMARK       I    between atoms: C_6  and  N_8 
REMARK    3  A    between atoms: N_8  and  C_9 
REMARK    4  A    between atoms: C_15  and  C_16 
REMARK    5  A    between atoms: C_22  and  C_23 
REMARK    6  A    between atoms: N_30  and  C_31 
REMARK    7  A    between atoms: C_31  and  C_32 
REMARK    8  A    between atoms: C_32  and  C_33 
REMARK    9  A    between atoms: C_33  and  C_35 
REMARK   10  A    between atoms: C_35  and  C_36 
REMARK   11  A    between atoms: C_36  and  C_38 
REMARK   12  A    between atoms: C_38  and  C_39 
ROOT
ATOM      1  C   UNL d   1       7.171   1.948 -14.345  0.00  0.00     0.041 A 
ATOM      2  C   UNL d   1       8.074   3.009 -14.223  0.00  0.00     0.071 A 
ATOM      3  C   UNL d   1       9.107   2.822 -15.180  0.00  0.00     0.021 A 
ATOM      4  C   UNL d   1       8.849   1.699 -15.925  0.00  0.00     0.060 A 
ATOM      5  N   UNL d   1       7.655   1.168 -15.423  0.00  0.00    -0.331 N 
ENDROOT
BRANCH   5   6
ATOM      6  C   UNL d   1       7.027  -0.060 -15.930  0.00  0.00     0.108 C 
BRANCH   6   7
ATOM      7  C   UNL d   1       5.682   0.182 -16.666  0.00  0.00     0.058 C 
BRANCH   7   8
ATOM      8  C   UNL d   1       4.941  -1.138 -16.956  0.00  0.00     0.157 C 
ATOM      9  O   UNL d   1       3.812  -1.272 -16.097  0.00  0.00    -0.223 OA
BRANCH   8  10
ATOM     10  C   UNL d   1       4.481  -1.229 -18.422  0.00  0.00     0.067 C 
BRANCH  10  11
ATOM     11  C   UNL d   1       4.099  -2.636 -18.917  0.00  0.00     0.165 C 
ATOM     12  O   UNL d   1       4.088  -2.568 -20.340  0.00  0.00    -0.223 OA
BRANCH  11  13
ATOM     13  C   UNL d   1       5.121  -3.711 -18.472  0.00  0.00     0.131 C 
BRANCH  13  14
ATOM     14  C   UNL d   1       4.770  -5.137 -18.885  0.00  0.00     0.188 C 
ATOM     15  O   UNL d   1       5.322  -5.721 -19.814  0.00  0.00    -0.647 OA
ATOM     16  O   UNL d   1       3.838  -5.693 -18.054  0.00  0.00    -0.647 OA
ENDBRANCH  13  14
ENDBRANCH  11  13
ENDBRANCH  10  11
ENDBRANCH   8  10
ENDBRANCH   7   8
ENDBRANCH   6   7
ENDBRANCH   5   6
BRANCH   1  17
ATOM     17  C   UNL d   1       5.866   1.585 -13.613  0.00  0.00     0.038 C 
ATOM     18  C   UNL d   1       5.311   2.680 -12.632  0.00  0.00     0.006 C 
ATOM     19  C   UNL d   1       5.835   0.180 -12.904  0.00  0.00     0.006 C 
ENDBRANCH   1  17
BRANCH   4  20
ATOM     20  C   UNL d   1       9.642   1.097 -17.010  0.00  0.00     0.016 A 
ATOM     21  C   UNL d   1      11.042   0.949 -16.877  0.00  0.00     0.004 A 
ATOM     22  C   UNL d   1      11.823   0.349 -17.883  0.00  0.00     0.030 A 
ATOM     23  C   UNL d   1      11.211  -0.185 -19.028  0.00  0.00     0.140 A 
ATOM     24  C   UNL d   1       9.807  -0.049 -19.179  0.00  0.00     0.030 A 
ATOM     25  F   UNL d   1      11.949  -0.815 -19.963  0.00  0.00    -0.204 F 
ATOM     26  C   UNL d   1       9.048   0.632 -18.216  0.00  0.00     0.004 A 
ENDBRANCH   4  20
BRANCH   2  27
ATOM     27  C   UNL d   1       7.977   4.135 -13.267  0.00  0.00     0.280 C 
ATOM     28  O   UNL d   1       7.034   4.902 -13.289  0.00  0.00    -0.265 OA
ATOM     29  N   UNL d   1       9.013   4.255 -12.397  0.00  0.00    -0.208 NA
BRANCH  29  30
ATOM     30  C   UNL d   1       9.202   5.310 -11.473  0.00  0.00     0.085 A 
ATOM     31  C   UNL d   1       9.179   6.655 -11.891  0.00  0.00     0.019 A 
ATOM     32  C   UNL d   1       9.471   7.683 -10.979  0.00  0.00     0.002 A 
ATOM     33  C   UNL d   1       9.765   7.373  -9.637  0.00  0.00     0.000 A 
ATOM     34  C   UNL d   1       9.733   6.038  -9.198  0.00  0.00     0.002 A 
ATOM     35  C   UNL d   1       9.466   5.006 -10.124  0.00  0.00     0.019 A 
ENDBRANCH  29  30
ENDBRANCH   2  27
BRANCH   3  36
ATOM     36  C   UNL d   1      10.265   3.702 -15.361  0.00  0.00     0.002 A 
ATOM     37  C   UNL d   1      10.255   4.690 -16.365  0.00  0.00     0.000 A 
ATOM     38  C   UNL d   1      11.369   5.534 -16.555  0.00  0.00     0.000 A 
ATOM     39  C   UNL d   1      12.506   5.385 -15.739  0.00  0.00     0.000 A 
ATOM     40  C   UNL d   1      12.522   4.410 -14.728  0.00  0.00     0.000 A 
ATOM     41  C   UNL d   1      11.404   3.571 -14.539  0.00  0.00     0.000 A 
ENDBRANCH   3  36
TORSDOF 12
