REMARK  3 active torsions:
REMARK  status: ('A' for Active; 'I' for Inactive)
REMARK    1  A    between atoms: C_5  and  N_6 
REMARK    2  A    between atoms: N_12  and  C_13 
REMARK    3  A    between atoms: C_13  and  C_14 
ROOT
ATOM      1  N   UNL d   1      11.104   7.506  -7.297  0.00  0.00    -0.250 NA
ATOM      2  C   UNL d   1      10.100   6.463  -7.513  0.00  0.00     0.110 C 
ATOM      3  C   UNL d   1       9.095   7.111  -8.474  0.00  0.00     0.237 C 
ATOM      4  C   UNL d   1       9.171   8.571  -8.030  0.00  0.00     0.053 C 
ATOM      5  C   UNL d   1      10.678   8.576  -8.198  0.00  0.00     0.097 C 
ATOM      6  C   UNL d   1      10.829   8.075  -9.643  0.00  0.00     0.267 C 
ATOM      7  N   UNL d   1       9.657   7.216  -9.823  0.00  0.00     0.142 N 
ENDROOT
BRANCH   7   8
ATOM      8  C   UNL d   1       9.851   5.985 -10.574  0.00  0.00     0.278 C 
BRANCH   8   9
ATOM      9  C   UNL d   1       8.756   5.373 -11.387  0.00  0.00     0.033 A 
ATOM     10  C   UNL d   1       8.917   4.481 -12.504  0.00  0.00     0.035 A 
ATOM     11  C   UNL d   1       7.626   4.158 -13.005  0.00  0.00     0.162 A 
ATOM     12  C   UNL d   1       9.996   3.879 -13.189  0.00  0.00     0.004 A 
ATOM     13  N   UNL d   1       6.733   4.844 -12.214  0.00  0.00    -0.226 NA
ATOM     14  N   UNL d   1       7.324   3.323 -14.042  0.00  0.00    -0.225 NA
ATOM     15  C   UNL d   1       7.411   5.572 -11.249  0.00  0.00     0.098 A 
ATOM     16  C   UNL d   1       8.399   2.776 -14.649  0.00  0.00     0.101 A 
ATOM     17  C   UNL d   1       9.737   3.018 -14.273  0.00  0.00     0.021 A 
ENDBRANCH   8   9
ENDBRANCH   7   8
BRANCH   1  18
ATOM     18  C   UNL d   1      11.423   7.766  -5.953  0.00  0.00     0.037 A 
ATOM     19  C   UNL d   1      11.664   9.071  -5.461  0.00  0.00     0.012 A 
ATOM     20  C   UNL d   1      12.032   9.249  -4.112  0.00  0.00     0.012 A 
ATOM     21  C   UNL d   1      12.174   8.148  -3.259  0.00  0.00     0.058 A 
ATOM     22 CL   UNL d   1      12.655   8.391  -1.636  0.00  0.00    -0.082 Cl
ATOM     23  C   UNL d   1      11.929   6.852  -3.727  0.00  0.00     0.012 A 
ATOM     24  C   UNL d   1      11.562   6.673  -5.069  0.00  0.00     0.012 A 
ENDBRANCH   1  18
TORSDOF 3
