REMARK  7 active torsions:
REMARK  status: ('A' for Active; 'I' for Inactive)
REMARK    1  A    between atoms: O_2  and  C_3 
REMARK    2  A    between atoms: C_12  and  O_13 
REMARK    3  A    between atoms: O_13  and  C_14 
REMARK    4  A    between atoms: C_14  and  C_15 
REMARK    5  A    between atoms: C_15  and  C_16 
REMARK    6  A    between atoms: N_19  and  C_20 
REMARK    7  A    between atoms: C_20  and  C_21 
ROOT
ATOM      1  C   UNL d   1       8.847   4.556 -12.845  0.00  0.00     0.149 C 
ENDROOT
BRANCH   1   2
ATOM      2  O   UNL d   1       9.071   4.620 -14.234  0.00  0.00    -0.329 OA
BRANCH   2   3
ATOM      3  C   UNL d   1       9.145   3.414 -14.864  0.00  0.00     0.116 A 
ATOM      4  C   UNL d   1       8.133   2.419 -14.804  0.00  0.00     0.116 A 
ATOM      5  C   UNL d   1       8.334   1.210 -15.512  0.00  0.00     0.026 A 
ATOM      6  C   UNL d   1       9.503   1.014 -16.279  0.00  0.00     0.002 A 
ATOM      7  C   UNL d   1      10.494   2.026 -16.342  0.00  0.00     0.002 A 
ATOM      8  C   UNL d   1       9.682  -0.174 -17.002  0.00  0.00     0.000 A 
ATOM      9  C   UNL d   1      11.659   1.829 -17.107  0.00  0.00     0.000 A 
ATOM     10  C   UNL d   1      10.295   3.225 -15.641  0.00  0.00     0.026 A 
ATOM     11  C   UNL d   1      11.837   0.625 -17.818  0.00  0.00     0.000 A 
ATOM     12  C   UNL d   1      10.847  -0.373 -17.766  0.00  0.00     0.000 A 
BRANCH   4  13
ATOM     13  O   UNL d   1       6.990   2.702 -14.076  0.00  0.00    -0.326 OA
ATOM     14  C   UNL d   1       6.049   1.661 -13.878  0.00  0.00     0.181 C 
ENDBRANCH   4  13
ENDBRANCH   2   3
ENDBRANCH   1   2
BRANCH   1  15
ATOM     15  C   UNL d   1       9.584   5.759 -12.256  0.00  0.00     0.033 C 
BRANCH  15  16
ATOM     16  C   UNL d   1       9.099   6.197 -10.859  0.00  0.00     0.006 C 
ATOM     17  C   UNL d   1       8.972   5.037  -9.856  0.00  0.00     0.035 C 
ATOM     18  C   UNL d   1       8.620   5.552  -8.456  0.00  0.00     0.251 C 
ATOM     19  N   UNL d   1       9.637   6.496  -7.977  0.00  0.00     0.141 N 
ATOM     20  C   UNL d   1       9.713   7.658  -8.861  0.00  0.00     0.251 C 
ATOM     21  C   UNL d   1      10.056   7.252 -10.288  0.00  0.00     0.035 C 
BRANCH  19  22
ATOM     22  C   UNL d   1       9.274   6.911  -6.618  0.00  0.00     0.277 C 
BRANCH  22  23
ATOM     23  C   UNL d   1      10.343   7.720  -5.893  0.00  0.00     0.011 A 
ATOM     24  C   UNL d   1      10.566   9.075  -6.229  0.00  0.00    -0.002 A 
ATOM     25  C   UNL d   1      11.606   9.793  -5.603  0.00  0.00    -0.000 A 
ATOM     26  C   UNL d   1      12.368   9.195  -4.576  0.00  0.00    -0.000 A 
ATOM     27  C   UNL d   1      12.101   7.870  -4.184  0.00  0.00    -0.000 A 
ATOM     28  C   UNL d   1      11.104   7.127  -4.864  0.00  0.00    -0.002 A 
ENDBRANCH  22  23
ENDBRANCH  19  22
ENDBRANCH  15  16
ENDBRANCH   1  15
TORSDOF 7
