REMARK  4 active torsions:
REMARK  status: ('A' for Active; 'I' for Inactive)
REMARK    1  A    between atoms: O_2  and  C_3 
REMARK    2  A    between atoms: C_8  and  N_9 
REMARK    3  A    between atoms: N_12  and  C_13 
REMARK    4  A    between atoms: C_13  and  C_14 
ROOT
ATOM      1  C   UNL d   1      13.275   4.900 -17.684  0.00  0.00    -0.006 A 
ATOM      2  C   UNL d   1      14.249   3.982 -18.209  0.00  0.00     0.061 A 
ATOM      3  C   UNL d   1      14.202   4.098 -19.630  0.00  0.00     0.050 A 
ATOM      4  C   UNL d   1      15.061   3.317 -20.508  0.00  0.00     0.097 C 
ATOM      5  N   UNL d   1      15.746   2.696 -21.203  0.00  0.00    -0.192 NA
ATOM      6  C   UNL d   1      13.245   5.043 -20.044  0.00  0.00     0.005 A 
ATOM      7  C   UNL d   1      12.948   5.382 -21.370  0.00  0.00     0.000 A 
ATOM      8  C   UNL d   1      11.971   6.332 -21.826  0.00  0.00     0.000 A 
ATOM      9  C   UNL d   1      11.071   7.145 -21.059  0.00  0.00    -0.000 A 
ATOM     10  C   UNL d   1      10.922   7.226 -19.635  0.00  0.00    -0.000 A 
ATOM     11  C   UNL d   1      11.641   6.526 -18.612  0.00  0.00    -0.001 A 
ATOM     12  C   UNL d   1      12.648   5.568 -18.770  0.00  0.00    -0.005 A 
ENDROOT
BRANCH   1  13
ATOM     13  C   UNL d   1      12.979   5.072 -16.203  0.00  0.00     0.273 C 
BRANCH  13  14
ATOM     14  N   UNL d   1      11.975   4.135 -15.688  0.00  0.00     0.145 N 
ATOM     15  C   UNL d   1      10.668   4.348 -16.325  0.00  0.00     0.275 C 
ATOM     16  C   UNL d   1       9.615   3.354 -15.814  0.00  0.00     0.137 C 
ATOM     17  N   UNL d   1       9.521   3.463 -14.368  0.00  0.00    -0.343 N 
ATOM     18  C   UNL d   1      10.783   3.371 -13.650  0.00  0.00     0.137 C 
ATOM     19  C   UNL d   1      11.812   4.358 -14.247  0.00  0.00     0.275 C 
BRANCH  17  20
ATOM     20  C   UNL d   1       8.305   3.750 -13.732  0.00  0.00     0.079 A 
ATOM     21  C   UNL d   1       8.179   4.815 -12.799  0.00  0.00     0.110 A 
ATOM     22  C   UNL d   1       6.928   5.030 -12.171  0.00  0.00     0.026 A 
ATOM     23  C   UNL d   1       5.825   4.210 -12.467  0.00  0.00     0.002 A 
ATOM     24  C   UNL d   1       5.950   3.174 -13.401  0.00  0.00     0.002 A 
ATOM     25  C   UNL d   1       7.184   2.949 -14.043  0.00  0.00     0.019 A 
BRANCH  21  26
ATOM     26  O   UNL d   1       9.284   5.614 -12.570  0.00  0.00    -0.327 OA
ATOM     27  C   UNL d   1       9.165   6.663 -11.622  0.00  0.00     0.181 C 
ENDBRANCH  21  26
ENDBRANCH  17  20
ENDBRANCH  13  14
ENDBRANCH   1  13
TORSDOF 4
