REMARK  6 active torsions:
REMARK  status: ('A' for Active; 'I' for Inactive)
REMARK    1  A    between atoms: C_3  and  N_4 
REMARK    2  A    between atoms: N_4  and  C_5 
REMARK    3  A    between atoms: N_4  and  C_19 
REMARK    4  A    between atoms: C_5  and  C_6 
REMARK    5  A    between atoms: C_6  and  N_7 
REMARK    6  A    between atoms: N_10  and  C_11 
ROOT
ATOM      1  C   UNL d   1       5.346   1.905 -11.884  0.00  0.00    -0.012 C 
ATOM      2  C   UNL d   1       5.637   3.064 -12.101  0.00  0.00    -0.042 C 
ATOM      3  C   UNL d   1       6.071   4.424 -12.490  0.00  0.00     0.326 C 
ENDROOT
BRANCH   3   4
ATOM      4  N   UNL d   1       7.482   4.507 -12.897  0.00  0.00     0.151 N 
BRANCH   4   5
ATOM      5  C   UNL d   1       8.361   4.637 -11.724  0.00  0.00     0.287 C 
BRANCH   5   6
ATOM      6  C   UNL d   1       8.412   6.014 -11.064  0.00  0.00     0.286 C 
BRANCH   6   7
ATOM      7  N   UNL d   1       9.532   6.161 -10.133  0.00  0.00     0.143 N 
ATOM      8  C   UNL d   1       9.975   7.558 -10.069  0.00  0.00     0.274 C 
ATOM      9  C   UNL d   1      11.179   7.765  -9.135  0.00  0.00     0.137 C 
ATOM     10  N   UNL d   1      10.863   7.240  -7.811  0.00  0.00    -0.344 N 
ATOM     11  C   UNL d   1      10.320   5.886  -7.782  0.00  0.00     0.137 C 
ATOM     12  C   UNL d   1       9.162   5.740  -8.774  0.00  0.00     0.274 C 
BRANCH  10  13
ATOM     13  C   UNL d   1      11.030   7.985  -6.627  0.00  0.00     0.056 A 
ATOM     14  C   UNL d   1      11.312   7.341  -5.398  0.00  0.00     0.017 A 
ATOM     15  C   UNL d   1      11.486   8.071  -4.219  0.00  0.00     0.002 A 
ATOM     16  C   UNL d   1      11.371   9.475  -4.224  0.00  0.00     0.000 A 
ATOM     17  C   UNL d   1      11.081  10.119  -5.443  0.00  0.00     0.002 A 
ATOM     18  C   UNL d   1      10.921   9.394  -6.627  0.00  0.00     0.017 A 
ENDBRANCH  10  13
ENDBRANCH   6   7
ENDBRANCH   5   6
ENDBRANCH   4   5
BRANCH   4  19
ATOM     19  C   UNL d   1       7.995   3.494 -13.863  0.00  0.00     0.225 C 
ATOM     20  C   UNL d   1       6.927   2.780 -14.756  0.00  0.00     0.059 C 
ATOM     21  C   UNL d   1       7.518   1.858 -15.789  0.00  0.00    -0.022 A 
ATOM     22  C   UNL d   1       8.880   1.918 -16.176  0.00  0.00    -0.026 A 
ATOM     23  C   UNL d   1       6.673   0.850 -16.294  0.00  0.00     0.023 A 
ATOM     24  C   UNL d   1       9.829   2.938 -15.556  0.00  0.00     0.028 C 
ATOM     25  C   UNL d   1       9.358   0.987 -17.129  0.00  0.00    -0.003 A 
ATOM     26  C   UNL d   1       9.114   4.065 -14.776  0.00  0.00     0.038 C 
ATOM     27  C   UNL d   1       8.480   0.018 -17.670  0.00  0.00     0.027 A 
ATOM     28  C   UNL d   1       7.143  -0.065 -17.245  0.00  0.00     0.131 A 
ATOM     29  O   UNL d   1       6.296  -1.004 -17.768  0.00  0.00    -0.190 OA
ENDBRANCH   4  19
ENDBRANCH   3   4
TORSDOF 6
