REMARK  6 active torsions:
REMARK  status: ('A' for Active; 'I' for Inactive)
REMARK       I    between atoms: C_2  and  N_3 
REMARK    1  A    between atoms: C_2  and  C_27 
REMARK    2  A    between atoms: N_3  and  C_4 
REMARK    3  A    between atoms: C_7  and  C_8 
REMARK    4  A    between atoms: C_8  and  C_9 
REMARK    5  A    between atoms: C_9  and  N_10 
REMARK    6  A    between atoms: C_13  and  C_14 
ROOT
ATOM      1  C   UNL d   1       7.581   4.279 -12.790  0.00  0.00     0.250 C 
ENDROOT
BRANCH   1   2
ATOM      2  C   UNL d   1       8.687   5.315 -12.566  0.00  0.00     0.035 C 
BRANCH   2   3
ATOM      3  C   UNL d   1       8.665   5.961 -11.177  0.00  0.00     0.002 C 
ATOM      4  C   UNL d   1       8.786   4.932 -10.032  0.00  0.00     0.002 C 
ATOM      5  C   UNL d   1       8.852   5.604  -8.659  0.00  0.00     0.024 C 
ATOM      6  C   UNL d   1      10.007   6.610  -8.564  0.00  0.00     0.106 C 
ATOM      7  C   UNL d   1       9.932   7.635  -9.710  0.00  0.00     0.024 C 
ATOM      8  C   UNL d   1       9.837   6.953 -11.073  0.00  0.00     0.002 C 
BRANCH   6   9
ATOM      9  N   UNL d   1       9.971   7.261  -7.262  0.00  0.00    -0.240 NA
ATOM     10  C   UNL d   1      10.898   8.106  -6.784  0.00  0.00     0.256 C 
ATOM     11  O   UNL d   1      11.863   8.497  -7.442  0.00  0.00    -0.270 OA
BRANCH  10  12
ATOM     12  C   UNL d   1      10.649   8.523  -5.383  0.00  0.00     0.147 A 
ATOM     13  C   UNL d   1      11.763   9.102  -4.535  0.00  0.00     0.273 A 
ATOM     14  C   UNL d   1      10.678  10.009  -5.062  0.00  0.00     0.082 A 
ATOM     15  F   UNL d   1      11.749   8.795  -3.189  0.00  0.00    -0.204 F 
ATOM     16  F   UNL d   1      13.032   9.258  -5.061  0.00  0.00    -0.204 F 
ENDBRANCH  10  12
ENDBRANCH   6   9
ENDBRANCH   2   3
ENDBRANCH   1   2
BRANCH   1  17
ATOM     17  N   UNL d   1       7.773   3.502 -14.007  0.00  0.00     0.137 N 
ATOM     18  C   UNL d   1       9.041   2.765 -13.992  0.00  0.00     0.251 C 
ATOM     19  C   UNL d   1       9.246   1.981 -15.284  0.00  0.00     0.040 C 
ATOM     20  C   UNL d   1       8.109   0.978 -15.526  0.00  0.00     0.028 C 
ATOM     21  C   UNL d   1       6.770   1.721 -15.354  0.00  0.00     0.040 C 
ATOM     22  C   UNL d   1       6.676   2.540 -14.074  0.00  0.00     0.251 C 
BRANCH  20  23
ATOM     23  C   UNL d   1       8.253   0.300 -16.901  0.00  0.00     0.002 A 
ATOM     24  C   UNL d   1       7.185   0.177 -17.813  0.00  0.00     0.115 A 
ATOM     25  C   UNL d   1       7.337  -0.408 -19.062  0.00  0.00     0.119 A 
ATOM     26  O   UNL d   1       5.894   0.588 -17.681  0.00  0.00    -0.300 OA
ATOM     27  C   UNL d   1       8.573  -0.922 -19.488  0.00  0.00     0.026 A 
ATOM     28  O   UNL d   1       6.152  -0.376 -19.727  0.00  0.00    -0.300 OA
ATOM     29  C   UNL d   1       9.665  -0.827 -18.599  0.00  0.00     0.002 A 
ATOM     30  C   UNL d   1       9.504  -0.233 -17.321  0.00  0.00    -0.002 A 
ATOM     31  C   UNL d   1       5.233   0.244 -18.864  0.00  0.00     0.304 A 
ENDBRANCH  20  23
ENDBRANCH   1  17
TORSDOF 6
