REMARK  8 active torsions:
REMARK  status: ('A' for Active; 'I' for Inactive)
REMARK    1  A    between atoms: C_2  and  C_3 
REMARK       I    between atoms: C_2  and  N_14 
REMARK    2  A    between atoms: C_3  and  C_4 
REMARK    3  A    between atoms: C_4  and  C_5 
REMARK    4  A    between atoms: C_5  and  C_6 
REMARK    5  A    between atoms: C_6  and  C_8 
REMARK    6  A    between atoms: N_14  and  C_15 
REMARK    7  A    between atoms: C_15  and  C_16 
REMARK    8  A    between atoms: C_16  and  C_17 
ROOT
ATOM      1  O   UNL d   1       7.211   5.398 -11.807  0.00  0.00    -0.271 OA
ATOM      2  C   UNL d   1       8.408   5.209 -12.014  0.00  0.00     0.251 C 
ATOM      3  N   UNL d   1       8.854   5.076 -13.267  0.00  0.00    -0.238 NA
ENDROOT
BRANCH   2   4
ATOM      4  C   UNL d   1       9.422   5.095 -10.883  0.00  0.00     0.090 C 
BRANCH   4   5
ATOM      5  C   UNL d   1       8.937   5.598  -9.514  0.00  0.00     0.013 C 
BRANCH   5   6
ATOM      6  C   UNL d   1      10.066   6.303  -8.740  0.00  0.00     0.038 C 
BRANCH   6   7
ATOM      7  C   UNL d   1       9.587   7.597  -8.063  0.00  0.00     0.174 C 
ATOM      8  O   UNL d   1       9.455   8.565  -9.089  0.00  0.00    -0.219 OA
BRANCH   7   9
ATOM      9  C   UNL d   1      10.524   8.029  -6.937  0.00  0.00     0.008 A 
ATOM     10  C   UNL d   1      11.303   9.199  -7.040  0.00  0.00    -0.002 A 
ATOM     11  C   UNL d   1      12.133   9.598  -5.981  0.00  0.00    -0.000 A 
ATOM     12  C   UNL d   1      12.208   8.821  -4.806  0.00  0.00    -0.000 A 
ATOM     13  C   UNL d   1      11.462   7.640  -4.708  0.00  0.00    -0.000 A 
ATOM     14  C   UNL d   1      10.605   7.250  -5.762  0.00  0.00    -0.002 A 
ENDBRANCH   7   9
ENDBRANCH   6   7
ENDBRANCH   5   6
ENDBRANCH   4   5
ENDBRANCH   2   4
BRANCH   3  15
ATOM     15  C   UNL d   1      10.119   4.485 -13.660  0.00  0.00     0.133 C 
BRANCH  15  16
ATOM     16  C   UNL d   1      10.015   3.877 -15.066  0.00  0.00     0.052 C 
BRANCH  16  17
ATOM     17  C   UNL d   1       9.478   2.453 -15.108  0.00  0.00    -0.024 A 
ATOM     18  C   UNL d   1       8.143   2.043 -14.647  0.00  0.00    -0.008 A 
ATOM     19  C   UNL d   1       8.028   0.657 -14.822  0.00  0.00    -0.018 A 
ATOM     20  C   UNL d   1       7.053   2.788 -14.127  0.00  0.00    -0.001 A 
ATOM     21  C   UNL d   1       9.280   0.096 -15.476  0.00  0.00     0.052 A 
ATOM     22  C   UNL d   1       6.856  -0.042 -14.452  0.00  0.00    -0.004 A 
ATOM     23  C   UNL d   1      10.116   1.363 -15.583  0.00  0.00    -0.026 A 
ATOM     24  C   UNL d   1       5.803   0.687 -13.842  0.00  0.00    -0.000 A 
ATOM     25  C   UNL d   1       5.925   2.086 -13.663  0.00  0.00    -0.000 A 
ENDBRANCH  16  17
ENDBRANCH  15  16
ENDBRANCH   3  15
TORSDOF 8
