REMARK  6 active torsions:
REMARK  status: ('A' for Active; 'I' for Inactive)
REMARK    1  A    between atoms: O_2  and  C_3 
REMARK    2  A    between atoms: C_9  and  C_10 
REMARK    3  A    between atoms: C_10  and  C_11 
REMARK    4  A    between atoms: C_11  and  N_12 
REMARK    5  A    between atoms: N_16  and  S_17 
REMARK    6  A    between atoms: S_17  and  C_20 
ROOT
ATOM      1  C   UNL d   1      11.042   3.449 -15.288  0.00  0.00     0.094 A 
ATOM      2  C   UNL d   1      11.138   4.665 -14.585  0.00  0.00     0.026 A 
ATOM      3  C   UNL d   1      10.044   5.151 -13.842  0.00  0.00     0.020 A 
ATOM      4  C   UNL d   1       8.849   4.415 -13.804  0.00  0.00     0.075 A 
ATOM      5  C   UNL d   1       8.715   3.176 -14.494  0.00  0.00     0.016 A 
ATOM      6  C   UNL d   1       9.832   2.716 -15.231  0.00  0.00     0.025 A 
ATOM      7  C   UNL d   1       7.389   2.674 -14.267  0.00  0.00    -0.000 A 
ATOM      8  C   UNL d   1       6.770   3.591 -13.454  0.00  0.00     0.087 A 
ATOM      9  N   UNL d   1       7.634   4.638 -13.177  0.00  0.00    -0.231 N 
ENDROOT
BRANCH   9  10
ATOM     10  S   UNL d   1       7.233   5.966 -12.157  0.00  0.00     0.271 S 
ATOM     11  O   UNL d   1       7.534   7.188 -12.906  0.00  0.00    -0.200 OA
ATOM     12  O   UNL d   1       5.868   5.682 -11.690  0.00  0.00    -0.200 OA
BRANCH  10  13
ATOM     13  C   UNL d   1       8.399   5.841 -10.829  0.00  0.00     0.104 A 
ATOM     14  C   UNL d   1       9.425   6.801 -10.696  0.00  0.00     0.013 A 
ATOM     15  C   UNL d   1      10.301   6.730  -9.602  0.00  0.00     0.001 A 
ATOM     16  C   UNL d   1      10.162   5.685  -8.666  0.00  0.00     0.000 A 
ATOM     17  C   UNL d   1       9.156   4.710  -8.836  0.00  0.00     0.001 A 
ATOM     18  C   UNL d   1       8.270   4.791  -9.917  0.00  0.00     0.013 A 
ENDBRANCH  10  13
ENDBRANCH   9  10
BRANCH   7  19
ATOM     19  C   UNL d   1       6.776   1.412 -14.797  0.00  0.00     0.063 C 
BRANCH  19  20
ATOM     20  C   UNL d   1       6.809   1.357 -16.335  0.00  0.00     0.255 C 
BRANCH  20  21
ATOM     21  N   UNL d   1       5.860   0.386 -16.873  0.00  0.00     0.142 N 
ATOM     22  C   UNL d   1       5.790   0.540 -18.320  0.00  0.00     0.285 C 
ATOM     23  C   UNL d   1       6.249  -0.983 -16.567  0.00  0.00     0.285 C 
ENDBRANCH  20  21
ENDBRANCH  19  20
ENDBRANCH   7  19
BRANCH   1  24
ATOM     24  O   UNL d   1      12.150   3.053 -16.004  0.00  0.00    -0.328 OA
ATOM     25  C   UNL d   1      12.071   1.846 -16.750  0.00  0.00     0.181 C 
ENDBRANCH   1  24
TORSDOF 6
