REMARK  1 active torsions:
REMARK  status: ('A' for Active; 'I' for Inactive)
REMARK    1  A    between atoms: C_16  and  N_17 
REMARK       I    between atoms: N_17  and  C_18 
ROOT
ATOM      1  C   UNL d   1       6.003  -1.056 -14.410  0.00  0.00     0.286 C 
ATOM      2  N   UNL d   1       6.253   0.216 -13.757  0.00  0.00     0.142 N 
ATOM      3  C   UNL d   1       4.979   0.881 -13.719  0.00  0.00     0.255 C 
ATOM      4  C   UNL d   1       5.121   2.123 -12.847  0.00  0.00     0.061 C 
ATOM      5  C   UNL d   1       6.228   3.075 -13.267  0.00  0.00    -0.022 A 
ATOM      6  C   UNL d   1       6.341   4.408 -12.838  0.00  0.00    -0.004 A 
ATOM      7  C   UNL d   1       7.469   5.160 -13.192  0.00  0.00    -0.000 A 
ATOM      8  C   UNL d   1       8.486   4.585 -13.978  0.00  0.00    -0.000 A 
ATOM      9  C   UNL d   1       8.431   3.247 -14.436  0.00  0.00    -0.003 A 
ATOM     10  C   UNL d   1       7.278   2.518 -14.042  0.00  0.00     0.005 A 
ATOM     11  C   UNL d   1       7.188   1.054 -14.526  0.00  0.00     0.246 C 
ATOM     12  C   UNL d   1       8.586   0.391 -14.603  0.00  0.00     0.064 C 
ATOM     13  C   UNL d   1       9.609   1.245 -15.318  0.00  0.00    -0.020 A 
ATOM     14  C   UNL d   1      10.640   0.640 -16.066  0.00  0.00    -0.003 A 
ATOM     15  C   UNL d   1      11.573   1.434 -16.755  0.00  0.00     0.019 A 
ATOM     16  C   UNL d   1      11.499   2.836 -16.670  0.00  0.00     0.086 A 
ATOM     17  C   UNL d   1      10.453   3.432 -15.929  0.00  0.00     0.019 A 
ATOM     18  C   UNL d   1       9.512   2.647 -15.234  0.00  0.00    -0.003 A 
ENDROOT
BRANCH  16  19
ATOM     19  N   UNL d   1      12.441   3.616 -17.384  0.00  0.00    -0.190 NA
ATOM     20  C   UNL d   1      13.011   4.748 -16.944  0.00  0.00     0.387 C 
ATOM     21  N   UNL d   1      13.823   5.298 -17.841  0.00  0.00    -0.084 N 
ATOM     22  O   UNL d   1      12.833   5.249 -15.836  0.00  0.00    -0.241 OA
ENDBRANCH  16  19
TORSDOF 1
