REMARK  8 active torsions:
REMARK  status: ('A' for Active; 'I' for Inactive)
REMARK    1  A    between atoms: C_2  and  C_3 
REMARK    2  A    between atoms: C_3  and  N_4 
REMARK    3  A    between atoms: N_4  and  C_5 
REMARK    4  A    between atoms: N_4  and  C_12 
REMARK    5  A    between atoms: C_5  and  C_6 
REMARK    6  A    between atoms: C_6  and  C_7 
REMARK    7  A    between atoms: C_12  and  C_13 
REMARK    8  A    between atoms: C_13  and  C_14 
ROOT
ATOM      1  N   UNL d   1       8.262   5.669 -12.248  0.00  0.00     0.138 N 
ENDROOT
BRANCH   1   2
ATOM      2  C   UNL d   1       9.226   5.750 -13.354  0.00  0.00     0.250 C 
BRANCH   2   3
ATOM      3  C   UNL d   1      10.252   4.571 -13.430  0.00  0.00     0.035 C 
ATOM      4  C   UNL d   1       9.777   3.244 -14.037  0.00  0.00     0.002 C 
ENDBRANCH   2   3
ENDBRANCH   1   2
BRANCH   1   5
ATOM      5  C   UNL d   1       8.910   5.943 -10.967  0.00  0.00     0.255 C 
BRANCH   5   6
ATOM      6  C   UNL d   1       9.489   7.375 -10.872  0.00  0.00     0.062 C 
BRANCH   6   7
ATOM      7  C   UNL d   1      10.119   7.656  -9.548  0.00  0.00    -0.013 A 
ATOM      8  C   UNL d   1       9.464   7.505  -8.353  0.00  0.00     0.031 A 
ATOM      9  S   UNL d   1      10.474   7.931  -7.003  0.00  0.00    -0.086 SA
ATOM     10  C   UNL d   1      11.797   8.311  -8.073  0.00  0.00     0.035 A 
ATOM     11  C   UNL d   1      11.459   8.116  -9.385  0.00  0.00     0.003 A 
ENDBRANCH   6   7
ENDBRANCH   5   6
ENDBRANCH   1   5
BRANCH   1  12
ATOM     12  C   UNL d   1       7.546   4.391 -12.201  0.00  0.00     0.255 C 
BRANCH  12  13
ATOM     13  C   UNL d   1       6.817   4.078 -13.557  0.00  0.00     0.062 C 
BRANCH  13  14
ATOM     14  C   UNL d   1       6.460   2.636 -13.804  0.00  0.00    -0.013 A 
ATOM     15  C   UNL d   1       5.457   2.007 -13.113  0.00  0.00     0.031 A 
ATOM     16  S   UNL d   1       5.220   0.350 -13.624  0.00  0.00    -0.086 SA
ATOM     17  C   UNL d   1       6.534   0.470 -14.742  0.00  0.00     0.035 A 
ATOM     18  C   UNL d   1       7.070   1.732 -14.751  0.00  0.00     0.003 A 
ENDBRANCH  13  14
ENDBRANCH  12  13
ENDBRANCH   1  12
TORSDOF 8
