REMARK  6 active torsions:
REMARK  status: ('A' for Active; 'I' for Inactive)
REMARK    1  A    between atoms: C_6  and  C_7 
REMARK    2  A    between atoms: C_10  and  S_11 
REMARK    3  A    between atoms: S_11  and  C_12 
REMARK    4  A    between atoms: C_12  and  C_13 
REMARK    5  A    between atoms: C_13  and  C_14 
REMARK    6  A    between atoms: C_14  and  N_16 
ROOT
ATOM      1  C   UNL d   1      13.396   1.811 -22.788  0.00  0.00     0.067 C 
ENDROOT
BRANCH   1   2
ATOM      2  S   UNL d   1      14.477   3.272 -22.719  0.00  0.00    -0.075 SA
BRANCH   2   3
ATOM      3  C   UNL d   1      14.457   3.506 -20.970  0.00  0.00     0.193 A 
ATOM      4  N   UNL d   1      15.066   2.702 -20.095  0.00  0.00    -0.122 NA
ATOM      5  N   UNL d   1      14.786   3.245 -18.852  0.00  0.00    -0.128 NA
ATOM      6  C   UNL d   1      14.021   4.317 -19.082  0.00  0.00     0.167 A 
ATOM      7  N   UNL d   1      13.769   4.508 -20.393  0.00  0.00    -0.289 N 
ATOM      8  C   UNL d   1      12.947   5.525 -21.025  0.00  0.00     0.134 C 
BRANCH   6   9
ATOM      9  C   UNL d   1      13.530   5.186 -18.013  0.00  0.00     0.037 A 
ATOM     10  C   UNL d   1      12.666   4.712 -16.992  0.00  0.00     0.021 A 
ATOM     11  C   UNL d   1      12.212   3.373 -16.955  0.00  0.00     0.003 A 
ATOM     12  C   UNL d   1      12.222   5.597 -15.962  0.00  0.00     0.081 A 
ATOM     13  C   UNL d   1      11.358   2.961 -15.917  0.00  0.00     0.015 A 
ATOM     14  C   UNL d   1      10.986   3.907 -14.943  0.00  0.00     0.059 A 
ATOM     15  C   UNL d   1      10.066   3.516 -13.807  0.00  0.00     0.052 C 
ATOM     16  N   UNL d   1      11.415   5.185 -14.960  0.00  0.00    -0.250 NA
ATOM     17  C   UNL d   1      12.647   6.940 -15.998  0.00  0.00     0.019 A 
ATOM     18  C   UNL d   1      13.489   7.417 -17.020  0.00  0.00     0.002 A 
ATOM     19  C   UNL d   1      13.932   6.536 -18.023  0.00  0.00     0.003 A 
ENDBRANCH   6   9
ENDBRANCH   2   3
ENDBRANCH   1   2
BRANCH   1  20
ATOM     20  C   UNL d   1      11.973   2.099 -22.271  0.00  0.00     0.045 C 
BRANCH  20  21
ATOM     21  C   UNL d   1      11.050   0.867 -22.096  0.00  0.00     0.220 C 
ATOM     22  C   UNL d   1      11.766  -0.382 -21.533  0.00  0.00     0.035 C 
BRANCH  21  23
ATOM     23  N   UNL d   1       9.849   1.226 -21.321  0.00  0.00     0.136 N 
ATOM     24  C   UNL d   1      10.098   1.402 -19.880  0.00  0.00     0.255 C 
ATOM     25  C   UNL d   1       9.004   2.211 -19.163  0.00  0.00     0.061 C 
ATOM     26  C   UNL d   1       7.807   1.372 -18.759  0.00  0.00    -0.024 A 
ATOM     27  C   UNL d   1       7.022   0.709 -19.743  0.00  0.00    -0.024 A 
ATOM     28  C   UNL d   1       7.488   1.246 -17.384  0.00  0.00    -0.000 A 
ATOM     29  C   UNL d   1       7.362   0.827 -21.220  0.00  0.00     0.061 C 
ATOM     30  C   UNL d   1       5.914  -0.087 -19.358  0.00  0.00    -0.007 A 
ATOM     31  C   UNL d   1       8.755   0.282 -21.588  0.00  0.00     0.255 C 
ATOM     32  C   UNL d   1       5.628  -0.200 -17.989  0.00  0.00     0.004 A 
ATOM     33  C   UNL d   1       4.537  -0.975 -17.298  0.00  0.00     0.131 A 
ATOM     34  C   UNL d   1       6.389   0.443 -17.036  0.00  0.00     0.053 A 
ATOM     35  N   UNL d   1       4.792  -0.666 -15.879  0.00  0.00    -0.311 N 
ATOM     36  C   UNL d   1       5.860   0.138 -15.685  0.00  0.00     0.257 A 
ATOM     37  C   UNL d   1       3.940  -1.201 -14.829  0.00  0.00     0.129 C 
ATOM     38  O   UNL d   1       6.306   0.572 -14.624  0.00  0.00    -0.267 OA
ENDBRANCH  21  23
ENDBRANCH  20  21
ENDBRANCH   1  20
TORSDOF 6
