REMARK  7 active torsions:
REMARK  status: ('A' for Active; 'I' for Inactive)
REMARK    1  A    between atoms: O_2  and  C_3 
REMARK    2  A    between atoms: C_8  and  N_9 
REMARK    3  A    between atoms: N_12  and  C_13 
REMARK    4  A    between atoms: C_18  and  N_19 
REMARK    5  A    between atoms: N_19  and  C_20 
REMARK    6  A    between atoms: C_20  and  C_21 
REMARK    7  A    between atoms: C_21  and  C_22 
ROOT
ATOM      1  C   UNL d   1       8.917   5.312 -12.067  0.00  0.00     0.758 C 
ATOM      2  N   UNL d   1       8.794   6.588 -12.447  0.00  0.00     0.135 NA
ATOM      3  C   UNL d   1       9.205   7.430 -11.508  0.00  0.00     0.799 C 
ATOM      4  N   UNL d   1       9.065   8.755 -11.784  0.00  0.00     0.063 N 
ATOM      5  N   UNL d   1       9.716   7.146 -10.309  0.00  0.00     0.136 NA
ATOM      6  C   UNL d   1       9.650   5.842 -10.040  0.00  0.00     0.776 C 
ATOM      7  N   UNL d   1       9.316   4.860 -10.877  0.00  0.00     0.133 NA
ENDROOT
BRANCH   1   8
ATOM      8  N   UNL d   1       8.622   4.370 -13.030  0.00  0.00    -0.178 N 
ATOM      9  C   UNL d   1       7.372   4.479 -13.755  0.00  0.00     0.144 C 
ATOM     10  C   UNL d   1       6.868   3.105 -14.204  0.00  0.00     0.126 C 
ATOM     11  N   UNL d   1       7.869   2.354 -14.968  0.00  0.00    -0.343 N 
ATOM     12  C   UNL d   1       9.274   2.736 -14.821  0.00  0.00     0.126 C 
ATOM     13  C   UNL d   1       9.564   3.315 -13.414  0.00  0.00     0.144 C 
BRANCH  11  14
ATOM     14  C   UNL d   1       7.482   1.294 -15.825  0.00  0.00     0.079 A 
ATOM     15  C   UNL d   1       6.411   0.416 -15.493  0.00  0.00     0.110 A 
ATOM     16  C   UNL d   1       6.048  -0.616 -16.396  0.00  0.00     0.026 A 
ATOM     17  C   UNL d   1       6.741  -0.803 -17.604  0.00  0.00     0.002 A 
ATOM     18  C   UNL d   1       7.803   0.050 -17.927  0.00  0.00     0.002 A 
ATOM     19  C   UNL d   1       8.170   1.093 -17.049  0.00  0.00     0.019 A 
BRANCH  15  20
ATOM     20  O   UNL d   1       5.784   0.575 -14.272  0.00  0.00    -0.327 OA
ATOM     21  C   UNL d   1       4.653  -0.216 -13.973  0.00  0.00     0.181 C 
ENDBRANCH  15  20
ENDBRANCH  11  14
ENDBRANCH   1   8
BRANCH   6  22
ATOM     22  N   UNL d   1       9.950   5.427  -8.761  0.00  0.00    -0.085 NA
BRANCH  22  23
ATOM     23  C   UNL d   1      10.708   6.232  -7.814  0.00  0.00     0.150 C 
BRANCH  23  24
ATOM     24  C   UNL d   1       9.769   7.063  -6.952  0.00  0.00     0.055 C 
BRANCH  24  25
ATOM     25  C   UNL d   1      10.488   8.080  -6.133  0.00  0.00     0.000 A 
ATOM     26  C   UNL d   1      11.187   7.891  -4.890  0.00  0.00     0.015 A 
ATOM     27  C   UNL d   1      11.605   9.169  -4.422  0.00  0.00     0.081 A 
ATOM     28  C   UNL d   1      11.481   6.779  -4.077  0.00  0.00     0.001 A 
ATOM     29  N   UNL d   1      11.195  10.068  -5.381  0.00  0.00    -0.244 NA
ATOM     30  C   UNL d   1      12.260   9.329  -3.190  0.00  0.00     0.019 A 
ATOM     31  C   UNL d   1      10.562   9.412  -6.421  0.00  0.00     0.095 A 
ATOM     32  C   UNL d   1      12.545   8.207  -2.402  0.00  0.00     0.002 A 
ATOM     33  C   UNL d   1      12.154   6.926  -2.845  0.00  0.00     0.000 A 
ENDBRANCH  24  25
ENDBRANCH  23  24
ENDBRANCH  22  23
ENDBRANCH   6  22
TORSDOF 7
