REMARK  11 active torsions:
REMARK  status: ('A' for Active; 'I' for Inactive)
REMARK    1  A    between atoms: N_11  and  C_12 
REMARK    2  A    between atoms: C_12  and  C_13 
REMARK    3  A    between atoms: C_13  and  C_14 
REMARK    4  A    between atoms: C_14  and  N_15 
REMARK    5  A    between atoms: C_18  and  C_19 
REMARK    6  A    between atoms: C_19  and  C_20 
REMARK    7  A    between atoms: C_20  and  C_21 
REMARK    8  A    between atoms: C_21  and  C_22 
REMARK    9  A    between atoms: C_22  and  C_23 
REMARK   10  A    between atoms: C_23  and  C_24 
REMARK   11  A    between atoms: C_24  and  C_25 
ROOT
ATOM      1  N   UNL d   1       6.783   3.186 -13.277  0.00  0.00     0.137 N 
ATOM      2  C   UNL d   1       6.012   4.429 -13.344  0.00  0.00     0.250 C 
ATOM      3  C   UNL d   1       6.634   5.478 -12.409  0.00  0.00     0.035 C 
ATOM      4  C   UNL d   1       8.124   5.724 -12.724  0.00  0.00     0.004 C 
ATOM      5  C   UNL d   1       8.873   4.387 -12.816  0.00  0.00     0.035 C 
ATOM      6  C   UNL d   1       8.158   3.411 -13.742  0.00  0.00     0.250 C 
ENDROOT
BRANCH   1   7
ATOM      7  C   UNL d   1       6.157   2.160 -14.093  0.00  0.00     0.252 C 
BRANCH   7   8
ATOM      8  C   UNL d   1       6.684   0.747 -13.764  0.00  0.00     0.060 C 
BRANCH   8   9
ATOM      9  C   UNL d   1       6.440  -0.224 -14.924  0.00  0.00     0.111 C 
BRANCH   9  10
ATOM     10  N   UNL d   1       7.113   0.145 -16.202  0.00  0.00    -0.299 N 
ATOM     11  C   UNL d   1       8.460   0.382 -16.236  0.00  0.00     0.238 C 
ATOM     12  O   UNL d   1       9.204   0.311 -15.258  0.00  0.00    -0.272 OA
ATOM     13  C   UNL d   1       9.132   0.673 -17.585  0.00  0.00     0.093 C 
ATOM     14  C   UNL d   1       8.198   1.398 -18.565  0.00  0.00     0.038 C 
ATOM     15  C   UNL d   1       6.820   0.756 -18.597  0.00  0.00    -0.006 A 
ATOM     16  C   UNL d   1       6.330   0.138 -17.418  0.00  0.00     0.058 A 
ATOM     17  C   UNL d   1       6.046   0.787 -19.775  0.00  0.00    -0.003 A 
ATOM     18  C   UNL d   1       5.052  -0.474 -17.466  0.00  0.00     0.017 A 
ATOM     19  C   UNL d   1       4.268  -0.420 -18.636  0.00  0.00     0.002 A 
ATOM     20  C   UNL d   1       4.761   0.208 -19.797  0.00  0.00    -0.000 A 
ENDBRANCH   9  10
ENDBRANCH   8   9
ENDBRANCH   7   8
ENDBRANCH   1   7
BRANCH   4  21
ATOM     21  C   UNL d   1       8.789   6.674 -11.713  0.00  0.00     0.000 C 
BRANCH  21  22
ATOM     22  C   UNL d   1       8.913   6.081 -10.294  0.00  0.00     0.000 C 
BRANCH  22  23
ATOM     23  C   UNL d   1       9.527   7.062  -9.307  0.00  0.00     0.000 C 
BRANCH  23  24
ATOM     24  C   UNL d   1       9.325   6.607  -7.855  0.00  0.00     0.000 C 
BRANCH  24  25
ATOM     25  C   UNL d   1       9.490   7.766  -6.866  0.00  0.00     0.003 C 
BRANCH  25  26
ATOM     26  C   UNL d   1      10.956   8.189  -6.696  0.00  0.00     0.036 C 
BRANCH  26  27
ATOM     27  C   UNL d   1      11.121   9.366  -5.728  0.00  0.00     0.182 C 
ATOM     28  O   UNL d   1      12.486   9.608  -5.482  0.00  0.00    -0.221 OA
ENDBRANCH  26  27
ENDBRANCH  25  26
ENDBRANCH  24  25
ENDBRANCH  23  24
ENDBRANCH  22  23
ENDBRANCH  21  22
ENDBRANCH   4  21
TORSDOF 11
