REMARK  4 active torsions:
REMARK  status: ('A' for Active; 'I' for Inactive)
REMARK    1  A    between atoms: O_2  and  C_3 
REMARK    2  A    between atoms: C_9  and  C_10 
REMARK    3  A    between atoms: N_13  and  C_14 
REMARK    4  A    between atoms: C_14  and  C_15 
ROOT
ATOM      1  C   UNL d   1      10.301   7.572  -8.023  0.00  0.00    -0.021 C 
ATOM      2  C   UNL d   1      10.209   7.849  -9.345  0.00  0.00     0.005 C 
ATOM      3  C   UNL d   1       9.556   6.940 -10.380  0.00  0.00     0.277 C 
ATOM      4  N   UNL d   1       9.225   5.602  -9.825  0.00  0.00     0.147 N 
ATOM      5  C   UNL d   1       8.702   5.697  -8.457  0.00  0.00     0.256 C 
ATOM      6  C   UNL d   1       9.729   6.279  -7.511  0.00  0.00     0.061 C 
ENDROOT
BRANCH   1   7
ATOM      7  C   UNL d   1      10.954   8.469  -7.062  0.00  0.00     0.017 A 
ATOM      8  C   UNL d   1      11.430   9.674  -7.424  0.00  0.00     0.099 A 
ATOM      9  N   UNL d   1      12.030  10.284  -6.334  0.00  0.00    -0.244 NA
ATOM     10  C   UNL d   1      12.064   9.411  -5.284  0.00  0.00     0.082 A 
ATOM     11  C   UNL d   1      12.667   9.514  -4.027  0.00  0.00     0.021 A 
ATOM     12  C   UNL d   1      11.387   8.220  -5.710  0.00  0.00     0.021 A 
ATOM     13  C   UNL d   1      12.556   8.467  -3.124  0.00  0.00     0.026 A 
ATOM     14  C   UNL d   1      11.924   7.268  -3.515  0.00  0.00     0.094 A 
ATOM     15  C   UNL d   1      11.366   7.144  -4.796  0.00  0.00     0.026 A 
BRANCH  14  16
ATOM     16  O   UNL d   1      11.803   6.209  -2.676  0.00  0.00    -0.328 OA
ATOM     17  C   UNL d   1      12.872   5.988  -1.803  0.00  0.00     0.181 C 
ENDBRANCH  14  16
ENDBRANCH   1   7
BRANCH   4  18
ATOM     18  C   UNL d   1       8.210   4.966 -10.655  0.00  0.00     0.283 C 
BRANCH  18  19
ATOM     19  C   UNL d   1       8.648   4.790 -12.064  0.00  0.00     0.041 A 
ATOM     20  S   UNL d   1       9.840   3.596 -12.506  0.00  0.00    -0.089 SA
ATOM     21  C   UNL d   1       9.810   4.085 -14.165  0.00  0.00     0.035 A 
ATOM     22  C   UNL d   1       8.930   5.111 -14.362  0.00  0.00     0.007 A 
ATOM     23  C   UNL d   1       8.280   5.527 -13.156  0.00  0.00     0.005 A 
ENDBRANCH  18  19
ENDBRANCH   4  18
TORSDOF 4
