REMARK  4 active torsions:
REMARK  status: ('A' for Active; 'I' for Inactive)
REMARK    1  A    between atoms: N_11  and  C_12 
REMARK    2  A    between atoms: C_12  and  C_13 
REMARK    3  A    between atoms: C_13  and  N_14 
REMARK    4  A    between atoms: N_17  and  C_18 
ROOT
ATOM      1  C   UNL d   1       9.857  -0.673 -18.849  0.00  0.00     0.275 C 
ENDROOT
BRANCH   1   2
ATOM      2  C   UNL d   1       8.924  -0.663 -20.083  0.00  0.00     0.146 C 
BRANCH   2   3
ATOM      3  N   UNL d   1       7.564  -1.088 -19.711  0.00  0.00    -0.276 N 
ATOM      4  C   UNL d   1       6.799  -0.163 -18.943  0.00  0.00     0.181 A 
ATOM      5  N   UNL d   1       5.592  -0.354 -18.498  0.00  0.00    -0.219 NA
ATOM      6  C   UNL d   1       5.071  -1.563 -18.895  0.00  0.00     0.117 A 
ATOM      7  S   UNL d   1       3.456  -2.025 -18.430  0.00  0.00    -0.070 SA
ATOM      8  C   UNL d   1       5.659  -2.535 -19.663  0.00  0.00     0.076 A 
ATOM      9  C   UNL d   1       3.596  -3.519 -19.319  0.00  0.00     0.038 A 
ATOM     10  C   UNL d   1       4.815  -3.652 -19.919  0.00  0.00    -0.010 A 
ATOM     11  C   UNL d   1       2.531  -4.558 -19.375  0.00  0.00     0.283 C 
ATOM     12  C   UNL d   1       5.123  -4.867 -20.748  0.00  0.00     0.062 C 
ATOM     13  C   UNL d   1       4.106  -5.997 -20.479  0.00  0.00     0.255 C 
ATOM     14  N   UNL d   1       2.739  -5.467 -20.510  0.00  0.00     0.144 N 
ATOM     15  C   UNL d   1       1.777  -6.559 -20.424  0.00  0.00     0.286 C 
ATOM     16  C   UNL d   1       7.051  -2.278 -20.122  0.00  0.00     0.264 A 
ATOM     17  O   UNL d   1       7.659  -3.083 -20.825  0.00  0.00    -0.267 OA
ENDBRANCH   2   3
ENDBRANCH   1   2
BRANCH   1  18
ATOM     18  N   UNL d   1      10.929   0.321 -18.939  0.00  0.00     0.143 N 
ATOM     19  C   UNL d   1      11.866   0.197 -17.809  0.00  0.00     0.274 C 
ATOM     20  C   UNL d   1      11.163   0.502 -16.468  0.00  0.00     0.137 C 
ATOM     21  N   UNL d   1      10.501   1.801 -16.544  0.00  0.00    -0.344 N 
ATOM     22  C   UNL d   1       9.677   2.074 -17.706  0.00  0.00     0.137 C 
ATOM     23  C   UNL d   1      10.452   1.716 -18.990  0.00  0.00     0.274 C 
BRANCH  21  24
ATOM     24  C   UNL d   1      10.627   2.744 -15.547  0.00  0.00     0.059 A 
ATOM     25  C   UNL d   1       9.539   3.157 -14.733  0.00  0.00     0.033 A 
ATOM     26  C   UNL d   1       9.758   4.196 -13.785  0.00  0.00     0.083 A 
ATOM     27  C   UNL d   1       8.257   2.556 -14.843  0.00  0.00     0.003 A 
ATOM     28  N   UNL d   1      10.966   4.784 -13.633  0.00  0.00    -0.244 NA
ATOM     29  C   UNL d   1       8.673   4.616 -12.986  0.00  0.00     0.019 A 
ATOM     30  C   UNL d   1      11.990   4.383 -14.411  0.00  0.00     0.100 A 
ATOM     31  C   UNL d   1      11.873   3.370 -15.377  0.00  0.00     0.038 A 
ATOM     32  C   UNL d   1       7.399   4.027 -13.109  0.00  0.00     0.002 A 
ATOM     33  C   UNL d   1       7.195   2.994 -14.036  0.00  0.00     0.000 A 
ENDBRANCH  21  24
ENDBRANCH   1  18
TORSDOF 4
