REMARK  6 active torsions:
REMARK  status: ('A' for Active; 'I' for Inactive)
REMARK    1  A    between atoms: C_4  and  C_5 
REMARK       I    between atoms: C_5  and  N_7 
REMARK    2  A    between atoms: N_7  and  C_8 
REMARK    3  A    between atoms: C_11  and  C_12 
REMARK    4  A    between atoms: C_12  and  C_13 
REMARK    5  A    between atoms: C_13  and  N_14 
REMARK    6  A    between atoms: N_17  and  C_18 
ROOT
ATOM      1  N   UNL d   1       8.756   4.040 -12.575  0.00  0.00     0.141 N 
ATOM      2  C   UNL d   1       9.951   4.128 -13.427  0.00  0.00     0.274 C 
ATOM      3  C   UNL d   1      10.093   2.860 -14.301  0.00  0.00     0.138 C 
ATOM      4  N   UNL d   1       8.864   2.635 -15.048  0.00  0.00    -0.330 N 
ATOM      5  C   UNL d   1       7.629   2.669 -14.284  0.00  0.00     0.138 C 
ATOM      6  C   UNL d   1       7.574   3.935 -13.425  0.00  0.00     0.274 C 
ENDROOT
BRANCH   1   7
ATOM      7  C   UNL d   1       8.605   5.242 -11.755  0.00  0.00     0.250 C 
BRANCH   7   8
ATOM      8  C   UNL d   1       9.221   4.999 -10.368  0.00  0.00     0.035 C 
BRANCH   8   9
ATOM      9  C   UNL d   1       9.265   6.278  -9.531  0.00  0.00     0.002 C 
ATOM     10  C   UNL d   1       9.419   5.951  -8.055  0.00  0.00     0.002 C 
ATOM     11  C   UNL d   1       9.427   7.235  -7.226  0.00  0.00     0.024 C 
ATOM     12  C   UNL d   1      10.596   8.147  -7.699  0.00  0.00     0.107 C 
ATOM     13  C   UNL d   1      10.433   8.517  -9.165  0.00  0.00     0.024 C 
ATOM     14  C   UNL d   1      10.368   7.256 -10.028  0.00  0.00     0.002 C 
BRANCH  12  15
ATOM     15  N   UNL d   1      10.714   9.331  -6.864  0.00  0.00    -0.236 NA
ATOM     16  C   UNL d   1      11.090   9.407  -5.587  0.00  0.00     0.274 C 
ATOM     17  O   UNL d   1      11.028  10.491  -5.006  0.00  0.00    -0.266 OA
BRANCH  16  18
ATOM     18  C   UNL d   1      11.477   8.132  -5.002  0.00  0.00     0.054 C 
ATOM     19  C   UNL d   1      11.914   7.894  -3.748  0.00  0.00    -0.039 C 
ATOM     20  C   UNL d   1      12.293   8.929  -2.696  0.00  0.00     0.026 C 
ATOM     21  C   UNL d   1      12.037   6.464  -3.280  0.00  0.00     0.026 C 
ENDBRANCH  16  18
ENDBRANCH  12  15
ENDBRANCH   8   9
ENDBRANCH   7   8
ENDBRANCH   1   7
BRANCH   4  22
ATOM     22  C   UNL d   1       8.867   2.414 -16.446  0.00  0.00     0.138 A 
ATOM     23  C   UNL d   1       7.964   1.536 -17.081  0.00  0.00     0.036 A 
ATOM     24  C   UNL d   1       8.024   1.354 -18.463  0.00  0.00     0.095 A 
ATOM     25  C   UNL d   1       6.919   0.616 -16.515  0.00  0.00     0.064 C 
ATOM     26  C   UNL d   1       8.959   2.068 -19.215  0.00  0.00     0.045 A 
ATOM     27  O   UNL d   1       7.121   0.443 -18.919  0.00  0.00    -0.331 OA
ATOM     28  C   UNL d   1       9.816   2.934 -18.522  0.00  0.00     0.103 A 
ATOM     29  N   UNL d   1       9.782   3.107 -17.172  0.00  0.00    -0.228 NA
ATOM     30  C   UNL d   1       6.307   0.030 -17.808  0.00  0.00     0.154 C 
ENDBRANCH   4  22
TORSDOF 6
