REMARK  10 active torsions:
REMARK  status: ('A' for Active; 'I' for Inactive)
REMARK    1  A    between atoms: O_2  and  C_3 
REMARK    2  A    between atoms: C_8  and  N_9 
REMARK    3  A    between atoms: N_12  and  C_13 
REMARK    4  A    between atoms: C_13  and  C_14 
REMARK    5  A    between atoms: C_14  and  C_15 
REMARK    6  A    between atoms: C_15  and  C_16 
REMARK    7  A    between atoms: C_16  and  N_17 
REMARK       I    between atoms: N_17  and  C_18 
REMARK    8  A    between atoms: C_18  and  C_20 
REMARK    9  A    between atoms: C_24  and  C_25 
REMARK   10  A    between atoms: C_26  and  C_27 
ROOT
ATOM      1  C   UNL d   1       8.095   4.133 -12.847  0.00  0.00     0.129 C 
ENDROOT
BRANCH   1   2
ATOM      2  C   UNL d   1       9.046   3.043 -13.357  0.00  0.00     0.029 C 
BRANCH   2   3
ATOM      3  C   UNL d   1       8.286   1.922 -14.079  0.00  0.00     0.037 C 
BRANCH   3   4
ATOM      4  C   UNL d   1       8.228   2.099 -15.607  0.00  0.00     0.251 C 
BRANCH   4   5
ATOM      5  N   UNL d   1       7.063   1.455 -16.208  0.00  0.00     0.141 N 
ATOM      6  C   UNL d   1       6.951   0.032 -15.839  0.00  0.00     0.274 C 
ATOM      7  C   UNL d   1       5.699  -0.602 -16.466  0.00  0.00     0.137 C 
ATOM      8  N   UNL d   1       5.707  -0.426 -17.907  0.00  0.00    -0.343 N 
ATOM      9  C   UNL d   1       5.935   0.946 -18.352  0.00  0.00     0.137 C 
ATOM     10  C   UNL d   1       7.193   1.534 -17.671  0.00  0.00     0.274 C 
BRANCH   8  11
ATOM     11  C   UNL d   1       5.645  -1.534 -18.770  0.00  0.00     0.079 A 
ATOM     12  C   UNL d   1       6.548  -1.685 -19.855  0.00  0.00     0.110 A 
ATOM     13  C   UNL d   1       6.404  -2.812 -20.709  0.00  0.00     0.026 A 
ATOM     14  C   UNL d   1       5.413  -3.778 -20.476  0.00  0.00     0.002 A 
ATOM     15  C   UNL d   1       4.549  -3.637 -19.380  0.00  0.00     0.002 A 
ATOM     16  C   UNL d   1       4.661  -2.520 -18.533  0.00  0.00     0.019 A 
BRANCH  12  17
ATOM     17  O   UNL d   1       7.530  -0.730 -20.018  0.00  0.00    -0.327 OA
ATOM     18  C   UNL d   1       8.483  -0.899 -21.059  0.00  0.00     0.181 C 
ENDBRANCH  12  17
ENDBRANCH   8  11
ENDBRANCH   4   5
ENDBRANCH   3   4
ENDBRANCH   2   3
ENDBRANCH   1   2
BRANCH   1  19
ATOM     19  N   UNL d   1       8.833   5.121 -12.073  0.00  0.00    -0.234 NA
ATOM     20  C   UNL d   1       8.802   5.270 -10.736  0.00  0.00     0.275 C 
ATOM     21  O   UNL d   1       8.261   4.490  -9.959  0.00  0.00    -0.266 OA
BRANCH  20  22
ATOM     22  C   UNL d   1       9.528   6.453 -10.187  0.00  0.00     0.058 A 
ATOM     23  C   UNL d   1       9.890   6.484  -8.824  0.00  0.00     0.013 A 
ATOM     24  C   UNL d   1      10.529   7.617  -8.292  0.00  0.00     0.042 A 
ATOM     25  C   UNL d   1      10.820   8.722  -9.103  0.00  0.00     0.008 A 
ATOM     26  C   UNL d   1      10.453   8.684 -10.448  0.00  0.00     0.001 A 
ATOM     27  C   UNL d   1       9.797   7.577 -10.997  0.00  0.00     0.005 A 
BRANCH  24  28
ATOM     28  C   UNL d   1      10.905   7.655  -6.907  0.00  0.00    -0.059 C 
ATOM     29  C   UNL d   1      11.244   7.748  -5.745  0.00  0.00    -0.059 C 
BRANCH  29  30
ATOM     30  C   UNL d   1      11.658   7.845  -4.375  0.00  0.00     0.042 A 
ATOM     31  C   UNL d   1      11.796   9.105  -3.761  0.00  0.00     0.008 A 
ATOM     32  C   UNL d   1      12.196   9.166  -2.418  0.00  0.00     0.001 A 
ATOM     33  C   UNL d   1      12.467   7.983  -1.709  0.00  0.00     0.000 A 
ATOM     34  C   UNL d   1      12.298   6.733  -2.320  0.00  0.00     0.001 A 
ATOM     35  C   UNL d   1      11.897   6.658  -3.661  0.00  0.00     0.008 A 
ENDBRANCH  29  30
ENDBRANCH  24  28
ENDBRANCH  20  22
ENDBRANCH   1  19
TORSDOF 10
