REMARK  9 active torsions:
REMARK  status: ('A' for Active; 'I' for Inactive)
REMARK       I    between atoms: C_2  and  N_3 
REMARK       I    between atoms: C_2  and  N_19 
REMARK    1  A    between atoms: N_3  and  C_4 
REMARK    2  A    between atoms: C_4  and  C_5 
REMARK    3  A    between atoms: C_5  and  C_6 
REMARK    4  A    between atoms: C_6  and  N_7 
REMARK    5  A    between atoms: N_10  and  C_11 
REMARK    6  A    between atoms: N_19  and  N_20 
REMARK    7  A    between atoms: N_20  and  C_21 
REMARK    8  A    between atoms: N_20  and  C_28 
REMARK    9  A    between atoms: C_21  and  C_22 
ROOT
ATOM      1  O   UNL d   1      10.206   5.502 -13.445  0.00  0.00    -0.241 OA
ATOM      2  C   UNL d   1       9.533   4.602 -12.957  0.00  0.00     0.381 C 
ATOM      3  N   UNL d   1       8.489   4.828 -12.145  0.00  0.00    -0.216 NA
ATOM      4  N   UNL d   1       9.734   3.279 -13.208  0.00  0.00    -0.110 NA
ENDROOT
BRANCH   3   5
ATOM      5  C   UNL d   1       8.062   6.214 -11.901  0.00  0.00     0.133 C 
BRANCH   5   6
ATOM      6  C   UNL d   1       9.063   6.992 -11.015  0.00  0.00     0.062 C 
BRANCH   6   7
ATOM      7  C   UNL d   1       9.153   6.389  -9.602  0.00  0.00     0.253 C 
BRANCH   7   8
ATOM      8  N   UNL d   1      10.235   6.992  -8.825  0.00  0.00     0.141 N 
ATOM      9  C   UNL d   1       9.745   8.191  -8.133  0.00  0.00     0.275 C 
ATOM     10  C   UNL d   1      10.879   8.835  -7.317  0.00  0.00     0.155 C 
ATOM     11  N   UNL d   1      11.432   7.870  -6.367  0.00  0.00    -0.179 N 
ATOM     12  C   UNL d   1      11.829   6.614  -6.986  0.00  0.00     0.155 C 
ATOM     13  C   UNL d   1      10.679   6.031  -7.814  0.00  0.00     0.275 C 
BRANCH  11  14
ATOM     14  C   UNL d   1      11.567   8.102  -5.004  0.00  0.00     0.727 A 
ATOM     15  N   UNL d   1      11.787   7.039  -4.224  0.00  0.00    -0.060 NA
ATOM     16  C   UNL d   1      11.937   7.244  -2.906  0.00  0.00     0.120 A 
ATOM     17  C   UNL d   1      11.891   8.539  -2.366  0.00  0.00     0.043 A 
ATOM     18  C   UNL d   1      11.678   9.588  -3.271  0.00  0.00     0.120 A 
ATOM     19  N   UNL d   1      11.499   9.368  -4.585  0.00  0.00    -0.060 NA
ENDBRANCH  11  14
ENDBRANCH   7   8
ENDBRANCH   6   7
ENDBRANCH   5   6
ENDBRANCH   3   5
BRANCH   4  20
ATOM     20  N   UNL d   1      10.551   2.740 -14.256  0.00  0.00    -0.243 N 
BRANCH  20  21
ATOM     21  C   UNL d   1      11.777   3.497 -14.468  0.00  0.00     0.154 C 
BRANCH  21  22
ATOM     22  C   UNL d   1      11.678   4.519 -15.632  0.00  0.00     0.002 A 
ATOM     23  C   UNL d   1      12.835   4.845 -16.363  0.00  0.00    -0.002 A 
ATOM     24  C   UNL d   1      12.699   5.621 -17.536  0.00  0.00    -0.000 A 
ATOM     25  C   UNL d   1      11.438   6.043 -18.001  0.00  0.00    -0.000 A 
ATOM     26  C   UNL d   1      10.274   5.719 -17.302  0.00  0.00    -0.000 A 
ATOM     27  C   UNL d   1      10.422   4.989 -16.107  0.00  0.00    -0.002 A 
ENDBRANCH  21  22
ENDBRANCH  20  21
BRANCH  20  28
ATOM     28  C   UNL d   1       9.982   1.992 -15.349  0.00  0.00     0.079 C 
ATOM     29  C   UNL d   1      10.307   2.255 -16.700  0.00  0.00     0.019 C 
ATOM     30  C   UNL d   1       9.587   1.740 -17.770  0.00  0.00     0.002 C 
ATOM     31  C   UNL d   1       8.621   0.762 -17.539  0.00  0.00     0.000 C 
ATOM     32  C   UNL d   1       8.345   0.360 -16.200  0.00  0.00     0.002 C 
ATOM     33  C   UNL d   1       9.005   1.002 -15.097  0.00  0.00     0.019 C 
ENDBRANCH  20  28
ENDBRANCH   4  20
TORSDOF 9
