REMARK  7 active torsions:
REMARK  status: ('A' for Active; 'I' for Inactive)
REMARK    1  A    between atoms: C_2  and  C_4 
REMARK    2  A    between atoms: C_2  and  S_19 
REMARK    3  A    between atoms: C_4  and  C_5 
REMARK    4  A    between atoms: C_5  and  C_6 
REMARK    5  A    between atoms: C_6  and  N_7 
REMARK    6  A    between atoms: C_11  and  C_12 
REMARK    7  A    between atoms: S_19  and  C_22 
ROOT
ATOM      1  C   UNL d   1       9.696   5.834 -11.186  0.00  0.00     0.036 C 
ENDROOT
BRANCH   1   2
ATOM      2  C   UNL d   1       9.117   7.040 -10.441  0.00  0.00     0.017 C 
BRANCH   2   3
ATOM      3  C   UNL d   1      10.000   7.760  -9.375  0.00  0.00     0.099 C 
ATOM      4  C   UNL d   1      11.475   7.785  -9.873  0.00  0.00     0.016 C 
ATOM      5  C   UNL d   1       9.411   9.180  -9.119  0.00  0.00     0.016 C 
BRANCH   3   6
ATOM      6  S   UNL d   1       9.953   6.791  -7.778  0.00  0.00     0.188 S 
ATOM      7  O   UNL d   1       8.585   6.706  -7.266  0.00  0.00    -0.222 OA
ATOM      8  O   UNL d   1      10.662   5.535  -8.015  0.00  0.00    -0.222 OA
BRANCH   6   9
ATOM      9  C   UNL d   1      10.933   7.702  -6.577  0.00  0.00     0.084 A 
ATOM     10  C   UNL d   1      11.068   7.177  -5.268  0.00  0.00     0.011 A 
ATOM     11  C   UNL d   1      11.801   7.918  -4.315  0.00  0.00     0.001 A 
ATOM     12  C   UNL d   1      12.348   9.181  -4.635  0.00  0.00     0.000 A 
ATOM     13  C   UNL d   1      12.206   9.680  -5.948  0.00  0.00     0.001 A 
ATOM     14  C   UNL d   1      11.545   8.933  -6.904  0.00  0.00     0.011 A 
ENDBRANCH   6   9
ENDBRANCH   3   6
ENDBRANCH   2   3
ENDBRANCH   1   2
BRANCH   1  15
ATOM     15  C   UNL d   1       8.778   5.335 -12.307  0.00  0.00     0.250 C 
BRANCH  15  16
ATOM     16  N   UNL d   1       9.359   4.174 -12.983  0.00  0.00     0.137 N 
ATOM     17  C   UNL d   1       8.296   3.466 -13.698  0.00  0.00     0.255 C 
ATOM     18  C   UNL d   1       8.840   2.200 -14.398  0.00  0.00     0.056 C 
ATOM     19  C   UNL d   1       9.998   2.580 -15.337  0.00  0.00     0.008 C 
ATOM     20  C   UNL d   1      11.043   3.412 -14.618  0.00  0.00     0.036 C 
ATOM     21  C   UNL d   1      10.380   4.615 -13.937  0.00  0.00     0.250 C 
BRANCH  18  22
ATOM     22  C   UNL d   1       7.731   1.458 -15.135  0.00  0.00    -0.021 A 
ATOM     23  C   UNL d   1       6.587   1.009 -14.436  0.00  0.00    -0.004 A 
ATOM     24  C   UNL d   1       5.560   0.332 -15.121  0.00  0.00    -0.000 A 
ATOM     25  C   UNL d   1       5.665   0.097 -16.506  0.00  0.00    -0.000 A 
ATOM     26  C   UNL d   1       6.798   0.538 -17.208  0.00  0.00    -0.000 A 
ATOM     27  C   UNL d   1       7.821   1.205 -16.527  0.00  0.00    -0.004 A 
ENDBRANCH  18  22
ENDBRANCH  15  16
ENDBRANCH   1  15
TORSDOF 7
