REMARK  4 active torsions:
REMARK  status: ('A' for Active; 'I' for Inactive)
REMARK       I    between atoms: N_10  and  C_11 
REMARK    1  A    between atoms: C_11  and  C_13 
REMARK    2  A    between atoms: C_13  and  C_14 
REMARK    3  A    between atoms: N_17  and  C_18 
REMARK    4  A    between atoms: C_18  and  C_19 
ROOT
ATOM      1  C   UNL d   1       9.397   2.980 -14.414  0.00  0.00     0.013 C 
ATOM      2  C   UNL d   1       8.078   3.754 -14.530  0.00  0.00     0.036 C 
ATOM      3  C   UNL d   1       7.458   4.105 -13.179  0.00  0.00     0.251 C 
ATOM      4  N   UNL d   1       8.429   4.882 -12.419  0.00  0.00     0.141 N 
ATOM      5  C   UNL d   1       9.630   4.079 -12.196  0.00  0.00     0.251 C 
ATOM      6  C   UNL d   1      10.332   3.781 -13.525  0.00  0.00     0.036 C 
ENDROOT
BRANCH   1   7
ATOM      7  C   UNL d   1      10.051   2.728 -15.789  0.00  0.00     0.088 C 
BRANCH   7   8
ATOM      8  C   UNL d   1       9.564   1.466 -16.502  0.00  0.00     0.237 C 
ATOM      9  N   UNL d   1      10.301   0.928 -17.504  0.00  0.00    -0.301 N 
ATOM     10  C   UNL d   1      10.017  -0.429 -18.040  0.00  0.00     0.093 A 
ATOM     11  C   UNL d   1      11.493   1.451 -18.113  0.00  0.00     0.058 A 
ATOM     12  C   UNL d   1       8.598  -0.611 -18.636  0.00  0.00     0.025 C 
ATOM     13  C   UNL d   1      11.118  -0.693 -19.107  0.00  0.00     0.051 A 
ATOM     14  C   UNL d   1      11.993   0.526 -19.023  0.00  0.00    -0.004 A 
ATOM     15  C   UNL d   1      13.160   0.761 -19.778  0.00  0.00    -0.003 A 
ATOM     16  C   UNL d   1      13.854   1.977 -19.581  0.00  0.00    -0.000 A 
ATOM     17  C   UNL d   1      13.353   2.931 -18.668  0.00  0.00     0.002 A 
ATOM     18  C   UNL d   1      12.166   2.694 -17.948  0.00  0.00     0.017 A 
ATOM     19  O   UNL d   1       8.509   0.953 -16.109  0.00  0.00    -0.272 OA
ENDBRANCH   7   8
ENDBRANCH   1   7
BRANCH   4  20
ATOM     20  C   UNL d   1       7.858   5.279 -11.129  0.00  0.00     0.278 C 
BRANCH  20  21
ATOM     21  C   UNL d   1       8.825   5.989 -10.188  0.00  0.00     0.021 A 
ATOM     22  C   UNL d   1       9.456   7.208 -10.543  0.00  0.00     0.056 A 
ATOM     23  C   UNL d   1      10.351   7.831  -9.640  0.00  0.00     0.011 A 
ATOM     24 CL   UNL d   1       9.098   8.008 -12.037  0.00  0.00    -0.083 Cl
ATOM     25  C   UNL d   1      10.604   7.251  -8.378  0.00  0.00     0.001 A 
ATOM     26  C   UNL d   1       9.976   6.047  -8.031  0.00  0.00    -0.000 A 
ATOM     27  C   UNL d   1       9.089   5.413  -8.925  0.00  0.00    -0.002 A 
ENDBRANCH  20  21
ENDBRANCH   4  20
TORSDOF 4
