REMARK  7 active torsions:
REMARK  status: ('A' for Active; 'I' for Inactive)
REMARK    1  A    between atoms: O_2  and  C_3 
REMARK    2  A    between atoms: C_8  and  N_9 
REMARK    3  A    between atoms: N_12  and  C_13 
REMARK    4  A    between atoms: C_13  and  C_14 
REMARK    5  A    between atoms: C_19  and  C_20 
REMARK    6  A    between atoms: C_20  and  N_21 
REMARK       I    between atoms: N_21  and  C_22 
REMARK    7  A    between atoms: C_22  and  C_24 
ROOT
ATOM      1  C   UNL d   1       7.009   1.304 -14.924  0.00  0.00     0.009 A 
ATOM      2  C   UNL d   1       7.217  -0.060 -14.726  0.00  0.00    -0.003 A 
ATOM      3  C   UNL d   1       6.660  -0.703 -13.609  0.00  0.00    -0.000 A 
ATOM      4  C   UNL d   1       5.860   0.045 -12.719  0.00  0.00    -0.000 A 
ATOM      5  C   UNL d   1       5.564   1.375 -12.951  0.00  0.00    -0.003 A 
ATOM      6  C   UNL d   1       6.201   2.030 -14.012  0.00  0.00     0.000 A 
ENDROOT
BRANCH   1   7
ATOM      7  C   UNL d   1       7.657   1.911 -16.160  0.00  0.00     0.277 C 
BRANCH   7   8
ATOM      8  N   UNL d   1       8.719   2.893 -15.909  0.00  0.00     0.145 N 
ATOM      9  C   UNL d   1       9.132   3.526 -17.170  0.00  0.00     0.275 C 
ATOM     10  C   UNL d   1      10.096   4.691 -16.890  0.00  0.00     0.137 C 
ATOM     11  N   UNL d   1      11.224   4.220 -16.114  0.00  0.00    -0.343 N 
ATOM     12  C   UNL d   1      10.935   3.404 -14.948  0.00  0.00     0.137 C 
ATOM     13  C   UNL d   1       9.896   2.302 -15.281  0.00  0.00     0.275 C 
BRANCH  11  14
ATOM     14  C   UNL d   1      12.509   4.331 -16.639  0.00  0.00     0.079 A 
ATOM     15  C   UNL d   1      13.043   3.404 -17.572  0.00  0.00     0.110 A 
ATOM     16  C   UNL d   1      14.347   3.612 -18.071  0.00  0.00     0.026 A 
ATOM     17  C   UNL d   1      15.110   4.725 -17.655  0.00  0.00     0.002 A 
ATOM     18  C   UNL d   1      14.574   5.637 -16.732  0.00  0.00     0.002 A 
ATOM     19  C   UNL d   1      13.277   5.443 -16.234  0.00  0.00     0.019 A 
BRANCH  15  20
ATOM     20  O   UNL d   1      12.254   2.323 -17.930  0.00  0.00    -0.327 OA
ATOM     21  C   UNL d   1      12.796   1.380 -18.846  0.00  0.00     0.181 C 
ENDBRANCH  15  20
ENDBRANCH  11  14
ENDBRANCH   7   8
ENDBRANCH   1   7
BRANCH   6  22
ATOM     22  C   UNL d   1       5.961   3.499 -14.114  0.00  0.00     0.155 C 
BRANCH  22  23
ATOM     23  N   UNL d   1       6.980   4.328 -13.450  0.00  0.00    -0.229 NA
ATOM     24  C   UNL d   1       7.126   4.434 -12.115  0.00  0.00     0.275 C 
ATOM     25  O   UNL d   1       6.500   3.734 -11.334  0.00  0.00    -0.266 OA
BRANCH  24  26
ATOM     26  C   UNL d   1       8.124   5.427 -11.601  0.00  0.00     0.058 A 
ATOM     27  C   UNL d   1       8.596   5.334 -10.265  0.00  0.00     0.005 A 
ATOM     28  C   UNL d   1       9.464   6.303  -9.735  0.00  0.00     0.000 A 
ATOM     29  C   UNL d   1       9.870   7.391 -10.547  0.00  0.00     0.000 A 
ATOM     30  C   UNL d   1       9.920   6.218  -8.402  0.00  0.00     0.000 A 
ATOM     31  C   UNL d   1       9.404   7.494 -11.873  0.00  0.00     0.000 A 
ATOM     32  C   UNL d   1      10.742   8.364 -10.035  0.00  0.00     0.000 A 
ATOM     33  C   UNL d   1       8.533   6.529 -12.393  0.00  0.00     0.005 A 
ATOM     34  C   UNL d   1      11.216   8.265  -8.708  0.00  0.00     0.000 A 
ATOM     35  C   UNL d   1      10.801   7.193  -7.894  0.00  0.00     0.000 A 
ENDBRANCH  24  26
ENDBRANCH  22  23
ENDBRANCH   6  22
TORSDOF 7
