REMARK  3 active torsions:
REMARK  status: ('A' for Active; 'I' for Inactive)
REMARK    1  A    between atoms: C_2  and  C_3 
REMARK    2  A    between atoms: C_3  and  N_5 
REMARK    3  A    between atoms: C_9  and  C_10 
ROOT
ATOM      1  C   UNL d   1      10.337   7.671  -8.132  0.00  0.00    -0.020 A 
ATOM      2  C   UNL d   1      11.574   7.878  -8.784  0.00  0.00    -0.004 A 
ATOM      3  C   UNL d   1      12.541   8.701  -8.206  0.00  0.00     0.000 A 
ATOM      4  C   UNL d   1      12.288   9.312  -6.982  0.00  0.00     0.010 A 
ATOM      5  C   UNL d   1      11.050   9.119  -6.324  0.00  0.00     0.068 A 
ATOM      6  C   UNL d   1      10.843   9.811  -5.090  0.00  0.00     0.101 C 
ATOM      7  N   UNL d   1      10.655  10.383  -4.095  0.00  0.00    -0.191 NA
ATOM      8  C   UNL d   1      10.075   8.284  -6.892  0.00  0.00     0.006 A 
ENDROOT
BRANCH   1   9
ATOM      9  C   UNL d   1       9.314   6.735  -8.748  0.00  0.00     0.056 C 
ATOM     10  C   UNL d   1       9.671   5.334  -8.318  0.00  0.00     0.008 C 
ATOM     11  C   UNL d   1       8.713   4.360  -8.967  0.00  0.00     0.036 C 
ATOM     12  C   UNL d   1       8.657   4.576 -10.509  0.00  0.00     0.250 C 
ATOM     13  N   UNL d   1       8.271   5.942 -10.848  0.00  0.00     0.135 N 
ATOM     14  C   UNL d   1       9.262   6.854 -10.281  0.00  0.00     0.254 C 
BRANCH  13  15
ATOM     15  C   UNL d   1       8.158   6.157 -12.316  0.00  0.00     0.219 C 
ATOM     16  C   UNL d   1       7.342   7.461 -12.559  0.00  0.00     0.035 C 
BRANCH  15  17
ATOM     17  C   UNL d   1       7.574   4.968 -13.116  0.00  0.00     0.033 C 
ATOM     18  C   UNL d   1       6.085   4.662 -12.831  0.00  0.00     0.002 C 
ENDBRANCH  15  17
ENDBRANCH  13  15
ENDBRANCH   1   9
TORSDOF 3
