REMARK  5 active torsions:
REMARK  status: ('A' for Active; 'I' for Inactive)
REMARK    1  A    between atoms: C_2  and  C_3 
REMARK       I    between atoms: C_2  and  N_12 
REMARK    2  A    between atoms: N_15  and  C_16 
REMARK    3  A    between atoms: C_16  and  C_17 
REMARK    4  A    between atoms: C_17  and  O_18 
REMARK    5  A    between atoms: O_18  and  C_19 
ROOT
ATOM      1  O   UNL d   1       8.741   9.566  -8.407  0.00  0.00    -0.266 OA
ATOM      2  C   UNL d   1       9.575   8.704  -8.272  0.00  0.00     0.275 C 
ATOM      3  N   UNL d   1       9.957   7.927  -9.310  0.00  0.00    -0.311 N 
ATOM      4  C   UNL d   1      10.658   6.657  -9.232  0.00  0.00     0.140 C 
ATOM      5  C   UNL d   1       9.838   5.620  -9.998  0.00  0.00     0.274 C 
ATOM      6  N   UNL d   1       9.859   5.982 -11.407  0.00  0.00     0.144 N 
ATOM      7  C   UNL d   1       9.124   7.243 -11.564  0.00  0.00     0.274 C 
ATOM      8  C   UNL d   1       9.809   8.344 -10.726  0.00  0.00     0.140 C 
ENDROOT
BRANCH   2   9
ATOM      9  C   UNL d   1      10.265   8.662  -6.973  0.00  0.00     0.137 A 
ATOM     10  N   UNL d   1      10.453   7.451  -6.345  0.00  0.00    -0.241 NA
ATOM     11  C   UNL d   1      11.166   7.599  -5.180  0.00  0.00     0.082 A 
ATOM     12  C   UNL d   1      11.374   8.991  -5.014  0.00  0.00     0.019 A 
ATOM     13  C   UNL d   1      11.636   6.635  -4.279  0.00  0.00     0.019 A 
ATOM     14  C   UNL d   1      10.794   9.639  -6.171  0.00  0.00     0.025 A 
ATOM     15  C   UNL d   1      12.046   9.333  -3.837  0.00  0.00     0.002 A 
ATOM     16  C   UNL d   1      12.521   8.415  -2.897  0.00  0.00     0.000 A 
ATOM     17  C   UNL d   1      12.319   7.037  -3.125  0.00  0.00     0.002 A 
ENDBRANCH   2   9
BRANCH   6  18
ATOM     18  C   UNL d   1       9.175   4.907 -12.088  0.00  0.00     0.283 C 
BRANCH  18  19
ATOM     19  C   UNL d   1       9.398   4.969 -13.610  0.00  0.00     0.184 C 
BRANCH  19  20
ATOM     20  O   UNL d   1       9.269   3.690 -14.220  0.00  0.00    -0.329 OA
BRANCH  20  21
ATOM     21  C   UNL d   1       8.091   2.990 -14.085  0.00  0.00     0.094 A 
ATOM     22  C   UNL d   1       6.903   3.516 -13.519  0.00  0.00     0.026 A 
ATOM     23  C   UNL d   1       5.814   2.673 -13.261  0.00  0.00     0.032 A 
ATOM     24  C   UNL d   1       5.829   1.330 -13.688  0.00  0.00     0.140 A 
ATOM     25  C   UNL d   1       6.966   0.823 -14.353  0.00  0.00     0.032 A 
ATOM     26  F   UNL d   1       4.732   0.543 -13.518  0.00  0.00    -0.204 F 
ATOM     27  C   UNL d   1       8.103   1.646 -14.528  0.00  0.00     0.026 A 
ENDBRANCH  20  21
ENDBRANCH  19  20
ENDBRANCH  18  19
ENDBRANCH   6  18
TORSDOF 5
