REMARK  7 active torsions:
REMARK  status: ('A' for Active; 'I' for Inactive)
REMARK       I    between atoms: C_2  and  N_3 
REMARK    1  A    between atoms: C_2  and  C_22 
REMARK    2  A    between atoms: N_3  and  C_4 
REMARK    3  A    between atoms: C_4  and  C_5 
REMARK    4  A    between atoms: C_5  and  C_6 
REMARK    5  A    between atoms: C_6  and  C_7 
REMARK    6  A    between atoms: C_7  and  N_8 
REMARK    7  A    between atoms: N_11  and  C_12 
ROOT
ATOM      1  C   UNL d   1       6.095   3.104 -13.405  0.00  0.00     0.037 C 
ENDROOT
BRANCH   1   2
ATOM      2  C   UNL d   1       5.191   2.120 -12.655  0.00  0.00     0.029 C 
BRANCH   2   3
ATOM      3  C   UNL d   1       5.506   0.635 -12.889  0.00  0.00     0.129 C 
BRANCH   3   4
ATOM      4  N   UNL d   1       5.440   0.287 -14.293  0.00  0.00    -0.233 NA
ATOM      5  C   UNL d   1       4.460  -0.430 -14.847  0.00  0.00     0.298 C 
ATOM      6  O   UNL d   1       3.483  -0.831 -14.212  0.00  0.00    -0.263 OA
BRANCH   5   7
ATOM      7  C   UNL d   1       4.672  -0.771 -16.270  0.00  0.00     0.157 A 
ATOM      8  O   UNL d   1       3.857  -1.720 -16.828  0.00  0.00    -0.302 OA
ATOM      9  C   UNL d   1       4.244  -1.883 -18.139  0.00  0.00     0.100 A 
ATOM     10  C   UNL d   1       5.271  -0.959 -18.436  0.00  0.00     0.025 A 
ATOM     11  C   UNL d   1       3.729  -2.794 -19.077  0.00  0.00     0.025 A 
ATOM     12  C   UNL d   1       5.520  -0.243 -17.219  0.00  0.00     0.032 A 
ATOM     13  C   UNL d   1       5.771  -0.956 -19.758  0.00  0.00     0.008 A 
ATOM     14  C   UNL d   1       5.263  -1.849 -20.725  0.00  0.00     0.030 A 
ATOM     15  I   UNL d   1       6.010  -1.801 -22.678  0.00  0.00    -0.043 I 
ATOM     16  C   UNL d   1       4.252  -2.773 -20.386  0.00  0.00     0.008 A 
ENDBRANCH   5   7
ENDBRANCH   3   4
ENDBRANCH   2   3
ENDBRANCH   1   2
BRANCH   1  17
ATOM     17  C   UNL d   1       6.001   4.543 -12.840  0.00  0.00     0.251 C 
BRANCH  17  18
ATOM     18  N   UNL d   1       7.312   5.190 -12.702  0.00  0.00     0.141 N 
ATOM     19  C   UNL d   1       7.121   6.586 -12.301  0.00  0.00     0.274 C 
ATOM     20  C   UNL d   1       8.495   7.304 -12.141  0.00  0.00     0.137 C 
ATOM     21  N   UNL d   1       9.363   6.575 -11.215  0.00  0.00    -0.344 N 
ATOM     22  C   UNL d   1       9.455   5.152 -11.451  0.00  0.00     0.137 C 
ATOM     23  C   UNL d   1       8.051   4.577 -11.603  0.00  0.00     0.274 C 
BRANCH  21  24
ATOM     24  C   UNL d   1       9.861   7.178 -10.056  0.00  0.00     0.068 A 
ATOM     25  C   UNL d   1       9.632   6.722  -8.722  0.00  0.00     0.084 A 
ATOM     26  C   UNL d   1      10.262   7.370  -7.632  0.00  0.00     0.070 A 
ATOM     27 CL   UNL d   1       8.627   5.365  -8.367  0.00  0.00    -0.080 Cl
ATOM     28  C   UNL d   1      11.159   8.414  -7.848  0.00  0.00     0.012 A 
ATOM     29 CL   UNL d   1       9.993   6.861  -6.021  0.00  0.00    -0.081 Cl
ATOM     30  C   UNL d   1      11.420   8.840  -9.150  0.00  0.00     0.002 A 
ATOM     31  C   UNL d   1      10.734   8.269 -10.236  0.00  0.00     0.018 A 
ENDBRANCH  21  24
ENDBRANCH  17  18
ENDBRANCH   1  17
TORSDOF 7
