REMARK  9 active torsions:
REMARK  status: ('A' for Active; 'I' for Inactive)
REMARK    1  A    between atoms: O_2  and  C_3 
REMARK    2  A    between atoms: C_8  and  C_9 
REMARK    3  A    between atoms: C_11  and  C_12 
REMARK    4  A    between atoms: C_12  and  N_13 
REMARK    5  A    between atoms: N_13  and  C_14 
REMARK    6  A    between atoms: C_14  and  C_15 
REMARK    7  A    between atoms: C_15  and  C_16 
REMARK    8  A    between atoms: C_16  and  O_17 
REMARK    9  A    between atoms: O_17  and  C_18 
ROOT
ATOM      1  C   UNL d   1       9.713   6.408 -10.508  0.00  0.00     0.293 C 
ENDROOT
BRANCH   1   2
ATOM      2  N   UNL d   1       8.386   5.828 -10.564  0.00  0.00     0.339 N 
BRANCH   2   3
ATOM      3  C   UNL d   1       8.238   4.925 -11.678  0.00  0.00     0.290 C 
BRANCH   3   4
ATOM      4  C   UNL d   1       8.612   5.598 -13.005  0.00  0.00     0.041 A 
ATOM      5  C   UNL d   1       8.694   4.840 -14.293  0.00  0.00     0.026 A 
ATOM      6  C   UNL d   1       9.958   5.282 -13.616  0.00  0.00     0.007 A 
BRANCH   5   7
ATOM      7  C   UNL d   1       8.347   3.402 -14.385  0.00  0.00    -0.000 A 
ATOM      8  C   UNL d   1       7.043   2.946 -14.063  0.00  0.00     0.090 A 
ATOM      9  C   UNL d   1       6.763   1.555 -14.113  0.00  0.00     0.024 A 
ATOM     10  C   UNL d   1       7.778   0.650 -14.463  0.00  0.00     0.002 A 
ATOM     11  C   UNL d   1       9.069   1.103 -14.778  0.00  0.00    -0.000 A 
ATOM     12  C   UNL d   1       9.351   2.482 -14.742  0.00  0.00    -0.002 A 
BRANCH   8  13
ATOM     13  O   UNL d   1       6.094   3.871 -13.737  0.00  0.00    -0.328 OA
ATOM     14  C   UNL d   1       5.085   3.476 -12.820  0.00  0.00     0.181 C 
ENDBRANCH   8  13
ENDBRANCH   5   7
ENDBRANCH   3   4
ENDBRANCH   2   3
ENDBRANCH   1   2
BRANCH   1  15
ATOM     15  C   UNL d   1       9.733   7.525  -9.498  0.00  0.00     0.071 C 
BRANCH  15  16
ATOM     16  C   UNL d   1      11.085   8.258  -9.525  0.00  0.00     0.151 C 
BRANCH  16  17
ATOM     17  O   UNL d   1      11.218   9.090  -8.387  0.00  0.00    -0.331 OA
BRANCH  17  18
ATOM     18  C   UNL d   1      11.398   8.451  -7.165  0.00  0.00     0.096 A 
ATOM     19  C   UNL d   1      11.566   9.252  -6.029  0.00  0.00     0.043 A 
ATOM     20  C   UNL d   1      11.793   8.639  -4.761  0.00  0.00     0.082 A 
ATOM     21  C   UNL d   1      11.841   7.233  -4.651  0.00  0.00    -0.004 A 
ATOM     22  N   UNL d   1      12.031   9.398  -3.610  0.00  0.00    -0.212 NA
ATOM     23  C   UNL d   1      11.692   6.463  -5.788  0.00  0.00    -0.001 A 
ATOM     24  C   UNL d   1      12.180   6.575  -3.327  0.00  0.00     0.038 C 
ATOM     25  C   UNL d   1      11.465   7.041  -7.028  0.00  0.00     0.024 A 
ATOM     26  C   UNL d   1      11.716   7.405  -2.157  0.00  0.00     0.095 C 
ATOM     27  C   UNL d   1      12.050   8.889  -2.376  0.00  0.00     0.256 C 
ATOM     28  O   UNL d   1      12.259   9.563  -1.388  0.00  0.00    -0.270 OA
ENDBRANCH  17  18
ENDBRANCH  16  17
ENDBRANCH  15  16
ENDBRANCH   1  15
TORSDOF 9
