REMARK  9 active torsions:
REMARK  status: ('A' for Active; 'I' for Inactive)
REMARK    1  A    between atoms: C_7  and  O_8 
REMARK    2  A    between atoms: O_8  and  C_9 
REMARK    3  A    between atoms: C_9  and  C_10 
REMARK    4  A    between atoms: C_10  and  N_11 
REMARK    5  A    between atoms: N_11  and  C_12 
REMARK    6  A    between atoms: C_12  and  C_13 
REMARK    7  A    between atoms: C_13  and  C_14 
REMARK    8  A    between atoms: C_14  and  O_15 
REMARK    9  A    between atoms: O_15  and  C_16 
ROOT
ATOM      1  N   UNL d   1       9.572   5.281  -8.956  0.00  0.00     0.342 N 
ENDROOT
BRANCH   1   2
ATOM      2  C   UNL d   1      10.332   6.208  -8.138  0.00  0.00     0.323 C 
BRANCH   2   3
ATOM      3  C   UNL d   1       9.409   7.221  -7.418  0.00  0.00     0.187 C 
BRANCH   3   4
ATOM      4  O   UNL d   1      10.158   8.295  -6.867  0.00  0.00    -0.328 OA
BRANCH   4   5
ATOM      5  C   UNL d   1      10.897   8.107  -5.723  0.00  0.00     0.105 A 
ATOM      6  C   UNL d   1      11.578   9.231  -5.212  0.00  0.00     0.080 A 
ATOM      7 CL   UNL d   1      11.460  10.736  -6.034  0.00  0.00    -0.080 Cl
ATOM      8  C   UNL d   1      12.325   9.134  -4.027  0.00  0.00     0.013 A 
ATOM      9  C   UNL d   1      12.429   7.918  -3.346  0.00  0.00     0.001 A 
ATOM     10  C   UNL d   1      11.781   6.786  -3.859  0.00  0.00     0.002 A 
ATOM     11  C   UNL d   1      11.009   6.880  -5.031  0.00  0.00     0.025 A 
ENDBRANCH   4   5
ENDBRANCH   3   4
ENDBRANCH   2   3
ENDBRANCH   1   2
BRANCH   1  12
ATOM     12  C   UNL d   1       9.301   5.888 -10.236  0.00  0.00     0.293 C 
BRANCH  12  13
ATOM     13  C   UNL d   1       8.619   4.860 -11.133  0.00  0.00     0.071 C 
BRANCH  13  14
ATOM     14  C   UNL d   1       8.324   5.440 -12.526  0.00  0.00     0.151 C 
BRANCH  14  15
ATOM     15  O   UNL d   1       9.534   5.580 -13.272  0.00  0.00    -0.331 OA
BRANCH  15  16
ATOM     16  C   UNL d   1      10.044   4.493 -13.952  0.00  0.00     0.094 A 
ATOM     17  C   UNL d   1       9.506   3.185 -13.876  0.00  0.00     0.024 A 
ATOM     18  C   UNL d   1      10.077   2.131 -14.614  0.00  0.00     0.002 A 
ATOM     19  C   UNL d   1      11.193   2.367 -15.439  0.00  0.00     0.000 A 
ATOM     20  C   UNL d   1      11.744   3.660 -15.516  0.00  0.00     0.002 A 
ATOM     21  C   UNL d   1      11.170   4.714 -14.779  0.00  0.00     0.024 A 
ENDBRANCH  15  16
ENDBRANCH  14  15
ENDBRANCH  13  14
ENDBRANCH  12  13
ENDBRANCH   1  12
TORSDOF 9
