REMARK  4 active torsions:
REMARK  status: ('A' for Active; 'I' for Inactive)
REMARK    1  A    between atoms: C_11  and  C_12 
REMARK    2  A    between atoms: N_15  and  C_16 
REMARK    3  A    between atoms: C_16  and  C_17 
REMARK    4  A    between atoms: C_17  and  C_18 
ROOT
ATOM      1  C   UNL d   1       8.598   5.389 -12.302  0.00  0.00     0.011 C 
ATOM      2  C   UNL d   1       7.497   4.372 -12.599  0.00  0.00     0.036 C 
ATOM      3  C   UNL d   1       7.711   3.743 -13.982  0.00  0.00     0.250 C 
ATOM      4  N   UNL d   1       9.034   3.125 -14.112  0.00  0.00     0.137 N 
ATOM      5  C   UNL d   1      10.053   4.165 -13.988  0.00  0.00     0.250 C 
ATOM      6  C   UNL d   1       9.959   4.752 -12.595  0.00  0.00     0.036 C 
ENDROOT
BRANCH   1   7
ATOM      7  C   UNL d   1       8.533   5.997 -10.875  0.00  0.00     0.062 C 
ATOM      8  C   UNL d   1       9.469   7.224 -10.691  0.00  0.00     0.172 C 
ATOM      9  O   UNL d   1       9.835   7.936 -11.634  0.00  0.00    -0.291 OA
ATOM     10  C   UNL d   1       9.861   7.546  -9.286  0.00  0.00     0.031 A 
ATOM     11  C   UNL d   1       9.458   6.747  -8.177  0.00  0.00    -0.019 A 
ATOM     12  C   UNL d   1      10.620   8.709  -9.059  0.00  0.00     0.003 A 
ATOM     13  C   UNL d   1       9.820   7.132  -6.877  0.00  0.00    -0.004 A 
ATOM     14  C   UNL d   1       8.607   5.508  -8.379  0.00  0.00     0.027 C 
ATOM     15  C   UNL d   1      10.573   8.300  -6.655  0.00  0.00    -0.000 A 
ATOM     16  C   UNL d   1      10.967   9.086  -7.756  0.00  0.00     0.000 A 
ATOM     17  C   UNL d   1       8.730   4.936  -9.764  0.00  0.00     0.012 C 
ENDBRANCH   1   7
BRANCH   4  18
ATOM     18  C   UNL d   1       9.148   2.486 -15.415  0.00  0.00     0.255 C 
BRANCH  18  19
ATOM     19  C   UNL d   1      10.357   1.533 -15.474  0.00  0.00     0.062 C 
BRANCH  19  20
ATOM     20  C   UNL d   1      10.461   0.850 -16.819  0.00  0.00    -0.020 A 
ATOM     21  C   UNL d   1      11.218   1.437 -17.855  0.00  0.00    -0.004 A 
ATOM     22  C   UNL d   1      11.302   0.805 -19.110  0.00  0.00    -0.000 A 
ATOM     23  C   UNL d   1      10.628  -0.412 -19.332  0.00  0.00    -0.000 A 
ATOM     24  C   UNL d   1       9.871  -0.998 -18.299  0.00  0.00    -0.000 A 
ATOM     25  C   UNL d   1       9.787  -0.367 -17.044  0.00  0.00    -0.004 A 
ENDBRANCH  19  20
ENDBRANCH  18  19
ENDBRANCH   4  18
TORSDOF 4
