REMARK  7 active torsions:
REMARK  status: ('A' for Active; 'I' for Inactive)
REMARK    1  A    between atoms: C_2  and  C_3 
REMARK       I    between atoms: C_2  and  N_11 
REMARK    2  A    between atoms: C_14  and  C_16 
REMARK    3  A    between atoms: C_16  and  N_17 
REMARK    4  A    between atoms: N_17  and  C_18 
REMARK    5  A    between atoms: C_18  and  C_19 
REMARK    6  A    between atoms: C_19  and  O_20 
REMARK    7  A    between atoms: O_20  and  C_21 
ROOT
ATOM      1  O   UNL d   1      11.617   9.190  -9.156  0.00  0.00    -0.267 OA
ATOM      2  C   UNL d   1      10.954   8.313  -8.609  0.00  0.00     0.257 C 
ATOM      3  N   UNL d   1       9.980   7.630  -9.246  0.00  0.00    -0.317 N 
ATOM      4  C   UNL d   1       9.650   7.927 -10.663  0.00  0.00     0.107 C 
ATOM      5  C   UNL d   1       9.660   6.624 -11.471  0.00  0.00     0.059 C 
ATOM      6  C   UNL d   1       8.728   5.552 -10.894  0.00  0.00     0.172 C 
ATOM      7  F   UNL d   1       7.478   5.951 -11.059  0.00  0.00    -0.238 F 
ATOM      8  C   UNL d   1       9.044   5.339  -9.397  0.00  0.00     0.059 C 
ATOM      9  C   UNL d   1       9.077   6.654  -8.605  0.00  0.00     0.107 C 
ENDROOT
BRANCH   6  10
ATOM     10  C   UNL d   1       8.824   4.218 -11.643  0.00  0.00     0.323 C 
BRANCH  10  11
ATOM     11  N   UNL d   1       8.767   4.389 -13.085  0.00  0.00     0.345 N 
BRANCH  11  12
ATOM     12  C   UNL d   1      10.024   3.986 -13.681  0.00  0.00     0.323 C 
BRANCH  12  13
ATOM     13  C   UNL d   1       9.927   4.169 -15.198  0.00  0.00     0.189 C 
BRANCH  13  14
ATOM     14  O   UNL d   1      11.165   3.799 -15.811  0.00  0.00    -0.312 OA
BRANCH  14  15
ATOM     15  C   UNL d   1      12.120   4.762 -16.062  0.00  0.00     0.178 A 
ATOM     16  N   UNL d   1      11.871   6.035 -15.679  0.00  0.00    -0.221 NA
ATOM     17  C   UNL d   1      12.760   6.988 -16.021  0.00  0.00     0.101 A 
ATOM     18  C   UNL d   1      13.959   6.722 -16.709  0.00  0.00     0.021 A 
ATOM     19  C   UNL d   1      14.235   5.390 -17.075  0.00  0.00     0.005 A 
ATOM     20  C   UNL d   1      13.294   4.391 -16.751  0.00  0.00     0.044 A 
ENDBRANCH  14  15
ENDBRANCH  13  14
ENDBRANCH  12  13
ENDBRANCH  11  12
ENDBRANCH  10  11
ENDBRANCH   6  10
BRANCH   2  21
ATOM     21  C   UNL d   1      11.229   8.010  -7.169  0.00  0.00     0.057 A 
ATOM     22  C   UNL d   1      11.213   9.034  -6.198  0.00  0.00     0.017 A 
ATOM     23  C   UNL d   1      11.480   8.745  -4.836  0.00  0.00     0.069 A 
ATOM     24  C   UNL d   1      11.799   7.425  -4.445  0.00  0.00     0.068 A 
ATOM     25 CL   UNL d   1      11.456   9.981  -3.652  0.00  0.00    -0.082 Cl
ATOM     26  C   UNL d   1      11.846   6.423  -5.414  0.00  0.00     0.012 A 
ATOM     27 CL   UNL d   1      12.175   7.027  -2.809  0.00  0.00    -0.082 Cl
ATOM     28  C   UNL d   1      11.553   6.696  -6.763  0.00  0.00     0.006 A 
ENDBRANCH   2  21
TORSDOF 7
