REMARK  7 active torsions:
REMARK  status: ('A' for Active; 'I' for Inactive)
REMARK       I    between atoms: C_2  and  N_3 
REMARK    1  A    between atoms: C_2  and  C_22 
REMARK    2  A    between atoms: N_3  and  C_4 
REMARK    3  A    between atoms: C_4  and  C_5 
REMARK    4  A    between atoms: C_5  and  C_6 
REMARK    5  A    between atoms: C_6  and  C_7 
REMARK    6  A    between atoms: C_7  and  N_8 
REMARK    7  A    between atoms: C_25  and  C_26 
ROOT
ATOM      1  C   UNL d   1      10.085   4.571 -12.788  0.00  0.00     0.029 C 
ENDROOT
BRANCH   1   2
ATOM      2  C   UNL d   1       9.024   5.478 -12.143  0.00  0.00     0.129 C 
BRANCH   2   3
ATOM      3  N   UNL d   1       9.452   5.949 -10.826  0.00  0.00    -0.234 NA
ATOM      4  C   UNL d   1       9.827   7.203 -10.505  0.00  0.00     0.275 C 
ATOM      5  O   UNL d   1       9.860   8.133 -11.308  0.00  0.00    -0.266 OA
BRANCH   4   6
ATOM      6  C   UNL d   1      10.255   7.411  -9.083  0.00  0.00     0.058 A 
ATOM      7  C   UNL d   1      11.264   8.352  -8.783  0.00  0.00     0.005 A 
ATOM      8  C   UNL d   1      11.658   8.570  -7.449  0.00  0.00     0.000 A 
ATOM      9  C   UNL d   1      11.048   7.859  -6.392  0.00  0.00     0.000 A 
ATOM     10  C   UNL d   1      10.029   6.933  -6.697  0.00  0.00     0.000 A 
ATOM     11  C   UNL d   1       9.626   6.716  -8.025  0.00  0.00     0.005 A 
BRANCH   9  12
ATOM     12  C   UNL d   1      11.463   8.077  -4.996  0.00  0.00     0.000 A 
ATOM     13  C   UNL d   1      11.470   9.378  -4.448  0.00  0.00     0.000 A 
ATOM     14  C   UNL d   1      11.859   9.584  -3.113  0.00  0.00     0.000 A 
ATOM     15  C   UNL d   1      12.261   8.497  -2.313  0.00  0.00     0.000 A 
ATOM     16  C   UNL d   1      12.255   7.196  -2.845  0.00  0.00     0.000 A 
ATOM     17  C   UNL d   1      11.852   6.992  -4.181  0.00  0.00     0.000 A 
ENDBRANCH   9  12
ENDBRANCH   4   6
ENDBRANCH   2   3
ENDBRANCH   1   2
BRANCH   1  18
ATOM     18  C   UNL d   1       9.701   4.065 -14.193  0.00  0.00     0.037 C 
BRANCH  18  19
ATOM     19  C   UNL d   1       8.934   2.724 -14.157  0.00  0.00     0.250 C 
BRANCH  19  20
ATOM     20  N   UNL d   1       8.188   2.449 -15.383  0.00  0.00     0.135 N 
ATOM     21  C   UNL d   1       7.460   1.184 -15.381  0.00  0.00     0.224 C 
ATOM     22  C   UNL d   1       7.047   1.105 -16.843  0.00  0.00     0.055 C 
ATOM     23  C   UNL d   1       6.199   1.093 -14.513  0.00  0.00     0.038 C 
ATOM     24  C   UNL d   1       8.359   1.409 -17.545  0.00  0.00     0.042 C 
ATOM     25  C   UNL d   1       6.339  -0.200 -17.167  0.00  0.00    -0.024 A 
ATOM     26  C   UNL d   1       9.047   2.377 -16.569  0.00  0.00     0.251 C 
ATOM     27  C   UNL d   1       5.558  -0.820 -16.163  0.00  0.00    -0.024 A 
ATOM     28  C   UNL d   1       6.414  -0.772 -18.454  0.00  0.00    -0.002 A 
ATOM     29  C   UNL d   1       4.856  -2.007 -16.465  0.00  0.00     0.023 A 
ATOM     30  C   UNL d   1       5.490  -0.266 -14.739  0.00  0.00     0.028 C 
ATOM     31  C   UNL d   1       4.934  -2.579 -17.749  0.00  0.00     0.131 A 
ATOM     32  C   UNL d   1       5.716  -1.961 -18.742  0.00  0.00     0.027 A 
ATOM     33  O   UNL d   1       4.257  -3.731 -18.039  0.00  0.00    -0.190 OA
ENDBRANCH  19  20
ENDBRANCH  18  19
ENDBRANCH   1  18
TORSDOF 7
