REMARK  5 active torsions:
REMARK  status: ('A' for Active; 'I' for Inactive)
REMARK    1  A    between atoms: C_2  and  C_3 
REMARK    2  A    between atoms: N_12  and  C_13 
REMARK    3  A    between atoms: C_13  and  C_14 
REMARK    4  A    between atoms: C_14  and  C_15 
REMARK    5  A    between atoms: C_15  and  C_16 
ROOT
ATOM      1  O   UNL d   1      10.019   4.968 -13.500  0.00  0.00    -0.221 OA
ATOM      2  C   UNL d   1       8.775   4.870 -12.803  0.00  0.00     0.149 C 
ATOM      3  C   UNL d   1       9.110   4.718 -11.312  0.00  0.00     0.070 C 
ATOM      4  C   UNL d   1       9.838   5.946 -10.777  0.00  0.00     0.253 C 
ATOM      5  N   UNL d   1       9.090   7.175 -10.976  0.00  0.00     0.137 N 
ATOM      6  C   UNL d   1       8.847   7.398 -12.398  0.00  0.00     0.253 C 
ATOM      7  C   UNL d   1       8.060   6.223 -12.979  0.00  0.00     0.070 C 
ENDROOT
BRANCH   5   8
ATOM      8  C   UNL d   1       9.781   8.332 -10.437  0.00  0.00     0.251 C 
BRANCH   8   9
ATOM      9  C   UNL d   1       9.875   8.338  -8.902  0.00  0.00     0.042 C 
BRANCH   9  10
ATOM     10  C   UNL d   1      11.205   8.915  -8.423  0.00  0.00     0.055 C 
BRANCH  10  11
ATOM     11  C   UNL d   1      11.363   8.814  -6.945  0.00  0.00     0.088 A 
ATOM     12  S   UNL d   1      11.419  10.229  -5.896  0.00  0.00    -0.071 SA
ATOM     13  C   UNL d   1      11.640   9.157  -4.517  0.00  0.00     0.048 A 
ATOM     14  C   UNL d   1      11.587   7.807  -4.957  0.00  0.00     0.087 A 
ATOM     15  C   UNL d   1      11.859   9.482  -3.166  0.00  0.00     0.008 A 
ATOM     16  N   UNL d   1      11.442   7.629  -6.327  0.00  0.00    -0.243 NA
ATOM     17  C   UNL d   1      11.742   6.790  -3.989  0.00  0.00     0.020 A 
ATOM     18  C   UNL d   1      11.932   7.103  -2.630  0.00  0.00     0.002 A 
ATOM     19  C   UNL d   1      12.009   8.444  -2.228  0.00  0.00     0.001 A 
ENDBRANCH  10  11
ENDBRANCH   9  10
ENDBRANCH   8   9
ENDBRANCH   5   8
BRANCH   2  20
ATOM     20  C   UNL d   1       7.923   3.693 -13.301  0.00  0.00     0.005 A 
ATOM     21  C   UNL d   1       8.494   2.668 -14.093  0.00  0.00    -0.001 A 
ATOM     22  C   UNL d   1       7.722   1.565 -14.505  0.00  0.00     0.011 A 
ATOM     23  C   UNL d   1       6.373   1.465 -14.122  0.00  0.00     0.058 A 
ATOM     24  C   UNL d   1       5.804   2.473 -13.324  0.00  0.00     0.011 A 
ATOM     25 CL   UNL d   1       5.443   0.100 -14.615  0.00  0.00    -0.082 Cl
ATOM     26  C   UNL d   1       6.558   3.587 -12.928  0.00  0.00    -0.001 A 
ENDBRANCH   2  20
TORSDOF 5
