REMARK  13 active torsions:
REMARK  status: ('A' for Active; 'I' for Inactive)
REMARK    1  A    between atoms: C_2  and  C_3 
REMARK    2  A    between atoms: C_3  and  N_4 
REMARK    3  A    between atoms: N_4  and  C_5 
REMARK    4  A    between atoms: N_4  and  C_24 
REMARK    5  A    between atoms: C_5  and  C_6 
REMARK    6  A    between atoms: C_6  and  C_7 
REMARK    7  A    between atoms: C_7  and  C_8 
REMARK    8  A    between atoms: C_8  and  N_9 
REMARK       I    between atoms: N_9  and  C_10 
REMARK    9  A    between atoms: C_10  and  C_12 
REMARK   10  A    between atoms: C_15  and  C_16 
REMARK   11  A    between atoms: C_24  and  C_25 
REMARK   12  A    between atoms: C_27  and  C_28 
REMARK   13  A    between atoms: C_34  and  O_35 
ROOT
ATOM      1  C   UNL d   1      10.074   2.729 -14.453  0.00  0.00     0.250 C 
ENDROOT
BRANCH   1   2
ATOM      2  N   UNL d   1       9.887   2.487 -15.889  0.00  0.00     0.137 N 
BRANCH   2   3
ATOM      3  C   UNL d   1      10.937   1.614 -16.419  0.00  0.00     0.250 C 
BRANCH   3   4
ATOM      4  C   UNL d   1      12.279   2.355 -16.547  0.00  0.00     0.035 C 
ATOM      5  C   UNL d   1      12.214   3.470 -17.598  0.00  0.00     0.002 C 
ENDBRANCH   3   4
ENDBRANCH   2   3
BRANCH   2   6
ATOM      6  C   UNL d   1       8.597   1.820 -16.088  0.00  0.00     0.251 C 
BRANCH   6   7
ATOM      7  C   UNL d   1       7.976   2.041 -17.454  0.00  0.00     0.038 A 
ATOM      8  C   UNL d   1       6.679   1.311 -17.771  0.00  0.00     0.026 A 
ATOM      9  C   UNL d   1       7.965   0.946 -18.489  0.00  0.00     0.007 A 
BRANCH   8  10
ATOM     10  C   UNL d   1       6.048   0.368 -16.777  0.00  0.00     0.002 A 
ATOM     11  C   UNL d   1       5.591  -0.918 -17.155  0.00  0.00     0.090 A 
ATOM     12  C   UNL d   1       5.071  -1.788 -16.157  0.00  0.00     0.026 A 
ATOM     13  C   UNL d   1       5.021  -1.364 -14.817  0.00  0.00     0.032 A 
ATOM     14  C   UNL d   1       5.429  -0.076 -14.453  0.00  0.00     0.140 A 
ATOM     15  C   UNL d   1       5.915   0.789 -15.439  0.00  0.00     0.027 A 
ATOM     16  F   UNL d   1       5.395   0.311 -13.153  0.00  0.00    -0.204 F 
BRANCH  11  17
ATOM     17  O   UNL d   1       5.707  -1.283 -18.483  0.00  0.00    -0.328 OA
ATOM     18  C   UNL d   1       5.186  -2.544 -18.873  0.00  0.00     0.181 C 
ENDBRANCH  11  17
ENDBRANCH   8  10
ENDBRANCH   6   7
ENDBRANCH   2   6
ENDBRANCH   1   2
BRANCH   1  19
ATOM     19  C   UNL d   1       9.208   3.909 -13.959  0.00  0.00     0.037 C 
BRANCH  19  20
ATOM     20  C   UNL d   1       9.597   4.345 -12.546  0.00  0.00     0.029 C 
BRANCH  20  21
ATOM     21  C   UNL d   1       8.825   5.581 -12.073  0.00  0.00     0.129 C 
BRANCH  21  22
ATOM     22  N   UNL d   1       9.291   5.991 -10.754  0.00  0.00    -0.234 NA
ATOM     23  C   UNL d   1       9.756   7.211 -10.435  0.00  0.00     0.275 C 
ATOM     24  O   UNL d   1       9.855   8.138 -11.238  0.00  0.00    -0.266 OA
BRANCH  23  25
ATOM     25  C   UNL d   1      10.205   7.389  -9.014  0.00  0.00     0.058 A 
ATOM     26  C   UNL d   1       9.559   6.717  -7.952  0.00  0.00     0.005 A 
ATOM     27  C   UNL d   1       9.977   6.924  -6.625  0.00  0.00     0.002 A 
ATOM     28  C   UNL d   1      11.028   7.819  -6.324  0.00  0.00     0.018 A 
ATOM     29  C   UNL d   1      11.653   8.505  -7.390  0.00  0.00     0.002 A 
ATOM     30  C   UNL d   1      11.247   8.294  -8.720  0.00  0.00     0.005 A 
BRANCH  28  31
ATOM     31  C   UNL d   1      11.457   8.036  -4.935  0.00  0.00     0.081 A 
ATOM     32  N   UNL d   1      11.457   9.318  -4.504  0.00  0.00    -0.244 NA
ATOM     33  C   UNL d   1      11.848   9.571  -3.240  0.00  0.00     0.099 A 
ATOM     34  C   UNL d   1      12.255   8.571  -2.340  0.00  0.00     0.021 A 
ATOM     35  C   UNL d   1      12.251   7.235  -2.780  0.00  0.00     0.003 A 
ATOM     36  C   UNL d   1      11.846   6.963  -4.098  0.00  0.00     0.019 A 
ENDBRANCH  28  31
ENDBRANCH  23  25
ENDBRANCH  21  22
ENDBRANCH  20  21
ENDBRANCH  19  20
ENDBRANCH   1  19
TORSDOF 13
