REMARK  6 active torsions:
REMARK  status: ('A' for Active; 'I' for Inactive)
REMARK    1  A    between atoms: O_2  and  C_3 
REMARK    2  A    between atoms: C_4  and  C_5 
REMARK       I    between atoms: C_5  and  N_7 
REMARK    3  A    between atoms: N_7  and  C_8 
REMARK    4  A    between atoms: C_8  and  C_9 
REMARK    5  A    between atoms: C_9  and  N_10 
REMARK    6  A    between atoms: N_13  and  C_14 
ROOT
ATOM      1  C   UNL d   1       7.669   4.630 -12.806  0.00  0.00     0.277 C 
ATOM      2  O   UNL d   1       6.559   5.158 -12.828  0.00  0.00    -0.266 OA
ATOM      3  N   UNL d   1       8.628   4.960 -11.934  0.00  0.00    -0.232 NA
ENDROOT
BRANCH   3   4
ATOM      4  C   UNL d   1       8.514   5.980 -10.896  0.00  0.00     0.164 C 
BRANCH   4   5
ATOM      5  C   UNL d   1       9.857   6.122 -10.167  0.00  0.00     0.277 C 
BRANCH   5   6
ATOM      6  N   UNL d   1       9.721   6.969  -8.988  0.00  0.00     0.143 N 
ATOM      7  C   UNL d   1      10.979   7.678  -8.748  0.00  0.00     0.274 C 
ATOM      8  C   UNL d   1      10.851   8.595  -7.535  0.00  0.00     0.137 C 
ATOM      9  N   UNL d   1      10.437   7.838  -6.367  0.00  0.00    -0.344 N 
ATOM     10  C   UNL d   1       9.246   7.018  -6.550  0.00  0.00     0.137 C 
ATOM     11  C   UNL d   1       9.392   6.145  -7.815  0.00  0.00     0.274 C 
BRANCH   9  12
ATOM     12  C   UNL d   1      11.137   7.915  -5.155  0.00  0.00     0.052 A 
ATOM     13  C   UNL d   1      11.438   9.159  -4.541  0.00  0.00    -0.006 A 
ATOM     14  C   UNL d   1      12.112   9.190  -3.304  0.00  0.00    -0.003 A 
ATOM     15  C   UNL d   1      10.939  10.460  -5.127  0.00  0.00     0.033 C 
ATOM     16  C   UNL d   1      12.512   8.002  -2.666  0.00  0.00    -0.000 A 
ATOM     17  C   UNL d   1      12.226   6.772  -3.277  0.00  0.00     0.002 A 
ATOM     18  C   UNL d   1      11.536   6.729  -4.504  0.00  0.00     0.017 A 
ENDBRANCH   9  12
ENDBRANCH   5   6
ENDBRANCH   4   5
ENDBRANCH   3   4
BRANCH   1  19
ATOM     19  C   UNL d   1       8.008   3.492 -13.733  0.00  0.00     0.080 A 
ATOM     20  C   UNL d   1       9.309   3.308 -14.287  0.00  0.00     0.099 A 
ATOM     21  C   UNL d   1       9.574   2.172 -15.093  0.00  0.00     0.023 A 
ATOM     22  C   UNL d   1       8.534   1.251 -15.403  0.00  0.00     0.008 A 
ATOM     23  C   UNL d   1      10.876   1.929 -15.590  0.00  0.00     0.002 A 
ATOM     24  C   UNL d   1       7.241   1.456 -14.868  0.00  0.00     0.035 A 
ATOM     25  C   UNL d   1       8.812   0.137 -16.234  0.00  0.00     0.001 A 
ATOM     26  C   UNL d   1       6.986   2.566 -14.049  0.00  0.00     0.013 A 
ATOM     27 BR   UNL d   1       5.827   0.210 -15.180  0.00  0.00    -0.049 Br
ATOM     28  C   UNL d   1      10.100  -0.063 -16.762  0.00  0.00     0.000 A 
ATOM     29  C   UNL d   1      11.126   0.843 -16.444  0.00  0.00     0.000 A 
BRANCH  20  30
ATOM     30  O   UNL d   1      10.324   4.213 -14.042  0.00  0.00    -0.328 OA
ATOM     31  C   UNL d   1      10.639   5.066 -15.145  0.00  0.00     0.181 C 
ENDBRANCH  20  30
ENDBRANCH   1  19
TORSDOF 6
