REMARK  9 active torsions:
REMARK  status: ('A' for Active; 'I' for Inactive)
REMARK    1  A    between atoms: O_2  and  C_3 
REMARK    2  A    between atoms: C_9  and  C_10 
REMARK    3  A    between atoms: C_12  and  C_13 
REMARK    4  A    between atoms: C_13  and  N_14 
REMARK    5  A    between atoms: N_14  and  C_15 
REMARK    6  A    between atoms: C_15  and  C_16 
REMARK    7  A    between atoms: C_16  and  C_17 
REMARK    8  A    between atoms: C_17  and  O_18 
REMARK    9  A    between atoms: O_18  and  C_19 
ROOT
ATOM      1  C   UNL d   1       9.692   7.215 -11.038  0.00  0.00     0.293 C 
ENDROOT
BRANCH   1   2
ATOM      2  N   UNL d   1       8.667   6.192 -10.932  0.00  0.00     0.339 N 
BRANCH   2   3
ATOM      3  C   UNL d   1       8.294   5.754 -12.261  0.00  0.00     0.290 C 
BRANCH   3   4
ATOM      4  C   UNL d   1       7.509   4.469 -12.159  0.00  0.00     0.041 A 
ATOM      5  C   UNL d   1       6.639   4.033 -13.307  0.00  0.00     0.026 A 
ATOM      6  C   UNL d   1       6.008   4.505 -12.020  0.00  0.00     0.007 A 
BRANCH   5   7
ATOM      7  C   UNL d   1       6.566   2.588 -13.716  0.00  0.00     0.002 A 
ATOM      8  C   UNL d   1       7.590   1.995 -14.491  0.00  0.00     0.090 A 
ATOM      9  C   UNL d   1       7.500   0.621 -14.820  0.00  0.00     0.026 A 
ATOM     10  C   UNL d   1       6.386  -0.145 -14.396  0.00  0.00     0.032 A 
ATOM     11  C   UNL d   1       5.368   0.460 -13.650  0.00  0.00     0.140 A 
ATOM     12  F   UNL d   1       4.278  -0.251 -13.272  0.00  0.00    -0.204 F 
ATOM     13  C   UNL d   1       5.461   1.814 -13.308  0.00  0.00     0.027 A 
BRANCH   8  14
ATOM     14  O   UNL d   1       8.664   2.794 -14.854  0.00  0.00    -0.328 OA
ATOM     15  C   UNL d   1       9.707   2.205 -15.609  0.00  0.00     0.181 C 
ENDBRANCH   8  14
ENDBRANCH   5   7
ENDBRANCH   3   4
ENDBRANCH   2   3
ENDBRANCH   1   2
BRANCH   1  16
ATOM     16  C   UNL d   1       9.786   7.945  -9.695  0.00  0.00     0.071 C 
BRANCH  16  17
ATOM     17  C   UNL d   1      11.069   8.813  -9.552  0.00  0.00     0.151 C 
BRANCH  17  18
ATOM     18  O   UNL d   1      11.084   9.558  -8.345  0.00  0.00    -0.331 OA
BRANCH  18  19
ATOM     19  C   UNL d   1      11.318   8.848  -7.187  0.00  0.00     0.096 C 
ATOM     20  C   UNL d   1      11.450   9.560  -5.953  0.00  0.00     0.043 C 
ATOM     21  C   UNL d   1      11.632   8.828  -4.759  0.00  0.00     0.087 A 
ATOM     22  C   UNL d   1      11.612   7.410  -4.777  0.00  0.00     0.018 A 
ATOM     23  N   UNL d   1      11.894   9.452  -3.523  0.00  0.00    -0.208 NA
ATOM     24  C   UNL d   1      11.480   6.723  -5.984  0.00  0.00     0.004 C 
ATOM     25  C   UNL d   1      11.854   6.695  -3.561  0.00  0.00     0.006 A 
ATOM     26  C   UNL d   1      11.427   7.437  -7.167  0.00  0.00     0.024 C 
ATOM     27  C   UNL d   1      12.100   7.333  -2.421  0.00  0.00     0.063 A 
ATOM     28  C   UNL d   1      12.141   8.787  -2.374  0.00  0.00     0.279 A 
ATOM     29  O   UNL d   1      12.264   9.383  -1.333  0.00  0.00    -0.265 OA
ENDBRANCH  18  19
ENDBRANCH  17  18
ENDBRANCH  16  17
ENDBRANCH   1  16
TORSDOF 9
