REMARK  9 active torsions:
REMARK  status: ('A' for Active; 'I' for Inactive)
REMARK    1  A    between atoms: C_8  and  O_9 
REMARK    2  A    between atoms: O_9  and  C_10 
REMARK    3  A    between atoms: C_10  and  C_11 
REMARK    4  A    between atoms: C_11  and  C_12 
REMARK    5  A    between atoms: C_12  and  C_13 
REMARK    6  A    between atoms: C_13  and  N_14 
REMARK    7  A    between atoms: C_17  and  C_18 
REMARK    8  A    between atoms: N_20  and  C_21 
REMARK    9  A    between atoms: C_21  and  C_22 
ROOT
ATOM      1  N   UNL d   1       8.648   5.462 -12.302  0.00  0.00     0.137 N 
ATOM      2  C   UNL d   1       7.638   4.435 -12.071  0.00  0.00     0.251 C 
ATOM      3  C   UNL d   1       7.378   3.644 -13.361  0.00  0.00     0.040 C 
ATOM      4  C   UNL d   1       8.662   2.987 -13.922  0.00  0.00     0.028 C 
ATOM      5  C   UNL d   1       9.763   4.047 -13.986  0.00  0.00     0.040 C 
ATOM      6  C   UNL d   1       9.886   4.782 -12.659  0.00  0.00     0.251 C 
ENDROOT
BRANCH   1   7
ATOM      7  C   UNL d   1       8.858   6.231 -11.077  0.00  0.00     0.250 C 
BRANCH   7   8
ATOM      8  C   UNL d   1       9.513   7.605 -11.384  0.00  0.00     0.038 C 
BRANCH   8   9
ATOM      9  C   UNL d   1      10.286   8.212 -10.193  0.00  0.00     0.035 C 
BRANCH   9  10
ATOM     10  C   UNL d   1       9.354   8.854  -9.159  0.00  0.00     0.149 C 
BRANCH  10  11
ATOM     11  O   UNL d   1      10.037   9.518  -8.119  0.00  0.00    -0.331 OA
BRANCH  11  12
ATOM     12  C   UNL d   1      10.479   8.785  -7.063  0.00  0.00     0.096 A 
ATOM     13  C   UNL d   1      10.524   7.373  -7.097  0.00  0.00     0.024 A 
ATOM     14  C   UNL d   1      11.054   6.682  -6.009  0.00  0.00    -0.001 A 
ATOM     15  C   UNL d   1      11.464   7.369  -4.862  0.00  0.00    -0.004 A 
ATOM     16  C   UNL d   1      11.996   6.603  -3.675  0.00  0.00     0.038 C 
ATOM     17  C   UNL d   1      11.404   8.779  -4.815  0.00  0.00     0.082 A 
ATOM     18  C   UNL d   1      11.675   7.304  -2.362  0.00  0.00     0.095 C 
ATOM     19  C   UNL d   1      11.955   8.808  -2.447  0.00  0.00     0.256 C 
ATOM     20  O   UNL d   1      12.258   9.392  -1.429  0.00  0.00    -0.270 OA
ATOM     21  N   UNL d   1      11.802   9.435  -3.633  0.00  0.00    -0.212 NA
ATOM     22  C   UNL d   1      10.916   9.499  -5.926  0.00  0.00     0.043 A 
ENDBRANCH  11  12
ENDBRANCH  10  11
ENDBRANCH   9  10
ENDBRANCH   8   9
ENDBRANCH   7   8
ENDBRANCH   1   7
BRANCH   4  23
ATOM     23  C   UNL d   1       8.438   2.327 -15.261  0.00  0.00    -0.004 A 
ATOM     24  C   UNL d   1       9.424   1.938 -16.238  0.00  0.00     0.013 A 
ATOM     25  C   UNL d   1       8.720   1.427 -17.383  0.00  0.00     0.060 A 
ATOM     26  C   UNL d   1      10.846   1.984 -16.300  0.00  0.00     0.001 A 
ATOM     27  N   UNL d   1       7.368   1.428 -17.053  0.00  0.00    -0.322 N 
ATOM     28  C   UNL d   1       9.413   1.024 -18.549  0.00  0.00     0.017 A 
ATOM     29  C   UNL d   1       7.219   1.968 -15.780  0.00  0.00     0.072 A 
ATOM     30  C   UNL d   1      10.825   1.060 -18.560  0.00  0.00     0.002 A 
ATOM     31  C   UNL d   1      11.537   1.551 -17.446  0.00  0.00     0.000 A 
BRANCH  27  32
ATOM     32  C   UNL d   1       6.266   0.954 -17.888  0.00  0.00     0.133 C 
BRANCH  32  33
ATOM     33  C   UNL d   1       6.227  -0.561 -17.994  0.00  0.00     0.000 A 
ATOM     34  C   UNL d   1       5.369  -1.314 -17.151  0.00  0.00    -0.002 A 
ATOM     35  C   UNL d   1       5.352  -2.723 -17.240  0.00  0.00    -0.000 A 
ATOM     36  C   UNL d   1       6.213  -3.389 -18.139  0.00  0.00    -0.000 A 
ATOM     37  C   UNL d   1       7.065  -2.636 -18.977  0.00  0.00    -0.000 A 
ATOM     38  C   UNL d   1       7.047  -1.226 -18.937  0.00  0.00    -0.002 A 
ENDBRANCH  32  33
ENDBRANCH  27  32
ENDBRANCH   4  23
TORSDOF 9
