REMARK  2 active torsions:
REMARK  status: ('A' for Active; 'I' for Inactive)
REMARK    1  A    between atoms: O_2  and  C_3 
REMARK    2  A    between atoms: C_3  and  C_5 
ROOT
ATOM      1  C   UNL d   1      11.405   8.005  -5.032  0.00  0.00     0.088 A 
ATOM      2  C   UNL d   1      11.829   6.948  -4.195  0.00  0.00     0.007 A 
ATOM      3  C   UNL d   1      12.257   7.192  -2.878  0.00  0.00     0.000 A 
ATOM      4  C   UNL d   1      12.274   8.508  -2.382  0.00  0.00     0.002 A 
ATOM      5  C   UNL d   1      11.859   9.570  -3.204  0.00  0.00     0.028 A 
ATOM      6  C   UNL d   1      11.440   9.331  -4.523  0.00  0.00     0.136 A 
ATOM      7  O   UNL d   1      11.060  10.412  -5.264  0.00  0.00    -0.190 OA
ENDROOT
BRANCH   1   8
ATOM      8  C   UNL d   1      10.920   7.654  -6.402  0.00  0.00     0.298 C 
ATOM      9  O   UNL d   1      11.264   6.633  -6.999  0.00  0.00    -0.259 OA
BRANCH   8  10
ATOM     10  O   UNL d   1      10.050   8.559  -6.899  0.00  0.00    -0.296 OA
ATOM     11  C   UNL d   1       9.463   8.369  -8.177  0.00  0.00     0.185 C 
ENDBRANCH   8  10
ENDBRANCH   1   8
TORSDOF 2
