REMARK  7 active torsions:
REMARK  status: ('A' for Active; 'I' for Inactive)
REMARK    1  A    between atoms: C_8  and  O_9 
REMARK    2  A    between atoms: O_9  and  C_10 
REMARK    3  A    between atoms: C_10  and  C_11 
REMARK    4  A    between atoms: C_11  and  C_12 
REMARK    5  A    between atoms: C_12  and  C_13 
REMARK    6  A    between atoms: C_13  and  N_14 
REMARK    7  A    between atoms: N_18  and  C_19 
ROOT
ATOM      1  N   UNL d   1      10.823   4.752 -14.092  0.00  0.00     0.139 N 
ATOM      2  C   UNL d   1      11.204   5.547 -15.271  0.00  0.00     0.252 C 
ATOM      3  C   UNL d   1      10.122   5.578 -16.387  0.00  0.00     0.059 C 
ATOM      4  C   UNL d   1      10.176   4.410 -17.373  0.00  0.00     0.103 C 
ATOM      5  N   UNL d   1      10.249   3.102 -16.734  0.00  0.00    -0.346 N 
ATOM      6  C   UNL d   1       9.785   2.849 -15.379  0.00  0.00     0.137 C 
ATOM      7  C   UNL d   1      10.842   3.310 -14.352  0.00  0.00     0.274 C 
ENDROOT
BRANCH   1   8
ATOM      8  C   UNL d   1       9.526   5.185 -13.563  0.00  0.00     0.250 C 
BRANCH   8   9
ATOM      9  C   UNL d   1       9.291   4.788 -12.122  0.00  0.00     0.038 C 
BRANCH   9  10
ATOM     10  C   UNL d   1       9.720   5.878 -11.167  0.00  0.00     0.035 C 
BRANCH  10  11
ATOM     11  C   UNL d   1       9.140   7.303 -11.409  0.00  0.00     0.149 C 
BRANCH  11  12
ATOM     12  O   UNL d   1       9.763   8.285 -10.583  0.00  0.00    -0.331 OA
BRANCH  12  13
ATOM     13  C   UNL d   1       9.900   8.016  -9.240  0.00  0.00     0.096 C 
ATOM     14  C   UNL d   1       9.118   7.052  -8.573  0.00  0.00     0.024 C 
ATOM     15  C   UNL d   1       9.422   6.659  -7.283  0.00  0.00    -0.001 C 
ATOM     16  C   UNL d   1      10.425   7.327  -6.592  0.00  0.00    -0.004 C 
ATOM     17  C   UNL d   1      10.734   6.943  -5.162  0.00  0.00     0.038 C 
ATOM     18  C   UNL d   1      11.134   8.391  -7.196  0.00  0.00     0.082 C 
ATOM     19  C   UNL d   1      11.166   8.178  -4.368  0.00  0.00     0.095 C 
ATOM     20  C   UNL d   1      12.180   9.015  -5.119  0.00  0.00     0.256 C 
ATOM     21  O   UNL d   1      13.135   9.408  -4.476  0.00  0.00    -0.270 OA
ATOM     22  N   UNL d   1      12.056   9.168  -6.447  0.00  0.00    -0.212 NA
ATOM     23  C   UNL d   1      10.899   8.707  -8.546  0.00  0.00     0.043 C 
ENDBRANCH  12  13
ENDBRANCH  11  12
ENDBRANCH  10  11
ENDBRANCH   9  10
ENDBRANCH   8   9
ENDBRANCH   1   8
BRANCH   5  24
ATOM     24  C   UNL d   1      10.825   2.048 -17.454  0.00  0.00     0.058 A 
ATOM     25  C   UNL d   1      10.069   0.913 -17.824  0.00  0.00     0.041 A 
ATOM     26  C   UNL d   1      10.672  -0.131 -18.562  0.00  0.00     0.130 A 
ATOM     27  C   UNL d   1       8.647   0.746 -17.509  0.00  0.00     0.009 A 
ATOM     28  C   UNL d   1      12.032  -0.033 -18.919  0.00  0.00     0.154 A 
ATOM     29  O   UNL d   1       9.946  -1.234 -18.953  0.00  0.00    -0.271 OA
ATOM     30  C   UNL d   1      12.778   1.095 -18.559  0.00  0.00     0.031 A 
ATOM     31  O   UNL d   1      12.647  -1.034 -19.617  0.00  0.00    -0.188 OA
ATOM     32  C   UNL d   1      12.183   2.132 -17.826  0.00  0.00     0.019 A 
ATOM     33  C   UNL d   1       8.615  -1.423 -18.657  0.00  0.00     0.300 A 
ATOM     34  O   UNL d   1       8.006  -2.424 -19.008  0.00  0.00    -0.259 OA
ATOM     35  C   UNL d   1       7.967  -0.342 -17.886  0.00  0.00     0.069 A 
ENDBRANCH   5  24
TORSDOF 7
