REMARK  8 active torsions:
REMARK  status: ('A' for Active; 'I' for Inactive)
REMARK    1  A    between atoms: N_2  and  C_3 
REMARK    2  A    between atoms: N_2  and  C_16 
REMARK    3  A    between atoms: C_3  and  C_4 
REMARK    4  A    between atoms: C_4  and  C_5 
REMARK    5  A    between atoms: C_9  and  O_10 
REMARK    6  A    between atoms: O_10  and  C_11 
REMARK    7  A    between atoms: C_16  and  C_17 
REMARK    8  A    between atoms: C_17  and  N_18 
ROOT
ATOM      1  C   UNL d   1       7.396   4.051 -13.216  0.00  0.00    -0.018 A 
ATOM      2  C   UNL d   1       7.136   4.843 -12.079  0.00  0.00    -0.004 A 
ATOM      3  C   UNL d   1       8.168   5.599 -11.497  0.00  0.00     0.002 A 
ATOM      4  C   UNL d   1       9.457   5.567 -12.052  0.00  0.00     0.025 A 
ATOM      5  C   UNL d   1       9.740   4.780 -13.189  0.00  0.00     0.102 A 
ATOM      6  C   UNL d   1       8.695   4.026 -13.769  0.00  0.00     0.020 A 
ENDROOT
BRANCH   1   7
ATOM      7  C   UNL d   1       6.284   3.196 -13.795  0.00  0.00     0.062 C 
BRANCH   7   8
ATOM      8  C   UNL d   1       6.792   1.844 -14.351  0.00  0.00     0.255 C 
BRANCH   8   9
ATOM      9  N   UNL d   1       5.792   0.784 -14.432  0.00  0.00     0.142 N 
ATOM     10  C   UNL d   1       5.440   0.344 -13.088  0.00  0.00     0.285 C 
BRANCH   9  11
ATOM     11  C   UNL d   1       6.269  -0.373 -15.199  0.00  0.00     0.285 C 
BRANCH  11  12
ATOM     12  C   UNL d   1       6.409  -0.183 -16.725  0.00  0.00     0.285 C 
BRANCH  12  13
ATOM     13  N   UNL d   1       5.172  -0.382 -17.479  0.00  0.00     0.139 N 
ATOM     14  C   UNL d   1       5.304  -0.093 -18.892  0.00  0.00     0.250 C 
ATOM     15  C   UNL d   1       4.067  -0.705 -19.551  0.00  0.00     0.037 C 
ATOM     16  C   UNL d   1       3.649  -1.823 -18.582  0.00  0.00     0.037 C 
ATOM     17  C   UNL d   1       4.680  -1.749 -17.458  0.00  0.00     0.250 C 
ENDBRANCH  12  13
ENDBRANCH  11  12
ENDBRANCH   9  11
ENDBRANCH   8   9
ENDBRANCH   7   8
ENDBRANCH   1   7
BRANCH   5  18
ATOM     18  O   UNL d   1      11.036   4.790 -13.664  0.00  0.00    -0.254 OA
BRANCH  18  19
ATOM     19  C   UNL d   1      11.385   4.081 -14.775  0.00  0.00     0.530 C 
ATOM     20  F   UNL d   1      12.687   4.314 -15.062  0.00  0.00    -0.144 F 
ATOM     21  F   UNL d   1      11.253   2.747 -14.585  0.00  0.00    -0.144 F 
ATOM     22  F   UNL d   1      10.670   4.459 -15.863  0.00  0.00    -0.144 F 
ENDBRANCH  18  19
ENDBRANCH   5  18
TORSDOF 8
