REMARK  11 active torsions:
REMARK  status: ('A' for Active; 'I' for Inactive)
REMARK    1  A    between atoms: C_2  and  N_3 
REMARK    2  A    between atoms: N_3  and  C_4 
REMARK    3  A    between atoms: N_3  and  C_20 
REMARK    4  A    between atoms: C_4  and  C_5 
REMARK    5  A    between atoms: C_5  and  C_6 
REMARK    6  A    between atoms: C_6  and  C_7 
REMARK    7  A    between atoms: C_7  and  O_8 
REMARK    8  A    between atoms: O_8  and  C_9 
REMARK    9  A    between atoms: C_20  and  C_21 
REMARK   10  A    between atoms: C_23  and  C_24 
REMARK   11  A    between atoms: C_30  and  O_31 
ROOT
ATOM      1  N   UNL d   1       6.875   3.760 -13.628  0.00  0.00     0.137 N 
ENDROOT
BRANCH   1   2
ATOM      2  C   UNL d   1       5.968   2.619 -13.527  0.00  0.00     0.250 C 
ATOM      3  C   UNL d   1       4.725   2.889 -12.688  0.00  0.00     0.037 C 
ENDBRANCH   1   2
BRANCH   1   4
ATOM      4  C   UNL d   1       7.144   4.389 -12.331  0.00  0.00     0.250 C 
BRANCH   4   5
ATOM      5  C   UNL d   1       7.650   5.824 -12.501  0.00  0.00     0.038 C 
BRANCH   5   6
ATOM      6  C   UNL d   1       8.367   6.295 -11.258  0.00  0.00     0.035 C 
BRANCH   6   7
ATOM      7  C   UNL d   1       9.680   5.538 -10.952  0.00  0.00     0.149 C 
BRANCH   7   8
ATOM      8  O   UNL d   1       9.861   5.426  -9.543  0.00  0.00    -0.331 OA
BRANCH   8   9
ATOM      9  C   UNL d   1      10.236   6.559  -8.842  0.00  0.00     0.096 A 
ATOM     10  C   UNL d   1      10.391   6.420  -7.439  0.00  0.00     0.043 A 
ATOM     11  C   UNL d   1      10.779   7.514  -6.660  0.00  0.00     0.082 A 
ATOM     12  C   UNL d   1      10.943   8.768  -7.266  0.00  0.00    -0.004 A 
ATOM     13  N   UNL d   1      11.008   7.361  -5.266  0.00  0.00    -0.212 NA
ATOM     14  C   UNL d   1      10.787   8.920  -8.654  0.00  0.00    -0.001 A 
ATOM     15  C   UNL d   1      11.283   9.957  -6.418  0.00  0.00     0.038 C 
ATOM     16  C   UNL d   1      10.481   7.819  -9.441  0.00  0.00     0.024 A 
ATOM     17  C   UNL d   1      12.130   9.540  -5.209  0.00  0.00     0.095 C 
ATOM     18  C   UNL d   1      11.612   8.289  -4.502  0.00  0.00     0.256 C 
ATOM     19  O   UNL d   1      11.776   8.165  -3.281  0.00  0.00    -0.270 OA
ENDBRANCH   8   9
ENDBRANCH   7   8
ENDBRANCH   6   7
ENDBRANCH   5   6
ENDBRANCH   4   5
ENDBRANCH   1   4
BRANCH   1  20
ATOM     20  C   UNL d   1       8.162   3.329 -14.205  0.00  0.00     0.251 C 
BRANCH  20  21
ATOM     21  C   UNL d   1       8.104   2.580 -15.545  0.00  0.00     0.038 A 
ATOM     22  C   UNL d   1       9.119   2.843 -16.645  0.00  0.00     0.026 A 
ATOM     23  C   UNL d   1       9.118   1.512 -15.929  0.00  0.00     0.007 A 
BRANCH  22  24
ATOM     24  C   UNL d   1      10.205   3.879 -16.495  0.00  0.00     0.002 A 
ATOM     25  C   UNL d   1      10.320   4.976 -17.390  0.00  0.00     0.090 A 
ATOM     26  C   UNL d   1      11.349   5.939 -17.182  0.00  0.00     0.026 A 
ATOM     27  C   UNL d   1      12.224   5.826 -16.092  0.00  0.00     0.032 A 
ATOM     28  C   UNL d   1      12.087   4.748 -15.197  0.00  0.00     0.140 A 
ATOM     29  C   UNL d   1      11.093   3.791 -15.398  0.00  0.00     0.027 A 
ATOM     30  F   UNL d   1      12.879   4.622 -14.111  0.00  0.00    -0.204 F 
BRANCH  25  31
ATOM     31  O   UNL d   1       9.413   5.051 -18.431  0.00  0.00    -0.328 OA
ATOM     32  C   UNL d   1       9.448   6.185 -19.288  0.00  0.00     0.181 C 
ENDBRANCH  25  31
ENDBRANCH  22  24
ENDBRANCH  20  21
ENDBRANCH   1  20
TORSDOF 11
