REMARK  9 active torsions:
REMARK  status: ('A' for Active; 'I' for Inactive)
REMARK    1  A    between atoms: C_2  and  C_3 
REMARK    2  A    between atoms: C_3  and  C_4 
REMARK    3  A    between atoms: C_4  and  N_5 
REMARK    4  A    between atoms: N_5  and  C_6 
REMARK    5  A    between atoms: N_5  and  C_14 
REMARK    6  A    between atoms: C_6  and  C_7 
REMARK    7  A    between atoms: C_7  and  C_8 
REMARK    8  A    between atoms: C_14  and  C_15 
REMARK    9  A    between atoms: C_15  and  C_16 
ROOT
ATOM      1  N   UNL d   1       5.794   3.559 -13.022  0.00  0.00     0.138 N 
ENDROOT
BRANCH   1   2
ATOM      2  C   UNL d   1       5.400   2.253 -12.473  0.00  0.00     0.250 C 
BRANCH   2   3
ATOM      3  C   UNL d   1       5.021   1.189 -13.538  0.00  0.00     0.035 C 
BRANCH   3   4
ATOM      4  C   UNL d   1       5.660  -0.197 -13.289  0.00  0.00     0.002 C 
ATOM      5  C   UNL d   1       6.940  -0.484 -14.114  0.00  0.00     0.000 C 
ENDBRANCH   3   4
ENDBRANCH   2   3
ENDBRANCH   1   2
BRANCH   1   6
ATOM      6  C   UNL d   1       6.472   4.303 -11.941  0.00  0.00     0.255 C 
BRANCH   6   7
ATOM      7  C   UNL d   1       7.331   5.507 -12.430  0.00  0.00     0.062 C 
BRANCH   7   8
ATOM      8  C   UNL d   1       8.325   6.049 -11.426  0.00  0.00    -0.020 A 
ATOM      9  C   UNL d   1       9.010   7.246 -11.749  0.00  0.00    -0.004 A 
ATOM     10  C   UNL d   1       9.887   7.811 -10.813  0.00  0.00    -0.000 A 
ATOM     11  C   UNL d   1      10.141   7.156  -9.593  0.00  0.00    -0.000 A 
ATOM     12  C   UNL d   1       9.524   5.925  -9.306  0.00  0.00    -0.000 A 
ATOM     13  C   UNL d   1       8.633   5.365 -10.223  0.00  0.00    -0.004 A 
ENDBRANCH   7   8
ENDBRANCH   6   7
ENDBRANCH   1   6
BRANCH   1  14
ATOM     14  C   UNL d   1       6.679   3.446 -14.188  0.00  0.00     0.255 C 
BRANCH  14  15
ATOM     15  C   UNL d   1       8.024   2.763 -13.814  0.00  0.00     0.062 C 
BRANCH  15  16
ATOM     16  C   UNL d   1       9.059   2.944 -14.895  0.00  0.00    -0.018 A 
ATOM     17  C   UNL d   1       9.572   1.849 -15.602  0.00  0.00     0.023 A 
ATOM     18  C   UNL d   1      10.570   2.035 -16.571  0.00  0.00     0.131 A 
ATOM     19  C   UNL d   1      11.057   3.341 -16.842  0.00  0.00     0.027 A 
ATOM     20  O   UNL d   1      11.078   0.983 -17.258  0.00  0.00    -0.190 OA
ATOM     21  C   UNL d   1      10.549   4.443 -16.137  0.00  0.00     0.002 A 
ATOM     22  C   UNL d   1       9.561   4.266 -15.173  0.00  0.00    -0.004 A 
ENDBRANCH  15  16
ENDBRANCH  14  15
ENDBRANCH   1  14
TORSDOF 9
