REMARK  6 active torsions:
REMARK  status: ('A' for Active; 'I' for Inactive)
REMARK    1  A    between atoms: C_2  and  C_3 
REMARK    2  A    between atoms: C_3  and  C_4 
REMARK    3  A    between atoms: C_4  and  C_5 
REMARK    4  A    between atoms: C_4  and  N_16 
REMARK    5  A    between atoms: C_5  and  C_7 
REMARK    6  A    between atoms: C_10  and  N_11 
ROOT
ATOM      1  C   UNL d   1       8.913   3.916 -14.159  0.00  0.00     0.204 C 
ATOM      2  O   UNL d   1       8.345   2.809 -14.073  0.00  0.00    -0.289 OA
ENDROOT
BRANCH   1   3
ATOM      3  C   UNL d   1       8.325   5.184 -13.438  0.00  0.00     0.280 C 
BRANCH   3   4
ATOM      4  C   UNL d   1       6.848   4.919 -12.968  0.00  0.00     0.041 C 
BRANCH   4   5
ATOM      5  C   UNL d   1       6.162   6.001 -12.086  0.00  0.00     0.003 C 
ATOM      6  C   UNL d   1       5.964   7.347 -12.800  0.00  0.00     0.000 C 
ENDBRANCH   4   5
ENDBRANCH   3   4
BRANCH   3   7
ATOM      7  N   UNL d   1       9.167   5.692 -12.319  0.00  0.00     0.142 N 
ATOM      8  C   UNL d   1       9.054   7.113 -12.036  0.00  0.00     0.251 C 
ATOM      9  C   UNL d   1       9.715   7.296 -10.703  0.00  0.00     0.037 C 
ATOM     10  C   UNL d   1       9.679   5.884 -10.056  0.00  0.00     0.037 C 
ATOM     11  C   UNL d   1       9.054   4.936 -11.075  0.00  0.00     0.251 C 
ENDBRANCH   3   7
ENDBRANCH   1   3
BRANCH   1  12
ATOM     12  C   UNL d   1      10.161   4.042 -14.968  0.00  0.00     0.037 A 
ATOM     13  C   UNL d   1      10.571   3.035 -15.852  0.00  0.00     0.005 A 
ATOM     14  C   UNL d   1      11.760   3.156 -16.604  0.00  0.00     0.024 A 
ATOM     15  C   UNL d   1      12.582   4.299 -16.468  0.00  0.00     0.127 A 
ATOM     16  C   UNL d   1      12.181   5.311 -15.571  0.00  0.00     0.024 A 
ATOM     17  C   UNL d   1      10.993   5.196 -14.840  0.00  0.00     0.005 A 
BRANCH  15  18
ATOM     18  N   UNL d   1      13.830   4.448 -17.231  0.00  0.00    -0.114 N 
ATOM     19  O   UNL d   1      14.095   3.589 -18.084  0.00  0.00    -0.532 OA
ATOM     20  O   UNL d   1      14.538   5.417 -17.016  0.00  0.00    -0.532 OA
ENDBRANCH  15  18
ENDBRANCH   1  12
TORSDOF 6
