REMARK  7 active torsions:
REMARK  status: ('A' for Active; 'I' for Inactive)
REMARK    1  A    between atoms: C_2  and  C_3 
REMARK       I    between atoms: C_2  and  N_8 
REMARK    2  A    between atoms: C_3  and  C_4 
REMARK    3  A    between atoms: N_8  and  C_9 
REMARK    4  A    between atoms: C_12  and  C_13 
REMARK    5  A    between atoms: C_13  and  C_14 
REMARK    6  A    between atoms: C_14  and  N_15 
REMARK    7  A    between atoms: C_18  and  C_19 
ROOT
ATOM      1  C   UNL d   1       9.461   6.522 -11.252  0.00  0.00     0.250 C 
ENDROOT
BRANCH   1   2
ATOM      2  C   UNL d   1       7.961   6.292 -11.547  0.00  0.00     0.035 C 
BRANCH   2   3
ATOM      3  C   UNL d   1       7.654   5.317 -12.699  0.00  0.00     0.002 C 
ATOM      4  C   UNL d   1       8.589   4.095 -12.710  0.00  0.00     0.002 C 
ATOM      5  C   UNL d   1       8.237   3.129 -13.830  0.00  0.00     0.024 C 
ATOM      6  C   UNL d   1       6.762   2.689 -13.758  0.00  0.00     0.106 C 
ATOM      7  C   UNL d   1       5.802   3.881 -13.724  0.00  0.00     0.024 C 
ATOM      8  C   UNL d   1       6.176   4.852 -12.605  0.00  0.00     0.002 C 
BRANCH   6   9
ATOM      9  N   UNL d   1       6.474   1.816 -14.874  0.00  0.00    -0.240 NA
ATOM     10  C   UNL d   1       6.868   0.541 -14.990  0.00  0.00     0.252 C 
ATOM     11  O   UNL d   1       7.599  -0.009 -14.165  0.00  0.00    -0.271 OA
BRANCH  10  12
ATOM     12  C   UNL d   1       6.313  -0.224 -16.194  0.00  0.00     0.095 C 
BRANCH  12  13
ATOM     13  C   UNL d   1       5.174  -1.154 -15.774  0.00  0.00     0.069 C 
ATOM     14  C   UNL d   1       4.040  -0.684 -14.850  0.00  0.00     0.145 C 
ATOM     15  O   UNL d   1       3.058  -1.373 -15.654  0.00  0.00    -0.354 OA
ATOM     16  C   UNL d   1       4.020  -1.425 -16.747  0.00  0.00     0.145 C 
ENDBRANCH  12  13
ENDBRANCH  10  12
ENDBRANCH   6   9
ENDBRANCH   2   3
ENDBRANCH   1   2
BRANCH   1  17
ATOM     17  N   UNL d   1       9.721   7.218  -9.999  0.00  0.00     0.137 N 
ATOM     18  C   UNL d   1       9.430   6.335  -8.860  0.00  0.00     0.251 C 
ATOM     19  C   UNL d   1       9.625   7.090  -7.543  0.00  0.00     0.040 C 
ATOM     20  C   UNL d   1      11.055   7.631  -7.427  0.00  0.00     0.028 C 
ATOM     21  C   UNL d   1      11.419   8.417  -8.702  0.00  0.00     0.040 C 
ATOM     22  C   UNL d   1      11.128   7.617  -9.976  0.00  0.00     0.251 C 
BRANCH  20  23
ATOM     23  C   UNL d   1      11.187   8.479  -6.187  0.00  0.00     0.004 A 
ATOM     24  C   UNL d   1      11.531   8.048  -4.866  0.00  0.00     0.021 A 
ATOM     25  C   UNL d   1      11.536   9.214  -4.064  0.00  0.00     0.100 A 
ATOM     26  C   UNL d   1      11.860   6.830  -4.220  0.00  0.00     0.002 A 
ATOM     27  O   UNL d   1      11.144  10.295  -4.822  0.00  0.00    -0.305 OA
ATOM     28  C   UNL d   1      11.892   9.216  -2.709  0.00  0.00     0.025 A 
ATOM     29  C   UNL d   1      10.987   9.834  -6.093  0.00  0.00     0.118 A 
ATOM     30  C   UNL d   1      12.254   7.999  -2.101  0.00  0.00     0.002 A 
ATOM     31  C   UNL d   1      12.225   6.807  -2.854  0.00  0.00     0.000 A 
ENDBRANCH  20  23
ENDBRANCH   1  17
TORSDOF 7
