REMARK  4 active torsions:
REMARK  status: ('A' for Active; 'I' for Inactive)
REMARK    1  A    between atoms: C_5  and  C_6 
REMARK    2  A    between atoms: C_8  and  C_9 
REMARK    3  A    between atoms: C_9  and  N_10 
REMARK    4  A    between atoms: N_13  and  C_14 
ROOT
ATOM      1  N   UNL d   1       9.230   6.031 -10.751  0.00  0.00     0.141 N 
ATOM      2  C   UNL d   1       9.801   7.383 -10.711  0.00  0.00     0.274 C 
ATOM      3  C   UNL d   1      11.011   7.444  -9.766  0.00  0.00     0.137 C 
ATOM      4  N   UNL d   1      10.635   6.972  -8.439  0.00  0.00    -0.344 N 
ATOM      5  C   UNL d   1       9.952   5.684  -8.410  0.00  0.00     0.137 C 
ATOM      6  C   UNL d   1       8.771   5.680  -9.398  0.00  0.00     0.274 C 
ENDROOT
BRANCH   1   7
ATOM      7  C   UNL d   1       8.097   6.009 -11.674  0.00  0.00     0.251 C 
BRANCH   7   8
ATOM      8  C   UNL d   1       7.847   4.602 -12.193  0.00  0.00     0.038 A 
ATOM      9  C   UNL d   1       7.777   4.334 -13.679  0.00  0.00     0.024 A 
ATOM     10  C   UNL d   1       6.523   4.245 -12.842  0.00  0.00     0.007 A 
BRANCH   9  11
ATOM     11  C   UNL d   1       8.432   3.122 -14.254  0.00  0.00    -0.022 A 
ATOM     12  C   UNL d   1       9.841   3.023 -14.299  0.00  0.00    -0.002 A 
ATOM     13  C   UNL d   1      10.451   1.861 -14.818  0.00  0.00     0.029 A 
ATOM     14  C   UNL d   1       9.658   0.794 -15.274  0.00  0.00     0.140 A 
ATOM     15  F   UNL d   1      10.244  -0.335 -15.744  0.00  0.00    -0.204 F 
ATOM     16  C   UNL d   1       8.255   0.892 -15.246  0.00  0.00     0.029 A 
ATOM     17  C   UNL d   1       7.646   2.060 -14.743  0.00  0.00    -0.002 A 
ENDBRANCH   9  11
ENDBRANCH   7   8
ENDBRANCH   1   7
BRANCH   4  18
ATOM     18  C   UNL d   1      10.886   7.706  -7.261  0.00  0.00     0.057 A 
ATOM     19  C   UNL d   1      11.204   7.046  -6.053  0.00  0.00     0.028 A 
ATOM     20  C   UNL d   1      11.458   7.772  -4.875  0.00  0.00     0.059 A 
ATOM     21  C   UNL d   1      11.396   9.176  -4.882  0.00  0.00     0.011 A 
ATOM     22 CL   UNL d   1      11.865   6.933  -3.423  0.00  0.00    -0.082 Cl
ATOM     23  C   UNL d   1      11.078   9.847  -6.078  0.00  0.00     0.002 A 
ATOM     24  C   UNL d   1      10.828   9.115  -7.259  0.00  0.00     0.017 A 
ENDBRANCH   4  18
TORSDOF 4
