REMARK  12 active torsions:
REMARK  status: ('A' for Active; 'I' for Inactive)
REMARK       I    between atoms: N_2  and  C_4 
REMARK    1  A    between atoms: C_4  and  C_6 
REMARK    2  A    between atoms: C_6  and  C_7 
REMARK    3  A    between atoms: C_6  and  C_29 
REMARK    4  A    between atoms: C_6  and  C_35 
REMARK    5  A    between atoms: C_7  and  C_8 
REMARK    6  A    between atoms: C_8  and  N_9 
REMARK    7  A    between atoms: N_9  and  C_10 
REMARK    8  A    between atoms: C_10  and  C_11 
REMARK    9  A    between atoms: C_11  and  C_12 
REMARK   10  A    between atoms: C_12  and  C_14 
REMARK   11  A    between atoms: C_14  and  N_15 
REMARK   12  A    between atoms: N_18  and  C_19 
ROOT
ATOM      1  C   UNL d   1       9.823   4.247 -15.758  0.00  0.00     0.291 C 
ENDROOT
BRANCH   1   2
ATOM      2  C   UNL d   1      10.986   3.760 -16.596  0.00  0.00     0.055 C 
BRANCH   2   3
ATOM      3  C   UNL d   1      10.765   3.278 -18.066  0.00  0.00     0.111 C 
BRANCH   3   4
ATOM      4  C   UNL d   1      12.126   2.917 -18.818  0.00  0.00     0.240 C 
ATOM      5  N   UNL d   1      13.377   3.287 -18.389  0.00  0.00    -0.316 N 
ATOM      6  C   UNL d   1      14.566   2.721 -19.027  0.00  0.00     0.128 C 
ATOM      7  C   UNL d   1      13.769   4.307 -17.411  0.00  0.00     0.128 C 
ATOM      8  O   UNL d   1      12.057   2.256 -19.871  0.00  0.00    -0.272 OA
ENDBRANCH   3   4
BRANCH   3   9
ATOM      9  C   UNL d   1      10.122   4.395 -18.937  0.00  0.00    -0.011 A 
ATOM     10  C   UNL d   1       9.272   4.072 -20.031  0.00  0.00    -0.004 A 
ATOM     11  C   UNL d   1       8.701   5.093 -20.819  0.00  0.00    -0.000 A 
ATOM     12  C   UNL d   1       8.971   6.448 -20.547  0.00  0.00    -0.000 A 
ATOM     13  C   UNL d   1       9.823   6.786 -19.491  0.00  0.00    -0.000 A 
ATOM     14  C   UNL d   1      10.395   5.770 -18.712  0.00  0.00    -0.004 A 
ENDBRANCH   3   9
BRANCH   3  15
ATOM     15  C   UNL d   1       9.811   2.020 -17.957  0.00  0.00    -0.011 A 
ATOM     16  C   UNL d   1      10.237   0.681 -18.213  0.00  0.00    -0.004 A 
ATOM     17  C   UNL d   1       9.381  -0.414 -18.073  0.00  0.00    -0.000 A 
ATOM     18  C   UNL d   1       8.081  -0.232 -17.590  0.00  0.00    -0.000 A 
ATOM     19  C   UNL d   1       7.634   1.055 -17.260  0.00  0.00    -0.000 A 
ATOM     20  C   UNL d   1       8.473   2.163 -17.478  0.00  0.00    -0.004 A 
ENDBRANCH   3  15
ENDBRANCH   2   3
ENDBRANCH   1   2
BRANCH   1  21
ATOM     21  N   UNL d   1      10.355   4.982 -14.615  0.00  0.00     0.339 N 
BRANCH  21  22
ATOM     22  C   UNL d   1       9.291   5.085 -13.641  0.00  0.00     0.293 C 
BRANCH  22  23
ATOM     23  C   UNL d   1       9.726   6.037 -12.540  0.00  0.00     0.073 C 
BRANCH  23  24
ATOM     24  C   UNL d   1       8.604   6.574 -11.669  0.00  0.00     0.188 C 
ATOM     25  O   UNL d   1       8.701   7.978 -11.688  0.00  0.00    -0.221 OA
BRANCH  24  26
ATOM     26  C   UNL d   1       8.655   6.092 -10.208  0.00  0.00     0.283 C 
BRANCH  26  27
ATOM     27  N   UNL d   1       9.695   6.720  -9.412  0.00  0.00     0.144 N 
ATOM     28  C   UNL d   1       9.154   7.763  -8.539  0.00  0.00     0.274 C 
ATOM     29  C   UNL d   1      10.207   8.471  -7.729  0.00  0.00     0.137 C 
ATOM     30  N   UNL d   1      10.937   7.484  -6.956  0.00  0.00    -0.344 N 
ATOM     31  C   UNL d   1      11.475   6.397  -7.717  0.00  0.00     0.137 C 
ATOM     32  C   UNL d   1      10.356   5.755  -8.553  0.00  0.00     0.274 C 
BRANCH  30  33
ATOM     33  C   UNL d   1      11.229   7.628  -5.601  0.00  0.00     0.068 A 
ATOM     34  C   UNL d   1      11.437   8.873  -4.975  0.00  0.00     0.084 A 
ATOM     35  C   UNL d   1      11.681   8.855  -3.601  0.00  0.00     0.070 A 
ATOM     36 CL   UNL d   1      11.498  10.393  -5.781  0.00  0.00    -0.080 Cl
ATOM     37  C   UNL d   1      11.759   7.713  -2.807  0.00  0.00     0.012 A 
ATOM     38 CL   UNL d   1      11.883  10.297  -2.816  0.00  0.00    -0.081 Cl
ATOM     39  C   UNL d   1      11.604   6.495  -3.425  0.00  0.00     0.002 A 
ATOM     40  C   UNL d   1      11.365   6.486  -4.809  0.00  0.00     0.018 A 
ENDBRANCH  30  33
ENDBRANCH  26  27
ENDBRANCH  24  26
ENDBRANCH  23  24
ENDBRANCH  22  23
ENDBRANCH  21  22
ENDBRANCH   1  21
TORSDOF 12
