REMARK  8 active torsions:
REMARK  status: ('A' for Active; 'I' for Inactive)
REMARK    1  A    between atoms: C_4  and  C_5 
REMARK    2  A    between atoms: C_8  and  S_9 
REMARK    3  A    between atoms: S_9  and  C_10 
REMARK    4  A    between atoms: C_10  and  C_11 
REMARK    5  A    between atoms: C_11  and  C_12 
REMARK    6  A    between atoms: C_12  and  N_13 
REMARK    7  A    between atoms: N_18  and  C_19 
REMARK    8  A    between atoms: C_22  and  C_23 
ROOT
ATOM      1  N   UNL d   1      11.445   0.254 -18.542  0.00  0.00     0.138 N 
ATOM      2  C   UNL d   1      10.992  -1.073 -18.167  0.00  0.00     0.252 C 
ATOM      3  C   UNL d   1       9.904  -0.806 -17.130  0.00  0.00     0.052 C 
ATOM      4  C   UNL d   1       8.502  -0.582 -17.702  0.00  0.00     0.021 C 
ATOM      5  C   UNL d   1       7.962   0.533 -16.818  0.00  0.00     0.077 C 
ATOM      6  N   UNL d   1       9.109   1.387 -16.525  0.00  0.00    -0.252 NA
ATOM      7  C   UNL d   1      10.285   0.525 -16.486  0.00  0.00     0.097 C 
ATOM      8  C   UNL d   1      11.477   1.039 -17.312  0.00  0.00     0.266 C 
ENDROOT
BRANCH   1   9
ATOM      9  C   UNL d   1      12.723   0.228 -19.239  0.00  0.00     0.251 C 
BRANCH   9  10
ATOM     10  C   UNL d   1      12.889   1.481 -20.101  0.00  0.00     0.047 C 
BRANCH  10  11
ATOM     11  C   UNL d   1      14.123   1.383 -21.013  0.00  0.00     0.067 C 
BRANCH  11  12
ATOM     12  S   UNL d   1      14.212   2.764 -22.193  0.00  0.00    -0.075 SA
BRANCH  12  13
ATOM     13  C   UNL d   1      14.630   4.077 -21.096  0.00  0.00     0.193 A 
ATOM     14  N   UNL d   1      15.095   3.882 -19.863  0.00  0.00    -0.122 NA
ATOM     15  N   UNL d   1      15.308   5.137 -19.347  0.00  0.00    -0.126 NA
ATOM     16  C   UNL d   1      14.950   5.993 -20.307  0.00  0.00     0.192 A 
ATOM     17  N   UNL d   1      14.519   5.376 -21.435  0.00  0.00    -0.287 N 
ATOM     18  C   UNL d   1      14.063   5.966 -22.691  0.00  0.00     0.134 C 
BRANCH  16  19
ATOM     19  C   UNL d   1      15.063   7.432 -20.096  0.00  0.00     0.162 A 
ATOM     20  C   UNL d   1      14.576   8.511 -20.776  0.00  0.00     0.047 A 
ATOM     21  C   UNL d   1      15.069   9.620 -20.039  0.00  0.00     0.088 A 
ATOM     22  C   UNL d   1      14.837  11.063 -20.329  0.00  0.00     0.055 C 
ATOM     23  N   UNL d   1      15.807   9.250 -19.004  0.00  0.00    -0.131 NA
ATOM     24  O   UNL d   1      15.809   7.851 -19.036  0.00  0.00    -0.208 OA
ENDBRANCH  16  19
ENDBRANCH  12  13
ENDBRANCH  11  12
ENDBRANCH  10  11
ENDBRANCH   9  10
ENDBRANCH   1   9
BRANCH   6  25
ATOM     25  C   UNL d   1       9.008   2.357 -15.503  0.00  0.00     0.036 A 
ATOM     26  C   UNL d   1      10.143   3.124 -15.133  0.00  0.00     0.011 A 
ATOM     27  C   UNL d   1      10.058   4.078 -14.102  0.00  0.00     0.005 A 
ATOM     28  C   UNL d   1       8.845   4.282 -13.419  0.00  0.00     0.071 A 
ATOM     29  C   UNL d   1       7.707   3.530 -13.781  0.00  0.00     0.005 A 
ATOM     30  C   UNL d   1       7.789   2.577 -14.815  0.00  0.00     0.011 A 
BRANCH  28  31
ATOM     31  C   UNL d   1       8.775   5.295 -12.293  0.00  0.00     0.419 C 
ATOM     32  F   UNL d   1       9.452   6.391 -12.636  0.00  0.00    -0.166 F 
ATOM     33  F   UNL d   1       7.513   5.636 -12.031  0.00  0.00    -0.166 F 
ATOM     34  F   UNL d   1       9.323   4.768 -11.198  0.00  0.00    -0.166 F 
ENDBRANCH  28  31
ENDBRANCH   6  25
TORSDOF 8
