REMARK  4 active torsions:
REMARK  status: ('A' for Active; 'I' for Inactive)
REMARK    1  A    between atoms: N_12  and  C_13 
REMARK    2  A    between atoms: C_13  and  C_14 
REMARK    3  A    between atoms: C_14  and  N_15 
REMARK    4  A    between atoms: N_18  and  C_19 
ROOT
ATOM      1  N   UNL d   1       8.932   4.545 -13.819  0.00  0.00     0.143 N 
ATOM      2  C   UNL d   1       8.524   3.982 -12.524  0.00  0.00     0.274 C 
ATOM      3  C   UNL d   1       7.943   5.063 -11.609  0.00  0.00     0.137 C 
ATOM      4  N   UNL d   1       8.942   6.110 -11.432  0.00  0.00    -0.344 N 
ATOM      5  C   UNL d   1       9.421   6.661 -12.697  0.00  0.00     0.137 C 
ATOM      6  C   UNL d   1       9.985   5.522 -13.562  0.00  0.00     0.274 C 
ENDROOT
BRANCH   1   7
ATOM      7  C   UNL d   1       9.485   3.511 -14.677  0.00  0.00     0.275 C 
BRANCH   7   8
ATOM      8  C   UNL d   1       8.428   2.435 -15.010  0.00  0.00     0.147 C 
BRANCH   8   9
ATOM      9  N   UNL d   1       8.874   1.548 -16.094  0.00  0.00    -0.268 N 
ATOM     10  C   UNL d   1       9.920   0.719 -15.842  0.00  0.00     0.239 C 
ATOM     11  O   UNL d   1      10.523   0.686 -14.772  0.00  0.00    -0.272 OA
ATOM     12  C   UNL d   1      10.388  -0.249 -16.918  0.00  0.00     0.089 C 
ATOM     13  C   UNL d   1      10.089   0.225 -18.355  0.00  0.00     0.018 C 
ATOM     14  C   UNL d   1      11.051   1.347 -18.805  0.00  0.00     0.001 C 
ATOM     15  C   UNL d   1      10.431  -0.916 -19.318  0.00  0.00     0.001 C 
ATOM     16  C   UNL d   1       8.624   0.639 -18.433  0.00  0.00     0.089 C 
ATOM     17  C   UNL d   1      12.354   0.643 -19.160  0.00  0.00     0.000 C 
ATOM     18  C   UNL d   1      11.929  -0.755 -19.641  0.00  0.00     0.000 C 
ATOM     19  C   UNL d   1       8.233   1.582 -17.294  0.00  0.00     0.239 C 
ATOM     20  O   UNL d   1       7.313   2.355 -17.535  0.00  0.00    -0.272 OA
ENDBRANCH   8   9
ENDBRANCH   7   8
ENDBRANCH   1   7
BRANCH   4  21
ATOM     21  C   UNL d   1       9.337   6.612 -10.178  0.00  0.00     0.059 A 
ATOM     22  C   UNL d   1       9.952   7.889 -10.059  0.00  0.00     0.049 A 
ATOM     23  C   UNL d   1      10.360   8.390  -8.815  0.00  0.00     0.169 A 
ATOM     24  C   UNL d   1      10.131   7.654  -7.639  0.00  0.00     0.168 A 
ATOM     25  F   UNL d   1      10.984   9.589  -8.750  0.00  0.00    -0.202 F 
ATOM     26  C   UNL d   1       9.489   6.409  -7.730  0.00  0.00     0.034 A 
ATOM     27  F   UNL d   1      10.524   8.137  -6.441  0.00  0.00    -0.202 F 
ATOM     28  C   UNL d   1       9.104   5.886  -8.976  0.00  0.00     0.019 A 
ENDBRANCH   4  21
TORSDOF 4
