REMARK  7 active torsions:
REMARK  status: ('A' for Active; 'I' for Inactive)
REMARK       I    between atoms: N_2  and  C_4 
REMARK       I    between atoms: C_4  and  N_6 
REMARK    1  A    between atoms: N_6  and  C_7 
REMARK    2  A    between atoms: C_10  and  C_11 
REMARK    3  A    between atoms: C_11  and  C_12 
REMARK    4  A    between atoms: C_12  and  N_13 
REMARK    5  A    between atoms: N_13  and  C_14 
REMARK    6  A    between atoms: C_14  and  C_15 
REMARK    7  A    between atoms: C_17  and  C_18 
ROOT
ATOM      1  N   UNL d   1       8.637   7.436 -11.895  0.00  0.00     0.339 N 
ENDROOT
BRANCH   1   2
ATOM      2  C   UNL d   1       9.542   7.013 -10.846  0.00  0.00     0.290 C 
BRANCH   2   3
ATOM      3  C   UNL d   1       9.949   8.253 -10.065  0.00  0.00     0.038 C 
BRANCH   3   4
ATOM      4  C   UNL d   1      10.737   7.932  -8.790  0.00  0.00     0.002 C 
ATOM      5  C   UNL d   1      10.901   9.218  -7.973  0.00  0.00     0.002 C 
ATOM      6  C   UNL d   1      11.648   8.995  -6.665  0.00  0.00     0.025 C 
ATOM      7  C   UNL d   1      10.964   7.921  -5.814  0.00  0.00     0.108 C 
ATOM      8  C   UNL d   1      10.815   6.638  -6.626  0.00  0.00     0.025 C 
ATOM      9  C   UNL d   1      10.050   6.862  -7.924  0.00  0.00     0.002 C 
BRANCH   7  10
ATOM     10  N   UNL d   1      11.714   7.629  -4.606  0.00  0.00    -0.221 NA
ATOM     11  C   UNL d   1      11.858   8.441  -3.546  0.00  0.00     0.342 C 
ATOM     12  N   UNL d   1      12.379   7.818  -2.472  0.00  0.00    -0.297 N 
ATOM     13  O   UNL d   1      11.583   9.640  -3.564  0.00  0.00    -0.245 OA
ATOM     14  C   UNL d   1      12.928   8.594  -1.360  0.00  0.00     0.130 C 
ATOM     15  C   UNL d   1      12.273   6.374  -2.290  0.00  0.00     0.130 C 
ENDBRANCH   7  10
ENDBRANCH   3   4
ENDBRANCH   2   3
ENDBRANCH   1   2
BRANCH   1  16
ATOM     16  C   UNL d   1       8.297   6.245 -12.619  0.00  0.00     0.290 C 
BRANCH  16  17
ATOM     17  C   UNL d   1       6.802   5.993 -12.647  0.00  0.00     0.041 A 
ATOM     18  C   UNL d   1       6.235   4.721 -13.271  0.00  0.00     0.024 A 
ATOM     19  C   UNL d   1       6.197   4.924 -11.782  0.00  0.00     0.007 A 
BRANCH  18  20
ATOM     20  C   UNL d   1       7.110   3.634 -13.868  0.00  0.00    -0.022 A 
ATOM     21  C   UNL d   1       6.694   2.265 -13.886  0.00  0.00    -0.004 A 
ATOM     22  C   UNL d   1       7.566   1.284 -14.457  0.00  0.00    -0.000 A 
ATOM     23  C   UNL d   1       5.476   1.826 -13.283  0.00  0.00    -0.000 A 
ATOM     24  C   UNL d   1       8.818   1.649 -15.004  0.00  0.00    -0.000 A 
ATOM     25  C   UNL d   1       7.224  -0.059 -14.449  0.00  0.00    -0.000 A 
ATOM     26  C   UNL d   1       9.190   3.003 -14.987  0.00  0.00    -0.000 A 
ATOM     27  C   UNL d   1       8.345   3.983 -14.439  0.00  0.00    -0.004 A 
ATOM     28  C   UNL d   1       6.018  -0.484 -13.878  0.00  0.00    -0.000 A 
ATOM     29  C   UNL d   1       5.156   0.456 -13.292  0.00  0.00    -0.000 A 
ENDBRANCH  18  20
ENDBRANCH  16  17
ENDBRANCH   1  16
TORSDOF 7
