REMARK  11 active torsions:
REMARK  status: ('A' for Active; 'I' for Inactive)
REMARK    1  A    between atoms: C_2  and  N_3 
REMARK    2  A    between atoms: N_3  and  C_4 
REMARK    3  A    between atoms: N_3  and  C_20 
REMARK    4  A    between atoms: C_4  and  C_5 
REMARK    5  A    between atoms: C_5  and  C_6 
REMARK    6  A    between atoms: C_6  and  C_7 
REMARK    7  A    between atoms: C_7  and  O_8 
REMARK    8  A    between atoms: O_8  and  C_9 
REMARK    9  A    between atoms: C_20  and  C_21 
REMARK   10  A    between atoms: C_23  and  C_24 
REMARK   11  A    between atoms: C_30  and  O_31 
ROOT
ATOM      1  N   UNL d   1       9.269   4.655 -14.768  0.00  0.00     0.137 N 
ENDROOT
BRANCH   1   2
ATOM      2  C   UNL d   1      10.714   4.818 -14.565  0.00  0.00     0.250 C 
ATOM      3  C   UNL d   1      11.257   4.185 -13.275  0.00  0.00     0.037 C 
ENDBRANCH   1   2
BRANCH   1   4
ATOM      4  C   UNL d   1       8.488   5.272 -13.692  0.00  0.00     0.250 C 
BRANCH   4   5
ATOM      5  C   UNL d   1       8.351   4.388 -12.422  0.00  0.00     0.038 C 
BRANCH   5   6
ATOM      6  C   UNL d   1       8.032   5.256 -11.211  0.00  0.00     0.035 C 
BRANCH   6   7
ATOM      7  C   UNL d   1       8.262   4.457  -9.905  0.00  0.00     0.149 C 
BRANCH   7   8
ATOM      8  O   UNL d   1       8.154   5.252  -8.743  0.00  0.00    -0.331 OA
BRANCH   8   9
ATOM      9  C   UNL d   1       9.073   6.236  -8.553  0.00  0.00     0.096 A 
ATOM     10  C   UNL d   1       8.963   7.027  -7.386  0.00  0.00     0.043 A 
ATOM     11  C   UNL d   1       9.896   8.038  -7.159  0.00  0.00     0.082 A 
ATOM     12  C   UNL d   1      10.895   8.319  -8.109  0.00  0.00    -0.004 A 
ATOM     13  N   UNL d   1       9.867   8.796  -5.984  0.00  0.00    -0.212 NA
ATOM     14  C   UNL d   1      10.987   7.562  -9.286  0.00  0.00    -0.001 A 
ATOM     15  C   UNL d   1      11.855   9.423  -7.840  0.00  0.00     0.038 C 
ATOM     16  C   UNL d   1      10.119   6.509  -9.465  0.00  0.00     0.024 A 
ATOM     17  C   UNL d   1      12.104   9.665  -6.348  0.00  0.00     0.095 C 
ATOM     18  C   UNL d   1      10.814   9.617  -5.552  0.00  0.00     0.256 C 
ATOM     19  O   UNL d   1      10.684  10.297  -4.537  0.00  0.00    -0.270 OA
ENDBRANCH   8   9
ENDBRANCH   7   8
ENDBRANCH   6   7
ENDBRANCH   5   6
ENDBRANCH   4   5
ENDBRANCH   1   4
BRANCH   1  20
ATOM     20  C   UNL d   1       8.870   3.265 -14.939  0.00  0.00     0.251 C 
BRANCH  20  21
ATOM     21  C   UNL d   1       9.708   2.472 -15.920  0.00  0.00     0.038 A 
ATOM     22  C   UNL d   1       9.150   1.220 -16.543  0.00  0.00     0.026 A 
ATOM     23  C   UNL d   1      10.263   1.109 -15.536  0.00  0.00     0.007 A 
BRANCH  22  24
ATOM     24  C   UNL d   1       7.760   0.746 -16.210  0.00  0.00     0.001 A 
ATOM     25  C   UNL d   1       6.871   0.311 -17.215  0.00  0.00     0.090 A 
ATOM     26  C   UNL d   1       5.569  -0.113 -16.849  0.00  0.00     0.025 A 
ATOM     27  C   UNL d   1       5.152  -0.093 -15.503  0.00  0.00     0.013 A 
ATOM     28  C   UNL d   1       6.034   0.340 -14.508  0.00  0.00     0.058 A 
ATOM     29  C   UNL d   1       7.322   0.731 -14.857  0.00  0.00     0.009 A 
ATOM     30 CL   UNL d   1       5.543   0.393 -12.855  0.00  0.00    -0.082 Cl
BRANCH  25  31
ATOM     31  O   UNL d   1       7.334   0.317 -18.518  0.00  0.00    -0.328 OA
ATOM     32  C   UNL d   1       6.458  -0.124 -19.541  0.00  0.00     0.181 C 
ENDBRANCH  25  31
ENDBRANCH  22  24
ENDBRANCH  20  21
ENDBRANCH   1  20
TORSDOF 11
