REMARK  5 active torsions:
REMARK  status: ('A' for Active; 'I' for Inactive)
REMARK    1  A    between atoms: C_1  and  C_21 
REMARK    2  A    between atoms: C_2  and  C_3 
REMARK    3  A    between atoms: N_7  and  C_8 
REMARK    4  A    between atoms: N_11  and  C_12 
REMARK    5  A    between atoms: C_12  and  C_13 
ROOT
ATOM      1  C   UNL d   1       7.405   3.175 -13.953  0.00  0.00     0.103 A 
ATOM      2  C   UNL d   1       6.254   2.448 -13.906  0.00  0.00     0.027 A 
ATOM      3  C   UNL d   1       5.448   2.954 -12.855  0.00  0.00     0.021 A 
ATOM      4  C   UNL d   1       6.134   3.979 -12.274  0.00  0.00     0.076 A 
ATOM      5  N   UNL d   1       7.340   4.134 -12.933  0.00  0.00    -0.322 N 
ENDROOT
BRANCH   5   6
ATOM      6  C   UNL d   1       8.350   5.122 -12.539  0.00  0.00     0.090 C 
ATOM      7  C   UNL d   1       7.782   6.540 -12.600  0.00  0.00     0.058 C 
ATOM      8  C   UNL d   1       8.812   7.574 -12.142  0.00  0.00     0.253 C 
ATOM      9  N   UNL d   1       9.260   7.254 -10.797  0.00  0.00     0.141 N 
ATOM     10  C   UNL d   1       9.862   5.943 -10.715  0.00  0.00     0.253 C 
ATOM     11  C   UNL d   1       8.893   4.846 -11.132  0.00  0.00     0.058 C 
BRANCH   9  12
ATOM     12  C   UNL d   1      10.112   8.309 -10.273  0.00  0.00     0.277 C 
BRANCH  12  13
ATOM     13  C   UNL d   1      10.380   8.225  -8.777  0.00  0.00     0.011 A 
ATOM     14  C   UNL d   1       9.459   7.641  -7.887  0.00  0.00    -0.002 A 
ATOM     15  C   UNL d   1       9.745   7.571  -6.507  0.00  0.00    -0.000 A 
ATOM     16  C   UNL d   1      10.929   8.133  -6.007  0.00  0.00    -0.000 A 
ATOM     17  C   UNL d   1      11.834   8.763  -6.884  0.00  0.00    -0.000 A 
ATOM     18  C   UNL d   1      11.571   8.780  -8.268  0.00  0.00    -0.002 A 
ENDBRANCH  12  13
ENDBRANCH   9  12
ENDBRANCH   5   6
BRANCH   1  19
ATOM     19  C   UNL d   1       8.525   3.068 -14.790  0.00  0.00    -0.042 C 
ATOM     20  C   UNL d   1       9.506   2.971 -15.507  0.00  0.00    -0.058 C 
BRANCH  20  21
ATOM     21  C   UNL d   1      10.663   2.822 -16.370  0.00  0.00     0.042 A 
ATOM     22  C   UNL d   1      11.621   3.852 -16.462  0.00  0.00     0.008 A 
ATOM     23  C   UNL d   1      12.740   3.692 -17.305  0.00  0.00     0.001 A 
ATOM     24  C   UNL d   1      12.895   2.508 -18.052  0.00  0.00     0.000 A 
ATOM     25  C   UNL d   1      11.937   1.480 -17.956  0.00  0.00     0.001 A 
ATOM     26  C   UNL d   1      10.819   1.639 -17.113  0.00  0.00     0.008 A 
ENDBRANCH  20  21
ENDBRANCH   1  19
TORSDOF 5
