REMARK  6 active torsions:
REMARK  status: ('A' for Active; 'I' for Inactive)
REMARK    1  A    between atoms: C_2  and  C_4 
REMARK       I    between atoms: C_4  and  N_6 
REMARK    2  A    between atoms: N_6  and  C_7 
REMARK    3  A    between atoms: C_13  and  C_14 
REMARK    4  A    between atoms: C_14  and  C_15 
REMARK    5  A    between atoms: C_15  and  N_16 
REMARK    6  A    between atoms: N_19  and  C_20 
ROOT
ATOM      1  C   UNL d   1       8.236   5.714 -11.618  0.00  0.00     0.062 C 
ENDROOT
BRANCH   1   2
ATOM      2  C   UNL d   1       7.593   4.577 -12.385  0.00  0.00    -0.020 A 
ATOM      3  C   UNL d   1       6.453   3.912 -11.872  0.00  0.00    -0.005 A 
ATOM      4  C   UNL d   1       5.852   2.854 -12.551  0.00  0.00    -0.005 A 
ATOM      5  C   UNL d   1       6.455   2.429 -13.747  0.00  0.00    -0.024 A 
ATOM      6  C   UNL d   1       6.109   1.225 -14.570  0.00  0.00     0.028 C 
ATOM      7  C   UNL d   1       7.587   3.071 -14.260  0.00  0.00    -0.004 A 
ATOM      8  C   UNL d   1       7.209   1.169 -15.664  0.00  0.00     0.034 C 
ATOM      9  C   UNL d   1       8.071   2.447 -15.533  0.00  0.00     0.129 C 
ATOM     10  C   UNL d   1       8.173   4.173 -13.599  0.00  0.00    -0.007 A 
BRANCH   9  11
ATOM     11  N   UNL d   1       9.506   2.173 -15.537  0.00  0.00    -0.235 NA
ATOM     12  C   UNL d   1      10.353   2.682 -16.447  0.00  0.00     0.251 C 
ATOM     13  O   UNL d   1      10.048   3.533 -17.285  0.00  0.00    -0.271 OA
BRANCH  12  14
ATOM     14  C   UNL d   1      11.767   2.120 -16.418  0.00  0.00     0.081 C 
ATOM     15  C   UNL d   1      12.796   3.208 -16.779  0.00  0.00     0.010 C 
ATOM     16  C   UNL d   1      11.850   0.913 -17.367  0.00  0.00     0.010 C 
ENDBRANCH  12  14
ENDBRANCH   9  11
ENDBRANCH   1   2
BRANCH   1  17
ATOM     17  C   UNL d   1       8.969   5.268 -10.327  0.00  0.00     0.255 C 
BRANCH  17  18
ATOM     18  N   UNL d   1       9.879   6.296  -9.827  0.00  0.00     0.141 N 
ATOM     19  C   UNL d   1      10.504   5.872  -8.568  0.00  0.00     0.274 C 
ATOM     20  C   UNL d   1      11.541   6.950  -8.146  0.00  0.00     0.138 C 
ATOM     21  N   UNL d   1      10.771   8.120  -7.827  0.00  0.00    -0.329 N 
ATOM     22  C   UNL d   1      10.101   8.653  -9.006  0.00  0.00     0.138 C 
ATOM     23  C   UNL d   1       9.177   7.539  -9.533  0.00  0.00     0.274 C 
BRANCH  21  24
ATOM     24  C   UNL d   1      10.891   8.793  -6.598  0.00  0.00     0.148 A 
ATOM     25  C   UNL d   1      11.232   8.137  -5.353  0.00  0.00     0.042 A 
ATOM     26  C   UNL d   1      11.276   9.126  -4.323  0.00  0.00     0.050 A 
ATOM     27  C   UNL d   1      11.511   6.811  -4.951  0.00  0.00     0.004 A 
ATOM     28  S   UNL d   1      10.791  10.620  -5.006  0.00  0.00     0.015 SA
ATOM     29  C   UNL d   1      11.582   8.845  -2.966  0.00  0.00     0.008 A 
ATOM     30  N   UNL d   1      10.707  10.074  -6.565  0.00  0.00    -0.192 NA
ATOM     31  C   UNL d   1      11.889   7.526  -2.618  0.00  0.00     0.001 A 
ATOM     32  C   UNL d   1      11.880   6.550  -3.624  0.00  0.00     0.000 A 
ENDBRANCH  21  24
ENDBRANCH  17  18
ENDBRANCH   1  17
TORSDOF 6
