REMARK  8 active torsions:
REMARK  status: ('A' for Active; 'I' for Inactive)
REMARK    1  A    between atoms: S_2  and  N_4 
REMARK    2  A    between atoms: S_2  and  C_24 
REMARK    3  A    between atoms: N_4  and  C_5 
REMARK    4  A    between atoms: C_5  and  C_6 
REMARK    5  A    between atoms: C_6  and  C_7 
REMARK    6  A    between atoms: C_7  and  C_8 
REMARK    7  A    between atoms: C_8  and  N_9 
REMARK    8  A    between atoms: N_12  and  C_13 
ROOT
ATOM      1  C   UNL d   1       8.932   5.656 -11.280  0.00  0.00     0.029 C 
ENDROOT
BRANCH   1   2
ATOM      2  C   UNL d   1       9.044   5.506  -9.754  0.00  0.00     0.139 C 
BRANCH   2   3
ATOM      3  N   UNL d   1       9.066   6.812  -9.103  0.00  0.00    -0.185 NA
BRANCH   3   4
ATOM      4  S   UNL d   1      10.376   7.912  -9.357  0.00  0.00     0.281 S 
ATOM      5  O   UNL d   1      11.475   7.194 -10.013  0.00  0.00    -0.199 OA
ATOM      6  O   UNL d   1       9.835   9.148  -9.936  0.00  0.00    -0.199 OA
BRANCH   4   7
ATOM      7  C   UNL d   1      10.905   8.275  -7.697  0.00  0.00     0.105 A 
ATOM      8  C   UNL d   1      10.909   7.267  -6.721  0.00  0.00     0.013 A 
ATOM      9  C   UNL d   1      11.367   7.576  -5.431  0.00  0.00     0.001 A 
ATOM     10  C   UNL d   1      11.794   8.896  -5.120  0.00  0.00     0.001 A 
ATOM     11  C   UNL d   1      11.407   6.577  -4.450  0.00  0.00     0.001 A 
ATOM     12  C   UNL d   1      11.787   9.898  -6.105  0.00  0.00     0.001 A 
ATOM     13  C   UNL d   1      12.244   9.188  -3.824  0.00  0.00     0.011 A 
ATOM     14  C   UNL d   1      11.349   9.571  -7.395  0.00  0.00     0.013 A 
ATOM     15  C   UNL d   1      12.264   8.174  -2.862  0.00  0.00     0.058 A 
ATOM     16 CL   UNL d   1      12.792   8.555  -1.298  0.00  0.00    -0.082 Cl
ATOM     17  C   UNL d   1      11.854   6.866  -3.159  0.00  0.00     0.011 A 
ENDBRANCH   4   7
ENDBRANCH   3   4
ENDBRANCH   2   3
ENDBRANCH   1   2
BRANCH   1  18
ATOM     18  C   UNL d   1       8.867   4.305 -11.991  0.00  0.00     0.037 C 
BRANCH  18  19
ATOM     19  C   UNL d   1       8.952   4.435 -13.522  0.00  0.00     0.251 C 
BRANCH  19  20
ATOM     20  N   UNL d   1       8.801   3.137 -14.174  0.00  0.00     0.141 N 
ATOM     21  C   UNL d   1       9.329   3.201 -15.542  0.00  0.00     0.274 C 
ATOM     22  C   UNL d   1       9.183   1.839 -16.249  0.00  0.00     0.138 C 
ATOM     23  N   UNL d   1       7.793   1.405 -16.237  0.00  0.00    -0.329 N 
ATOM     24  C   UNL d   1       7.193   1.419 -14.907  0.00  0.00     0.138 C 
ATOM     25  C   UNL d   1       7.379   2.783 -14.236  0.00  0.00     0.274 C 
BRANCH  23  26
ATOM     26  C   UNL d   1       7.092   1.016 -17.410  0.00  0.00     0.148 A 
ATOM     27  C   UNL d   1       6.007   0.048 -17.406  0.00  0.00     0.042 A 
ATOM     28  C   UNL d   1       5.514  -0.108 -18.740  0.00  0.00     0.050 A 
ATOM     29  C   UNL d   1       5.380  -0.755 -16.410  0.00  0.00     0.004 A 
ATOM     30  S   UNL d   1       6.479   0.894 -19.794  0.00  0.00     0.015 SA
ATOM     31  C   UNL d   1       4.446  -0.971 -19.059  0.00  0.00     0.008 A 
ATOM     32  N   UNL d   1       7.436   1.532 -18.576  0.00  0.00    -0.192 NA
ATOM     33  C   UNL d   1       3.842  -1.720 -18.035  0.00  0.00     0.001 A 
ATOM     34  C   UNL d   1       4.305  -1.609 -16.713  0.00  0.00     0.000 A 
ENDBRANCH  23  26
ENDBRANCH  19  20
ENDBRANCH  18  19
ENDBRANCH   1  18
TORSDOF 8
