REMARK  2 active torsions:
REMARK  status: ('A' for Active; 'I' for Inactive)
REMARK    1  A    between atoms: C_2  and  C_3 
REMARK    2  A    between atoms: C_3  and  N_4 
ROOT
ATOM      1  N   UNL d   1      10.590   6.821  -8.203  0.00  0.00     0.142 N 
ATOM      2  C   UNL d   1       9.705   7.988  -8.383  0.00  0.00     0.257 C 
ATOM      3  C   UNL d   1      10.293   9.259  -7.758  0.00  0.00     0.083 C 
ATOM      4  C   UNL d   1      10.778   8.995  -6.378  0.00  0.00     0.080 A 
ATOM      5  N   UNL d   1      11.030   9.894  -5.435  0.00  0.00    -0.170 NA
ATOM      6  N   UNL d   1      11.462   9.129  -4.358  0.00  0.00    -0.229 N 
ATOM      7  C   UNL d   1      11.853   9.539  -3.119  0.00  0.00     0.100 A 
ATOM      8  C   UNL d   1      12.259   8.571  -2.213  0.00  0.00     0.021 A 
ATOM      9  C   UNL d   1      12.260   7.182  -2.530  0.00  0.00     0.003 A 
ATOM     10  C   UNL d   1      11.855   6.776  -3.787  0.00  0.00     0.019 A 
ATOM     11  C   UNL d   1      11.467   7.800  -4.637  0.00  0.00     0.082 A 
ATOM     12  C   UNL d   1      11.024   7.707  -5.905  0.00  0.00     0.044 A 
ATOM     13  C   UNL d   1      10.752   6.522  -6.784  0.00  0.00     0.279 C 
ENDROOT
BRANCH   1  14
ATOM     14  C   UNL d   1      10.165   5.650  -8.963  0.00  0.00     0.251 C 
BRANCH  14  15
ATOM     15  C   UNL d   1       8.624   5.413  -9.047  0.00  0.00     0.035 C 
ATOM     16  C   UNL d   1       8.197   5.247 -10.524  0.00  0.00     0.002 C 
ENDBRANCH  14  15
ENDBRANCH   1  14
TORSDOF 2
