REMARK  5 active torsions:
REMARK  status: ('A' for Active; 'I' for Inactive)
REMARK    1  A    between atoms: N_6  and  C_7 
REMARK    2  A    between atoms: C_7  and  C_8 
REMARK    3  A    between atoms: C_8  and  N_9 
REMARK    4  A    between atoms: C_14  and  C_15 
REMARK    5  A    between atoms: C_18  and  C_19 
REMARK       I    between atoms: C_19  and  N_21 
ROOT
ATOM      1  N   UNL d   1       8.470   3.529 -14.814  0.00  0.00    -0.314 N 
ATOM      2  C   UNL d   1       9.544   4.543 -15.094  0.00  0.00     0.109 C 
ATOM      3  C   UNL d   1      10.341   4.826 -13.829  0.00  0.00     0.051 C 
ATOM      4  C   UNL d   1       9.388   5.051 -12.660  0.00  0.00    -0.016 A 
ATOM      5  C   UNL d   1       9.799   5.838 -11.584  0.00  0.00    -0.004 A 
ATOM      6  C   UNL d   1       9.123   6.000 -10.379  0.00  0.00    -0.000 A 
ATOM      7  C   UNL d   1       7.929   5.272 -10.296  0.00  0.00     0.000 A 
ATOM      8  C   UNL d   1       7.418   4.510 -11.370  0.00  0.00     0.004 A 
ATOM      9  C   UNL d   1       8.146   4.397 -12.573  0.00  0.00     0.052 A 
ATOM     10  C   UNL d   1       7.655   3.563 -13.740  0.00  0.00     0.257 C 
ATOM     11  O   UNL d   1       6.572   2.967 -13.639  0.00  0.00    -0.267 OA
ENDROOT
BRANCH   6  12
ATOM     12  C   UNL d   1       9.728   6.801  -9.237  0.00  0.00    -0.000 A 
ATOM     13  C   UNL d   1      10.924   7.589  -9.342  0.00  0.00     0.000 A 
ATOM     14  C   UNL d   1      11.405   8.364  -8.256  0.00  0.00     0.005 A 
ATOM     15  C   UNL d   1      10.695   8.367  -7.037  0.00  0.00     0.056 A 
ATOM     16  C   UNL d   1       9.510   7.627  -6.914  0.00  0.00     0.005 A 
ATOM     17  C   UNL d   1       9.085   6.808  -7.964  0.00  0.00     0.000 A 
BRANCH  15  18
ATOM     18  C   UNL d   1      11.174   9.184  -5.887  0.00  0.00     0.257 C 
ATOM     19  O   UNL d   1      11.325  10.401  -6.018  0.00  0.00    -0.267 OA
ATOM     20  N   UNL d   1      11.446   8.519  -4.725  0.00  0.00    -0.317 N 
ATOM     21  C   UNL d   1      11.919   9.222  -3.547  0.00  0.00     0.104 C 
ATOM     22  C   UNL d   1      11.411   7.060  -4.509  0.00  0.00     0.104 C 
ATOM     23  C   UNL d   1      12.393   8.118  -2.609  0.00  0.00     0.026 C 
ATOM     24  C   UNL d   1      11.640   6.862  -3.018  0.00  0.00     0.026 C 
ENDBRANCH  15  18
ENDBRANCH   6  12
BRANCH   1  25
ATOM     25  C   UNL d   1       8.112   2.695 -15.961  0.00  0.00     0.140 C 
BRANCH  25  26
ATOM     26  C   UNL d   1       8.701   1.323 -15.871  0.00  0.00     0.274 C 
BRANCH  26  27
ATOM     27  N   UNL d   1       8.902   0.832 -17.245  0.00  0.00     0.137 N 
ATOM     28  C   UNL d   1      10.229   1.133 -17.776  0.00  0.00     0.220 C 
ATOM     29  C   UNL d   1      10.409   2.581 -18.261  0.00  0.00     0.035 C 
ATOM     30  C   UNL d   1      10.411   0.144 -18.890  0.00  0.00     0.035 C 
ATOM     31  C   UNL d   1       9.491  -1.032 -18.551  0.00  0.00     0.037 C 
ATOM     32  C   UNL d   1       8.860  -0.625 -17.229  0.00  0.00     0.250 C 
ENDBRANCH  26  27
ENDBRANCH  25  26
ENDBRANCH   1  25
TORSDOF 5
