REMARK  4 active torsions:
REMARK  status: ('A' for Active; 'I' for Inactive)
REMARK    1  A    between atoms: C_8  and  C_9 
REMARK    2  A    between atoms: C_9  and  C_10 
REMARK    3  A    between atoms: C_10  and  N_11 
REMARK    4  A    between atoms: N_14  and  C_15 
ROOT
ATOM      1  N   UNL d   1       9.714   5.998  -9.611  0.00  0.00     0.141 N 
ATOM      2  C   UNL d   1       9.982   7.431  -9.776  0.00  0.00     0.274 C 
ATOM      3  C   UNL d   1      11.199   7.842  -8.927  0.00  0.00     0.138 C 
ATOM      4  N   UNL d   1      11.001   7.469  -7.527  0.00  0.00    -0.329 N 
ATOM      5  C   UNL d   1      10.570   6.101  -7.325  0.00  0.00     0.138 C 
ATOM      6  C   UNL d   1       9.380   5.746  -8.213  0.00  0.00     0.274 C 
ENDROOT
BRANCH   1   7
ATOM      7  C   UNL d   1       8.578   5.568 -10.412  0.00  0.00     0.255 C 
BRANCH   7   8
ATOM      8  C   UNL d   1       8.949   5.556 -11.896  0.00  0.00     0.063 C 
BRANCH   8   9
ATOM      9  C   UNL d   1       8.097   4.577 -12.693  0.00  0.00    -0.003 A 
ATOM     10  C   UNL d   1       8.690   3.640 -13.586  0.00  0.00     0.068 A 
ATOM     11  N   UNL d   1      10.086   3.622 -13.742  0.00  0.00    -0.271 NA
ATOM     12  C   UNL d   1       7.862   2.715 -14.285  0.00  0.00    -0.006 A 
ATOM     13  C   UNL d   1      10.718   2.788 -14.749  0.00  0.00     0.126 C 
ATOM     14  C   UNL d   1       9.969   1.473 -14.951  0.00  0.00     0.030 C 
ATOM     15  C   UNL d   1       8.468   1.693 -15.262  0.00  0.00     0.022 C 
ATOM     16  C   UNL d   1       8.312   2.237 -16.695  0.00  0.00     0.004 C 
ATOM     17  C   UNL d   1       7.742   0.330 -15.182  0.00  0.00     0.004 C 
ATOM     18  C   UNL d   1       6.460   2.754 -14.070  0.00  0.00    -0.003 A 
ATOM     19  C   UNL d   1       5.879   3.679 -13.195  0.00  0.00    -0.001 A 
ATOM     20  C   UNL d   1       6.692   4.590 -12.514  0.00  0.00    -0.003 A 
ENDBRANCH   8   9
ENDBRANCH   7   8
ENDBRANCH   1   7
BRANCH   4  21
ATOM     21  C   UNL d   1      11.094   8.371  -6.451  0.00  0.00     0.148 A 
ATOM     22  C   UNL d   1      11.478   7.986  -5.096  0.00  0.00     0.042 A 
ATOM     23  C   UNL d   1      11.503   9.142  -4.260  0.00  0.00     0.050 A 
ATOM     24  C   UNL d   1      11.856   6.777  -4.475  0.00  0.00     0.004 A 
ATOM     25  S   UNL d   1      11.050  10.496  -5.246  0.00  0.00     0.015 SA
ATOM     26  C   UNL d   1      11.861   9.101  -2.900  0.00  0.00     0.008 A 
ATOM     27  N   UNL d   1      10.888   9.647  -6.662  0.00  0.00    -0.192 NA
ATOM     28  C   UNL d   1      12.220   7.874  -2.319  0.00  0.00     0.001 A 
ATOM     29  C   UNL d   1      12.219   6.714  -3.116  0.00  0.00     0.000 A 
ENDBRANCH   4  21
TORSDOF 4
