REMARK  7 active torsions:
REMARK  status: ('A' for Active; 'I' for Inactive)
REMARK       I    between atoms: C_2  and  N_3 
REMARK    1  A    between atoms: C_2  and  C_23 
REMARK    2  A    between atoms: N_3  and  C_4 
REMARK    3  A    between atoms: C_4  and  C_5 
REMARK    4  A    between atoms: C_5  and  C_6 
REMARK    5  A    between atoms: C_6  and  C_8 
REMARK    6  A    between atoms: C_8  and  N_9 
REMARK    7  A    between atoms: N_12  and  C_13 
ROOT
ATOM      1  C   UNL d   1       7.557   5.033 -12.848  0.00  0.00     0.188 C 
ATOM      2  O   UNL d   1       6.209   4.634 -12.701  0.00  0.00    -0.221 OA
ENDROOT
BRANCH   1   3
ATOM      3  C   UNL d   1       7.971   5.679 -11.519  0.00  0.00     0.061 C 
BRANCH   3   4
ATOM      4  C   UNL d   1       9.315   6.437 -11.586  0.00  0.00     0.132 C 
BRANCH   4   5
ATOM      5  N   UNL d   1       9.667   7.064 -10.319  0.00  0.00    -0.234 NA
ATOM      6  C   UNL d   1       9.878   6.437  -9.149  0.00  0.00     0.276 C 
ATOM      7  O   UNL d   1       9.808   5.216  -9.011  0.00  0.00    -0.266 OA
BRANCH   6   8
ATOM      8  C   UNL d   1      10.281   7.312  -7.996  0.00  0.00     0.077 A 
ATOM      9  C   UNL d   1      10.675   6.724  -6.777  0.00  0.00     0.008 A 
ATOM     10  C   UNL d   1      11.059   7.544  -5.702  0.00  0.00     0.018 A 
ATOM     11  C   UNL d   1      11.046   8.948  -5.886  0.00  0.00     0.081 A 
ATOM     12  C   UNL d   1      11.464   6.980  -4.472  0.00  0.00     0.002 A 
ATOM     13  N   UNL d   1      10.659   9.516  -7.046  0.00  0.00    -0.244 NA
ATOM     14  C   UNL d   1      11.448   9.766  -4.816  0.00  0.00     0.019 A 
ATOM     15  C   UNL d   1      10.280   8.721  -8.068  0.00  0.00     0.104 A 
ATOM     16  C   UNL d   1      11.862   9.215  -3.589  0.00  0.00     0.002 A 
ATOM     17  C   UNL d   1      11.868   7.819  -3.414  0.00  0.00     0.000 A 
ENDBRANCH   6   8
ENDBRANCH   4   5
ENDBRANCH   3   4
ENDBRANCH   1   3
BRANCH   1  18
ATOM     18  C   UNL d   1       8.398   3.786 -13.216  0.00  0.00     0.283 C 
BRANCH  18  19
ATOM     19  N   UNL d   1       9.622   4.039 -13.970  0.00  0.00     0.144 N 
ATOM     20  C   UNL d   1       9.326   4.506 -15.327  0.00  0.00     0.274 C 
ATOM     21  C   UNL d   1      10.594   4.801 -16.142  0.00  0.00     0.137 C 
ATOM     22  N   UNL d   1      11.446   3.618 -16.148  0.00  0.00    -0.344 N 
ATOM     23  C   UNL d   1      11.730   3.025 -14.849  0.00  0.00     0.137 C 
ATOM     24  C   UNL d   1      10.417   2.811 -14.072  0.00  0.00     0.274 C 
BRANCH  22  25
ATOM     25  C   UNL d   1      11.887   3.038 -17.350  0.00  0.00     0.068 A 
ATOM     26  C   UNL d   1      11.664   1.673 -17.677  0.00  0.00     0.084 A 
ATOM     27  C   UNL d   1      12.164   1.151 -18.887  0.00  0.00     0.070 A 
ATOM     28 CL   UNL d   1      10.730   0.620 -16.660  0.00  0.00    -0.080 Cl
ATOM     29  C   UNL d   1      12.860   1.976 -19.788  0.00  0.00     0.012 A 
ATOM     30 CL   UNL d   1      11.918  -0.504 -19.297  0.00  0.00    -0.081 Cl
ATOM     31  C   UNL d   1      13.064   3.333 -19.481  0.00  0.00     0.002 A 
ATOM     32  C   UNL d   1      12.579   3.859 -18.272  0.00  0.00     0.018 A 
ENDBRANCH  22  25
ENDBRANCH  18  19
ENDBRANCH   1  18
TORSDOF 7
