REMARK  8 active torsions:
REMARK  status: ('A' for Active; 'I' for Inactive)
REMARK    1  A    between atoms: O_2  and  C_3 
REMARK    2  A    between atoms: C_8  and  N_9 
REMARK    3  A    between atoms: N_12  and  C_13 
REMARK    4  A    between atoms: C_13  and  C_14 
REMARK    5  A    between atoms: C_14  and  C_15 
REMARK    6  A    between atoms: C_15  and  C_16 
REMARK    7  A    between atoms: N_18  and  C_19 
REMARK    8  A    between atoms: C_22  and  C_23 
ROOT
ATOM      1  C   UNL d   1       8.857   3.592 -14.720  0.00  0.00     0.051 C 
ENDROOT
BRANCH   1   2
ATOM      2  C   UNL d   1       7.791   2.502 -14.950  0.00  0.00     0.042 C 
BRANCH   2   3
ATOM      3  C   UNL d   1       8.014   1.729 -16.264  0.00  0.00     0.251 C 
BRANCH   3   4
ATOM      4  N   UNL d   1       6.754   1.183 -16.778  0.00  0.00     0.141 N 
ATOM      5  C   UNL d   1       6.447  -0.109 -16.147  0.00  0.00     0.274 C 
ATOM      6  C   UNL d   1       5.108  -0.685 -16.665  0.00  0.00     0.137 C 
ATOM      7  N   UNL d   1       5.125  -0.759 -18.122  0.00  0.00    -0.343 N 
ATOM      8  C   UNL d   1       5.514   0.468 -18.797  0.00  0.00     0.137 C 
ATOM      9  C   UNL d   1       6.856   0.982 -18.227  0.00  0.00     0.274 C 
BRANCH   7  10
ATOM     10  C   UNL d   1       4.867  -1.954 -18.821  0.00  0.00     0.079 A 
ATOM     11  C   UNL d   1       5.704  -2.401 -19.876  0.00  0.00     0.110 A 
ATOM     12  C   UNL d   1       5.374  -3.599 -20.565  0.00  0.00     0.026 A 
ATOM     13  C   UNL d   1       4.245  -4.355 -20.194  0.00  0.00     0.002 A 
ATOM     14  C   UNL d   1       3.436  -3.919 -19.135  0.00  0.00     0.002 A 
ATOM     15  C   UNL d   1       3.745  -2.727 -18.454  0.00  0.00     0.019 A 
BRANCH  11  16
ATOM     16  O   UNL d   1       6.837  -1.662 -20.163  0.00  0.00    -0.327 OA
ATOM     17  C   UNL d   1       7.656  -2.057 -21.248  0.00  0.00     0.181 C 
ENDBRANCH  11  16
ENDBRANCH   7  10
ENDBRANCH   3   4
ENDBRANCH   2   3
ENDBRANCH   1   2
BRANCH   1  18
ATOM     18  C   UNL d   1       8.665   4.364 -13.446  0.00  0.00     0.101 A 
ATOM     19  N   UNL d   1       7.439   4.913 -13.073  0.00  0.00    -0.133 NA
ATOM     20  N   UNL d   1       7.571   5.538 -11.945  0.00  0.00    -0.060 NA
ATOM     21  N   UNL d   1       8.874   5.446 -11.587  0.00  0.00    -0.209 N 
ATOM     22  C   UNL d   1       9.596   4.712 -12.509  0.00  0.00     0.119 A 
BRANCH  21  23
ATOM     23  C   UNL d   1       9.327   6.053 -10.399  0.00  0.00     0.085 A 
ATOM     24  C   UNL d   1       9.058   5.447  -9.159  0.00  0.00     0.019 A 
ATOM     25  C   UNL d   1       9.507   6.057  -7.973  0.00  0.00     0.002 A 
ATOM     26  C   UNL d   1      10.235   7.269  -7.997  0.00  0.00     0.001 A 
ATOM     27  C   UNL d   1      10.488   7.877  -9.249  0.00  0.00     0.002 A 
ATOM     28  C   UNL d   1      10.032   7.273 -10.438  0.00  0.00     0.019 A 
BRANCH  26  29
ATOM     29  C   UNL d   1      10.710   7.896  -6.752  0.00  0.00     0.007 A 
ATOM     30  C   UNL d   1      10.890   9.237  -6.518  0.00  0.00     0.035 A 
ATOM     31  S   UNL d   1      11.460   9.574  -4.908  0.00  0.00    -0.086 SA
ATOM     32  C   UNL d   1      11.466   7.877  -4.529  0.00  0.00     0.035 A 
ATOM     33  C   UNL d   1      11.056   7.123  -5.596  0.00  0.00     0.007 A 
ENDBRANCH  26  29
ENDBRANCH  21  23
ENDBRANCH   1  18
TORSDOF 8
