REMARK  8 active torsions:
REMARK  status: ('A' for Active; 'I' for Inactive)
REMARK    1  A    between atoms: C_7  and  C_8 
REMARK       I    between atoms: C_8  and  N_10 
REMARK    2  A    between atoms: N_10  and  C_11 
REMARK    3  A    between atoms: C_11  and  C_12 
REMARK    4  A    between atoms: C_12  and  C_13 
REMARK    5  A    between atoms: C_13  and  C_14 
REMARK    6  A    between atoms: C_14  and  C_15 
REMARK    7  A    between atoms: C_15  and  N_16 
REMARK    8  A    between atoms: N_19  and  C_20 
ROOT
ATOM      1  C   UNL d   1      12.640   6.351  -2.050  0.00  0.00    -0.009 C 
ATOM      2  C   UNL d   1      12.249   7.032  -2.969  0.00  0.00    -0.051 C 
ATOM      3  C   UNL d   1      11.772   7.811  -4.091  0.00  0.00     0.043 A 
ATOM      4  C   UNL d   1      11.602   9.199  -3.948  0.00  0.00     0.008 A 
ATOM      5  C   UNL d   1      11.125   9.951  -5.036  0.00  0.00     0.001 A 
ATOM      6  C   UNL d   1      10.828   9.314  -6.255  0.00  0.00     0.005 A 
ATOM      7  C   UNL d   1      11.000   7.918  -6.401  0.00  0.00     0.058 A 
ATOM      8  C   UNL d   1      11.449   7.165  -5.296  0.00  0.00     0.013 A 
ENDROOT
BRANCH   7   9
ATOM      9  C   UNL d   1      10.681   7.231  -7.693  0.00  0.00     0.275 C 
ATOM     10  O   UNL d   1      10.228   6.087  -7.711  0.00  0.00    -0.266 OA
ATOM     11  N   UNL d   1      11.009   7.918  -8.798  0.00  0.00    -0.234 NA
BRANCH  11  12
ATOM     12  C   UNL d   1      10.803   7.441 -10.154  0.00  0.00     0.129 C 
BRANCH  12  13
ATOM     13  C   UNL d   1       9.354   7.627 -10.603  0.00  0.00     0.026 C 
BRANCH  13  14
ATOM     14  C   UNL d   1       9.030   7.059 -11.995  0.00  0.00     0.004 C 
BRANCH  14  15
ATOM     15  C   UNL d   1       8.712   5.557 -11.966  0.00  0.00     0.035 C 
BRANCH  15  16
ATOM     16  C   UNL d   1       8.638   4.967 -13.375  0.00  0.00     0.250 C 
BRANCH  16  17
ATOM     17  N   UNL d   1       8.127   3.596 -13.324  0.00  0.00     0.141 N 
ATOM     18  C   UNL d   1       8.741   2.788 -14.379  0.00  0.00     0.274 C 
ATOM     19  C   UNL d   1       8.249   1.316 -14.337  0.00  0.00     0.137 C 
ATOM     20  N   UNL d   1       6.795   1.282 -14.410  0.00  0.00    -0.344 N 
ATOM     21  C   UNL d   1       6.105   2.126 -13.437  0.00  0.00     0.137 C 
ATOM     22  C   UNL d   1       6.663   3.572 -13.482  0.00  0.00     0.274 C 
BRANCH  20  23
ATOM     23  C   UNL d   1       6.111   0.532 -15.388  0.00  0.00     0.068 A 
ATOM     24  C   UNL d   1       6.396   0.645 -16.779  0.00  0.00     0.084 A 
ATOM     25  C   UNL d   1       5.677  -0.131 -17.717  0.00  0.00     0.070 A 
ATOM     26 CL   UNL d   1       7.559   1.767 -17.409  0.00  0.00    -0.080 Cl
ATOM     27  C   UNL d   1       4.681  -1.016 -17.289  0.00  0.00     0.012 A 
ATOM     28 CL   UNL d   1       5.997   0.033 -19.407  0.00  0.00    -0.081 Cl
ATOM     29  C   UNL d   1       4.380  -1.133 -15.926  0.00  0.00     0.002 A 
ATOM     30  C   UNL d   1       5.087  -0.356 -14.977  0.00  0.00     0.018 A 
ENDBRANCH  20  23
ENDBRANCH  16  17
ENDBRANCH  15  16
ENDBRANCH  14  15
ENDBRANCH  13  14
ENDBRANCH  12  13
ENDBRANCH  11  12
ENDBRANCH   7   9
TORSDOF 8
