REMARK  8 active torsions:
REMARK  status: ('A' for Active; 'I' for Inactive)
REMARK    1  A    between atoms: C_2  and  C_5 
REMARK    2  A    between atoms: C_7  and  N_8 
REMARK    3  A    between atoms: N_11  and  C_12 
REMARK    4  A    between atoms: C_12  and  C_13 
REMARK    5  A    between atoms: C_13  and  C_14 
REMARK    6  A    between atoms: C_14  and  C_15 
REMARK    7  A    between atoms: C_15  and  N_16 
REMARK    8  A    between atoms: C_27  and  C_28 
ROOT
ATOM      1  N   UNL d   1       8.845   5.253 -12.999  0.00  0.00    -0.330 N 
ATOM      2  C   UNL d   1       7.841   4.654 -12.125  0.00  0.00     0.138 C 
ATOM      3  C   UNL d   1       8.357   4.645 -10.678  0.00  0.00     0.274 C 
ATOM      4  N   UNL d   1       8.703   5.992 -10.236  0.00  0.00     0.141 N 
ATOM      5  C   UNL d   1       9.734   6.567 -11.107  0.00  0.00     0.274 C 
ATOM      6  C   UNL d   1       9.277   6.582 -12.568  0.00  0.00     0.138 C 
ENDROOT
BRANCH   1   7
ATOM      7  C   UNL d   1       9.389   4.599 -14.121  0.00  0.00     0.143 A 
ATOM      8  N   UNL d   1      10.505   5.123 -14.688  0.00  0.00    -0.214 NA
ATOM      9  C   UNL d   1      10.959   4.580 -15.822  0.00  0.00     0.140 A 
ATOM     10  N   UNL d   1      10.474   3.466 -16.378  0.00  0.00    -0.227 NA
ATOM     11  C   UNL d   1       9.379   2.908 -15.822  0.00  0.00     0.157 A 
ATOM     12  C   UNL d   1       8.781   3.461 -14.676  0.00  0.00     0.060 A 
BRANCH   9  13
ATOM     13  C   UNL d   1      12.268   5.137 -16.413  0.00  0.00     0.052 C 
ATOM     14  C   UNL d   1      13.448   4.347 -15.859  0.00  0.00     0.008 C 
ATOM     15  C   UNL d   1      12.475   6.622 -16.051  0.00  0.00     0.008 C 
ATOM     16  C   UNL d   1      12.248   5.040 -17.959  0.00  0.00     0.008 C 
ENDBRANCH   9  13
BRANCH  11  17
ATOM     17  C   UNL d   1       8.803   1.654 -16.475  0.00  0.00     0.435 C 
ATOM     18  F   UNL d   1       9.731   0.696 -16.486  0.00  0.00    -0.165 F 
ATOM     19  F   UNL d   1       7.739   1.193 -15.818  0.00  0.00    -0.165 F 
ATOM     20  F   UNL d   1       8.428   1.925 -17.727  0.00  0.00    -0.165 F 
ENDBRANCH  11  17
ENDBRANCH   1   7
BRANCH   4  21
ATOM     21  C   UNL d   1       9.092   5.964  -8.831  0.00  0.00     0.251 C 
BRANCH  21  22
ATOM     22  C   UNL d   1       9.484   7.351  -8.284  0.00  0.00     0.037 C 
BRANCH  22  23
ATOM     23  C   UNL d   1       9.892   7.312  -6.813  0.00  0.00     0.027 C 
BRANCH  23  24
ATOM     24  C   UNL d   1      10.973   8.373  -6.530  0.00  0.00     0.111 C 
BRANCH  24  25
ATOM     25  N   UNL d   1      11.408   8.372  -5.152  0.00  0.00    -0.279 N 
ATOM     26  C   UNL d   1      11.387   9.585  -4.428  0.00  0.00     0.353 A 
ATOM     27  N   UNL d   1      11.856   9.540  -3.116  0.00  0.00    -0.153 NA
ATOM     28  O   UNL d   1      10.979  10.645  -4.900  0.00  0.00    -0.244 OA
ATOM     29  C   UNL d   1      12.287   8.393  -2.444  0.00  0.00     0.285 A 
ATOM     30  C   UNL d   1      12.265   7.179  -3.242  0.00  0.00     0.081 A 
ATOM     31  O   UNL d   1      12.660   8.451  -1.280  0.00  0.00    -0.265 OA
ATOM     32  C   UNL d   1      11.856   7.216  -4.525  0.00  0.00     0.085 A 
ENDBRANCH  24  25
ENDBRANCH  23  24
ENDBRANCH  22  23
ENDBRANCH  21  22
ENDBRANCH   4  21
TORSDOF 8
