REMARK  3 active torsions:
REMARK  status: ('A' for Active; 'I' for Inactive)
REMARK       I    between atoms: C_2  and  N_4 
REMARK    1  A    between atoms: C_12  and  C_13 
REMARK    2  A    between atoms: N_15  and  S_16 
REMARK    3  A    between atoms: S_16  and  C_19 
ROOT
ATOM      1  C   UNL d   1       9.143   3.621 -14.535  0.00  0.00     0.037 A 
ATOM      2  C   UNL d   1       9.042   4.786 -13.812  0.00  0.00     0.093 A 
ATOM      3  N   UNL d   1       7.865   4.828 -13.080  0.00  0.00    -0.231 N 
ATOM      4  C   UNL d   1       7.150   3.661 -13.302  0.00  0.00     0.075 A 
ATOM      5  C   UNL d   1       5.914   3.185 -12.809  0.00  0.00     0.018 A 
ATOM      6  C   UNL d   1       5.455   1.920 -13.194  0.00  0.00     0.002 A 
ATOM      7  C   UNL d   1       6.173   1.157 -14.129  0.00  0.00     0.000 A 
ATOM      8  C   UNL d   1       7.363   1.661 -14.675  0.00  0.00     0.002 A 
ATOM      9  C   UNL d   1       7.922   2.896 -14.240  0.00  0.00     0.020 A 
ENDROOT
BRANCH   1  10
ATOM     10  C   UNL d   1      10.250   3.208 -15.409  0.00  0.00     0.092 A 
ATOM     11  N   UNL d   1      11.066   4.125 -16.073  0.00  0.00    -0.160 N 
ATOM     12  C   UNL d   1      11.204   5.554 -16.197  0.00  0.00     0.150 A 
ATOM     13  C   UNL d   1      11.912   3.427 -16.781  0.00  0.00     0.714 A 
ATOM     14  C   UNL d   1      12.401   5.673 -17.176  0.00  0.00     0.152 A 
ATOM     15  N   UNL d   1      12.793   4.280 -17.500  0.00  0.00    -0.130 N 
ATOM     16  C   UNL d   1      13.774   3.907 -18.314  0.00  0.00     0.252 C 
ATOM     17  C   UNL d   1      14.671   4.986 -18.930  0.00  0.00     0.099 C 
ATOM     18  O   UNL d   1      14.020   2.732 -18.622  0.00  0.00    -0.271 OA
ATOM     19  N   UNL d   1      11.816   2.110 -16.705  0.00  0.00    -0.065 NA
ATOM     20  C   UNL d   1      10.751   1.964 -15.796  0.00  0.00     0.094 A 
ATOM     21  C   UNL d   1      10.333   0.581 -15.394  0.00  0.00     0.054 C 
ENDBRANCH   1  10
BRANCH   3  22
ATOM     22  S   UNL d   1       7.436   6.151 -12.065  0.00  0.00     0.271 S 
ATOM     23  O   UNL d   1       7.808   7.353 -12.811  0.00  0.00    -0.200 OA
ATOM     24  O   UNL d   1       6.045   5.920 -11.651  0.00  0.00    -0.200 OA
BRANCH  22  25
ATOM     25  C   UNL d   1       8.536   5.986 -10.682  0.00  0.00     0.104 A 
ATOM     26  C   UNL d   1       8.426   4.869  -9.842  0.00  0.00     0.013 A 
ATOM     27  C   UNL d   1       9.263   4.777  -8.720  0.00  0.00     0.001 A 
ATOM     28  C   UNL d   1      10.199   5.796  -8.440  0.00  0.00     0.000 A 
ATOM     29  C   UNL d   1      10.313   6.907  -9.297  0.00  0.00     0.001 A 
ATOM     30  C   UNL d   1       9.482   6.996 -10.429  0.00  0.00     0.013 A 
ENDBRANCH  22  25
ENDBRANCH   3  22
TORSDOF 3
