REMARK  7 active torsions:
REMARK  status: ('A' for Active; 'I' for Inactive)
REMARK    1  A    between atoms: C_4  and  C_5 
REMARK    2  A    between atoms: N_16  and  C_17 
REMARK    3  A    between atoms: C_17  and  C_18 
REMARK    4  A    between atoms: C_18  and  C_19 
REMARK    5  A    between atoms: C_19  and  C_20 
REMARK    6  A    between atoms: C_20  and  N_21 
REMARK    7  A    between atoms: C_24  and  C_25 
ROOT
ATOM      1  C   UNL d   1       8.565   4.141 -13.157  0.00  0.00     0.027 C 
ENDROOT
BRANCH   1   2
ATOM      2  C   UNL d   1       9.919   3.589 -13.662  0.00  0.00     0.112 C 
BRANCH   2   3
ATOM      3  N   UNL d   1       9.829   2.999 -15.003  0.00  0.00    -0.270 N 
ATOM      4  C   UNL d   1       9.705   3.738 -16.122  0.00  0.00     0.240 C 
ATOM      5  O   UNL d   1       9.665   4.963 -16.183  0.00  0.00    -0.272 OA
ATOM      6  C   UNL d   1       9.547   2.855 -17.352  0.00  0.00     0.102 C 
ATOM      7  C   UNL d   1       9.597   1.440 -16.759  0.00  0.00     0.113 C 
ATOM      8  C   UNL d   1       9.887   1.695 -15.283  0.00  0.00     0.243 C 
ATOM      9  O   UNL d   1      10.119   0.786 -14.482  0.00  0.00    -0.272 OA
BRANCH   7  10
ATOM     10  C   UNL d   1       8.319   0.653 -17.016  0.00  0.00     0.007 A 
ATOM     11  C   UNL d   1       7.165   0.425 -16.155  0.00  0.00     0.016 A 
ATOM     12  C   UNL d   1       6.242  -0.397 -16.881  0.00  0.00     0.081 A 
ATOM     13  C   UNL d   1       6.773   0.802 -14.841  0.00  0.00     0.001 A 
ATOM     14  N   UNL d   1       6.817  -0.613 -18.116  0.00  0.00    -0.244 NA
ATOM     15  C   UNL d   1       5.018  -0.823 -16.318  0.00  0.00     0.019 A 
ATOM     16  C   UNL d   1       8.052   0.008 -18.198  0.00  0.00     0.095 A 
ATOM     17  C   UNL d   1       4.684  -0.449 -15.003  0.00  0.00     0.002 A 
ATOM     18  C   UNL d   1       5.568   0.361 -14.268  0.00  0.00     0.000 A 
ENDBRANCH   7  10
ENDBRANCH   2   3
ENDBRANCH   1   2
BRANCH   1  19
ATOM     19  C   UNL d   1       8.757   5.159 -12.028  0.00  0.00     0.037 C 
BRANCH  19  20
ATOM     20  C   UNL d   1       9.229   4.571 -10.676  0.00  0.00     0.250 C 
BRANCH  20  21
ATOM     21  N   UNL d   1       9.749   5.573  -9.742  0.00  0.00     0.137 N 
ATOM     22  C   UNL d   1       8.695   6.488  -9.365  0.00  0.00     0.251 C 
ATOM     23  C   UNL d   1       9.233   7.625  -8.486  0.00  0.00     0.040 C 
ATOM     24  C   UNL d   1       9.852   7.082  -7.191  0.00  0.00     0.028 C 
ATOM     25  C   UNL d   1      10.869   6.026  -7.602  0.00  0.00     0.040 C 
ATOM     26  C   UNL d   1      10.202   4.954  -8.508  0.00  0.00     0.251 C 
BRANCH  24  27
ATOM     27  C   UNL d   1      10.528   8.140  -6.371  0.00  0.00    -0.002 A 
ATOM     28  C   UNL d   1      11.208   7.955  -5.112  0.00  0.00     0.017 A 
ATOM     29  C   UNL d   1      11.694   9.241  -4.708  0.00  0.00     0.081 A 
ATOM     30  C   UNL d   1      11.456   6.861  -4.248  0.00  0.00     0.031 A 
ATOM     31  N   UNL d   1      11.357  10.117  -5.707  0.00  0.00    -0.244 NA
ATOM     32  C   UNL d   1      12.347   9.397  -3.495  0.00  0.00     0.021 A 
ATOM     33  C   UNL d   1      10.673   9.457  -6.707  0.00  0.00     0.095 A 
ATOM     34  C   UNL d   1      12.578   8.326  -2.644  0.00  0.00     0.031 A 
ATOM     35  C   UNL d   1      12.138   7.043  -3.022  0.00  0.00     0.140 A 
ATOM     36  F   UNL d   1      12.345   6.000  -2.192  0.00  0.00    -0.204 F 
ENDBRANCH  24  27
ENDBRANCH  20  21
ENDBRANCH  19  20
ENDBRANCH   1  19
TORSDOF 7
