REMARK  7 active torsions:
REMARK  status: ('A' for Active; 'I' for Inactive)
REMARK    1  A    between atoms: C_2  and  C_3 
REMARK       I    between atoms: C_2  and  N_10 
REMARK    2  A    between atoms: C_3  and  C_4 
REMARK    3  A    between atoms: N_10  and  C_11 
REMARK    4  A    between atoms: C_14  and  C_15 
REMARK    5  A    between atoms: C_15  and  C_16 
REMARK    6  A    between atoms: C_16  and  N_17 
REMARK    7  A    between atoms: N_20  and  C_21 
ROOT
ATOM      1  C   UNL d   1       9.304   5.083 -11.545  0.00  0.00     0.035 C 
ENDROOT
BRANCH   1   2
ATOM      2  C   UNL d   1       9.220   6.264 -10.561  0.00  0.00     0.002 C 
ATOM      3  C   UNL d   1       9.360   5.779  -9.113  0.00  0.00     0.002 C 
ATOM      4  C   UNL d   1       9.246   6.941  -8.137  0.00  0.00     0.024 C 
ATOM      5  C   UNL d   1      10.272   8.039  -8.448  0.00  0.00     0.106 C 
ATOM      6  C   UNL d   1      10.139   8.553  -9.879  0.00  0.00     0.024 C 
ATOM      7  C   UNL d   1      10.233   7.377 -10.857  0.00  0.00     0.002 C 
BRANCH   5   8
ATOM      8  N   UNL d   1      10.113   9.140  -7.538  0.00  0.00    -0.240 NA
ATOM      9  C   UNL d   1      10.596   9.204  -6.314  0.00  0.00     0.251 C 
ATOM     10  O   UNL d   1      10.732  10.314  -5.787  0.00  0.00    -0.271 OA
BRANCH   9  11
ATOM     11  C   UNL d   1      10.790   7.902  -5.522  0.00  0.00     0.092 C 
BRANCH  11  12
ATOM     12  C   UNL d   1      11.749   7.937  -4.341  0.00  0.00     0.039 C 
ATOM     13  C   UNL d   1      11.680   9.156  -3.395  0.00  0.00     0.143 C 
ATOM     14  O   UNL d   1      12.669   9.054  -2.406  0.00  0.00    -0.354 OA
ATOM     15  C   UNL d   1      12.475   7.941  -1.585  0.00  0.00     0.142 C 
ATOM     16  C   UNL d   1      12.653   6.660  -2.395  0.00  0.00     0.032 C 
ATOM     17  C   UNL d   1      11.658   6.618  -3.553  0.00  0.00     0.006 C 
ENDBRANCH  11  12
ENDBRANCH   9  11
ENDBRANCH   5   8
ENDBRANCH   1   2
BRANCH   1  18
ATOM     18  C   UNL d   1       8.043   4.948 -12.423  0.00  0.00     0.250 C 
BRANCH  18  19
ATOM     19  N   UNL d   1       8.005   3.651 -13.087  0.00  0.00     0.141 N 
ATOM     20  C   UNL d   1       8.955   3.582 -14.200  0.00  0.00     0.274 C 
ATOM     21  C   UNL d   1       8.932   2.187 -14.849  0.00  0.00     0.137 C 
ATOM     22  N   UNL d   1       7.577   1.849 -15.247  0.00  0.00    -0.343 N 
ATOM     23  C   UNL d   1       6.570   1.960 -14.203  0.00  0.00     0.137 C 
ATOM     24  C   UNL d   1       6.644   3.362 -13.563  0.00  0.00     0.274 C 
BRANCH  22  25
ATOM     25  C   UNL d   1       7.257   1.429 -16.555  0.00  0.00     0.081 A 
ATOM     26  C   UNL d   1       6.259   0.459 -16.804  0.00  0.00     0.135 A 
ATOM     27  C   UNL d   1       5.938   0.059 -18.079  0.00  0.00     0.121 A 
ATOM     28  O   UNL d   1       5.495  -0.225 -15.909  0.00  0.00    -0.298 OA
ATOM     29  C   UNL d   1       6.584   0.587 -19.210  0.00  0.00     0.026 A 
ATOM     30  O   UNL d   1       4.959  -0.881 -18.030  0.00  0.00    -0.299 OA
ATOM     31  C   UNL d   1       7.592   1.553 -18.996  0.00  0.00     0.004 A 
ATOM     32  C   UNL d   1       7.923   1.970 -17.686  0.00  0.00     0.019 A 
ATOM     33  C   UNL d   1       4.676  -1.074 -16.667  0.00  0.00     0.304 A 
ENDBRANCH  22  25
ENDBRANCH  18  19
ENDBRANCH   1  18
TORSDOF 7
