REMARK  7 active torsions:
REMARK  status: ('A' for Active; 'I' for Inactive)
REMARK    1  A    between atoms: C_2  and  C_3 
REMARK    2  A    between atoms: C_6  and  C_7 
REMARK    3  A    between atoms: C_7  and  C_8 
REMARK    4  A    between atoms: C_8  and  O_9 
REMARK    5  A    between atoms: O_9  and  C_10 
REMARK    6  A    between atoms: C_13  and  C_14 
REMARK    7  A    between atoms: C_14  and  C_15 
ROOT
ATOM      1  C   UNL d   1       9.139   6.235 -10.762  0.00  0.00     0.094 A 
ATOM      2  C   UNL d   1       9.430   5.595  -9.538  0.00  0.00     0.024 A 
ATOM      3  C   UNL d   1      10.237   6.233  -8.580  0.00  0.00    -0.002 A 
ATOM      4  C   UNL d   1      10.761   7.521  -8.818  0.00  0.00    -0.021 A 
ATOM      5  C   UNL d   1      10.470   8.162 -10.039  0.00  0.00    -0.002 A 
ATOM      6  C   UNL d   1       9.671   7.513 -11.008  0.00  0.00     0.024 A 
ENDROOT
BRANCH   1   7
ATOM      7  O   UNL d   1       8.369   5.647 -11.737  0.00  0.00    -0.330 OA
BRANCH   7   8
ATOM      8  C   UNL d   1       7.097   5.208 -11.289  0.00  0.00     0.155 C 
BRANCH   8   9
ATOM      9  C   UNL d   1       6.165   4.985 -12.486  0.00  0.00     0.078 C 
BRANCH   9  10
ATOM     10  C   UNL d   1       6.310   3.607 -13.105  0.00  0.00     0.062 A 
ATOM     11  C   UNL d   1       7.328   3.344 -14.039  0.00  0.00     0.015 A 
ATOM     12  C   UNL d   1       7.418   2.052 -14.587  0.00  0.00    -0.002 A 
ATOM     13  C   UNL d   1       6.484   1.078 -14.183  0.00  0.00    -0.003 A 
ATOM     14  C   UNL d   1       5.507   1.439 -13.236  0.00  0.00     0.094 A 
ATOM     15  N   UNL d   1       5.418   2.673 -12.699  0.00  0.00    -0.249 NA
BRANCH  13  16
ATOM     16  C   UNL d   1       6.543  -0.331 -14.740  0.00  0.00     0.028 C 
ATOM     17  C   UNL d   1       5.296  -0.693 -15.556  0.00  0.00     0.005 C 
ENDBRANCH  13  16
ENDBRANCH   9  10
ENDBRANCH   8   9
ENDBRANCH   7   8
ENDBRANCH   1   7
BRANCH   4  18
ATOM     18  C   UNL d   1      11.645   8.208  -7.787  0.00  0.00     0.047 C 
BRANCH  18  19
ATOM     19  C   UNL d   1      10.936   8.415  -6.425  0.00  0.00     0.141 A 
ATOM     20  C   UNL d   1      11.527   9.573  -5.612  0.00  0.00     0.269 A 
ATOM     21  N   UNL d   1      11.981   9.224  -4.396  0.00  0.00    -0.167 NA
ATOM     22  O   UNL d   1      11.552  10.722  -6.045  0.00  0.00    -0.269 OA
ATOM     23  C   UNL d   1      11.857   7.940  -4.074  0.00  0.00     0.309 A 
ATOM     24  S   UNL d   1      11.080   6.992  -5.316  0.00  0.00    -0.043 SA
ATOM     25  O   UNL d   1      12.246   7.460  -3.012  0.00  0.00    -0.258 OA
ENDBRANCH  18  19
ENDBRANCH   4  18
TORSDOF 7
