REMARK  6 active torsions:
REMARK  status: ('A' for Active; 'I' for Inactive)
REMARK    1  A    between atoms: N_7  and  C_8 
REMARK    2  A    between atoms: C_8  and  C_9 
REMARK    3  A    between atoms: C_9  and  C_10 
REMARK    4  A    between atoms: C_10  and  C_11 
REMARK    5  A    between atoms: C_11  and  N_12 
REMARK    6  A    between atoms: N_15  and  C_16 
ROOT
ATOM      1  C   UNL d   1       8.772   4.452 -12.643  0.00  0.00     0.037 C 
ENDROOT
BRANCH   1   2
ATOM      2  C   UNL d   1       9.171   5.938 -12.664  0.00  0.00     0.027 C 
BRANCH   2   3
ATOM      3  C   UNL d   1       8.535   6.764 -11.537  0.00  0.00     0.112 C 
BRANCH   3   4
ATOM      4  N   UNL d   1       9.363   6.738 -10.302  0.00  0.00    -0.271 N 
ATOM      5  C   UNL d   1       9.171   5.727  -9.449  0.00  0.00     0.239 C 
ATOM      6  C   UNL d   1       9.979   5.698  -8.115  0.00  0.00     0.089 C 
ATOM      7  O   UNL d   1       8.413   4.774  -9.613  0.00  0.00    -0.272 OA
ATOM      8  C   UNL d   1      10.365   7.086  -7.599  0.00  0.00     0.018 C 
ATOM      9  C   UNL d   1       9.125   7.835  -7.047  0.00  0.00     0.001 C 
ATOM     10  C   UNL d   1      11.005   7.856  -8.765  0.00  0.00     0.089 C 
ATOM     11  C   UNL d   1      11.382   6.914  -6.457  0.00  0.00     0.001 C 
ATOM     12  C   UNL d   1      10.164   7.805 -10.044  0.00  0.00     0.239 C 
ATOM     13  O   UNL d   1      10.266   8.786 -10.779  0.00  0.00    -0.272 OA
ENDBRANCH   3   4
ENDBRANCH   2   3
ENDBRANCH   1   2
BRANCH   1  14
ATOM     14  C   UNL d   1       8.771   3.839 -14.051  0.00  0.00     0.251 C 
BRANCH  14  15
ATOM     15  N   UNL d   1       8.236   2.485 -14.040  0.00  0.00     0.141 N 
ATOM     16  C   UNL d   1       6.768   2.475 -13.866  0.00  0.00     0.275 C 
ATOM     17  C   UNL d   1       6.231   1.031 -13.831  0.00  0.00     0.155 C 
ATOM     18  N   UNL d   1       6.608   0.340 -15.050  0.00  0.00    -0.179 N 
ATOM     19  C   UNL d   1       8.037   0.385 -15.323  0.00  0.00     0.155 C 
ATOM     20  C   UNL d   1       8.538   1.837 -15.320  0.00  0.00     0.275 C 
BRANCH  18  21
ATOM     21  C   UNL d   1       5.689  -0.324 -15.872  0.00  0.00     0.727 A 
ATOM     22  N   UNL d   1       4.573  -0.769 -15.297  0.00  0.00    -0.060 NA
ATOM     23  C   UNL d   1       3.698  -1.416 -16.095  0.00  0.00     0.120 A 
ATOM     24  C   UNL d   1       3.936  -1.592 -17.470  0.00  0.00     0.043 A 
ATOM     25  C   UNL d   1       5.143  -1.072 -17.959  0.00  0.00     0.120 A 
ATOM     26  N   UNL d   1       6.016  -0.433 -17.159  0.00  0.00    -0.060 NA
ENDBRANCH  18  21
ENDBRANCH  14  15
ENDBRANCH   1  14
TORSDOF 6
