REMARK  1 active torsions:
REMARK  status: ('A' for Active; 'I' for Inactive)
REMARK    1  A    between atoms: O_2  and  C_3 
ROOT
ATOM      1  C   UNL d   1      11.617   8.256  -4.626  0.00  0.00     0.122 A 
ATOM      2  C   UNL d   1      12.299   9.461  -4.905  0.00  0.00     0.028 A 
ATOM      3  C   UNL d   1      12.221   9.991  -6.204  0.00  0.00     0.021 A 
ATOM      4  C   UNL d   1      11.527   9.325  -7.205  0.00  0.00     0.084 A 
ATOM      5  N   UNL d   1      11.376   9.586  -8.556  0.00  0.00    -0.244 NA
ATOM      6  C   UNL d   1      10.634   8.636  -9.182  0.00  0.00     0.101 A 
ATOM      7  C   UNL d   1      10.295   7.696  -8.258  0.00  0.00     0.040 A 
ATOM      8  C   UNL d   1       9.489   6.549  -8.535  0.00  0.00     0.082 C 
ATOM      9  C   UNL d   1       8.703   5.841  -7.660  0.00  0.00     0.118 C 
ATOM     10  N   UNL d   1       8.278   4.689  -8.294  0.00  0.00    -0.223 NA
ATOM     11  C   UNL d   1       8.571   4.880  -9.556  0.00  0.00     0.179 C 
ATOM     12  N   UNL d   1       9.340   5.936  -9.775  0.00  0.00    -0.307 N 
ATOM     13  C   UNL d   1       9.901   6.285 -11.039  0.00  0.00     0.132 C 
ATOM     14  C   UNL d   1      10.865   8.095  -6.992  0.00  0.00     0.050 A 
ATOM     15  C   UNL d   1      10.928   7.598  -5.655  0.00  0.00     0.164 A 
ATOM     16  F   UNL d   1      10.322   6.435  -5.325  0.00  0.00    -0.202 F 
ENDROOT
BRANCH   1  17
ATOM     17  O   UNL d   1      11.585   7.675  -3.383  0.00  0.00    -0.326 OA
ATOM     18  C   UNL d   1      12.591   8.028  -2.458  0.00  0.00     0.181 C 
ENDBRANCH   1  17
TORSDOF 1
