REMARK  5 active torsions:
REMARK  status: ('A' for Active; 'I' for Inactive)
REMARK    1  A    between atoms: N_10  and  C_11 
REMARK    2  A    between atoms: C_11  and  C_12 
REMARK    3  A    between atoms: C_12  and  N_13 
REMARK    4  A    between atoms: N_16  and  C_17 
REMARK    5  A    between atoms: C_17  and  C_18 
ROOT
ATOM      1  N   UNL d   1       8.899   5.242 -11.477  0.00  0.00     0.143 N 
ATOM      2  C   UNL d   1       9.063   4.836 -10.092  0.00  0.00     0.286 C 
ATOM      3  C   UNL d   1       8.819   5.998  -9.141  0.00  0.00     0.286 C 
ATOM      4  N   UNL d   1       9.751   7.121  -9.351  0.00  0.00     0.146 N 
ATOM      5  C   UNL d   1       9.634   7.543 -10.751  0.00  0.00     0.286 C 
ATOM      6  C   UNL d   1       9.772   6.371 -11.735  0.00  0.00     0.286 C 
ENDROOT
BRANCH   1   7
ATOM      7  C   UNL d   1       9.173   4.146 -12.406  0.00  0.00     0.275 C 
BRANCH   7   8
ATOM      8  C   UNL d   1       8.324   4.191 -13.691  0.00  0.00     0.144 C 
BRANCH   8   9
ATOM      9  N   UNL d   1       7.058   3.458 -13.545  0.00  0.00    -0.297 N 
ATOM     10  C   UNL d   1       5.996   3.856 -12.803  0.00  0.00     0.242 A 
ATOM     11  O   UNL d   1       5.866   4.934 -12.230  0.00  0.00    -0.272 OA
ATOM     12  C   UNL d   1       4.914   2.777 -12.749  0.00  0.00     0.116 A 
ATOM     13  C   UNL d   1       5.567   1.710 -13.590  0.00  0.00     0.003 A 
ATOM     14  C   UNL d   1       6.804   2.156 -14.043  0.00  0.00     0.059 A 
ATOM     15  C   UNL d   1       5.048   0.454 -13.951  0.00  0.00    -0.002 A 
ATOM     16  C   UNL d   1       7.625   1.319 -14.822  0.00  0.00     0.017 A 
ATOM     17  C   UNL d   1       7.111   0.060 -15.203  0.00  0.00     0.002 A 
ATOM     18  C   UNL d   1       5.838  -0.376 -14.782  0.00  0.00    -0.000 A 
ENDBRANCH   8   9
ENDBRANCH   7   8
ENDBRANCH   1   7
BRANCH   4  19
ATOM     19  C   UNL d   1       9.488   8.243  -8.433  0.00  0.00     0.277 C 
BRANCH  19  20
ATOM     20  C   UNL d   1      10.274   8.188  -7.136  0.00  0.00     0.011 C 
ATOM     21  C   UNL d   1      11.227   9.188  -6.841  0.00  0.00    -0.002 C 
ATOM     22  C   UNL d   1      11.942   9.161  -5.616  0.00  0.00     0.011 C 
ATOM     23  C   UNL d   1      11.744   8.092  -4.719  0.00  0.00     0.058 C 
ATOM     24  C   UNL d   1      10.844   7.068  -5.043  0.00  0.00     0.011 C 
ATOM     25 CL   UNL d   1      12.566   8.011  -3.203  0.00  0.00    -0.082 Cl
ATOM     26  C   UNL d   1      10.060   7.156  -6.196  0.00  0.00    -0.002 C 
ENDBRANCH  19  20
ENDBRANCH   4  19
TORSDOF 5
