REMARK  5 active torsions:
REMARK  status: ('A' for Active; 'I' for Inactive)
REMARK    1  A    between atoms: C_6  and  C_7 
REMARK    2  A    between atoms: C_7  and  C_8 
REMARK    3  A    between atoms: C_8  and  C_9 
REMARK    4  A    between atoms: C_9  and  N_10 
REMARK    5  A    between atoms: N_13  and  C_14 
ROOT
ATOM      1  N   UNL d   1       9.690   7.141  -8.796  0.00  0.00     0.141 N 
ATOM      2  C   UNL d   1       9.480   6.263  -7.637  0.00  0.00     0.274 C 
ATOM      3  C   UNL d   1       9.250   7.085  -6.359  0.00  0.00     0.138 C 
ATOM      4  N   UNL d   1      10.331   8.033  -6.171  0.00  0.00    -0.330 N 
ATOM      5  C   UNL d   1      10.629   8.893  -7.294  0.00  0.00     0.138 C 
ATOM      6  C   UNL d   1      10.837   8.018  -8.551  0.00  0.00     0.274 C 
ENDROOT
BRANCH   1   7
ATOM      7  C   UNL d   1       9.888   6.360 -10.016  0.00  0.00     0.257 C 
BRANCH   7   8
ATOM      8  C   UNL d   1       8.526   5.744 -10.489  0.00  0.00     0.084 C 
BRANCH   8   9
ATOM      9  C   UNL d   1       8.164   5.934 -11.966  0.00  0.00     0.090 C 
ATOM     10  N   UNL d   1       8.203   7.032 -12.608  0.00  0.00    -0.101 NA
ATOM     11  O   UNL d   1       8.578   8.120 -11.757  0.00  0.00    -0.061 OA
BRANCH   9  12
ATOM     12  C   UNL d   1       7.688   4.726 -12.685  0.00  0.00     0.016 A 
ATOM     13  C   UNL d   1       6.379   4.250 -12.456  0.00  0.00     0.001 A 
ATOM     14  C   UNL d   1       5.878   3.154 -13.185  0.00  0.00    -0.000 A 
ATOM     15  C   UNL d   1       6.686   2.514 -14.143  0.00  0.00    -0.004 A 
ATOM     16  C   UNL d   1       7.997   2.977 -14.383  0.00  0.00    -0.022 A 
ATOM     17  C   UNL d   1       8.863   2.288 -15.423  0.00  0.00     0.031 C 
ATOM     18  C   UNL d   1       8.493   4.082 -13.653  0.00  0.00    -0.003 A 
ENDBRANCH   9  12
ENDBRANCH   8   9
ENDBRANCH   7   8
ENDBRANCH   1   7
BRANCH   4  19
ATOM     19  C   UNL d   1      11.099   8.085  -4.981  0.00  0.00     0.140 A 
ATOM     20  N   UNL d   1      11.400   9.314  -4.503  0.00  0.00    -0.227 NA
ATOM     21  C   UNL d   1      12.064   9.397  -3.336  0.00  0.00     0.101 A 
ATOM     22  C   UNL d   1      12.508   8.275  -2.611  0.00  0.00     0.021 A 
ATOM     23  C   UNL d   1      12.211   6.996  -3.118  0.00  0.00     0.005 A 
ATOM     24  C   UNL d   1      11.479   6.899  -4.316  0.00  0.00     0.037 A 
ENDBRANCH   4  19
TORSDOF 5
