REMARK  0 active torsions:
REMARK  status: ('A' for Active; 'I' for Inactive)
ROOT
ATOM      1  C   UNL d   1       5.858  -0.078 -14.981  0.00  0.00     0.285 C 
ATOM      2  N   UNL d   1       6.557   1.160 -15.321  0.00  0.00     0.140 N 
ATOM      3  C   UNL d   1       7.162   1.703 -14.106  0.00  0.00     0.255 C 
ATOM      4  C   UNL d   1       6.678   3.160 -13.881  0.00  0.00     0.061 C 
ATOM      5  C   UNL d   1       7.567   3.998 -12.976  0.00  0.00    -0.024 A 
ATOM      6  C   UNL d   1       7.213   4.136 -11.622  0.00  0.00    -0.004 A 
ATOM      7  C   UNL d   1       8.032   4.817 -10.727  0.00  0.00    -0.000 A 
ATOM      8  C   UNL d   1       9.194   5.493 -11.177  0.00  0.00    -0.000 A 
ATOM      9  C   UNL d   1       9.499   5.425 -12.531  0.00  0.00    -0.004 A 
ATOM     10  C   UNL d   1       8.741   4.673 -13.432  0.00  0.00    -0.022 A 
ATOM     11  C   UNL d   1       9.206   4.728 -14.867  0.00  0.00     0.053 C 
ATOM     12  C   UNL d   1       9.923   3.476 -15.346  0.00  0.00    -0.005 A 
ATOM     13  C   UNL d   1      11.283   3.256 -14.992  0.00  0.00     0.016 A 
ATOM     14  C   UNL d   1      11.712   2.158 -15.677  0.00  0.00     0.075 A 
ATOM     15  N   UNL d   1      10.647   1.607 -16.329  0.00  0.00    -0.328 N 
ATOM     16  C   UNL d   1      10.747   0.366 -17.078  0.00  0.00     0.130 C 
ATOM     17  C   UNL d   1       9.548   2.438 -16.174  0.00  0.00     0.036 A 
ATOM     18  C   UNL d   1       8.298   2.074 -16.926  0.00  0.00     0.079 C 
ATOM     19  C   UNL d   1       7.513   0.857 -16.386  0.00  0.00     0.257 C 
ENDROOT
TORSDOF 0
