REMARK  8 active torsions:
REMARK  status: ('A' for Active; 'I' for Inactive)
REMARK    1  A    between atoms: C_2  and  C_4 
REMARK    2  A    between atoms: C_9  and  O_10 
REMARK    3  A    between atoms: O_10  and  C_11 
REMARK    4  A    between atoms: C_11  and  C_12 
REMARK    5  A    between atoms: C_12  and  N_13 
REMARK    6  A    between atoms: C_16  and  N_17 
REMARK    7  A    between atoms: N_17  and  S_18 
REMARK    8  A    between atoms: S_18  and  C_21 
ROOT
ATOM      1  N   UNL d   1      10.247   6.966  -9.865  0.00  0.00     0.142 N 
ATOM      2  C   UNL d   1      10.654   8.327 -10.170  0.00  0.00     0.253 C 
ATOM      3  C   UNL d   1      11.451   8.747  -8.946  0.00  0.00     0.063 C 
ATOM      4  C   UNL d   1      10.897   7.880  -7.810  0.00  0.00     0.151 C 
ATOM      5  C   UNL d   1       9.819   7.025  -8.472  0.00  0.00     0.275 C 
ENDROOT
BRANCH   1   6
ATOM      6  C   UNL d   1       9.196   6.534 -10.785  0.00  0.00     0.283 C 
BRANCH   6   7
ATOM      7  C   UNL d   1       8.761   5.084 -10.469  0.00  0.00     0.184 C 
BRANCH   7   8
ATOM      8  O   UNL d   1       7.935   4.553 -11.495  0.00  0.00    -0.329 OA
BRANCH   8   9
ATOM      9  C   UNL d   1       8.508   4.208 -12.704  0.00  0.00     0.090 A 
ATOM     10  C   UNL d   1       7.717   3.470 -13.624  0.00  0.00    -0.000 A 
ATOM     11  C   UNL d   1       8.282   3.099 -14.868  0.00  0.00    -0.002 A 
ATOM     12  C   UNL d   1       9.580   3.489 -15.228  0.00  0.00    -0.000 A 
ATOM     13  C   UNL d   1      10.359   4.224 -14.318  0.00  0.00     0.002 A 
ATOM     14  C   UNL d   1       9.842   4.549 -13.054  0.00  0.00     0.024 A 
BRANCH  10  15
ATOM     15  C   UNL d   1       6.296   3.017 -13.247  0.00  0.00     0.024 C 
ATOM     16  C   UNL d   1       5.906   1.664 -13.885  0.00  0.00     0.005 C 
ATOM     17  C   UNL d   1       5.263   4.112 -13.536  0.00  0.00     0.005 C 
ENDBRANCH  10  15
ENDBRANCH   8   9
ENDBRANCH   7   8
ENDBRANCH   6   7
ENDBRANCH   1   6
BRANCH   4  18
ATOM     18  N   UNL d   1      10.320   8.696  -6.730  0.00  0.00    -0.184 NA
BRANCH  18  19
ATOM     19  S   UNL d   1      11.377   9.585  -5.699  0.00  0.00     0.287 S 
ATOM     20  O   UNL d   1      12.654   9.701  -6.406  0.00  0.00    -0.198 OA
ATOM     21  O   UNL d   1      10.672  10.751  -5.149  0.00  0.00    -0.198 OA
BRANCH  19  22
ATOM     22  C   UNL d   1      11.707   8.520  -4.332  0.00  0.00     0.134 A 
ATOM     23  S   UNL d   1      11.455   6.809  -4.445  0.00  0.00    -0.073 SA
ATOM     24  C   UNL d   1      11.955   6.598  -2.790  0.00  0.00     0.036 A 
ATOM     25  C   UNL d   1      12.266   7.794  -2.202  0.00  0.00     0.008 A 
ATOM     26  C   UNL d   1      12.123   8.903  -3.084  0.00  0.00     0.020 A 
ENDBRANCH  19  22
ENDBRANCH  18  19
ENDBRANCH   4  18
TORSDOF 8
