REMARK  2 active torsions:
REMARK  status: ('A' for Active; 'I' for Inactive)
REMARK    1  A    between atoms: S_2  and  C_5 
REMARK    2  A    between atoms: C_13  and  C_14 
ROOT
ATOM      1  C   UNL d   1       7.761   4.390 -13.221  0.00  0.00     0.118 A 
ATOM      2  C   UNL d   1       8.569   3.608 -14.073  0.00  0.00     0.028 A 
ATOM      3  C   UNL d   1       8.036   2.422 -14.621  0.00  0.00     0.123 A 
ATOM      4  C   UNL d   1       6.708   2.022 -14.335  0.00  0.00     0.091 A 
ATOM      5  C   UNL d   1       5.923   2.818 -13.481  0.00  0.00     0.032 A 
ATOM      6  C   UNL d   1       6.442   3.993 -12.923  0.00  0.00     0.071 A 
ATOM      7 CL   UNL d   1       5.463   4.927 -11.881  0.00  0.00    -0.082 Cl
ATOM      8  N   UNL d   1       6.113   0.869 -14.868  0.00  0.00    -0.244 NA
ATOM      9  C   UNL d   1       6.844  -0.151 -15.611  0.00  0.00     0.248 C 
ATOM     10  N   UNL d   1       7.810   0.511 -16.494  0.00  0.00    -0.159 NA
ATOM     11  S   UNL d   1       9.028   1.430 -15.729  0.00  0.00     0.284 S 
ATOM     12  O   UNL d   1       9.636   2.295 -16.745  0.00  0.00    -0.199 OA
ATOM     13  O   UNL d   1       9.869   0.517 -14.950  0.00  0.00    -0.199 OA
ENDROOT
BRANCH   1  14
ATOM     14  S   UNL d   1       8.427   5.879 -12.490  0.00  0.00     0.303 S 
ATOM     15  N   UNL d   1       8.288   5.580 -10.801  0.00  0.00    -0.043 N 
ATOM     16  O   UNL d   1       7.532   6.999 -12.826  0.00  0.00    -0.197 OA
ATOM     17  O   UNL d   1       9.851   5.933 -12.814  0.00  0.00    -0.197 OA
ENDBRANCH   1  14
BRANCH   9  18
ATOM     18  C   UNL d   1       5.862  -0.991 -16.442  0.00  0.00     0.205 C 
ATOM     19 CL   UNL d   1       4.662  -1.758 -15.374  0.00  0.00    -0.093 Cl
ATOM     20 CL   UNL d   1       5.053   0.011 -17.681  0.00  0.00    -0.093 Cl
ENDBRANCH   9  18
TORSDOF 2
