REMARK  4 active torsions:
REMARK  status: ('A' for Active; 'I' for Inactive)
REMARK       I    between atoms: N_10  and  C_11 
REMARK    1  A    between atoms: C_11  and  C_13 
REMARK    2  A    between atoms: C_13  and  C_14 
REMARK    3  A    between atoms: N_17  and  C_18 
REMARK    4  A    between atoms: C_18  and  C_19 
ROOT
ATOM      1  C   UNL d   1       8.619   0.895 -17.495  0.00  0.00     0.013 C 
ATOM      2  C   UNL d   1       8.613   0.263 -16.067  0.00  0.00     0.036 C 
ATOM      3  C   UNL d   1       9.616   0.944 -15.126  0.00  0.00     0.251 C 
ATOM      4  N   UNL d   1       9.310   2.377 -15.063  0.00  0.00     0.141 N 
ATOM      5  C   UNL d   1       9.511   2.968 -16.396  0.00  0.00     0.251 C 
ATOM      6  C   UNL d   1       8.462   2.402 -17.352  0.00  0.00     0.036 C 
ENDROOT
BRANCH   1   7
ATOM      7  C   UNL d   1       7.504   0.385 -18.454  0.00  0.00     0.088 C 
BRANCH   7   8
ATOM      8  C   UNL d   1       7.544  -1.135 -18.586  0.00  0.00     0.237 C 
ATOM      9  N   UNL d   1       6.393  -1.868 -18.342  0.00  0.00    -0.301 N 
ATOM     10  C   UNL d   1       5.087  -1.274 -17.937  0.00  0.00     0.093 C 
ATOM     11  C   UNL d   1       6.246  -3.272 -18.572  0.00  0.00     0.058 A 
ATOM     12  C   UNL d   1       5.050  -0.852 -16.445  0.00  0.00     0.025 C 
ATOM     13  C   UNL d   1       4.054  -2.401 -18.172  0.00  0.00     0.051 C 
ATOM     14  C   UNL d   1       4.900  -3.604 -18.499  0.00  0.00    -0.004 A 
ATOM     15  C   UNL d   1       4.466  -4.918 -18.689  0.00  0.00    -0.003 A 
ATOM     16  C   UNL d   1       5.410  -5.934 -18.964  0.00  0.00    -0.000 A 
ATOM     17  C   UNL d   1       6.787  -5.591 -19.017  0.00  0.00     0.002 A 
ATOM     18  C   UNL d   1       7.205  -4.262 -18.811  0.00  0.00     0.017 A 
ATOM     19  O   UNL d   1       8.614  -1.649 -18.872  0.00  0.00    -0.272 OA
ENDBRANCH   7   8
ENDBRANCH   1   7
BRANCH   4  20
ATOM     20  C   UNL d   1      10.176   3.025 -14.075  0.00  0.00     0.279 C 
BRANCH  20  21
ATOM     21  C   UNL d   1       9.516   4.090 -13.190  0.00  0.00     0.038 A 
ATOM     22  C   UNL d   1       8.793   5.170 -13.755  0.00  0.00     0.138 A 
ATOM     23  C   UNL d   1       8.201   6.131 -12.874  0.00  0.00     0.029 A 
ATOM     24  F   UNL d   1       8.669   5.323 -15.060  0.00  0.00    -0.204 F 
ATOM     25  C   UNL d   1       8.342   6.017 -11.484  0.00  0.00     0.002 A 
ATOM     26  C   UNL d   1       9.084   4.963 -10.930  0.00  0.00    -0.000 A 
ATOM     27  C   UNL d   1       9.649   4.025 -11.798  0.00  0.00    -0.000 A 
ENDBRANCH  20  21
ENDBRANCH   4  20
TORSDOF 4
