REMARK  2 active torsions:
REMARK  status: ('A' for Active; 'I' for Inactive)
REMARK    1  A    between atoms: N_13  and  C_14 
REMARK    2  A    between atoms: C_14  and  C_15 
ROOT
ATOM      1  N   UNL d   1       6.696   4.431 -12.890  0.00  0.00    -0.120 N 
ATOM      2  C   UNL d   1       7.535   5.165 -12.077  0.00  0.00     0.215 A 
ATOM      3  N   UNL d   1       7.924   4.748 -10.874  0.00  0.00    -0.219 NA
ATOM      4  C   UNL d   1       8.782   5.683 -10.314  0.00  0.00     0.089 A 
ATOM      5  C   UNL d   1       9.411   5.612  -9.051  0.00  0.00     0.015 A 
ATOM      6  C   UNL d   1      10.266   6.636  -8.602  0.00  0.00    -0.022 A 
ATOM      7  C   UNL d   1      10.522   7.762  -9.409  0.00  0.00    -0.024 A 
ATOM      8  C   UNL d   1       9.898   7.855 -10.672  0.00  0.00     0.004 A 
ATOM      9  C   UNL d   1       9.061   6.822 -11.122  0.00  0.00     0.050 A 
ATOM     10  S   UNL d   1       8.176   6.707 -12.626  0.00  0.00    -0.045 SA
ATOM     11  C   UNL d   1      11.436   8.879  -8.928  0.00  0.00     0.061 C 
ATOM     12  C   UNL d   1      10.976   9.545  -7.618  0.00  0.00     0.255 C 
ATOM     13  N   UNL d   1      11.296   8.807  -6.407  0.00  0.00     0.144 N 
ATOM     14  C   UNL d   1      10.414   7.644  -6.265  0.00  0.00     0.255 C 
ATOM     15  C   UNL d   1      10.873   6.537  -7.225  0.00  0.00     0.061 C 
ENDROOT
BRANCH  13  16
ATOM     16  C   UNL d   1      11.143   9.702  -5.261  0.00  0.00     0.297 C 
BRANCH  16  17
ATOM     17  C   UNL d   1      11.654   9.146  -3.954  0.00  0.00     0.113 A 
ATOM     18  N   UNL d   1      11.871   9.961  -2.847  0.00  0.00    -0.225 NA
ATOM     19  C   UNL d   1      12.257   9.182  -1.844  0.00  0.00     0.199 A 
ATOM     20  N   UNL d   1      12.351   7.900  -2.175  0.00  0.00    -0.221 NA
ATOM     21  C   UNL d   1      11.991   7.875  -3.529  0.00  0.00     0.117 A 
ENDBRANCH  16  17
ENDBRANCH  13  16
TORSDOF 2
