REMARK  4 active torsions:
REMARK  status: ('A' for Active; 'I' for Inactive)
REMARK    1  A    between atoms: N_5  and  C_6 
REMARK    2  A    between atoms: N_9  and  C_10 
REMARK    3  A    between atoms: C_10  and  C_11 
REMARK    4  A    between atoms: C_19  and  C_20 
ROOT
ATOM      1  C   UNL d   1       8.717   4.718 -12.691  0.00  0.00     0.111 C 
ATOM      2  C   UNL d   1       8.849   6.223 -12.389  0.00  0.00     0.060 C 
ATOM      3  C   UNL d   1       8.580   6.498 -10.913  0.00  0.00     0.253 C 
ATOM      4  N   UNL d   1       9.515   5.763 -10.064  0.00  0.00     0.141 N 
ATOM      5  C   UNL d   1       9.342   4.340 -10.270  0.00  0.00     0.253 C 
ATOM      6  C   UNL d   1       9.625   3.949 -11.749  0.00  0.00     0.060 C 
ENDROOT
BRANCH   1   7
ATOM      7  N   UNL d   1       9.099   4.383 -14.063  0.00  0.00    -0.234 N 
ATOM      8  N   UNL d   1      10.109   5.066 -14.656  0.00  0.00    -0.064 NA
ATOM      9  N   UNL d   1      10.251   4.616 -15.859  0.00  0.00    -0.133 NA
ATOM     10  C   UNL d   1       9.395   3.539 -16.032  0.00  0.00     0.100 A 
ATOM     11  C   UNL d   1       9.347   2.820 -17.344  0.00  0.00     0.056 C 
ATOM     12  C   UNL d   1       8.652   3.361 -14.895  0.00  0.00     0.095 A 
BRANCH  12  13
ATOM     13  C   UNL d   1       7.602   2.391 -14.554  0.00  0.00     0.019 A 
ATOM     14  C   UNL d   1       6.466   2.742 -13.777  0.00  0.00     0.002 A 
ATOM     15  C   UNL d   1       5.515   1.753 -13.410  0.00  0.00     0.000 A 
ATOM     16  C   UNL d   1       5.633   0.435 -13.894  0.00  0.00     0.000 A 
ATOM     17  C   UNL d   1       6.713   0.097 -14.730  0.00  0.00     0.000 A 
ATOM     18  C   UNL d   1       7.695   1.067 -15.032  0.00  0.00     0.002 A 
ENDBRANCH  12  13
ENDBRANCH   1   7
BRANCH   4  19
ATOM     19  C   UNL d   1       9.296   6.102  -8.656  0.00  0.00     0.277 C 
BRANCH  19  20
ATOM     20  C   UNL d   1      10.222   7.193  -8.165  0.00  0.00     0.011 A 
ATOM     21  C   UNL d   1      10.000   7.776  -6.901  0.00  0.00    -0.002 A 
ATOM     22  C   UNL d   1      10.873   8.763  -6.412  0.00  0.00    -0.000 A 
ATOM     23  C   UNL d   1      11.978   9.171  -7.183  0.00  0.00    -0.000 A 
ATOM     24  C   UNL d   1      12.213   8.576  -8.438  0.00  0.00    -0.000 A 
ATOM     25  C   UNL d   1      11.339   7.601  -8.933  0.00  0.00    -0.002 A 
ENDBRANCH  19  20
ENDBRANCH   4  19
TORSDOF 4
