REMARK  3 active torsions:
REMARK  status: ('A' for Active; 'I' for Inactive)
REMARK    1  A    between atoms: C_5  and  C_6 
REMARK    2  A    between atoms: C_6  and  N_7 
REMARK    3  A    between atoms: C_10  and  C_11 
ROOT
ATOM      1  N   UNL d   1      10.169   8.014  -8.278  0.00  0.00     0.146 N 
ATOM      2  C   UNL d   1       9.033   7.102  -8.053  0.00  0.00     0.277 C 
ATOM      3  C   UNL d   1       8.783   6.164  -9.212  0.00  0.00     0.007 C 
ATOM      4  C   UNL d   1       9.267   6.373 -10.443  0.00  0.00     0.001 C 
ATOM      5  C   UNL d   1      10.094   7.618 -10.693  0.00  0.00     0.064 C 
ATOM      6  C   UNL d   1       9.992   8.672  -9.579  0.00  0.00     0.256 C 
ENDROOT
BRANCH   4   7
ATOM      7  C   UNL d   1       8.945   5.484 -11.555  0.00  0.00     0.107 A 
ATOM      8  S   UNL d   1       7.335   4.773 -11.752  0.00  0.00    -0.067 SA
ATOM      9  C   UNL d   1       7.935   3.925 -13.170  0.00  0.00     0.049 A 
ATOM     10  C   UNL d   1       9.311   4.244 -13.370  0.00  0.00     0.089 A 
ATOM     11  C   UNL d   1       7.264   3.013 -14.004  0.00  0.00     0.009 A 
ATOM     12  N   UNL d   1       9.844   5.154 -12.473  0.00  0.00    -0.239 NA
ATOM     13  C   UNL d   1       9.987   3.610 -14.424  0.00  0.00     0.031 A 
ATOM     14  C   UNL d   1       9.328   2.693 -15.262  0.00  0.00     0.059 A 
ATOM     15 CL   UNL d   1      10.177   1.980 -16.579  0.00  0.00    -0.082 Cl
ATOM     16  C   UNL d   1       7.967   2.388 -15.049  0.00  0.00     0.012 A 
ENDBRANCH   4   7
BRANCH   1  17
ATOM     17  C   UNL d   1      10.250   9.019  -7.228  0.00  0.00     0.277 C 
BRANCH  17  18
ATOM     18  C   UNL d   1      10.884   8.538  -5.931  0.00  0.00     0.011 A 
ATOM     19  C   UNL d   1      11.361   9.499  -4.985  0.00  0.00    -0.002 A 
ATOM     20  C   UNL d   1      11.934   9.067  -3.762  0.00  0.00     0.011 A 
ATOM     21  C   UNL d   1      11.967   7.694  -3.478  0.00  0.00     0.058 A 
ATOM     22 CL   UNL d   1      12.597   7.088  -2.039  0.00  0.00    -0.082 Cl
ATOM     23  C   UNL d   1      11.511   6.755  -4.403  0.00  0.00     0.011 A 
ATOM     24  C   UNL d   1      11.040   7.171  -5.639  0.00  0.00    -0.002 A 
ENDBRANCH  17  18
ENDBRANCH   1  17
TORSDOF 3
