REMARK  4 active torsions:
REMARK  status: ('A' for Active; 'I' for Inactive)
REMARK    1  A    between atoms: C_5  and  C_6 
REMARK    2  A    between atoms: C_8  and  C_9 
REMARK    3  A    between atoms: N_12  and  C_13 
REMARK    4  A    between atoms: C_13  and  C_14 
ROOT
ATOM      1  C   UNL d   1      10.454   7.238  -6.981  0.00  0.00     0.104 A 
ATOM      2  C   UNL d   1      11.020   7.207  -8.223  0.00  0.00     0.037 A 
ATOM      3  C   UNL d   1       9.966   6.704  -9.042  0.00  0.00     0.084 A 
ATOM      4  N   UNL d   1       8.872   6.429  -8.348  0.00  0.00    -0.152 NA
ATOM      5  N   UNL d   1       9.159   6.796  -7.095  0.00  0.00    -0.148 NA
ENDROOT
BRANCH   3   6
ATOM      6  C   UNL d   1       9.955   6.534 -10.536  0.00  0.00     0.077 C 
ATOM      7  C   UNL d   1       9.166   5.309 -11.039  0.00  0.00     0.257 C 
ATOM      8  N   UNL d   1       8.716   5.704 -12.370  0.00  0.00     0.142 N 
ATOM      9  C   UNL d   1       8.294   7.081 -12.186  0.00  0.00     0.251 C 
ATOM     10  C   UNL d   1       9.414   7.710 -11.348  0.00  0.00     0.043 C 
BRANCH   8  11
ATOM     11  C   UNL d   1       7.626   4.843 -12.837  0.00  0.00     0.277 C 
BRANCH  11  12
ATOM     12  C   UNL d   1       8.097   3.626 -13.617  0.00  0.00     0.011 A 
ATOM     13  C   UNL d   1       7.148   2.672 -14.042  0.00  0.00    -0.002 A 
ATOM     14  C   UNL d   1       7.563   1.545 -14.785  0.00  0.00    -0.000 A 
ATOM     15  C   UNL d   1       8.924   1.372 -15.108  0.00  0.00    -0.000 A 
ATOM     16  C   UNL d   1       9.870   2.324 -14.693  0.00  0.00    -0.000 A 
ATOM     17  C   UNL d   1       9.459   3.446 -13.954  0.00  0.00    -0.002 A 
ENDBRANCH  11  12
ENDBRANCH   8  11
ENDBRANCH   3   6
BRANCH   1  18
ATOM     18  C   UNL d   1      10.992   7.638  -5.701  0.00  0.00     0.019 A 
ATOM     19  C   UNL d   1      11.159   9.000  -5.377  0.00  0.00     0.002 A 
ATOM     20  C   UNL d   1      11.672   9.356  -4.112  0.00  0.00     0.011 A 
ATOM     21  C   UNL d   1      12.036   8.358  -3.188  0.00  0.00     0.058 A 
ATOM     22 CL   UNL d   1      12.657   8.782  -1.646  0.00  0.00    -0.082 Cl
ATOM     23  C   UNL d   1      11.869   7.000  -3.511  0.00  0.00     0.011 A 
ATOM     24  C   UNL d   1      11.355   6.650  -4.770  0.00  0.00     0.002 A 
ENDBRANCH   1  18
TORSDOF 4
