REMARK  3 active torsions:
REMARK  status: ('A' for Active; 'I' for Inactive)
REMARK    1  A    between atoms: C_5  and  N_6 
REMARK    2  A    between atoms: N_9  and  C_10 
REMARK    3  A    between atoms: C_10  and  C_11 
ROOT
ATOM      1  N   UNL d   1      10.623   6.924  -8.568  0.00  0.00    -0.344 N 
ATOM      2  C   UNL d   1      11.002   7.487  -9.856  0.00  0.00     0.137 C 
ATOM      3  C   UNL d   1       9.788   7.507 -10.793  0.00  0.00     0.275 C 
ATOM      4  N   UNL d   1       9.214   6.163 -10.940  0.00  0.00     0.146 N 
ATOM      5  C   UNL d   1       8.769   5.684  -9.623  0.00  0.00     0.275 C 
ATOM      6  C   UNL d   1       9.941   5.631  -8.631  0.00  0.00     0.137 C 
ENDROOT
BRANCH   1   7
ATOM      7  C   UNL d   1      10.914   7.564  -7.352  0.00  0.00     0.056 A 
ATOM      8  C   UNL d   1      10.942   8.977  -7.251  0.00  0.00     0.018 A 
ATOM      9  C   UNL d   1      11.225   9.606  -6.023  0.00  0.00     0.013 A 
ATOM     10  C   UNL d   1      11.484   8.831  -4.874  0.00  0.00     0.058 A 
ATOM     11 CL   UNL d   1      11.860   9.590  -3.372  0.00  0.00    -0.082 Cl
ATOM     12  C   UNL d   1      11.456   7.429  -4.960  0.00  0.00     0.013 A 
ATOM     13  C   UNL d   1      11.185   6.802  -6.189  0.00  0.00     0.018 A 
ENDBRANCH   1   7
BRANCH   4  14
ATOM     14  C   UNL d   1       8.061   6.207 -11.842  0.00  0.00     0.283 C 
BRANCH  14  15
ATOM     15  C   UNL d   1       7.893   4.963 -12.637  0.00  0.00     0.041 A 
ATOM     16  S   UNL d   1       6.332   4.209 -12.839  0.00  0.00    -0.089 SA
ATOM     17  C   UNL d   1       7.015   3.011 -13.905  0.00  0.00     0.035 A 
ATOM     18  C   UNL d   1       8.368   3.171 -14.044  0.00  0.00     0.007 A 
ATOM     19  C   UNL d   1       8.867   4.292 -13.327  0.00  0.00     0.005 A 
ENDBRANCH  14  15
ENDBRANCH   4  14
TORSDOF 3
