REMARK  7 active torsions:
REMARK  status: ('A' for Active; 'I' for Inactive)
REMARK    1  A    between atoms: C_2  and  O_4 
REMARK    2  A    between atoms: O_4  and  C_5 
REMARK    3  A    between atoms: C_10  and  N_11 
REMARK    4  A    between atoms: N_14  and  C_15 
REMARK    5  A    between atoms: C_18  and  N_19 
REMARK    6  A    between atoms: N_19  and  S_20 
REMARK    7  A    between atoms: S_20  and  C_23 
ROOT
ATOM      1  C   UNL d   1       8.182   5.404 -12.405  0.00  0.00     0.220 C 
ATOM      2  C   UNL d   1       7.971   4.733 -11.050  0.00  0.00     0.035 C 
ATOM      3  C   UNL d   1       9.105   4.993 -10.035  0.00  0.00     0.027 C 
ATOM      4  C   UNL d   1       9.246   6.494  -9.814  0.00  0.00     0.116 C 
ATOM      5  C   UNL d   1       9.401   7.240 -11.162  0.00  0.00     0.027 C 
ATOM      6  C   UNL d   1       8.312   6.917 -12.200  0.00  0.00     0.035 C 
ENDROOT
BRANCH   1   7
ATOM      7  N   UNL d   1       9.277   4.875 -13.225  0.00  0.00     0.139 N 
ATOM      8  C   UNL d   1       9.611   3.481 -12.948  0.00  0.00     0.274 C 
ATOM      9  C   UNL d   1      10.767   3.009 -13.801  0.00  0.00     0.137 C 
ATOM     10  N   UNL d   1      10.443   3.166 -15.188  0.00  0.00    -0.343 N 
ATOM     11  C   UNL d   1      10.026   4.491 -15.582  0.00  0.00     0.137 C 
ATOM     12  C   UNL d   1       8.885   4.940 -14.637  0.00  0.00     0.274 C 
BRANCH  10  13
ATOM     13  C   UNL d   1      10.574   2.108 -16.066  0.00  0.00     0.079 A 
ATOM     14  C   UNL d   1       9.565   1.117 -16.192  0.00  0.00     0.109 A 
ATOM     15  C   UNL d   1       9.766   0.061 -17.109  0.00  0.00     0.026 A 
ATOM     16  C   UNL d   1      10.938   0.010 -17.903  0.00  0.00     0.002 A 
ATOM     17  C   UNL d   1      11.930   0.989 -17.763  0.00  0.00     0.002 A 
ATOM     18  C   UNL d   1      11.744   2.036 -16.838  0.00  0.00     0.019 A 
BRANCH  14  19
ATOM     19  O   UNL d   1       8.421   1.227 -15.406  0.00  0.00    -0.332 OA
BRANCH  19  20
ATOM     20  C   UNL d   1       7.274   0.430 -15.720  0.00  0.00     0.122 C 
ATOM     21  C   UNL d   1       6.631   0.870 -17.047  0.00  0.00     0.033 C 
ATOM     22  C   UNL d   1       6.265   0.545 -14.559  0.00  0.00     0.033 C 
ENDBRANCH  19  20
ENDBRANCH  14  19
ENDBRANCH  10  13
ENDBRANCH   1   7
BRANCH   4  23
ATOM     23  N   UNL d   1      10.418   6.777  -8.987  0.00  0.00    -0.187 NA
BRANCH  23  24
ATOM     24  S   UNL d   1      10.786   8.368  -8.439  0.00  0.00     0.283 S 
ATOM     25  O   UNL d   1      11.995   8.801  -9.156  0.00  0.00    -0.199 OA
ATOM     26  O   UNL d   1       9.558   9.168  -8.482  0.00  0.00    -0.199 OA
BRANCH  24  27
ATOM     27  C   UNL d   1      11.205   8.112  -6.723  0.00  0.00     0.132 A 
ATOM     28  C   UNL d   1      11.655   9.197  -5.940  0.00  0.00     0.152 A 
ATOM     29  C   UNL d   1      11.989   8.989  -4.584  0.00  0.00     0.030 A 
ATOM     30  F   UNL d   1      11.775  10.441  -6.460  0.00  0.00    -0.203 F 
ATOM     31  C   UNL d   1      11.867   7.702  -4.021  0.00  0.00     0.002 A 
ATOM     32  C   UNL d   1      11.415   6.633  -4.804  0.00  0.00     0.001 A 
ATOM     33  C   UNL d   1      11.069   6.833  -6.155  0.00  0.00     0.015 A 
ENDBRANCH  24  27
ENDBRANCH  23  24
ENDBRANCH   4  23
TORSDOF 7
