REMARK  4 active torsions:
REMARK  status: ('A' for Active; 'I' for Inactive)
REMARK    1  A    between atoms: C_7  and  N_8 
REMARK    2  A    between atoms: N_8  and  C_9 
REMARK    3  A    between atoms: C_9  and  C_10 
REMARK    4  A    between atoms: C_20  and  C_21 
ROOT
ATOM      1  C   UNL d   1      11.567   2.075 -17.607  0.00  0.00     0.285 C 
ATOM      2  N   UNL d   1      11.058   2.051 -16.241  0.00  0.00     0.140 N 
ATOM      3  C   UNL d   1      11.528   3.245 -15.552  0.00  0.00     0.255 C 
ATOM      4  C   UNL d   1      11.276   3.172 -14.045  0.00  0.00     0.061 C 
ATOM      5  C   UNL d   1       9.868   3.599 -13.654  0.00  0.00    -0.022 A 
ATOM      6  C   UNL d   1       9.723   4.742 -12.841  0.00  0.00     0.016 A 
ATOM      7  C   UNL d   1       8.456   5.217 -12.462  0.00  0.00     0.101 A 
ATOM      8  C   UNL d   1       7.315   4.511 -12.878  0.00  0.00     0.148 A 
ATOM      9  O   UNL d   1       6.061   4.904 -12.505  0.00  0.00    -0.189 OA
ATOM     10  C   UNL d   1       7.449   3.375 -13.700  0.00  0.00     0.025 A 
ATOM     11  C   UNL d   1       8.725   2.897 -14.091  0.00  0.00    -0.018 A 
ATOM     12  C   UNL d   1       8.885   1.639 -14.957  0.00  0.00     0.078 C 
ATOM     13  C   UNL d   1       9.599   1.933 -16.304  0.00  0.00     0.259 C 
ENDROOT
BRANCH   7  14
ATOM     14  N   UNL d   1       8.302   6.399 -11.686  0.00  0.00    -0.264 NA
BRANCH  14  15
ATOM     15  C   UNL d   1       9.389   7.317 -11.394  0.00  0.00     0.152 C 
BRANCH  15  16
ATOM     16  C   UNL d   1       9.913   7.258  -9.960  0.00  0.00     0.002 A 
ATOM     17  C   UNL d   1      11.075   7.986  -9.627  0.00  0.00    -0.002 A 
ATOM     18  C   UNL d   1      11.557   7.988  -8.303  0.00  0.00    -0.000 A 
ATOM     19  C   UNL d   1      10.881   7.262  -7.306  0.00  0.00    -0.000 A 
ATOM     20  C   UNL d   1       9.721   6.537  -7.628  0.00  0.00    -0.000 A 
ATOM     21  C   UNL d   1       9.242   6.525  -8.956  0.00  0.00    -0.002 A 
ENDBRANCH  15  16
ENDBRANCH  14  15
ENDBRANCH   7  14
BRANCH  12  22
ATOM     22  C   UNL d   1       7.562   0.894 -15.187  0.00  0.00    -0.017 A 
ATOM     23  C   UNL d   1       6.815   1.078 -16.377  0.00  0.00    -0.004 A 
ATOM     24  C   UNL d   1       5.616   0.365 -16.581  0.00  0.00    -0.000 A 
ATOM     25  C   UNL d   1       5.133  -0.500 -15.586  0.00  0.00    -0.000 A 
ATOM     26  C   UNL d   1       5.860  -0.673 -14.393  0.00  0.00    -0.000 A 
ATOM     27  C   UNL d   1       7.068   0.019 -14.197  0.00  0.00    -0.004 A 
ENDBRANCH  12  22
TORSDOF 4
