REMARK  7 active torsions:
REMARK  status: ('A' for Active; 'I' for Inactive)
REMARK    1  A    between atoms: S_2  and  N_4 
REMARK    2  A    between atoms: S_2  and  N_28 
REMARK    3  A    between atoms: N_4  and  C_5 
REMARK    4  A    between atoms: C_8  and  C_9 
REMARK    5  A    between atoms: C_9  and  C_10 
REMARK    6  A    between atoms: C_10  and  N_11 
REMARK    7  A    between atoms: N_14  and  C_15 
ROOT
ATOM      1  C   UNL d   1       9.202   4.978 -10.510  0.00  0.00     0.035 C 
ENDROOT
BRANCH   1   2
ATOM      2  C   UNL d   1       9.112   6.067  -9.444  0.00  0.00     0.002 C 
ATOM      3  C   UNL d   1       8.873   5.450  -8.059  0.00  0.00     0.002 C 
ATOM      4  C   UNL d   1       8.773   6.530  -6.972  0.00  0.00     0.025 C 
ATOM      5  C   UNL d   1      10.031   7.414  -6.992  0.00  0.00     0.117 C 
ATOM      6  C   UNL d   1      10.252   8.042  -8.362  0.00  0.00     0.025 C 
ATOM      7  C   UNL d   1      10.358   6.971  -9.430  0.00  0.00     0.002 C 
BRANCH   5   8
ATOM      8  N   UNL d   1       9.860   8.497  -6.045  0.00  0.00    -0.173 NA
BRANCH   8   9
ATOM      9  S   UNL d   1      11.145   9.333  -5.289  0.00  0.00     0.340 S 
ATOM     10  O   UNL d   1      12.026   9.924  -6.326  0.00  0.00    -0.181 OA
ATOM     11  O   UNL d   1      10.625  10.159  -4.217  0.00  0.00    -0.181 OA
BRANCH   9  12
ATOM     12  N   UNL d   1      11.977   8.009  -4.577  0.00  0.00    -0.255 N 
ATOM     13  C   UNL d   1      11.349   6.873  -3.863  0.00  0.00     0.147 C 
ATOM     14  C   UNL d   1      11.349   7.128  -2.332  0.00  0.00     0.167 C 
ATOM     15  O   UNL d   1      12.663   7.418  -1.860  0.00  0.00    -0.350 OA
ATOM     16  C   UNL d   1      13.039   8.652  -2.417  0.00  0.00     0.167 C 
ATOM     17  C   UNL d   1      13.188   8.417  -3.938  0.00  0.00     0.147 C 
ENDBRANCH   9  12
ENDBRANCH   8   9
ENDBRANCH   5   8
ENDBRANCH   1   2
BRANCH   1  18
ATOM     18  C   UNL d   1       9.305   5.525 -11.953  0.00  0.00     0.250 C 
BRANCH  18  19
ATOM     19  N   UNL d   1       9.172   4.473 -12.962  0.00  0.00     0.141 N 
ATOM     20  C   UNL d   1       9.255   5.087 -14.290  0.00  0.00     0.274 C 
ATOM     21  C   UNL d   1       9.094   4.012 -15.377  0.00  0.00     0.137 C 
ATOM     22  N   UNL d   1      10.082   2.976 -15.208  0.00  0.00    -0.343 N 
ATOM     23  C   UNL d   1      10.114   2.373 -13.903  0.00  0.00     0.137 C 
ATOM     24  C   UNL d   1      10.257   3.489 -12.858  0.00  0.00     0.274 C 
BRANCH  22  25
ATOM     25  C   UNL d   1      10.888   2.510 -16.258  0.00  0.00     0.081 A 
ATOM     26  C   UNL d   1      10.781   1.192 -16.751  0.00  0.00     0.135 A 
ATOM     27  C   UNL d   1      11.581   0.738 -17.762  0.00  0.00     0.121 A 
ATOM     28  O   UNL d   1       9.923   0.203 -16.369  0.00  0.00    -0.298 OA
ATOM     29  C   UNL d   1      12.569   1.551 -18.355  0.00  0.00     0.026 A 
ATOM     30  O   UNL d   1      11.271  -0.550 -18.060  0.00  0.00    -0.299 OA
ATOM     31  C   UNL d   1      12.700   2.876 -17.872  0.00  0.00     0.004 A 
ATOM     32  C   UNL d   1      11.857   3.351 -16.839  0.00  0.00     0.019 A 
ATOM     33  C   UNL d   1      10.204  -0.885 -17.210  0.00  0.00     0.304 A 
ENDBRANCH  22  25
ENDBRANCH  18  19
ENDBRANCH   1  18
TORSDOF 7
