REMARK  7 active torsions:
REMARK  status: ('A' for Active; 'I' for Inactive)
REMARK    1  A    between atoms: C_2  and  C_3 
REMARK    2  A    between atoms: C_3  and  O_4 
REMARK    3  A    between atoms: O_4  and  C_5 
REMARK    4  A    between atoms: C_12  and  N_13 
REMARK    5  A    between atoms: C_14  and  N_15 
REMARK    6  A    between atoms: C_20  and  O_21 
REMARK    7  A    between atoms: C_23  and  O_24 
ROOT
ATOM      1  N   UNL d   1       9.499   6.322 -10.847  0.00  0.00    -0.226 NA
ATOM      2  C   UNL d   1       9.697   6.066  -9.594  0.00  0.00     0.175 C 
ENDROOT
BRANCH   1   3
ATOM      3  C   UNL d   1       8.617   5.485 -11.521  0.00  0.00     0.083 A 
ATOM      4  C   UNL d   1       7.226   5.608 -11.335  0.00  0.00     0.019 A 
ATOM      5  C   UNL d   1       6.322   4.817 -12.048  0.00  0.00    -0.003 A 
ATOM      6  C   UNL d   1       6.793   3.862 -12.955  0.00  0.00    -0.024 A 
ATOM      7  C   UNL d   1       5.780   2.980 -13.636  0.00  0.00     0.026 C 
ATOM      8  C   UNL d   1       8.189   3.740 -13.187  0.00  0.00     0.002 A 
ATOM      9  C   UNL d   1       6.385   1.721 -14.269  0.00  0.00     0.007 C 
ATOM     10  C   UNL d   1       7.657   2.052 -15.046  0.00  0.00     0.035 C 
ATOM     11  C   UNL d   1       8.733   2.677 -14.130  0.00  0.00     0.137 C 
ATOM     12  C   UNL d   1       9.092   4.541 -12.453  0.00  0.00     0.017 A 
BRANCH  11  13
ATOM     13  O   UNL d   1       9.769   3.240 -14.916  0.00  0.00    -0.352 OA
BRANCH  13  14
ATOM     14  C   UNL d   1      10.657   2.312 -15.506  0.00  0.00     0.143 C 
BRANCH  14  15
ATOM     15  C   UNL d   1      11.353   3.064 -16.640  0.00  0.00     0.032 C 
ATOM     16  C   UNL d   1      12.278   2.147 -17.441  0.00  0.00     0.003 C 
ENDBRANCH  14  15
ENDBRANCH  13  14
ENDBRANCH  11  13
ENDBRANCH   1   3
BRANCH   2  17
ATOM     17  N   UNL d   1      10.622   6.714  -8.781  0.00  0.00    -0.327 N 
ATOM     18  C   UNL d   1      10.956   6.152  -7.478  0.00  0.00     0.130 C 
ATOM     19  C   UNL d   1      11.111   7.151  -6.371  0.00  0.00    -0.002 A 
ATOM     20  C   UNL d   1      11.055   8.530  -6.605  0.00  0.00    -0.020 A 
ATOM     21  C   UNL d   1      11.399   6.654  -5.094  0.00  0.00     0.024 A 
ATOM     22  C   UNL d   1      10.828   9.053  -8.017  0.00  0.00     0.050 C 
ATOM     23  C   UNL d   1      11.189   9.415  -5.516  0.00  0.00     0.022 A 
ATOM     24  C   UNL d   1      11.214   8.013  -9.089  0.00  0.00     0.108 C 
ATOM     25  C   UNL d   1      11.439   8.915  -4.218  0.00  0.00     0.116 A 
ATOM     26  C   UNL d   1      11.506   7.523  -3.996  0.00  0.00     0.116 A 
BRANCH  25  27
ATOM     27  O   UNL d   1      11.453   9.832  -3.202  0.00  0.00    -0.326 OA
ATOM     28  C   UNL d   1      12.291   9.544  -2.097  0.00  0.00     0.181 C 
ENDBRANCH  25  27
BRANCH  26  29
ATOM     29  O   UNL d   1      11.562   6.984  -2.739  0.00  0.00    -0.326 OA
ATOM     30  C   UNL d   1      12.658   6.153  -2.517  0.00  0.00     0.181 C 
ENDBRANCH  26  29
ENDBRANCH   2  17
TORSDOF 7
