REMARK  4 active torsions:
REMARK  status: ('A' for Active; 'I' for Inactive)
REMARK       I    between atoms: N_10  and  C_11 
REMARK    1  A    between atoms: C_11  and  C_13 
REMARK    2  A    between atoms: C_13  and  N_14 
REMARK    3  A    between atoms: N_17  and  C_18 
REMARK    4  A    between atoms: C_18  and  C_19 
ROOT
ATOM      1  N   UNL d   1       9.948   4.617 -14.394  0.00  0.00     0.151 N 
ATOM      2  C   UNL d   1      10.272   3.642 -13.352  0.00  0.00     0.286 C 
ATOM      3  C   UNL d   1       9.710   4.084 -12.010  0.00  0.00     0.286 C 
ATOM      4  N   UNL d   1       8.284   4.430 -12.019  0.00  0.00     0.146 N 
ATOM      5  C   UNL d   1       7.916   5.305 -13.135  0.00  0.00     0.286 C 
ATOM      6  C   UNL d   1       8.511   4.801 -14.450  0.00  0.00     0.286 C 
ENDROOT
BRANCH   1   7
ATOM      7  C   UNL d   1      10.476   4.215 -15.684  0.00  0.00     0.337 C 
BRANCH   7   8
ATOM      8  C   UNL d   1      11.979   4.545 -15.904  0.00  0.00     0.271 C 
ATOM      9  N   UNL d   1      12.517   4.189 -17.122  0.00  0.00    -0.299 N 
ATOM     10  C   UNL d   1      11.870   3.287 -18.106  0.00  0.00     0.093 C 
ATOM     11  C   UNL d   1      13.707   4.746 -17.659  0.00  0.00     0.058 A 
ATOM     12  C   UNL d   1      11.958   1.808 -17.641  0.00  0.00     0.025 C 
ATOM     13  C   UNL d   1      12.673   3.487 -19.415  0.00  0.00     0.051 C 
ATOM     14  C   UNL d   1      13.823   4.365 -19.005  0.00  0.00    -0.004 A 
ATOM     15  C   UNL d   1      14.895   4.781 -19.804  0.00  0.00    -0.003 A 
ATOM     16  C   UNL d   1      15.884   5.606 -19.241  0.00  0.00    -0.000 A 
ATOM     17  C   UNL d   1      15.786   5.993 -17.877  0.00  0.00     0.002 A 
ATOM     18  C   UNL d   1      14.697   5.573 -17.093  0.00  0.00     0.017 A 
ATOM     19  O   UNL d   1      12.611   5.102 -15.015  0.00  0.00    -0.270 OA
ENDBRANCH   7   8
ENDBRANCH   1   7
BRANCH   4  20
ATOM     20  C   UNL d   1       7.833   4.917 -10.717  0.00  0.00     0.277 C 
BRANCH  20  21
ATOM     21  C   UNL d   1       8.732   5.929  -9.968  0.00  0.00     0.011 A 
ATOM     22  C   UNL d   1       8.797   5.879  -8.555  0.00  0.00    -0.002 A 
ATOM     23  C   UNL d   1       9.613   6.774  -7.816  0.00  0.00     0.011 A 
ATOM     24  C   UNL d   1      10.379   7.718  -8.506  0.00  0.00     0.058 A 
ATOM     25  C   UNL d   1      10.322   7.788  -9.913  0.00  0.00     0.011 A 
ATOM     26 CL   UNL d   1      11.453   8.800  -7.657  0.00  0.00    -0.082 Cl
ATOM     27  C   UNL d   1       9.466   6.936 -10.630  0.00  0.00    -0.002 A 
ENDBRANCH  20  21
ENDBRANCH   4  20
TORSDOF 4
