REMARK  11 active torsions:
REMARK  status: ('A' for Active; 'I' for Inactive)
REMARK    1  A    between atoms: C_2  and  C_3 
REMARK    2  A    between atoms: C_3  and  N_4 
REMARK    3  A    between atoms: N_4  and  C_5 
REMARK    4  A    between atoms: N_4  and  C_24 
REMARK    5  A    between atoms: C_5  and  C_6 
REMARK    6  A    between atoms: C_6  and  C_7 
REMARK    7  A    between atoms: C_7  and  C_8 
REMARK    8  A    between atoms: C_8  and  N_9 
REMARK       I    between atoms: N_9  and  C_10 
REMARK    9  A    between atoms: C_10  and  C_12 
REMARK   10  A    between atoms: C_15  and  C_16 
REMARK   11  A    between atoms: C_29  and  N_30 
ROOT
ATOM      1  C   UNL d   1       7.444   4.266 -13.870  0.00  0.00     0.037 C 
ENDROOT
BRANCH   1   2
ATOM      2  C   UNL d   1       6.987   2.898 -14.321  0.00  0.00     0.250 C 
BRANCH   2   3
ATOM      3  N   UNL d   1       8.052   2.031 -14.839  0.00  0.00     0.135 N 
BRANCH   3   4
ATOM      4  C   UNL d   1       9.153   1.808 -13.876  0.00  0.00     0.250 C 
BRANCH   4   5
ATOM      5  C   UNL d   1      10.536   1.636 -14.539  0.00  0.00     0.035 C 
ATOM      6  C   UNL d   1      10.623   0.306 -15.294  0.00  0.00     0.002 C 
ENDBRANCH   4   5
ENDBRANCH   3   4
BRANCH   3   7
ATOM      7  C   UNL d   1       7.487   0.702 -15.204  0.00  0.00     0.224 C 
ATOM      8  C   UNL d   1       7.145   0.764 -16.710  0.00  0.00     0.062 C 
ATOM      9  C   UNL d   1       6.307  -0.416 -17.185  0.00  0.00     0.014 A 
ATOM     10  C   UNL d   1       5.659  -1.298 -16.276  0.00  0.00     0.075 A 
ATOM     11  C   UNL d   1       6.120  -0.680 -18.539  0.00  0.00     0.115 A 
ATOM     12  C   UNL d   1       5.787  -1.164 -14.768  0.00  0.00     0.048 C 
ATOM     13  N   UNL d   1       4.920  -2.311 -16.725  0.00  0.00    -0.064 NA
ATOM     14  C   UNL d   1       6.304   0.203 -14.333  0.00  0.00     0.040 C 
ATOM     15  C   UNL d   1       4.809  -2.472 -18.026  0.00  0.00     0.746 A 
ATOM     16  N   UNL d   1       5.381  -1.714 -18.982  0.00  0.00    -0.058 NA
BRANCH  15  17
ATOM     17  N   UNL d   1       4.013  -3.527 -18.445  0.00  0.00    -0.084 NA
ATOM     18  C   UNL d   1       3.835  -3.941 -19.812  0.00  0.00     0.172 C 
ENDBRANCH  15  17
ENDBRANCH   3   7
ENDBRANCH   2   3
ENDBRANCH   1   2
BRANCH   1  19
ATOM     19  C   UNL d   1       6.303   5.059 -13.228  0.00  0.00     0.029 C 
BRANCH  19  20
ATOM     20  C   UNL d   1       6.827   6.389 -12.701  0.00  0.00     0.129 C 
BRANCH  20  21
ATOM     21  N   UNL d   1       7.585   6.221 -11.473  0.00  0.00    -0.234 NA
ATOM     22  C   UNL d   1       8.910   6.137 -11.317  0.00  0.00     0.275 C 
ATOM     23  O   UNL d   1       9.682   5.903 -12.256  0.00  0.00    -0.266 OA
BRANCH  22  24
ATOM     24  C   UNL d   1       9.445   6.494  -9.957  0.00  0.00     0.058 A 
ATOM     25  C   UNL d   1       8.785   6.098  -8.758  0.00  0.00     0.005 A 
ATOM     26  C   UNL d   1       9.312   6.490  -7.509  0.00  0.00     0.000 A 
ATOM     27  C   UNL d   1      10.495   7.254  -7.412  0.00  0.00     0.000 A 
ATOM     28  C   UNL d   1      11.129   7.652  -8.612  0.00  0.00     0.000 A 
ATOM     29  C   UNL d   1      10.599   7.287  -9.859  0.00  0.00     0.005 A 
BRANCH  27  30
ATOM     30  C   UNL d   1      11.051   7.637  -6.100  0.00  0.00     0.000 A 
ATOM     31  C   UNL d   1      11.267   6.668  -5.095  0.00  0.00     0.000 A 
ATOM     32  C   UNL d   1      11.819   6.998  -3.845  0.00  0.00     0.000 A 
ATOM     33  C   UNL d   1      12.166   8.333  -3.571  0.00  0.00     0.000 A 
ATOM     34  C   UNL d   1      11.958   9.312  -4.561  0.00  0.00     0.000 A 
ATOM     35  C   UNL d   1      11.422   8.969  -5.817  0.00  0.00     0.000 A 
ENDBRANCH  27  30
ENDBRANCH  22  24
ENDBRANCH  20  21
ENDBRANCH  19  20
ENDBRANCH   1  19
TORSDOF 11
