REMARK  8 active torsions:
REMARK  status: ('A' for Active; 'I' for Inactive)
REMARK    1  A    between atoms: N_11  and  C_12 
REMARK    2  A    between atoms: C_12  and  C_13 
REMARK    3  A    between atoms: C_13  and  C_14 
REMARK    4  A    between atoms: C_14  and  C_15 
REMARK    5  A    between atoms: C_15  and  N_16 
REMARK    6  A    between atoms: N_19  and  C_20 
REMARK    7  A    between atoms: C_20  and  C_21 
REMARK    8  A    between atoms: C_20  and  C_27 
ROOT
ATOM      1  N   UNL d   1      10.899   4.550 -18.045  0.00  0.00     0.141 N 
ATOM      2  C   UNL d   1       9.636   3.829 -17.979  0.00  0.00     0.285 C 
ATOM      3  C   UNL d   1       9.451   3.151 -16.620  0.00  0.00     0.286 C 
ATOM      4  N   UNL d   1       9.461   4.114 -15.509  0.00  0.00     0.147 N 
ATOM      5  C   UNL d   1      10.735   4.851 -15.582  0.00  0.00     0.286 C 
ATOM      6  C   UNL d   1      10.931   5.526 -16.955  0.00  0.00     0.285 C 
ENDROOT
BRANCH   1   7
ATOM      7  C   UNL d   1      11.092   5.197 -19.331  0.00  0.00     0.251 C 
BRANCH   7   8
ATOM      8  C   UNL d   1      11.101   4.226 -20.524  0.00  0.00     0.037 C 
BRANCH   8   9
ATOM      9  C   UNL d   1      11.700   4.858 -21.796  0.00  0.00     0.027 C 
BRANCH   9  10
ATOM     10  C   UNL d   1      13.245   4.927 -21.806  0.00  0.00     0.112 C 
BRANCH  10  11
ATOM     11  N   UNL d   1      13.857   3.603 -21.639  0.00  0.00    -0.264 N 
ATOM     12  C   UNL d   1      14.403   3.165 -20.473  0.00  0.00     0.263 A 
ATOM     13  O   UNL d   1      14.522   3.758 -19.402  0.00  0.00    -0.267 OA
ATOM     14  C   UNL d   1      14.843   1.774 -20.721  0.00  0.00     0.061 A 
ATOM     15  C   UNL d   1      14.535   1.466 -22.024  0.00  0.00     0.061 A 
ATOM     16  C   UNL d   1      15.462   0.851 -19.867  0.00  0.00     0.005 A 
ATOM     17  C   UNL d   1      14.816   0.210 -22.585  0.00  0.00     0.005 A 
ATOM     18  C   UNL d   1      13.883   2.660 -22.616  0.00  0.00     0.263 A 
ATOM     19  C   UNL d   1      15.454  -0.736 -21.745  0.00  0.00     0.000 A 
ATOM     20  C   UNL d   1      15.777  -0.414 -20.400  0.00  0.00     0.000 A 
ATOM     21  O   UNL d   1      13.442   2.732 -23.765  0.00  0.00    -0.267 OA
ENDBRANCH  10  11
ENDBRANCH   9  10
ENDBRANCH   8   9
ENDBRANCH   7   8
ENDBRANCH   1   7
BRANCH   4  22
ATOM     22  C   UNL d   1       9.261   3.481 -14.194  0.00  0.00     0.264 C 
BRANCH  22  23
ATOM     23  C   UNL d   1       9.165   4.496 -13.050  0.00  0.00     0.013 A 
ATOM     24  C   UNL d   1       9.564   4.115 -11.756  0.00  0.00    -0.002 A 
ATOM     25  C   UNL d   1       9.452   5.008 -10.673  0.00  0.00    -0.000 A 
ATOM     26  C   UNL d   1       8.935   6.295 -10.876  0.00  0.00    -0.000 A 
ATOM     27  C   UNL d   1       8.502   6.678 -12.160  0.00  0.00    -0.000 A 
ATOM     28  C   UNL d   1       8.603   5.774 -13.237  0.00  0.00    -0.002 A 
ENDBRANCH  22  23
BRANCH  22  29
ATOM     29  C   UNL d   1       8.058   2.534 -14.152  0.00  0.00     0.013 A 
ATOM     30  C   UNL d   1       8.214   1.190 -14.572  0.00  0.00    -0.001 A 
ATOM     31  C   UNL d   1       7.123   0.300 -14.546  0.00  0.00     0.011 A 
ATOM     32  C   UNL d   1       5.877   0.733 -14.058  0.00  0.00     0.058 A 
ATOM     33  C   UNL d   1       5.733   2.051 -13.595  0.00  0.00     0.011 A 
ATOM     34 CL   UNL d   1       4.519  -0.338 -14.052  0.00  0.00    -0.082 Cl
ATOM     35  C   UNL d   1       6.797   2.961 -13.668  0.00  0.00    -0.001 A 
ENDBRANCH  22  29
ENDBRANCH   4  22
TORSDOF 8
