REMARK  4 active torsions:
REMARK  status: ('A' for Active; 'I' for Inactive)
REMARK    1  A    between atoms: O_2  and  C_3 
REMARK    2  A    between atoms: C_8  and  N_9 
REMARK    3  A    between atoms: N_12  and  C_13 
REMARK    4  A    between atoms: C_13  and  C_14 
ROOT
ATOM      1  N   UNL d   1       5.554  -0.837 -18.963  0.00  0.00    -0.343 N 
ATOM      2  C   UNL d   1       4.708  -0.193 -17.994  0.00  0.00     0.137 C 
ATOM      3  C   UNL d   1       5.485  -0.071 -16.702  0.00  0.00     0.275 C 
ATOM      4  N   UNL d   1       6.782   0.588 -16.813  0.00  0.00     0.147 N 
ATOM      5  C   UNL d   1       7.594  -0.211 -17.726  0.00  0.00     0.275 C 
ATOM      6  C   UNL d   1       6.893  -0.286 -19.098  0.00  0.00     0.137 C 
ENDROOT
BRANCH   4   7
ATOM      7  C   UNL d   1       7.399   0.588 -15.480  0.00  0.00     0.295 C 
BRANCH   7   8
ATOM      8  C   UNL d   1       6.705   1.471 -14.451  0.00  0.00     0.091 A 
ATOM      9  N   UNL d   1       7.165   2.749 -14.059  0.00  0.00    -0.281 N 
ATOM     10  C   UNL d   1       6.253   3.188 -13.063  0.00  0.00     0.149 A 
ATOM     11  C   UNL d   1       8.225   3.583 -14.389  0.00  0.00     0.125 A 
ATOM     12  N   UNL d   1       5.320   2.267 -12.836  0.00  0.00    -0.231 NA
ATOM     13  C   UNL d   1       6.480   4.444 -12.445  0.00  0.00     0.052 A 
ATOM     14  C   UNL d   1       5.586   1.202 -13.689  0.00  0.00     0.075 A 
ATOM     15  C   UNL d   1       4.654  -0.006 -13.623  0.00  0.00     0.053 C 
ATOM     16  C   UNL d   1       7.572   5.160 -12.854  0.00  0.00     0.064 A 
ATOM     17  C   UNL d   1       7.872   6.509 -12.249  0.00  0.00     0.052 C 
ATOM     18  N   UNL d   1       8.440   4.738 -13.824  0.00  0.00    -0.236 NA
ATOM     19  C   UNL d   1       9.188   3.231 -15.505  0.00  0.00     0.072 C 
ENDBRANCH   7   8
ENDBRANCH   4   7
BRANCH   1  20
ATOM     20  C   UNL d   1       5.055  -1.930 -19.703  0.00  0.00     0.079 A 
ATOM     21  C   UNL d   1       5.367  -2.106 -21.074  0.00  0.00     0.110 A 
ATOM     22  C   UNL d   1       4.878  -3.239 -21.743  0.00  0.00     0.026 A 
ATOM     23  C   UNL d   1       4.060  -4.178 -21.084  0.00  0.00     0.002 A 
ATOM     24  C   UNL d   1       3.734  -3.996 -19.728  0.00  0.00     0.002 A 
ATOM     25  C   UNL d   1       4.235  -2.882 -19.044  0.00  0.00     0.019 A 
BRANCH  21  26
ATOM     26  O   UNL d   1       6.147  -1.242 -21.813  0.00  0.00    -0.327 OA
ATOM     27  C   UNL d   1       5.626   0.068 -21.998  0.00  0.00     0.181 C 
ENDBRANCH  21  26
ENDBRANCH   1  20
TORSDOF 4
