REMARK  8 active torsions:
REMARK  status: ('A' for Active; 'I' for Inactive)
REMARK    1  A    between atoms: C_5  and  C_6 
REMARK    2  A    between atoms: C_10  and  C_11 
REMARK       I    between atoms: C_11  and  N_13 
REMARK    3  A    between atoms: N_13  and  C_14 
REMARK    4  A    between atoms: C_17  and  C_18 
REMARK    5  A    between atoms: C_18  and  C_19 
REMARK    6  A    between atoms: C_19  and  N_20 
REMARK    7  A    between atoms: C_26  and  O_27 
REMARK    8  A    between atoms: O_27  and  S_28 
ROOT
ATOM      1  C   UNL d   1       8.756   4.872 -11.332  0.00  0.00     0.107 C 
ATOM      2  C   UNL d   1       7.333   5.215 -11.784  0.00  0.00     0.024 C 
ATOM      3  C   UNL d   1       6.751   4.098 -12.661  0.00  0.00     0.002 C 
ATOM      4  C   UNL d   1       7.673   3.808 -13.867  0.00  0.00     0.002 C 
ATOM      5  C   UNL d   1       9.097   3.441 -13.390  0.00  0.00     0.002 C 
ATOM      6  C   UNL d   1       9.671   4.555 -12.524  0.00  0.00     0.024 C 
ENDROOT
BRANCH   4   7
ATOM      7  C   UNL d   1       7.067   2.717 -14.772  0.00  0.00     0.035 C 
BRANCH   7   8
ATOM      8  C   UNL d   1       8.046   2.090 -15.800  0.00  0.00     0.250 C 
BRANCH   8   9
ATOM      9  N   UNL d   1       7.386   1.281 -16.830  0.00  0.00     0.138 N 
ATOM     10  C   UNL d   1       6.808   0.087 -16.215  0.00  0.00     0.255 C 
ATOM     11  C   UNL d   1       5.755  -0.576 -17.102  0.00  0.00     0.061 C 
ATOM     12  C   UNL d   1       6.274  -1.438 -18.237  0.00  0.00    -0.022 A 
ATOM     13  C   UNL d   1       7.259  -0.990 -19.166  0.00  0.00    -0.024 A 
ATOM     14  C   UNL d   1       5.750  -2.742 -18.344  0.00  0.00     0.021 A 
ATOM     15  C   UNL d   1       7.805   0.431 -19.152  0.00  0.00     0.061 C 
ATOM     16  C   UNL d   1       7.707  -1.874 -20.177  0.00  0.00    -0.003 A 
ATOM     17  C   UNL d   1       8.398   0.904 -17.821  0.00  0.00     0.255 C 
ATOM     18  C   UNL d   1       7.208  -3.198 -20.250  0.00  0.00     0.025 A 
ATOM     19  C   UNL d   1       6.240  -3.639 -19.315  0.00  0.00     0.113 A 
BRANCH  19  20
ATOM     20  O   UNL d   1       5.754  -4.925 -19.351  0.00  0.00    -0.230 OA
BRANCH  20  21
ATOM     21  S   UNL d   1       6.388  -6.036 -18.235  0.00  0.00     0.285 S 
ATOM     22  C   UNL d   1       5.783  -5.340 -16.631  0.00  0.00     0.172 C 
ATOM     23  O   UNL d   1       5.725  -7.324 -18.505  0.00  0.00    -0.197 OA
ATOM     24  O   UNL d   1       7.853  -5.940 -18.273  0.00  0.00    -0.197 OA
ENDBRANCH  20  21
ENDBRANCH  19  20
ENDBRANCH   8   9
ENDBRANCH   7   8
ENDBRANCH   4   7
BRANCH   1  25
ATOM     25  N   UNL d   1       9.301   5.954 -10.543  0.00  0.00    -0.236 NA
ATOM     26  C   UNL d   1       9.406   5.984  -9.207  0.00  0.00     0.275 C 
ATOM     27  O   UNL d   1       8.983   5.104  -8.455  0.00  0.00    -0.266 OA
BRANCH  26  28
ATOM     28  C   UNL d   1      10.091   7.197  -8.653  0.00  0.00     0.058 A 
ATOM     29  C   UNL d   1      10.410   8.293  -9.492  0.00  0.00     0.005 A 
ATOM     30  C   UNL d   1      11.061   9.404  -8.962  0.00  0.00     0.000 A 
ATOM     31  C   UNL d   1      11.362   9.472  -7.587  0.00  0.00     0.002 A 
ATOM     32  C   UNL d   1      11.059   8.396  -6.737  0.00  0.00     0.025 A 
ATOM     33  C   UNL d   1      10.421   7.259  -7.276  0.00  0.00     0.007 A 
BRANCH  32  34
ATOM     34  C   UNL d   1      11.397   8.470  -5.324  0.00  0.00     0.120 A 
ATOM     35  C   UNL d   1      11.524   9.525  -4.456  0.00  0.00     0.125 A 
ATOM     36  N   UNL d   1      11.884   9.024  -3.214  0.00  0.00    -0.222 NA
ATOM     37  C   UNL d   1      11.956   7.707  -3.392  0.00  0.00     0.159 A 
ATOM     38  C   UNL d   1      12.292   6.673  -2.380  0.00  0.00     0.080 C 
ATOM     39  O   UNL d   1      11.657   7.305  -4.654  0.00  0.00    -0.292 OA
ENDBRANCH  32  34
ENDBRANCH  26  28
ENDBRANCH   1  25
TORSDOF 8
