REMARK  7 active torsions:
REMARK  status: ('A' for Active; 'I' for Inactive)
REMARK    1  A    between atoms: O_2  and  C_3 
REMARK    2  A    between atoms: C_6  and  O_7 
REMARK    3  A    between atoms: O_7  and  C_8 
REMARK    4  A    between atoms: C_8  and  C_9 
REMARK    5  A    between atoms: C_9  and  N_10 
REMARK       I    between atoms: N_13  and  C_14 
REMARK    6  A    between atoms: C_14  and  C_16 
REMARK    7  A    between atoms: C_19  and  O_20 
ROOT
ATOM      1  N   UNL d   1       8.987   5.917 -11.327  0.00  0.00     0.144 N 
ATOM      2  C   UNL d   1       9.588   5.223 -12.466  0.00  0.00     0.274 C 
ATOM      3  C   UNL d   1       8.563   5.096 -13.617  0.00  0.00     0.140 C 
ATOM      4  N   UNL d   1       7.385   4.347 -13.136  0.00  0.00    -0.314 N 
ATOM      5  C   UNL d   1       6.885   3.189 -13.645  0.00  0.00     0.257 C 
ATOM      6  O   UNL d   1       5.751   2.793 -13.366  0.00  0.00    -0.267 OA
ATOM      7  C   UNL d   1       6.801   4.957 -11.927  0.00  0.00     0.117 C 
ATOM      8  C   UNL d   1       6.091   6.288 -12.227  0.00  0.00     0.026 C 
ATOM      9  C   UNL d   1       7.866   5.107 -10.834  0.00  0.00     0.272 C 
ENDROOT
BRANCH   1  10
ATOM     10  C   UNL d   1       9.967   6.105 -10.272  0.00  0.00     0.283 C 
BRANCH  10  11
ATOM     11  C   UNL d   1       9.455   6.938  -9.082  0.00  0.00     0.184 C 
BRANCH  11  12
ATOM     12  O   UNL d   1      10.216   6.498  -7.968  0.00  0.00    -0.329 OA
BRANCH  12  13
ATOM     13  C   UNL d   1      10.487   7.356  -6.932  0.00  0.00     0.094 A 
ATOM     14  C   UNL d   1      11.069   6.798  -5.784  0.00  0.00     0.026 A 
ATOM     15  C   UNL d   1      11.463   7.601  -4.703  0.00  0.00     0.026 A 
ATOM     16  C   UNL d   1      11.291   9.007  -4.773  0.00  0.00     0.094 A 
ATOM     17  C   UNL d   1      10.718   9.570  -5.930  0.00  0.00     0.026 A 
ATOM     18  C   UNL d   1      10.271   8.754  -6.992  0.00  0.00     0.026 A 
BRANCH  16  19
ATOM     19  O   UNL d   1      11.630   9.865  -3.751  0.00  0.00    -0.328 OA
ATOM     20  C   UNL d   1      12.146   9.281  -2.567  0.00  0.00     0.181 C 
ENDBRANCH  16  19
ENDBRANCH  12  13
ENDBRANCH  11  12
ENDBRANCH  10  11
ENDBRANCH   1  10
BRANCH   5  21
ATOM     21  C   UNL d   1       7.759   2.322 -14.515  0.00  0.00     0.056 A 
ATOM     22  C   UNL d   1       7.192   1.557 -15.579  0.00  0.00     0.007 A 
ATOM     23  C   UNL d   1       8.002   0.754 -16.400  0.00  0.00     0.024 A 
ATOM     24  C   UNL d   1       9.402   0.659 -16.163  0.00  0.00     0.094 A 
ATOM     25  C   UNL d   1       9.948   1.377 -15.084  0.00  0.00     0.024 A 
ATOM     26  C   UNL d   1       9.143   2.158 -14.253  0.00  0.00     0.007 A 
BRANCH  24  27
ATOM     27  O   UNL d   1      10.276  -0.095 -16.912  0.00  0.00    -0.328 OA
ATOM     28  C   UNL d   1       9.740  -0.819 -18.001  0.00  0.00     0.181 C 
ENDBRANCH  24  27
ENDBRANCH   5  21
TORSDOF 7
