REMARK  0 active torsions:
REMARK  status: ('A' for Active; 'I' for Inactive)
ROOT
ATOM      1  O   UNL d   1       9.109   4.425 -11.261  0.00  0.00    -0.188 OA
ATOM      2  C   UNL d   1       9.360   5.246 -10.203  0.00  0.00     0.156 A 
ATOM      3  C   UNL d   1      10.118   6.363 -10.529  0.00  0.00     0.025 A 
ATOM      4  C   UNL d   1      10.537   7.255  -9.565  0.00  0.00    -0.024 A 
ATOM      5  C   UNL d   1      10.154   7.083  -8.204  0.00  0.00    -0.018 A 
ATOM      6  C   UNL d   1       9.330   5.996  -7.883  0.00  0.00     0.025 A 
ATOM      7  C   UNL d   1       8.985   5.027  -8.856  0.00  0.00     0.156 A 
ATOM      8  O   UNL d   1       8.294   3.929  -8.438  0.00  0.00    -0.188 OA
ATOM      9  C   UNL d   1      10.460   8.159  -7.165  0.00  0.00     0.080 C 
ATOM     10  C   UNL d   1      11.114   7.793  -5.830  0.00  0.00     0.001 A 
ATOM     11  C   UNL d   1      11.262   6.501  -5.359  0.00  0.00     0.095 A 
ATOM     12  N   UNL d   1      11.859   6.235  -4.183  0.00  0.00    -0.243 NA
ATOM     13  C   UNL d   1      12.296   7.203  -3.393  0.00  0.00     0.099 A 
ATOM     14  C   UNL d   1      12.280   8.538  -3.800  0.00  0.00     0.018 A 
ATOM     15  C   UNL d   1      11.694   8.810  -5.040  0.00  0.00     0.013 A 
ATOM     16  C   UNL d   1      11.806  10.184  -5.599  0.00  0.00     0.317 C 
ATOM     17  N   UNL d   1      11.107  10.375  -6.830  0.00  0.00     0.342 N 
ATOM     18  C   UNL d   1      11.307   9.278  -7.758  0.00  0.00     0.265 C 
ATOM     19  C   UNL d   1      10.954   9.579  -9.225  0.00  0.00     0.041 C 
ATOM     20  C   UNL d   1      11.277   8.441 -10.072  0.00  0.00     0.028 C 
ENDROOT
TORSDOF 0
