REMARK  7 active torsions:
REMARK  status: ('A' for Active; 'I' for Inactive)
REMARK       I    between atoms: C_2  and  N_3 
REMARK    1  A    between atoms: C_2  and  C_22 
REMARK    2  A    between atoms: N_3  and  C_4 
REMARK    3  A    between atoms: C_4  and  C_5 
REMARK    4  A    between atoms: C_5  and  C_6 
REMARK    5  A    between atoms: C_6  and  C_7 
REMARK    6  A    between atoms: C_7  and  N_8 
REMARK    7  A    between atoms: N_11  and  C_12 
ROOT
ATOM      1  C   UNL d   1       8.918   6.370 -11.291  0.00  0.00     0.037 C 
ENDROOT
BRANCH   1   2
ATOM      2  C   UNL d   1       9.442   6.751  -9.905  0.00  0.00     0.029 C 
BRANCH   2   3
ATOM      3  C   UNL d   1       9.875   8.220  -9.775  0.00  0.00     0.129 C 
BRANCH   3   4
ATOM      4  N   UNL d   1      10.105   8.641  -8.394  0.00  0.00    -0.233 NA
ATOM      5  C   UNL d   1      10.767   7.974  -7.433  0.00  0.00     0.294 C 
ATOM      6  O   UNL d   1      11.184   6.825  -7.569  0.00  0.00    -0.264 OA
BRANCH   5   7
ATOM      7  C   UNL d   1      10.970   8.692  -6.159  0.00  0.00     0.162 A 
ATOM      8  C   UNL d   1      11.438   8.164  -4.967  0.00  0.00     0.044 A 
ATOM      9  C   UNL d   1      11.470   9.232  -4.090  0.00  0.00     0.105 A 
ATOM     10  C   UNL d   1      11.817   6.870  -4.559  0.00  0.00     0.003 A 
ATOM     11  N   UNL d   1      11.053  10.385  -4.644  0.00  0.00    -0.148 NA
ATOM     12  C   UNL d   1      11.893   9.076  -2.765  0.00  0.00     0.021 A 
ATOM     13  N   UNL d   1      10.754  10.039  -5.943  0.00  0.00    -0.143 NA
ATOM     14  C   UNL d   1      12.267   7.788  -2.333  0.00  0.00     0.002 A 
ATOM     15  C   UNL d   1      12.243   6.696  -3.228  0.00  0.00     0.000 A 
ENDBRANCH   5   7
ENDBRANCH   3   4
ENDBRANCH   2   3
ENDBRANCH   1   2
BRANCH   1  16
ATOM     16  C   UNL d   1       9.133   4.873 -11.541  0.00  0.00     0.251 C 
BRANCH  16  17
ATOM     17  N   UNL d   1       8.469   4.452 -12.767  0.00  0.00     0.141 N 
ATOM     18  C   UNL d   1       9.221   3.342 -13.367  0.00  0.00     0.274 C 
ATOM     19  C   UNL d   1       8.554   2.891 -14.671  0.00  0.00     0.137 C 
ATOM     20  N   UNL d   1       7.147   2.572 -14.445  0.00  0.00    -0.344 N 
ATOM     21  C   UNL d   1       6.367   3.602 -13.763  0.00  0.00     0.137 C 
ATOM     22  C   UNL d   1       7.077   4.060 -12.476  0.00  0.00     0.274 C 
BRANCH  20  23
ATOM     23  C   UNL d   1       6.580   1.353 -14.865  0.00  0.00     0.068 A 
ATOM     24  C   UNL d   1       6.782   0.821 -16.170  0.00  0.00     0.084 A 
ATOM     25  C   UNL d   1       6.180  -0.406 -16.536  0.00  0.00     0.070 A 
ATOM     26 CL   UNL d   1       7.691   1.670 -17.379  0.00  0.00    -0.080 Cl
ATOM     27  C   UNL d   1       5.365  -1.090 -15.627  0.00  0.00     0.012 A 
ATOM     28 CL   UNL d   1       6.418  -1.061 -18.113  0.00  0.00    -0.081 Cl
ATOM     29  C   UNL d   1       5.140  -0.563 -14.351  0.00  0.00     0.002 A 
ATOM     30  C   UNL d   1       5.747   0.651 -13.966  0.00  0.00     0.018 A 
ENDBRANCH  20  23
ENDBRANCH  16  17
ENDBRANCH   1  16
TORSDOF 7
