REMARK  1 active torsions:
REMARK  status: ('A' for Active; 'I' for Inactive)
REMARK    1  A    between atoms: C_10  and  C_11 
ROOT
ATOM      1  C   UNL d   1       5.157   4.547 -13.614  0.00  0.00    -0.000 C 
ATOM      2  C   UNL d   1       6.322   3.889 -13.518  0.00  0.00    -0.000 C 
ATOM      3  C   UNL d   1       7.469   4.493 -12.854  0.00  0.00    -0.000 A 
ATOM      4  C   UNL d   1       7.286   5.193 -11.642  0.00  0.00    -0.000 A 
ATOM      5  C   UNL d   1       8.380   5.750 -10.965  0.00  0.00     0.000 A 
ATOM      6  C   UNL d   1       9.660   5.642 -11.519  0.00  0.00    -0.000 A 
ATOM      7  C   UNL d   1       9.848   4.958 -12.734  0.00  0.00    -0.000 A 
ATOM      8  C   UNL d   1       8.757   4.389 -13.416  0.00  0.00    -0.000 A 
ATOM      9  C   UNL d   1       9.029   3.757 -14.715  0.00  0.00    -0.000 C 
ATOM     10  C   UNL d   1       8.419   2.715 -15.358  0.00  0.00    -0.004 C 
ATOM     11  C   UNL d   1       7.442   1.890 -14.583  0.00  0.00    -0.000 A 
ATOM     12  C   UNL d   1       7.527   0.474 -14.649  0.00  0.00    -0.000 A 
ATOM     13  C   UNL d   1       6.571  -0.351 -14.032  0.00  0.00    -0.000 A 
ATOM     14  C   UNL d   1       5.525   0.230 -13.306  0.00  0.00    -0.000 A 
ATOM     15  C   UNL d   1       5.461   1.621 -13.150  0.00  0.00    -0.000 A 
ATOM     16  C   UNL d   1       6.412   2.453 -13.780  0.00  0.00    -0.000 A 
ENDROOT
BRANCH  10  17
ATOM     17  C   UNL d   1       8.683   2.459 -16.675  0.00  0.00    -0.022 C 
ATOM     18  C   UNL d   1       9.722   3.268 -17.483  0.00  0.00     0.061 C 
ATOM     19  C   UNL d   1       9.582   3.163 -19.009  0.00  0.00     0.255 C 
ATOM     20  N   UNL d   1       9.479   1.768 -19.399  0.00  0.00     0.144 N 
ATOM     21  C   UNL d   1       8.233   1.215 -18.876  0.00  0.00     0.276 C 
ATOM     22  C   UNL d   1       9.514   1.623 -20.848  0.00  0.00     0.286 C 
ATOM     23  C   UNL d   1       7.980   1.555 -17.416  0.00  0.00     0.005 C 
ENDBRANCH  10  17
TORSDOF 1
