REMARK  3 active torsions:
REMARK  status: ('A' for Active; 'I' for Inactive)
REMARK    1  A    between atoms: C_4  and  C_5 
REMARK    2  A    between atoms: C_10  and  C_11 
REMARK    3  A    between atoms: C_11  and  N_12 
ROOT
ATOM      1  N   UNL d   1       9.049   6.554 -10.660  0.00  0.00     0.145 N 
ATOM      2  C   UNL d   1       9.596   5.418  -9.933  0.00  0.00     0.275 C 
ATOM      3  C   UNL d   1       9.744   5.745  -8.447  0.00  0.00     0.137 C 
ATOM      4  N   UNL d   1      10.558   6.948  -8.247  0.00  0.00    -0.346 N 
ATOM      5  C   UNL d   1      10.933   7.350  -6.942  0.00  0.00     0.057 A 
ATOM      6  C   UNL d   1      10.960   6.534  -5.815  0.00  0.00     0.017 A 
ATOM      7  C   UNL d   1      11.332   6.896  -4.505  0.00  0.00     0.003 A 
ATOM      8  C   UNL d   1      11.647   8.231  -4.282  0.00  0.00     0.019 A 
ATOM      9  C   UNL d   1      11.573   9.081  -5.364  0.00  0.00     0.083 A 
ATOM     10  N   UNL d   1      11.776  10.394  -5.444  0.00  0.00    -0.244 NA
ATOM     11  C   UNL d   1      11.601  10.797  -6.735  0.00  0.00     0.095 A 
ATOM     12  C   UNL d   1      11.292   9.705  -7.492  0.00  0.00     0.002 A 
ATOM     13  C   UNL d   1      11.250   8.638  -6.639  0.00  0.00     0.031 A 
ATOM     14  C   UNL d   1      11.041   9.288  -8.926  0.00  0.00     0.052 C 
ATOM     15  C   UNL d   1      10.101   8.077  -9.066  0.00  0.00     0.119 C 
ATOM     16  C   UNL d   1       9.979   7.672 -10.527  0.00  0.00     0.273 C 
ENDROOT
BRANCH   1  17
ATOM     17  C   UNL d   1       8.928   6.238 -12.069  0.00  0.00     0.277 C 
BRANCH  17  18
ATOM     18  C   UNL d   1       7.865   5.197 -12.421  0.00  0.00     0.011 A 
ATOM     19  C   UNL d   1       8.066   4.094 -13.302  0.00  0.00    -0.002 A 
ATOM     20  C   UNL d   1       6.994   3.199 -13.554  0.00  0.00    -0.000 A 
ATOM     21  C   UNL d   1       5.754   3.363 -12.919  0.00  0.00    -0.000 A 
ATOM     22  C   UNL d   1       5.578   4.447 -12.043  0.00  0.00    -0.000 A 
ATOM     23  C   UNL d   1       6.606   5.373 -11.826  0.00  0.00    -0.002 A 
BRANCH  19  24
ATOM     24  C   UNL d   1       9.342   3.831 -13.982  0.00  0.00    -0.000 A 
ATOM     25  C   UNL d   1       9.873   2.540 -14.069  0.00  0.00    -0.000 A 
ATOM     26  C   UNL d   1      11.103   2.323 -14.716  0.00  0.00    -0.000 A 
ATOM     27  C   UNL d   1      11.820   3.396 -15.281  0.00  0.00    -0.000 A 
ATOM     28  C   UNL d   1      11.294   4.690 -15.210  0.00  0.00    -0.000 A 
ATOM     29  C   UNL d   1      10.068   4.879 -14.552  0.00  0.00    -0.000 A 
ENDBRANCH  19  24
ENDBRANCH  17  18
ENDBRANCH   1  17
TORSDOF 3
