REMARK  8 active torsions:
REMARK  status: ('A' for Active; 'I' for Inactive)
REMARK       I    between atoms: C_2  and  N_3 
REMARK    1  A    between atoms: C_2  and  C_23 
REMARK    2  A    between atoms: N_3  and  C_4 
REMARK    3  A    between atoms: C_4  and  C_5 
REMARK    4  A    between atoms: C_5  and  C_6 
REMARK    5  A    between atoms: C_6  and  C_8 
REMARK    6  A    between atoms: C_8  and  N_9 
REMARK    7  A    between atoms: N_12  and  C_13 
REMARK    8  A    between atoms: C_26  and  C_27 
ROOT
ATOM      1  C   UNL d   1       7.224   3.700 -12.533  0.00  0.00     0.064 C 
ENDROOT
BRANCH   1   2
ATOM      2  C   UNL d   1       7.077   5.226 -12.502  0.00  0.00     0.132 C 
BRANCH   2   3
ATOM      3  N   UNL d   1       7.737   5.781 -11.329  0.00  0.00    -0.234 NA
ATOM      4  C   UNL d   1       9.063   5.891 -11.188  0.00  0.00     0.275 C 
ATOM      5  O   UNL d   1       9.855   5.594 -12.076  0.00  0.00    -0.266 OA
BRANCH   4   6
ATOM      6  C   UNL d   1       9.530   6.455  -9.880  0.00  0.00     0.058 A 
ATOM      7  C   UNL d   1      10.516   7.462  -9.854  0.00  0.00     0.005 A 
ATOM      8  C   UNL d   1      10.965   7.990  -8.626  0.00  0.00     0.002 A 
ATOM      9  C   UNL d   1      10.440   7.517  -7.403  0.00  0.00     0.018 A 
ATOM     10  C   UNL d   1       9.460   6.503  -7.437  0.00  0.00     0.002 A 
ATOM     11  C   UNL d   1       9.009   5.973  -8.660  0.00  0.00     0.005 A 
BRANCH   9  12
ATOM     12  C   UNL d   1      10.899   8.071  -6.119  0.00  0.00     0.081 A 
ATOM     13  N   UNL d   1      10.777   9.411  -5.982  0.00  0.00    -0.244 NA
ATOM     14  C   UNL d   1      11.175   9.977  -4.827  0.00  0.00     0.099 A 
ATOM     15  C   UNL d   1      11.727   9.248  -3.757  0.00  0.00     0.021 A 
ATOM     16  C   UNL d   1      11.860   7.855  -3.899  0.00  0.00     0.003 A 
ATOM     17  C   UNL d   1      11.433   7.254  -5.098  0.00  0.00     0.019 A 
ENDBRANCH   9  12
ENDBRANCH   4   6
ENDBRANCH   2   3
ENDBRANCH   1   2
BRANCH   1  18
ATOM     18  C   UNL d   1       6.657   3.030 -13.788  0.00  0.00     0.196 C 
ATOM     19  F   UNL d   1       5.462   3.575 -13.965  0.00  0.00    -0.235 F 
BRANCH  18  20
ATOM     20  C   UNL d   1       6.564   1.492 -13.642  0.00  0.00     0.285 C 
BRANCH  20  21
ATOM     21  N   UNL d   1       5.713   0.870 -14.645  0.00  0.00     0.144 N 
ATOM     22  C   UNL d   1       6.437   0.712 -15.911  0.00  0.00     0.274 C 
ATOM     23  C   UNL d   1       5.505   0.121 -16.981  0.00  0.00     0.137 C 
ATOM     24  N   UNL d   1       4.908  -1.119 -16.501  0.00  0.00    -0.344 N 
ATOM     25  C   UNL d   1       4.256  -1.034 -15.201  0.00  0.00     0.137 C 
ATOM     26  C   UNL d   1       5.224  -0.430 -14.167  0.00  0.00     0.274 C 
BRANCH  24  27
ATOM     27  C   UNL d   1       4.956  -2.307 -17.236  0.00  0.00     0.068 A 
ATOM     28  C   UNL d   1       4.505  -2.373 -18.576  0.00  0.00     0.084 A 
ATOM     29  C   UNL d   1       4.562  -3.599 -19.279  0.00  0.00     0.070 A 
ATOM     30 CL   UNL d   1       3.855  -0.976 -19.374  0.00  0.00    -0.080 Cl
ATOM     31  C   UNL d   1       5.070  -4.751 -18.658  0.00  0.00     0.012 A 
ATOM     32 CL   UNL d   1       4.011  -3.703 -20.911  0.00  0.00    -0.081 Cl
ATOM     33  C   UNL d   1       5.519  -4.691 -17.331  0.00  0.00     0.002 A 
ATOM     34  C   UNL d   1       5.458  -3.478 -16.624  0.00  0.00     0.018 A 
ENDBRANCH  24  27
ENDBRANCH  20  21
ENDBRANCH  18  20
ENDBRANCH   1  18
TORSDOF 8
