REMARK  5 active torsions:
REMARK  status: ('A' for Active; 'I' for Inactive)
REMARK    1  A    between atoms: C_2  and  C_3 
REMARK    2  A    between atoms: C_3  and  N_4 
REMARK    3  A    between atoms: N_4  and  C_5 
REMARK    4  A    between atoms: C_11  and  C_12 
REMARK    5  A    between atoms: C_12  and  O_14 
ROOT
ATOM      1  C   UNL d   1      10.623   6.821  -8.604  0.00  0.00     0.265 C 
ATOM      2  C   UNL d   1      11.039   8.045  -9.437  0.00  0.00     0.063 C 
ATOM      3  C   UNL d   1      10.800   9.365  -8.703  0.00  0.00     0.129 C 
ATOM      4  N   UNL d   1      11.092   9.283  -7.276  0.00  0.00    -0.255 N 
ATOM      5  N   UNL d   1      11.145  10.383  -6.493  0.00  0.00    -0.168 NA
ATOM      6  C   UNL d   1      11.372   9.943  -5.273  0.00  0.00     0.127 A 
ATOM      7  C   UNL d   1      11.481   8.524  -5.258  0.00  0.00     0.097 A 
ATOM      8  C   UNL d   1      11.275   8.129  -6.545  0.00  0.00     0.064 A 
ATOM      9  C   UNL d   1      11.285   6.795  -7.206  0.00  0.00     0.082 C 
ENDROOT
BRANCH   1  10
ATOM     10  N   UNL d   1       9.168   6.829  -8.499  0.00  0.00     0.337 N 
BRANCH  10  11
ATOM     11  C   UNL d   1       8.585   5.539  -8.186  0.00  0.00     0.290 C 
BRANCH  11  12
ATOM     12  C   UNL d   1       8.794   4.510  -9.297  0.00  0.00     0.038 C 
ATOM     13  C   UNL d   1       8.321   5.006 -10.683  0.00  0.00     0.002 C 
ENDBRANCH  11  12
ENDBRANCH  10  11
ENDBRANCH   1  10
BRANCH   7  14
ATOM     14  C   UNL d   1      11.781   7.680  -4.086  0.00  0.00     0.299 C 
ATOM     15  O   UNL d   1      11.873   6.455  -4.117  0.00  0.00    -0.259 OA
BRANCH  14  16
ATOM     16  O   UNL d   1      11.889   8.415  -2.973  0.00  0.00    -0.296 OA
ATOM     17  C   UNL d   1      11.986   7.757  -1.734  0.00  0.00     0.185 C 
ENDBRANCH  14  16
ENDBRANCH   7  14
TORSDOF 5
