REMARK  6 active torsions:
REMARK  status: ('A' for Active; 'I' for Inactive)
REMARK    1  A    between atoms: N_10  and  C_11 
REMARK    2  A    between atoms: C_11  and  C_12 
REMARK    3  A    between atoms: C_12  and  C_13 
REMARK    4  A    between atoms: C_15  and  C_16 
REMARK    5  A    between atoms: C_16  and  N_17 
REMARK       I    between atoms: N_17  and  C_18 
REMARK    6  A    between atoms: C_18  and  C_20 
ROOT
ATOM      1  N   UNL d   1       8.241  -1.606 -19.257  0.00  0.00    -0.191 NA
ATOM      2  C   UNL d   1       8.692  -0.866 -18.481  0.00  0.00     0.101 C 
ATOM      3  C   UNL d   1       9.260   0.062 -17.508  0.00  0.00     0.068 A 
ATOM      4  C   UNL d   1      10.662   0.245 -17.442  0.00  0.00     0.010 A 
ATOM      5  C   UNL d   1      11.208   1.140 -16.511  0.00  0.00    -0.004 A 
ATOM      6  C   UNL d   1      10.363   1.842 -15.641  0.00  0.00    -0.022 A 
ATOM      7  C   UNL d   1       8.960   1.674 -15.701  0.00  0.00     0.008 A 
ATOM      8  C   UNL d   1       8.411   0.778 -16.634  0.00  0.00     0.008 A 
ATOM      9  C   UNL d   1       8.055   2.420 -14.722  0.00  0.00     0.276 C 
ATOM     10  N   UNL d   1       8.687   3.609 -14.143  0.00  0.00     0.142 N 
ATOM     11  C   UNL d   1       9.959   3.194 -13.561  0.00  0.00     0.255 C 
ATOM     12  C   UNL d   1      10.951   2.804 -14.646  0.00  0.00     0.061 C 
ENDROOT
BRANCH  10  13
ATOM     13  C   UNL d   1       7.831   4.212 -13.120  0.00  0.00     0.251 C 
BRANCH  13  14
ATOM     14  C   UNL d   1       8.294   5.638 -12.771  0.00  0.00     0.035 C 
BRANCH  14  15
ATOM     15  C   UNL d   1       9.128   5.726 -11.501  0.00  0.00     0.004 A 
ATOM     16  C   UNL d   1       9.254   6.997 -10.713  0.00  0.00     0.025 A 
ATOM     17  C   UNL d   1       8.493   5.800 -10.151  0.00  0.00     0.002 A 
BRANCH  16  18
ATOM     18  C   UNL d   1      10.577   7.402 -10.112  0.00  0.00     0.129 C 
BRANCH  18  19
ATOM     19  N   UNL d   1      10.680   7.244  -8.678  0.00  0.00    -0.233 NA
ATOM     20  C   UNL d   1      10.309   8.183  -7.814  0.00  0.00     0.293 C 
ATOM     21  O   UNL d   1       9.700   9.188  -8.152  0.00  0.00    -0.264 OA
BRANCH  20  22
ATOM     22  C   UNL d   1      10.815   8.031  -6.449  0.00  0.00     0.139 A 
ATOM     23  N   UNL d   1      10.966   9.160  -5.663  0.00  0.00    -0.241 NA
ATOM     24  C   UNL d   1      11.465   8.825  -4.423  0.00  0.00     0.082 A 
ATOM     25  C   UNL d   1      11.602   7.405  -4.438  0.00  0.00     0.019 A 
ATOM     26  C   UNL d   1      11.789   9.587  -3.288  0.00  0.00     0.019 A 
ATOM     27  C   UNL d   1      11.191   6.932  -5.726  0.00  0.00     0.025 A 
ATOM     28  C   UNL d   1      12.085   6.790  -3.265  0.00  0.00     0.002 A 
ATOM     29  C   UNL d   1      12.398   7.546  -2.123  0.00  0.00     0.000 A 
ATOM     30  C   UNL d   1      12.265   8.939  -2.135  0.00  0.00     0.002 A 
ENDBRANCH  20  22
ENDBRANCH  18  19
ENDBRANCH  16  18
ENDBRANCH  14  15
ENDBRANCH  13  14
ENDBRANCH  10  13
TORSDOF 6
