REMARK  0 active torsions:
REMARK  status: ('A' for Active; 'I' for Inactive)
ROOT
ATOM      1  O   UNL d   1      10.351  -0.011 -20.292  0.00  0.00    -0.188 OA
ATOM      2  C   UNL d   1       9.530  -0.028 -19.206  0.00  0.00     0.156 A 
ATOM      3  C   UNL d   1       8.176  -0.376 -19.342  0.00  0.00     0.025 A 
ATOM      4  C   UNL d   1       7.324  -0.384 -18.217  0.00  0.00    -0.024 A 
ATOM      5  C   UNL d   1       7.817   0.013 -16.943  0.00  0.00    -0.018 A 
ATOM      6  C   UNL d   1       9.201   0.287 -16.814  0.00  0.00     0.025 A 
ATOM      7  C   UNL d   1      10.051   0.285 -17.937  0.00  0.00     0.156 A 
ATOM      8  O   UNL d   1      11.379   0.580 -17.804  0.00  0.00    -0.188 OA
ATOM      9  C   UNL d   1       6.916  -0.015 -15.693  0.00  0.00     0.079 C 
ATOM     10  C   UNL d   1       6.852   1.233 -14.805  0.00  0.00    -0.001 A 
ATOM     11  C   UNL d   1       7.754   2.319 -14.858  0.00  0.00    -0.006 A 
ATOM     12  C   UNL d   1       7.577   3.408 -13.985  0.00  0.00    -0.009 A 
ATOM     13  C   UNL d   1       6.469   3.384 -13.104  0.00  0.00     0.055 A 
ATOM     14  N   UNL d   1       5.592   2.363 -13.052  0.00  0.00    -0.253 NA
ATOM     15  C   UNL d   1       5.792   1.312 -13.873  0.00  0.00     0.091 A 
ATOM     16  C   UNL d   1       4.684   0.259 -13.848  0.00  0.00     0.335 C 
ATOM     17  N   UNL d   1       4.866  -0.893 -14.728  0.00  0.00     0.344 N 
ATOM     18  C   UNL d   1       5.461  -0.452 -15.982  0.00  0.00     0.265 C 
ATOM     19  C   UNL d   1       5.340  -1.493 -17.091  0.00  0.00     0.041 C 
ATOM     20  C   UNL d   1       5.902  -0.897 -18.388  0.00  0.00     0.028 C 
ATOM     21  C   UNL d   1       6.273   4.463 -12.055  0.00  0.00     0.045 C 
ATOM     22  C   UNL d   1       7.048   5.750 -12.354  0.00  0.00     0.007 C 
ATOM     23  C   UNL d   1       8.501   5.457 -12.748  0.00  0.00     0.005 C 
ATOM     24  C   UNL d   1       8.569   4.569 -13.999  0.00  0.00     0.028 C 
ENDROOT
TORSDOF 0
