REMARK  9 active torsions:
REMARK  status: ('A' for Active; 'I' for Inactive)
REMARK    1  A    between atoms: C_2  and  C_5 
REMARK    2  A    between atoms: C_7  and  N_8 
REMARK    3  A    between atoms: N_11  and  C_12 
REMARK    4  A    between atoms: C_12  and  C_13 
REMARK    5  A    between atoms: C_13  and  C_14 
REMARK    6  A    between atoms: C_14  and  C_15 
REMARK    7  A    between atoms: C_15  and  N_16 
REMARK       I    between atoms: N_16  and  C_17 
REMARK    8  A    between atoms: C_17  and  C_19 
REMARK    9  A    between atoms: C_31  and  C_32 
ROOT
ATOM      1  N   UNL d   1       9.287   2.411 -15.232  0.00  0.00    -0.330 N 
ATOM      2  C   UNL d   1      10.239   3.518 -15.097  0.00  0.00     0.138 C 
ATOM      3  C   UNL d   1       9.517   4.791 -14.643  0.00  0.00     0.274 C 
ATOM      4  N   UNL d   1       8.826   4.554 -13.370  0.00  0.00     0.141 N 
ATOM      5  C   UNL d   1       7.798   3.523 -13.591  0.00  0.00     0.274 C 
ATOM      6  C   UNL d   1       8.452   2.202 -14.039  0.00  0.00     0.138 C 
ENDROOT
BRANCH   4   7
ATOM      7  C   UNL d   1       8.159   5.761 -12.885  0.00  0.00     0.251 C 
BRANCH   7   8
ATOM      8  C   UNL d   1       9.133   6.894 -12.502  0.00  0.00     0.037 C 
BRANCH   8   9
ATOM      9  C   UNL d   1       9.389   6.912 -10.999  0.00  0.00     0.029 C 
BRANCH   9  10
ATOM     10  C   UNL d   1       9.977   8.235 -10.510  0.00  0.00     0.129 C 
BRANCH  10  11
ATOM     11  N   UNL d   1      10.138   8.288  -9.062  0.00  0.00    -0.233 NA
ATOM     12  C   UNL d   1      10.342   7.269  -8.219  0.00  0.00     0.295 C 
ATOM     13  O   UNL d   1      10.274   6.077  -8.533  0.00  0.00    -0.264 OA
BRANCH  12  14
ATOM     14  C   UNL d   1      10.736   7.700  -6.859  0.00  0.00     0.175 A 
ATOM     15  N   UNL d   1      10.781   9.012  -6.400  0.00  0.00    -0.054 NA
ATOM     16  C   UNL d   1      11.216   8.943  -5.142  0.00  0.00     0.735 A 
ATOM     17  N   UNL d   1      11.467   7.588  -4.791  0.00  0.00    -0.136 N 
ATOM     18  N   UNL d   1      11.405   9.939  -4.267  0.00  0.00    -0.059 NA
ATOM     19  C   UNL d   1      11.157   6.834  -5.896  0.00  0.00     0.123 A 
ATOM     20  C   UNL d   1      11.914   7.242  -3.550  0.00  0.00     0.100 A 
ATOM     21  C   UNL d   1      12.131   8.261  -2.660  0.00  0.00     0.041 A 
ATOM     22  C   UNL d   1      11.861   9.592  -3.077  0.00  0.00     0.119 A 
ENDBRANCH  12  14
ENDBRANCH  10  11
ENDBRANCH   9  10
ENDBRANCH   8   9
ENDBRANCH   7   8
ENDBRANCH   4   7
BRANCH   1  23
ATOM     23  C   UNL d   1       9.134   1.706 -16.413  0.00  0.00     0.143 A 
ATOM     24  N   UNL d   1       7.960   1.056 -16.614  0.00  0.00    -0.214 NA
ATOM     25  C   UNL d   1       7.812   0.329 -17.728  0.00  0.00     0.140 A 
ATOM     26  N   UNL d   1       8.703   0.259 -18.724  0.00  0.00    -0.227 NA
ATOM     27  C   UNL d   1       9.883   0.898 -18.554  0.00  0.00     0.157 A 
ATOM     28  C   UNL d   1      10.152   1.643 -17.392  0.00  0.00     0.060 A 
BRANCH  25  29
ATOM     29  C   UNL d   1       6.429  -0.301 -17.967  0.00  0.00     0.052 C 
ATOM     30  C   UNL d   1       5.578   0.637 -18.836  0.00  0.00     0.008 C 
ATOM     31  C   UNL d   1       5.676  -0.538 -16.635  0.00  0.00     0.008 C 
ATOM     32  C   UNL d   1       6.585  -1.670 -18.660  0.00  0.00     0.008 C 
ENDBRANCH  25  29
BRANCH  27  33
ATOM     33  C   UNL d   1      10.909   0.769 -19.678  0.00  0.00     0.435 C 
ATOM     34  F   UNL d   1      10.359   1.177 -20.822  0.00  0.00    -0.165 F 
ATOM     35  F   UNL d   1      12.001   1.500 -19.453  0.00  0.00    -0.165 F 
ATOM     36  F   UNL d   1      11.282  -0.506 -19.804  0.00  0.00    -0.165 F 
ENDBRANCH  27  33
ENDBRANCH   1  23
TORSDOF 9
