REMARK  2 active torsions:
REMARK  status: ('A' for Active; 'I' for Inactive)
REMARK    1  A    between atoms: C_4  and  C_5 
REMARK    2  A    between atoms: C_5  and  N_6 
ROOT
ATOM      1  N   UNL d   1       9.443   7.155 -11.091  0.00  0.00     0.142 N 
ATOM      2  C   UNL d   1       9.517   8.543 -10.565  0.00  0.00     0.255 C 
ATOM      3  C   UNL d   1      10.877   8.894  -9.917  0.00  0.00     0.061 C 
ATOM      4  C   UNL d   1      10.969   8.421  -8.484  0.00  0.00    -0.022 A 
ATOM      5  C   UNL d   1      11.221   9.339  -7.448  0.00  0.00     0.015 A 
ATOM      6  C   UNL d   1      11.340   8.941  -6.105  0.00  0.00     0.089 A 
ATOM      7  N   UNL d   1      11.548   9.767  -5.014  0.00  0.00    -0.225 NA
ATOM      8  C   UNL d   1      11.675   9.018  -3.921  0.00  0.00     0.181 A 
ATOM      9  N   UNL d   1      11.864   9.576  -2.671  0.00  0.00    -0.072 NA
ATOM     10  S   UNL d   1      11.607   7.269  -4.118  0.00  0.00    -0.052 SA
ATOM     11  C   UNL d   1      11.256   7.553  -5.815  0.00  0.00     0.049 A 
ATOM     12  C   UNL d   1      10.991   6.626  -6.829  0.00  0.00     0.004 A 
ATOM     13  C   UNL d   1      10.814   7.068  -8.151  0.00  0.00    -0.024 A 
ATOM     14  C   UNL d   1      10.575   6.035  -9.226  0.00  0.00     0.061 C 
ATOM     15  C   UNL d   1       9.282   6.199 -10.000  0.00  0.00     0.255 C 
ENDROOT
BRANCH   1  16
ATOM     16  C   UNL d   1       8.265   7.005 -11.953  0.00  0.00     0.280 C 
BRANCH  16  17
ATOM     17  C   UNL d   1       8.280   5.790 -12.808  0.00  0.00     0.051 A 
ATOM     18  C   UNL d   1       7.275   4.885 -12.979  0.00  0.00     0.094 A 
ATOM     19  N   UNL d   1       7.736   3.951 -13.879  0.00  0.00    -0.248 N 
ATOM     20  C   UNL d   1       7.049   2.797 -14.414  0.00  0.00     0.154 C 
ATOM     21  N   UNL d   1       8.993   4.211 -14.292  0.00  0.00    -0.168 NA
ATOM     22  C   UNL d   1       9.322   5.310 -13.633  0.00  0.00     0.119 A 
ENDBRANCH  16  17
ENDBRANCH   1  16
TORSDOF 2
