REMARK  6 active torsions:
REMARK  status: ('A' for Active; 'I' for Inactive)
REMARK    1  A    between atoms: N_2  and  C_3 
REMARK    2  A    between atoms: N_2  and  C_20 
REMARK    3  A    between atoms: C_3  and  C_4 
REMARK    4  A    between atoms: C_4  and  N_5 
REMARK    5  A    between atoms: N_8  and  C_9 
REMARK    6  A    between atoms: C_20  and  C_21 
ROOT
ATOM      1  N   UNL d   1       8.353   3.834 -13.488  0.00  0.00    -0.298 N 
ATOM      2  C   UNL d   1       9.481   3.073 -13.997  0.00  0.00     0.131 A 
ATOM      3  C   UNL d   1       8.807   1.833 -14.568  0.00  0.00     0.135 A 
ATOM      4  N   UNL d   1       7.396   2.057 -14.277  0.00  0.00    -0.280 N 
ATOM      5  C   UNL d   1       7.182   3.233 -13.675  0.00  0.00     0.328 A 
ATOM      6  O   UNL d   1       6.083   3.689 -13.321  0.00  0.00    -0.247 OA
ENDROOT
BRANCH   1   7
ATOM      7  C   UNL d   1       8.543   5.109 -12.808  0.00  0.00     0.141 C 
BRANCH   7   8
ATOM      8  C   UNL d   1       8.111   5.036 -11.321  0.00  0.00     0.274 C 
BRANCH   8   9
ATOM      9  N   UNL d   1       9.268   5.324 -10.483  0.00  0.00     0.141 N 
ATOM     10  C   UNL d   1       9.762   4.076  -9.929  0.00  0.00     0.285 C 
BRANCH   9  11
ATOM     11  C   UNL d   1       8.914   6.253  -9.417  0.00  0.00     0.250 C 
BRANCH  11  12
ATOM     12  C   UNL d   1      10.096   6.794  -8.584  0.00  0.00     0.032 C 
ATOM     13  C   UNL d   1      11.280   7.382  -9.408  0.00  0.00     0.002 C 
ATOM     14  C   UNL d   1      12.079   8.143  -8.316  0.00  0.00     0.000 C 
ATOM     15  C   UNL d   1      11.182   8.028  -7.049  0.00  0.00     0.000 C 
ATOM     16  C   UNL d   1      11.315   6.611  -6.464  0.00  0.00     0.000 C 
ATOM     17  C   UNL d   1       9.760   7.951  -7.654  0.00  0.00     0.002 C 
ATOM     18  C   UNL d   1      10.607   5.806  -7.543  0.00  0.00     0.002 C 
ATOM     19  C   UNL d   1       9.350   9.234  -8.387  0.00  0.00     0.000 C 
ATOM     20  C   UNL d   1       8.670   7.692  -6.579  0.00  0.00     0.000 C 
ENDBRANCH  11  12
ENDBRANCH   9  11
ENDBRANCH   8   9
ENDBRANCH   7   8
ENDBRANCH   1   7
BRANCH   4  21
ATOM     21  C   UNL d   1       6.405   1.099 -14.609  0.00  0.00     0.066 A 
ATOM     22  C   UNL d   1       6.439   0.485 -15.879  0.00  0.00     0.044 A 
ATOM     23  C   UNL d   1       5.410  -0.409 -16.201  0.00  0.00     0.121 A 
ATOM     24  C   UNL d   1       4.391  -0.692 -15.305  0.00  0.00     0.119 A 
ATOM     25  O   UNL d   1       5.208  -1.092 -17.353  0.00  0.00    -0.299 OA
ATOM     26  C   UNL d   1       4.332  -0.106 -14.034  0.00  0.00     0.028 A 
ATOM     27  O   UNL d   1       3.522  -1.560 -15.874  0.00  0.00    -0.300 OA
ATOM     28  C   UNL d   1       5.367   0.785 -13.681  0.00  0.00     0.019 A 
ATOM     29  C   UNL d   1       4.041  -1.844 -17.146  0.00  0.00     0.304 A 
ENDBRANCH   4  21
TORSDOF 6
