REMARK  3 active torsions:
REMARK  status: ('A' for Active; 'I' for Inactive)
REMARK    1  A    between atoms: C_7  and  C_8 
REMARK    2  A    between atoms: C_8  and  N_9 
REMARK    3  A    between atoms: C_12  and  C_13 
ROOT
ATOM      1  N   UNL d   1       8.713   5.038 -12.415  0.00  0.00     0.146 N 
ATOM      2  C   UNL d   1       7.248   4.936 -12.322  0.00  0.00     0.277 C 
ATOM      3  C   UNL d   1       6.704   3.754 -13.102  0.00  0.00     0.007 C 
ATOM      4  C   UNL d   1       7.413   3.084 -14.045  0.00  0.00     0.001 C 
ATOM      5  C   UNL d   1       8.838   3.511 -14.344  0.00  0.00     0.064 C 
ATOM      6  C   UNL d   1       9.151   4.917 -13.812  0.00  0.00     0.256 C 
ENDROOT
BRANCH   4   7
ATOM      7  C   UNL d   1       6.864   1.899 -14.687  0.00  0.00     0.107 A 
ATOM      8  S   UNL d   1       5.787   0.766 -13.855  0.00  0.00    -0.067 SA
ATOM      9  C   UNL d   1       5.650  -0.126 -15.369  0.00  0.00     0.049 A 
ATOM     10  C   UNL d   1       6.433   0.510 -16.376  0.00  0.00     0.088 A 
ATOM     11  C   UNL d   1       4.916  -1.290 -15.643  0.00  0.00     0.008 A 
ATOM     12  N   UNL d   1       7.113   1.653 -15.978  0.00  0.00    -0.239 NA
ATOM     13  C   UNL d   1       6.449  -0.056 -17.668  0.00  0.00     0.020 A 
ATOM     14  C   UNL d   1       5.721  -1.228 -17.946  0.00  0.00     0.002 A 
ATOM     15  C   UNL d   1       4.958  -1.840 -16.935  0.00  0.00     0.001 A 
ENDBRANCH   4   7
BRANCH   1  16
ATOM     16  C   UNL d   1       9.192   6.288 -11.819  0.00  0.00     0.278 C 
BRANCH  16  17
ATOM     17  C   UNL d   1       9.258   6.301 -10.288  0.00  0.00     0.021 A 
ATOM     18  C   UNL d   1       9.879   7.377  -9.586  0.00  0.00     0.056 A 
ATOM     19 CL   UNL d   1      10.680   8.661 -10.414  0.00  0.00    -0.083 Cl
ATOM     20  C   UNL d   1       9.870   7.424  -8.172  0.00  0.00     0.011 A 
ATOM     21  C   UNL d   1       9.185   6.429  -7.441  0.00  0.00     0.001 A 
ATOM     22  C   UNL d   1       8.576   5.372  -8.146  0.00  0.00    -0.000 A 
ATOM     23  C   UNL d   1       8.667   5.257  -9.533  0.00  0.00    -0.002 A 
ENDBRANCH  16  17
ENDBRANCH   1  16
TORSDOF 3
