REMARK  5 active torsions:
REMARK  status: ('A' for Active; 'I' for Inactive)
REMARK    1  A    between atoms: C_7  and  O_8 
REMARK    2  A    between atoms: O_8  and  C_9 
REMARK    3  A    between atoms: C_9  and  C_10 
REMARK    4  A    between atoms: C_10  and  N_11 
REMARK    5  A    between atoms: N_14  and  C_15 
ROOT
ATOM      1  N   UNL d   1       9.468   6.683 -11.050  0.00  0.00     0.144 N 
ATOM      2  C   UNL d   1       9.524   5.282 -10.625  0.00  0.00     0.274 C 
ATOM      3  C   UNL d   1       9.567   4.341 -11.858  0.00  0.00     0.137 C 
ATOM      4  N   UNL d   1       8.400   4.611 -12.673  0.00  0.00    -0.344 N 
ATOM      5  C   UNL d   1       8.234   5.993 -13.045  0.00  0.00     0.137 C 
ATOM      6  C   UNL d   1       8.241   6.891 -11.816  0.00  0.00     0.274 C 
ENDROOT
BRANCH   1   7
ATOM      7  C   UNL d   1       9.488   7.583  -9.892  0.00  0.00     0.283 C 
BRANCH   7   8
ATOM      8  C   UNL d   1      10.944   7.736  -9.395  0.00  0.00     0.184 C 
BRANCH   8   9
ATOM      9  O   UNL d   1      11.017   8.877  -8.543  0.00  0.00    -0.329 OA
BRANCH   9  10
ATOM     10  C   UNL d   1      11.148   8.756  -7.174  0.00  0.00     0.096 A 
ATOM     11  C   UNL d   1      11.195   9.964  -6.409  0.00  0.00     0.026 A 
ATOM     12  C   UNL d   1      11.390   9.975  -5.011  0.00  0.00     0.023 A 
ATOM     13  C   UNL d   1      11.561   8.736  -4.409  0.00  0.00     0.104 A 
ATOM     14  N   UNL d   1      11.880   8.393  -3.088  0.00  0.00    -0.189 NA
ATOM     15  C   UNL d   1      11.470   7.560  -5.130  0.00  0.00     0.106 A 
ATOM     16  C   UNL d   1      11.997   7.057  -3.021  0.00  0.00     0.369 A 
ATOM     17  O   UNL d   1      12.261   6.405  -2.027  0.00  0.00    -0.242 OA
ATOM     18  N   UNL d   1      11.747   6.546  -4.234  0.00  0.00    -0.189 NA
ATOM     19  C   UNL d   1      11.275   7.500  -6.510  0.00  0.00     0.045 A 
ENDBRANCH   9  10
ENDBRANCH   8   9
ENDBRANCH   7   8
ENDBRANCH   1   7
BRANCH   4  20
ATOM     20  C   UNL d   1       7.532   3.661 -13.139  0.00  0.00     0.067 A 
ATOM     21  C   UNL d   1       7.934   2.698 -14.114  0.00  0.00     0.073 A 
ATOM     22  C   UNL d   1       7.066   1.650 -14.460  0.00  0.00     0.013 A 
ATOM     23 CL   UNL d   1       9.512   2.740 -14.818  0.00  0.00    -0.081 Cl
ATOM     24  C   UNL d   1       5.814   1.540 -13.825  0.00  0.00     0.001 A 
ATOM     25  C   UNL d   1       5.402   2.509 -12.885  0.00  0.00     0.002 A 
ATOM     26  C   UNL d   1       6.242   3.572 -12.562  0.00  0.00     0.018 A 
ENDBRANCH   4  20
TORSDOF 5
