REMARK  1 active torsions:
REMARK  status: ('A' for Active; 'I' for Inactive)
REMARK    1  A    between atoms: C_4  and  C_5 
ROOT
ATOM      1  O   UNL d   1       9.049   9.204  -8.083  0.00  0.00    -0.289 OA
ATOM      2  C   UNL d   1       9.892   8.658  -7.401  0.00  0.00     0.200 A 
ATOM      3  C   UNL d   1      10.123   8.892  -6.032  0.00  0.00     0.064 A 
ATOM      4  C   UNL d   1      11.105   8.110  -5.647  0.00  0.00     0.097 A 
ATOM      5  O   UNL d   1      11.668   7.414  -6.685  0.00  0.00    -0.328 OA
ATOM      6  C   UNL d   1      10.894   7.627  -7.873  0.00  0.00     0.157 A 
ATOM      7  C   UNL d   1      10.223   6.294  -8.250  0.00  0.00     0.073 C 
ATOM      8  C   UNL d   1       9.425   6.416  -9.548  0.00  0.00     0.293 C 
ATOM      9  N   UNL d   1      10.262   6.912 -10.634  0.00  0.00     0.339 N 
ATOM     10  C   UNL d   1      10.830   8.228 -10.341  0.00  0.00     0.293 C 
ATOM     11  C   UNL d   1      11.714   8.158  -9.074  0.00  0.00     0.073 C 
ENDROOT
BRANCH   4  12
ATOM     12  C   UNL d   1      11.672   8.073  -4.310  0.00  0.00     0.022 A 
ATOM     13  C   UNL d   1      11.723   9.249  -3.528  0.00  0.00     0.002 A 
ATOM     14  C   UNL d   1      12.232   9.193  -2.227  0.00  0.00     0.000 A 
ATOM     15  C   UNL d   1      12.647   7.967  -1.689  0.00  0.00     0.000 A 
ATOM     16  C   UNL d   1      12.567   6.791  -2.450  0.00  0.00     0.000 A 
ATOM     17  C   UNL d   1      12.081   6.847  -3.764  0.00  0.00     0.002 A 
ENDBRANCH   4  12
TORSDOF 1
