REMARK  6 active torsions:
REMARK  status: ('A' for Active; 'I' for Inactive)
REMARK    1  A    between atoms: C_7  and  C_8 
REMARK    2  A    between atoms: C_8  and  C_9 
REMARK    3  A    between atoms: C_9  and  C_10 
REMARK    4  A    between atoms: C_10  and  N_11 
REMARK       I    between atoms: N_11  and  C_12 
REMARK       I    between atoms: N_14  and  C_15 
REMARK       I    between atoms: C_15  and  N_17 
REMARK    5  A    between atoms: N_17  and  C_18 
REMARK    6  A    between atoms: C_18  and  C_20 
ROOT
ATOM      1  N   UNL d   1       9.347   5.638  -9.686  0.00  0.00    -0.241 NA
ATOM      2  C   UNL d   1       9.351   6.274  -8.464  0.00  0.00     0.237 C 
ATOM      3  N   UNL d   1       8.295   5.875  -7.662  0.00  0.00    -0.060 NA
ATOM      4  N   UNL d   1      10.283   7.141  -8.189  0.00  0.00    -0.159 NA
ATOM      5  C   UNL d   1      10.309   7.800  -6.973  0.00  0.00     0.367 C 
ATOM      6  O   UNL d   1       9.456   7.788  -6.085  0.00  0.00    -0.243 OA
ATOM      7  N   UNL d   1      11.459   8.476  -6.822  0.00  0.00    -0.213 NA
ENDROOT
BRANCH   1   8
ATOM      8  C   UNL d   1       9.874   6.242 -10.900  0.00  0.00     0.129 C 
BRANCH   8   9
ATOM      9  C   UNL d   1       9.643   5.325 -12.103  0.00  0.00     0.032 C 
BRANCH   9  10
ATOM     10  C   UNL d   1       8.178   5.293 -12.574  0.00  0.00     0.036 C 
BRANCH  10  11
ATOM     11  C   UNL d   1       7.845   4.090 -13.401  0.00  0.00     0.023 A 
ATOM     12  C   UNL d   1       6.645   3.420 -13.452  0.00  0.00     0.063 A 
ATOM     13  C   UNL d   1       5.393   3.772 -12.711  0.00  0.00     0.052 C 
ATOM     14  N   UNL d   1       6.662   2.304 -14.296  0.00  0.00    -0.230 NA
ATOM     15  C   UNL d   1       7.844   2.135 -14.883  0.00  0.00     0.180 A 
ATOM     16  N   UNL d   1       8.134   1.111 -15.767  0.00  0.00    -0.072 NA
ATOM     17  S   UNL d   1       9.035   3.347 -14.445  0.00  0.00    -0.057 SA
ENDBRANCH  10  11
ENDBRANCH   9  10
ENDBRANCH   8   9
ENDBRANCH   1   8
BRANCH   7  18
ATOM     18  C   UNL d   1      11.831   9.319  -5.679  0.00  0.00     0.153 C 
ATOM     19  C   UNL d   1      10.832  10.475  -5.495  0.00  0.00     0.034 C 
BRANCH  18  20
ATOM     20  C   UNL d   1      12.041   8.535  -4.413  0.00  0.00     0.100 A 
ATOM     21  O   UNL d   1      12.545   9.234  -3.356  0.00  0.00    -0.307 OA
ATOM     22  C   UNL d   1      12.651   8.371  -2.307  0.00  0.00     0.122 A 
ATOM     23  C   UNL d   1      12.246   7.116  -2.686  0.00  0.00     0.029 A 
ATOM     24  C   UNL d   1      11.857   7.227  -4.047  0.00  0.00     0.024 A 
ENDBRANCH  18  20
ENDBRANCH   7  18
TORSDOF 6
