REMARK  4 active torsions:
REMARK  status: ('A' for Active; 'I' for Inactive)
REMARK       I    between atoms: N_10  and  C_11 
REMARK    1  A    between atoms: C_11  and  C_13 
REMARK    2  A    between atoms: C_13  and  C_14 
REMARK    3  A    between atoms: N_17  and  C_18 
REMARK    4  A    between atoms: C_18  and  C_19 
ROOT
ATOM      1  C   UNL d   1       9.222   5.178 -13.117  0.00  0.00     0.013 C 
ATOM      2  C   UNL d   1       9.835   4.120 -12.170  0.00  0.00     0.036 C 
ATOM      3  C   UNL d   1       9.796   4.604 -10.707  0.00  0.00     0.251 C 
ATOM      4  N   UNL d   1       8.457   5.053 -10.309  0.00  0.00     0.141 N 
ATOM      5  C   UNL d   1       7.807   6.018 -11.197  0.00  0.00     0.251 C 
ATOM      6  C   UNL d   1       7.802   5.537 -12.634  0.00  0.00     0.036 C 
ENDROOT
BRANCH   1   7
ATOM      7  C   UNL d   1       9.154   4.615 -14.552  0.00  0.00     0.088 C 
BRANCH   7   8
ATOM      8  C   UNL d   1      10.532   4.372 -15.217  0.00  0.00     0.237 C 
ATOM      9  N   UNL d   1      10.704   3.266 -15.990  0.00  0.00    -0.301 N 
ATOM     10  C   UNL d   1       9.731   2.150 -16.064  0.00  0.00     0.093 C 
ATOM     11  C   UNL d   1      11.744   3.056 -16.936  0.00  0.00     0.058 A 
ATOM     12  C   UNL d   1       9.784   1.294 -14.787  0.00  0.00     0.025 C 
ATOM     13  C   UNL d   1      10.156   1.307 -17.305  0.00  0.00     0.051 C 
ATOM     14  C   UNL d   1      11.450   1.942 -17.718  0.00  0.00    -0.004 A 
ATOM     15  C   UNL d   1      12.304   1.521 -18.749  0.00  0.00    -0.003 A 
ATOM     16  C   UNL d   1      13.489   2.248 -18.981  0.00  0.00    -0.000 A 
ATOM     17  C   UNL d   1      13.799   3.372 -18.180  0.00  0.00     0.002 A 
ATOM     18  C   UNL d   1      12.929   3.784 -17.150  0.00  0.00     0.017 A 
ATOM     19  O   UNL d   1      11.426   5.183 -15.005  0.00  0.00    -0.272 OA
ENDBRANCH   7   8
ENDBRANCH   1   7
BRANCH   4  20
ATOM     20  C   UNL d   1       8.457   5.544  -8.933  0.00  0.00     0.277 C 
BRANCH  20  21
ATOM     21  C   UNL d   1       9.493   6.623  -8.589  0.00  0.00     0.012 A 
ATOM     22  C   UNL d   1       9.804   6.869  -7.233  0.00  0.00     0.009 A 
ATOM     23  C   UNL d   1      10.815   7.815  -6.903  0.00  0.00     0.058 A 
ATOM     24  C   UNL d   1      11.520   8.497  -7.926  0.00  0.00     0.011 A 
ATOM     25 CL   UNL d   1      11.173   8.160  -5.247  0.00  0.00    -0.082 Cl
ATOM     26  C   UNL d   1      11.203   8.258  -9.262  0.00  0.00     0.001 A 
ATOM     27  C   UNL d   1      10.171   7.373  -9.582  0.00  0.00    -0.002 A 
ENDBRANCH  20  21
ENDBRANCH   4  20
TORSDOF 4
