REMARK  3 active torsions:
REMARK  status: ('A' for Active; 'I' for Inactive)
REMARK    1  A    between atoms: C_7  and  C_8 
REMARK    2  A    between atoms: N_14  and  S_15 
REMARK    3  A    between atoms: S_15  and  C_18 
ROOT
ATOM      1  C   UNL d   1       6.893   1.724 -14.924  0.00  0.00     0.021 A 
ATOM      2  C   UNL d   1       6.033   0.874 -14.194  0.00  0.00     0.002 A 
ATOM      3  C   UNL d   1       5.396  -0.219 -14.816  0.00  0.00     0.002 A 
ATOM      4  C   UNL d   1       5.593  -0.500 -16.186  0.00  0.00     0.018 A 
ATOM      5  C   UNL d   1       5.120  -1.516 -17.081  0.00  0.00     0.021 A 
ATOM      6  C   UNL d   1       5.691  -1.257 -18.298  0.00  0.00     0.092 A 
ATOM      7  N   UNL d   1       6.486  -0.121 -18.211  0.00  0.00    -0.231 N 
ATOM      8  C   UNL d   1       6.455   0.372 -16.915  0.00  0.00     0.075 A 
ATOM      9  C   UNL d   1       7.091   1.467 -16.296  0.00  0.00     0.020 A 
ENDROOT
BRANCH   7  10
ATOM     10  S   UNL d   1       7.401   0.525 -19.519  0.00  0.00     0.271 S 
ATOM     11  O   UNL d   1       7.123  -0.338 -20.677  0.00  0.00    -0.200 OA
ATOM     12  O   UNL d   1       7.113   1.964 -19.551  0.00  0.00    -0.200 OA
BRANCH  10  13
ATOM     13  C   UNL d   1       9.095   0.309 -19.029  0.00  0.00     0.104 A 
ATOM     14  C   UNL d   1       9.489  -0.905 -18.440  0.00  0.00     0.013 A 
ATOM     15  C   UNL d   1      10.824  -1.068 -18.049  0.00  0.00     0.001 A 
ATOM     16  C   UNL d   1      11.761  -0.034 -18.249  0.00  0.00     0.000 A 
ATOM     17  C   UNL d   1      11.359   1.185 -18.827  0.00  0.00     0.001 A 
ATOM     18  C   UNL d   1      10.016   1.361 -19.217  0.00  0.00     0.013 A 
ENDBRANCH  10  13
ENDBRANCH   7  10
BRANCH   1  19
ATOM     19  C   UNL d   1       7.546   2.858 -14.274  0.00  0.00     0.114 A 
ATOM     20  C   UNL d   1       8.780   3.459 -14.439  0.00  0.00     0.096 A 
ATOM     21  C   UNL d   1       9.894   3.106 -15.377  0.00  0.00     0.054 C 
ATOM     22  N   UNL d   1       8.902   4.540 -13.557  0.00  0.00    -0.061 NA
ATOM     23  C   UNL d   1       7.755   4.553 -12.891  0.00  0.00     0.768 A 
ATOM     24  N   UNL d   1       7.396   5.440 -11.897  0.00  0.00     0.062 N 
ATOM     25  N   UNL d   1       6.917   3.588 -13.277  0.00  0.00    -0.057 NA
ENDBRANCH   1  19
TORSDOF 3
