REMARK  4 active torsions:
REMARK  status: ('A' for Active; 'I' for Inactive)
REMARK    1  A    between atoms: C_5  and  C_6 
REMARK    2  A    between atoms: C_8  and  C_9 
REMARK    3  A    between atoms: C_9  and  N_10 
REMARK    4  A    between atoms: N_13  and  C_14 
ROOT
ATOM      1  N   UNL d   1       9.469   6.112 -11.771  0.00  0.00     0.141 N 
ATOM      2  C   UNL d   1       9.508   4.747 -11.243  0.00  0.00     0.274 C 
ATOM      3  C   UNL d   1       9.994   3.799 -12.348  0.00  0.00     0.137 C 
ATOM      4  N   UNL d   1       9.133   3.910 -13.505  0.00  0.00    -0.344 N 
ATOM      5  C   UNL d   1       8.931   5.247 -14.009  0.00  0.00     0.137 C 
ATOM      6  C   UNL d   1       8.487   6.173 -12.858  0.00  0.00     0.274 C 
ENDROOT
BRANCH   1   7
ATOM      7  C   UNL d   1       9.101   7.054 -10.717  0.00  0.00     0.251 C 
BRANCH   7   8
ATOM      8  C   UNL d   1      10.243   7.327  -9.750  0.00  0.00     0.038 A 
ATOM      9  C   UNL d   1      10.137   8.464  -8.743  0.00  0.00     0.024 A 
ATOM     10  C   UNL d   1      11.114   8.552  -9.893  0.00  0.00     0.007 A 
BRANCH   9  11
ATOM     11  C   UNL d   1      10.643   8.306  -7.337  0.00  0.00    -0.022 A 
ATOM     12  C   UNL d   1      10.481   7.090  -6.642  0.00  0.00    -0.002 A 
ATOM     13  C   UNL d   1      11.004   6.934  -5.343  0.00  0.00     0.029 A 
ATOM     14  C   UNL d   1      11.677   8.004  -4.723  0.00  0.00     0.140 A 
ATOM     15  F   UNL d   1      12.192   7.852  -3.482  0.00  0.00    -0.204 F 
ATOM     16  C   UNL d   1      11.832   9.223  -5.408  0.00  0.00     0.029 A 
ATOM     17  C   UNL d   1      11.315   9.374  -6.709  0.00  0.00    -0.002 A 
ENDBRANCH   9  11
ENDBRANCH   7   8
ENDBRANCH   1   7
BRANCH   4  18
ATOM     18  C   UNL d   1       8.554   2.796 -14.101  0.00  0.00     0.067 A 
ATOM     19  C   UNL d   1       9.335   1.813 -14.758  0.00  0.00     0.073 A 
ATOM     20  C   UNL d   1       8.707   0.699 -15.348  0.00  0.00     0.013 A 
ATOM     21 CL   UNL d   1      11.051   1.974 -14.888  0.00  0.00    -0.081 Cl
ATOM     22  C   UNL d   1       7.308   0.563 -15.289  0.00  0.00     0.001 A 
ATOM     23  C   UNL d   1       6.532   1.536 -14.635  0.00  0.00     0.002 A 
ATOM     24  C   UNL d   1       7.151   2.659 -14.054  0.00  0.00     0.018 A 
ENDBRANCH   4  18
TORSDOF 4
