REMARK  7 active torsions:
REMARK  status: ('A' for Active; 'I' for Inactive)
REMARK    1  A    between atoms: O_2  and  C_3 
REMARK    2  A    between atoms: C_4  and  C_5 
REMARK       I    between atoms: C_5  and  N_7 
REMARK    3  A    between atoms: N_7  and  C_8 
REMARK    4  A    between atoms: C_8  and  C_9 
REMARK    5  A    between atoms: C_9  and  N_10 
REMARK    6  A    between atoms: N_13  and  C_14 
REMARK    7  A    between atoms: C_19  and  N_20 
ROOT
ATOM      1  C   UNL d   1       8.088   5.578 -10.800  0.00  0.00     0.164 C 
ENDROOT
BRANCH   1   2
ATOM      2  N   UNL d   1       7.968   4.436 -11.703  0.00  0.00    -0.232 NA
ATOM      3  C   UNL d   1       7.094   4.342 -12.712  0.00  0.00     0.277 C 
ATOM      4  O   UNL d   1       6.109   5.069 -12.837  0.00  0.00    -0.266 OA
BRANCH   3   5
ATOM      5  C   UNL d   1       7.410   3.238 -13.696  0.00  0.00     0.080 A 
ATOM      6  C   UNL d   1       8.695   3.132 -14.316  0.00  0.00     0.099 A 
ATOM      7  C   UNL d   1       8.974   2.041 -15.182  0.00  0.00     0.023 A 
ATOM      8  C   UNL d   1       7.950   1.108 -15.503  0.00  0.00     0.008 A 
ATOM      9  C   UNL d   1      10.275   1.843 -15.708  0.00  0.00     0.002 A 
ATOM     10  C   UNL d   1       6.669   1.237 -14.909  0.00  0.00     0.035 A 
ATOM     11  C   UNL d   1       8.229   0.059 -16.417  0.00  0.00     0.001 A 
ATOM     12  C   UNL d   1       6.394   2.322 -14.046  0.00  0.00     0.013 A 
ATOM     13 BR   UNL d   1       5.306  -0.075 -15.211  0.00  0.00    -0.049 Br
ATOM     14  C   UNL d   1       9.509  -0.084 -16.984  0.00  0.00     0.000 A 
ATOM     15  C   UNL d   1      10.524   0.820 -16.636  0.00  0.00     0.000 A 
BRANCH   6  16
ATOM     16  O   UNL d   1       9.666   4.072 -14.052  0.00  0.00    -0.328 OA
ATOM     17  C   UNL d   1       9.933   4.988 -15.108  0.00  0.00     0.181 C 
ENDBRANCH   6  16
ENDBRANCH   3   5
ENDBRANCH   1   2
BRANCH   1  18
ATOM     18  C   UNL d   1       9.385   5.442  -9.992  0.00  0.00     0.277 C 
BRANCH  18  19
ATOM     19  N   UNL d   1       9.530   6.542  -9.047  0.00  0.00     0.143 N 
ATOM     20  C   UNL d   1       8.897   6.195  -7.768  0.00  0.00     0.274 C 
ATOM     21  C   UNL d   1       9.066   7.318  -6.727  0.00  0.00     0.137 C 
ATOM     22  N   UNL d   1      10.475   7.678  -6.598  0.00  0.00    -0.343 N 
ATOM     23  C   UNL d   1      11.158   7.955  -7.848  0.00  0.00     0.137 C 
ATOM     24  C   UNL d   1      10.943   6.788  -8.783  0.00  0.00     0.274 C 
BRANCH  22  25
ATOM     25  C   UNL d   1      11.123   7.771  -5.372  0.00  0.00     0.078 A 
ATOM     26  C   UNL d   1      11.518   9.004  -4.786  0.00  0.00     0.142 A 
ATOM     27  C   UNL d   1      12.174   9.049  -3.536  0.00  0.00     0.025 A 
ATOM     28  C   UNL d   1      12.418   7.875  -2.824  0.00  0.00     0.002 A 
ATOM     29  C   UNL d   1      12.003   6.647  -3.358  0.00  0.00     0.002 A 
ATOM     30  C   UNL d   1      11.376   6.596  -4.633  0.00  0.00     0.019 A 
BRANCH  26  31
ATOM     31  N   UNL d   1      11.245  10.261  -5.457  0.00  0.00    -0.112 N 
ATOM     32  O   UNL d   1      10.603  11.094  -4.825  0.00  0.00    -0.532 OA
ATOM     33  O   UNL d   1      11.725  10.486  -6.569  0.00  0.00    -0.532 OA
ENDBRANCH  26  31
ENDBRANCH  22  25
ENDBRANCH  18  19
ENDBRANCH   1  18
TORSDOF 7
