REMARK  7 active torsions:
REMARK  status: ('A' for Active; 'I' for Inactive)
REMARK    1  A    between atoms: C_2  and  C_3 
REMARK       I    between atoms: C_2  and  N_9 
REMARK    2  A    between atoms: C_3  and  C_4 
REMARK    3  A    between atoms: N_9  and  C_10 
REMARK    4  A    between atoms: C_13  and  C_14 
REMARK    5  A    between atoms: C_14  and  C_15 
REMARK    6  A    between atoms: C_15  and  N_16 
REMARK    7  A    between atoms: C_19  and  C_20 
ROOT
ATOM      1  C   UNL d   1       9.836   5.604 -11.245  0.00  0.00     0.035 C 
ENDROOT
BRANCH   1   2
ATOM      2  C   UNL d   1       9.505   6.599 -10.138  0.00  0.00     0.002 C 
ATOM      3  C   UNL d   1       9.743   5.937  -8.766  0.00  0.00     0.002 C 
ATOM      4  C   UNL d   1       9.361   6.894  -7.653  0.00  0.00     0.024 C 
ATOM      5  C   UNL d   1      10.192   8.184  -7.806  0.00  0.00     0.106 C 
ATOM      6  C   UNL d   1       9.923   8.904  -9.141  0.00  0.00     0.024 C 
ATOM      7  C   UNL d   1      10.294   7.951 -10.274  0.00  0.00     0.002 C 
BRANCH   5   8
ATOM      8  N   UNL d   1       9.925   9.070  -6.688  0.00  0.00    -0.240 NA
ATOM      9  C   UNL d   1      10.707   9.601  -5.721  0.00  0.00     0.254 C 
ATOM     10  O   UNL d   1      10.258  10.366  -4.878  0.00  0.00    -0.271 OA
BRANCH   9  11
ATOM     11  C   UNL d   1      12.155   9.198  -5.651  0.00  0.00     0.119 C 
BRANCH  11  12
ATOM     12  C   UNL d   1      12.526   8.551  -4.311  0.00  0.00     0.125 C 
ATOM     13  O   UNL d   1      12.349   9.393  -3.185  0.00  0.00    -0.356 OA
ATOM     14  C   UNL d   1      12.402   8.571  -2.037  0.00  0.00     0.142 C 
ATOM     15  C   UNL d   1      11.732   7.239  -2.427  0.00  0.00     0.035 C 
ATOM     16  C   UNL d   1      11.820   7.216  -3.957  0.00  0.00     0.033 C 
ENDBRANCH  11  12
ENDBRANCH   9  11
ENDBRANCH   5   8
ENDBRANCH   1   2
BRANCH   1  17
ATOM     17  C   UNL d   1       8.940   5.581 -12.479  0.00  0.00     0.250 C 
BRANCH  17  18
ATOM     18  N   UNL d   1       9.561   4.765 -13.533  0.00  0.00     0.137 N 
ATOM     19  C   UNL d   1       9.582   3.339 -13.173  0.00  0.00     0.251 C 
ATOM     20  C   UNL d   1      10.202   2.482 -14.285  0.00  0.00     0.040 C 
ATOM     21  C   UNL d   1       9.449   2.649 -15.605  0.00  0.00     0.028 C 
ATOM     22  C   UNL d   1       9.320   4.138 -15.919  0.00  0.00     0.040 C 
ATOM     23  C   UNL d   1       8.707   4.886 -14.710  0.00  0.00     0.251 C 
BRANCH  21  24
ATOM     24  C   UNL d   1      10.122   1.890 -16.735  0.00  0.00     0.002 A 
ATOM     25  C   UNL d   1       9.468   0.848 -17.419  0.00  0.00     0.115 A 
ATOM     26  C   UNL d   1      10.081   0.159 -18.447  0.00  0.00     0.119 A 
ATOM     27  O   UNL d   1       8.217   0.359 -17.230  0.00  0.00    -0.300 OA
ATOM     28  C   UNL d   1      11.385   0.472 -18.868  0.00  0.00     0.026 A 
ATOM     29  O   UNL d   1       9.235  -0.790 -18.927  0.00  0.00    -0.300 OA
ATOM     30  C   UNL d   1      12.065   1.518 -18.201  0.00  0.00     0.002 A 
ATOM     31  C   UNL d   1      11.437   2.216 -17.143  0.00  0.00    -0.002 A 
ATOM     32  C   UNL d   1       8.058  -0.676 -18.167  0.00  0.00     0.304 A 
ENDBRANCH  21  24
ENDBRANCH  17  18
ENDBRANCH   1  17
TORSDOF 7
