REMARK  8 active torsions:
REMARK  status: ('A' for Active; 'I' for Inactive)
REMARK    1  A    between atoms: N_2  and  C_3 
REMARK    2  A    between atoms: N_2  and  C_16 
REMARK    3  A    between atoms: C_3  and  C_4 
REMARK    4  A    between atoms: C_4  and  C_5 
REMARK    5  A    between atoms: C_10  and  O_11 
REMARK    6  A    between atoms: O_11  and  C_12 
REMARK    7  A    between atoms: C_16  and  C_17 
REMARK    8  A    between atoms: C_17  and  N_18 
ROOT
ATOM      1  C   UNL d   1       8.445   5.219 -11.609  0.00  0.00     0.002 A 
ATOM      2  C   UNL d   1       7.066   5.477 -11.498  0.00  0.00    -0.002 A 
ATOM      3  C   UNL d   1       6.165   5.032 -12.473  0.00  0.00    -0.000 A 
ATOM      4  C   UNL d   1       6.638   4.322 -13.587  0.00  0.00     0.002 A 
ATOM      5  C   UNL d   1       8.017   4.086 -13.731  0.00  0.00     0.024 A 
ATOM      6  C   UNL d   1       8.933   4.548 -12.757  0.00  0.00     0.098 A 
ENDROOT
BRANCH   1   7
ATOM      7  C   UNL d   1       9.364   5.692 -10.482  0.00  0.00     0.064 C 
BRANCH   7   8
ATOM      8  C   UNL d   1       9.748   7.177 -10.655  0.00  0.00     0.255 C 
BRANCH   8   9
ATOM      9  N   UNL d   1      10.721   7.741  -9.712  0.00  0.00     0.142 N 
ATOM     10  C   UNL d   1      11.057   9.087 -10.139  0.00  0.00     0.285 C 
BRANCH   9  11
ATOM     11  C   UNL d   1      10.227   7.730  -8.336  0.00  0.00     0.285 C 
BRANCH  11  12
ATOM     12  C   UNL d   1      11.153   8.459  -7.336  0.00  0.00     0.285 C 
BRANCH  12  13
ATOM     13  N   UNL d   1      10.983   8.103  -5.933  0.00  0.00     0.139 N 
ATOM     14  C   UNL d   1      11.315   6.726  -5.646  0.00  0.00     0.250 C 
ATOM     15  C   UNL d   1      11.481   6.666  -4.131  0.00  0.00     0.037 C 
ATOM     16  C   UNL d   1      11.845   8.107  -3.716  0.00  0.00     0.037 C 
ATOM     17  C   UNL d   1      11.828   8.876  -5.038  0.00  0.00     0.250 C 
ENDBRANCH  12  13
ENDBRANCH  11  12
ENDBRANCH   9  11
ENDBRANCH   8   9
ENDBRANCH   7   8
ENDBRANCH   1   7
BRANCH   6  18
ATOM     18  O   UNL d   1      10.302   4.400 -12.874  0.00  0.00    -0.254 OA
BRANCH  18  19
ATOM     19  C   UNL d   1      10.877   3.897 -13.997  0.00  0.00     0.530 C 
ATOM     20  F   UNL d   1      10.536   4.593 -15.112  0.00  0.00    -0.144 F 
ATOM     21  F   UNL d   1      12.223   3.990 -13.877  0.00  0.00    -0.144 F 
ATOM     22  F   UNL d   1      10.566   2.592 -14.201  0.00  0.00    -0.144 F 
ENDBRANCH  18  19
ENDBRANCH   6  18
TORSDOF 8
