REMARK  7 active torsions:
REMARK  status: ('A' for Active; 'I' for Inactive)
REMARK    1  A    between atoms: C_3  and  C_4 
REMARK    2  A    between atoms: N_15  and  C_16 
REMARK    3  A    between atoms: C_16  and  C_17 
REMARK    4  A    between atoms: C_17  and  C_18 
REMARK    5  A    between atoms: C_18  and  C_19 
REMARK    6  A    between atoms: C_19  and  N_20 
REMARK    7  A    between atoms: C_24  and  C_25 
ROOT
ATOM      1  O   UNL d   1      12.350   5.302 -16.171  0.00  0.00    -0.267 OA
ATOM      2  C   UNL d   1      11.743   4.610 -16.994  0.00  0.00     0.265 A 
ATOM      3  C   UNL d   1      11.886   4.772 -18.444  0.00  0.00     0.069 A 
ATOM      4  C   UNL d   1      11.169   3.982 -19.295  0.00  0.00     0.046 A 
ATOM      5  N   UNL d   1      10.272   3.009 -18.839  0.00  0.00    -0.285 N 
ATOM      6  C   UNL d   1      10.106   2.784 -17.452  0.00  0.00     0.333 A 
ATOM      7  O   UNL d   1       9.335   1.917 -17.029  0.00  0.00    -0.246 OA
ATOM      8  N   UNL d   1      10.857   3.595 -16.578  0.00  0.00    -0.249 N 
ATOM      9  C   UNL d   1       9.489   2.138 -19.695  0.00  0.00     0.110 C 
ATOM     10  C   UNL d   1       9.463   2.533 -21.172  0.00  0.00     0.025 C 
ATOM     11  C   UNL d   1      10.863   2.911 -21.628  0.00  0.00     0.008 C 
ATOM     12  C   UNL d   1      11.327   4.118 -20.820  0.00  0.00     0.044 C 
ENDROOT
BRANCH   8  13
ATOM     13  C   UNL d   1      10.665   3.433 -15.146  0.00  0.00     0.114 C 
BRANCH  13  14
ATOM     14  C   UNL d   1       9.832   4.569 -14.512  0.00  0.00     0.027 C 
BRANCH  14  15
ATOM     15  C   UNL d   1       9.429   4.238 -13.084  0.00  0.00     0.037 C 
BRANCH  15  16
ATOM     16  C   UNL d   1       8.855   5.441 -12.312  0.00  0.00     0.250 C 
BRANCH  16  17
ATOM     17  N   UNL d   1       9.399   5.558 -10.967  0.00  0.00     0.137 N 
ATOM     18  C   UNL d   1       8.426   6.329 -10.197  0.00  0.00     0.255 C 
ATOM     19  C   UNL d   1       8.896   6.540  -8.735  0.00  0.00     0.057 C 
ATOM     20  C   UNL d   1       9.046   5.190  -8.041  0.00  0.00     0.009 C 
ATOM     21  C   UNL d   1       9.938   4.302  -8.873  0.00  0.00     0.036 C 
ATOM     22  C   UNL d   1       9.435   4.276 -10.309  0.00  0.00     0.250 C 
BRANCH  19  23
ATOM     23  C   UNL d   1      10.163   7.309  -8.698  0.00  0.00     0.000 A 
ATOM     24  C   UNL d   1      10.762   7.868  -7.526  0.00  0.00     0.015 A 
ATOM     25  C   UNL d   1      11.968   8.469  -7.977  0.00  0.00     0.081 A 
ATOM     26  C   UNL d   1      10.505   7.931  -6.142  0.00  0.00     0.001 A 
ATOM     27  N   UNL d   1      12.039   8.337  -9.335  0.00  0.00    -0.244 NA
ATOM     28  C   UNL d   1      12.798   9.188  -7.137  0.00  0.00     0.019 A 
ATOM     29  C   UNL d   1      10.969   7.631  -9.763  0.00  0.00     0.095 A 
ATOM     30  C   UNL d   1      12.507   9.232  -5.740  0.00  0.00     0.002 A 
ATOM     31  C   UNL d   1      11.358   8.623  -5.237  0.00  0.00     0.000 A 
ENDBRANCH  19  23
ENDBRANCH  16  17
ENDBRANCH  15  16
ENDBRANCH  14  15
ENDBRANCH  13  14
ENDBRANCH   8  13
BRANCH   3  32
ATOM     32  C   UNL d   1      12.783   5.834 -18.944  0.00  0.00     0.016 A 
ATOM     33  C   UNL d   1      12.283   6.969 -19.629  0.00  0.00     0.058 A 
ATOM     34  C   UNL d   1      13.175   7.947 -20.105  0.00  0.00     0.011 A 
ATOM     35 CL   UNL d   1      10.588   7.211 -19.881  0.00  0.00    -0.082 Cl
ATOM     36  C   UNL d   1      14.556   7.827 -19.863  0.00  0.00     0.001 A 
ATOM     37  C   UNL d   1      15.053   6.721 -19.148  0.00  0.00     0.000 A 
ATOM     38  C   UNL d   1      14.170   5.723 -18.695  0.00  0.00     0.001 A 
ENDBRANCH   3  32
TORSDOF 7
