REMARK  1 active torsions:
REMARK  status: ('A' for Active; 'I' for Inactive)
REMARK    1  A    between atoms: C_11  and  C_12 
ROOT
ATOM      1  C   UNL d   1       3.638  -1.450 -16.025  0.00  0.00     0.285 C 
ATOM      2  N   UNL d   1       4.768  -0.568 -16.276  0.00  0.00     0.140 N 
ATOM      3  C   UNL d   1       4.884  -0.355 -17.715  0.00  0.00     0.255 C 
ATOM      4  C   UNL d   1       5.830   0.805 -18.059  0.00  0.00     0.061 C 
ATOM      5  C   UNL d   1       7.306   0.463 -18.023  0.00  0.00    -0.022 A 
ATOM      6  C   UNL d   1       8.059   0.642 -19.204  0.00  0.00     0.021 A 
ATOM      7  C   UNL d   1       9.432   0.342 -19.230  0.00  0.00     0.112 A 
ATOM      8  C   UNL d   1      10.065  -0.112 -18.056  0.00  0.00     0.106 A 
ATOM      9  C   UNL d   1       9.330  -0.271 -16.866  0.00  0.00     0.017 A 
ATOM     10  C   UNL d   1       7.940   0.013 -16.836  0.00  0.00    -0.019 A 
ATOM     11  C   UNL d   1       7.165  -0.210 -15.524  0.00  0.00     0.078 C 
ATOM     12  C   UNL d   1       5.966  -1.181 -15.714  0.00  0.00     0.259 C 
ATOM     13  N   UNL d   1      11.452  -0.367 -18.087  0.00  0.00    -0.208 NA
ATOM     14  C   UNL d   1      12.154  -0.372 -19.226  0.00  0.00     0.286 C 
ATOM     15  O   UNL d   1      13.372  -0.521 -19.243  0.00  0.00    -0.267 OA
ATOM     16  C   UNL d   1      11.365  -0.220 -20.539  0.00  0.00     0.238 C 
ATOM     17  O   UNL d   1      10.152   0.533 -20.387  0.00  0.00    -0.319 OA
ENDROOT
BRANCH  11  18
ATOM     18  C   UNL d   1       6.859   1.057 -14.708  0.00  0.00    -0.017 A 
ATOM     19  C   UNL d   1       7.701   2.190 -14.795  0.00  0.00    -0.004 A 
ATOM     20  C   UNL d   1       7.425   3.347 -14.035  0.00  0.00    -0.000 A 
ATOM     21  C   UNL d   1       6.299   3.392 -13.193  0.00  0.00    -0.000 A 
ATOM     22  C   UNL d   1       5.473   2.258 -13.072  0.00  0.00    -0.000 A 
ATOM     23  C   UNL d   1       5.764   1.096 -13.808  0.00  0.00    -0.004 A 
ENDBRANCH  11  18
TORSDOF 1
