REMARK  3 active torsions:
REMARK  status: ('A' for Active; 'I' for Inactive)
REMARK    1  A    between atoms: C_6  and  C_7 
REMARK    2  A    between atoms: N_10  and  C_11 
REMARK    3  A    between atoms: C_11  and  C_12 
ROOT
ATOM      1  C   UNL d   1      11.038   9.000  -6.796  0.00  0.00     0.026 C 
ATOM      2  C   UNL d   1       9.861   8.123  -7.175  0.00  0.00     0.040 C 
ATOM      3  C   UNL d   1       9.449   8.329  -8.602  0.00  0.00     0.251 C 
ATOM      4  N   UNL d   1      10.564   8.055  -9.504  0.00  0.00     0.141 N 
ATOM      5  C   UNL d   1      11.626   9.006  -9.248  0.00  0.00     0.251 C 
ATOM      6  C   UNL d   1      12.159   8.795  -7.821  0.00  0.00     0.040 C 
ENDROOT
BRANCH   1   7
ATOM      7  C   UNL d   1      11.540   8.693  -5.402  0.00  0.00    -0.020 A 
ATOM      8  C   UNL d   1      12.521   9.538  -4.888  0.00  0.00    -0.004 A 
ATOM      9  C   UNL d   1      12.982   9.326  -3.590  0.00  0.00     0.002 A 
ATOM     10  C   UNL d   1      12.566   8.258  -2.782  0.00  0.00     0.027 A 
ATOM     11  C   UNL d   1      11.640   7.382  -3.333  0.00  0.00     0.131 A 
ATOM     12  O   UNL d   1      11.175   6.396  -2.556  0.00  0.00    -0.190 OA
ATOM     13  C   UNL d   1      11.111   7.593  -4.623  0.00  0.00     0.023 A 
ENDBRANCH   1   7
BRANCH   4  14
ATOM     14  C   UNL d   1      10.040   8.231 -10.849  0.00  0.00     0.277 C 
BRANCH  14  15
ATOM     15  C   UNL d   1       9.258   7.023 -11.380  0.00  0.00     0.011 A 
ATOM     16  C   UNL d   1       8.151   7.199 -12.231  0.00  0.00    -0.002 A 
ATOM     17  C   UNL d   1       7.381   6.092 -12.641  0.00  0.00    -0.000 A 
ATOM     18  C   UNL d   1       7.772   4.787 -12.306  0.00  0.00    -0.000 A 
ATOM     19  C   UNL d   1       8.927   4.605 -11.531  0.00  0.00    -0.000 A 
ATOM     20  C   UNL d   1       9.613   5.716 -11.014  0.00  0.00    -0.002 A 
ENDBRANCH  14  15
ENDBRANCH   4  14
TORSDOF 3
