REMARK  11 active torsions:
REMARK  status: ('A' for Active; 'I' for Inactive)
REMARK    1  A    between atoms: O_2  and  C_3 
REMARK    2  A    between atoms: C_8  and  N_9 
REMARK    3  A    between atoms: N_12  and  C_13 
REMARK    4  A    between atoms: C_13  and  C_14 
REMARK    5  A    between atoms: C_14  and  C_15 
REMARK    6  A    between atoms: C_15  and  C_16 
REMARK    7  A    between atoms: C_16  and  N_17 
REMARK       I    between atoms: N_17  and  C_18 
REMARK    8  A    between atoms: C_18  and  C_20 
REMARK    9  A    between atoms: C_21  and  C_22 
REMARK   10  A    between atoms: C_25  and  O_26 
REMARK   11  A    between atoms: O_26  and  C_27 
ROOT
ATOM      1  C   UNL d   1       7.404   3.975 -13.066  0.00  0.00     0.129 C 
ENDROOT
BRANCH   1   2
ATOM      2  C   UNL d   1       8.566   3.265 -13.781  0.00  0.00     0.029 C 
BRANCH   2   3
ATOM      3  C   UNL d   1       8.110   2.337 -14.879  0.00  0.00     0.037 C 
BRANCH   3   4
ATOM      4  C   UNL d   1       9.216   2.171 -15.955  0.00  0.00     0.251 C 
BRANCH   4   5
ATOM      5  N   UNL d   1       8.799   1.381 -17.113  0.00  0.00     0.141 N 
ATOM      6  C   UNL d   1       8.747  -0.033 -16.752  0.00  0.00     0.274 C 
ATOM      7  C   UNL d   1       8.337  -0.881 -17.970  0.00  0.00     0.137 C 
ATOM      8  N   UNL d   1       7.095  -0.373 -18.536  0.00  0.00    -0.343 N 
ATOM      9  C   UNL d   1       7.085   1.039 -18.884  0.00  0.00     0.137 C 
ATOM     10  C   UNL d   1       7.511   1.834 -17.649  0.00  0.00     0.274 C 
BRANCH   8  11
ATOM     11  C   UNL d   1       6.007  -1.181 -18.753  0.00  0.00     0.079 A 
ATOM     12  C   UNL d   1       4.992  -1.379 -17.770  0.00  0.00     0.110 A 
ATOM     13  C   UNL d   1       3.896  -2.221 -18.076  0.00  0.00     0.026 A 
ATOM     14  C   UNL d   1       3.809  -2.862 -19.324  0.00  0.00     0.002 A 
ATOM     15  C   UNL d   1       4.803  -2.663 -20.295  0.00  0.00     0.002 A 
ATOM     16  C   UNL d   1       5.897  -1.832 -20.007  0.00  0.00     0.019 A 
BRANCH  12  17
ATOM     17  O   UNL d   1       5.123  -0.724 -16.559  0.00  0.00    -0.327 OA
ATOM     18  C   UNL d   1       4.198  -1.046 -15.522  0.00  0.00     0.181 C 
ENDBRANCH  12  17
ENDBRANCH   8  11
ENDBRANCH   4   5
ENDBRANCH   3   4
ENDBRANCH   2   3
ENDBRANCH   1   2
BRANCH   1  19
ATOM     19  N   UNL d   1       7.822   4.808 -11.943  0.00  0.00    -0.234 NA
ATOM     20  C   UNL d   1       8.965   5.509 -11.818  0.00  0.00     0.275 C 
ATOM     21  O   UNL d   1       9.838   5.591 -12.684  0.00  0.00    -0.266 OA
BRANCH  20  22
ATOM     22  C   UNL d   1       9.045   6.153 -10.527  0.00  0.00     0.062 C 
ATOM     23  C   UNL d   1      10.181   6.773 -10.158  0.00  0.00     0.005 C 
BRANCH  23  24
ATOM     24  C   UNL d   1      10.391   7.526  -8.922  0.00  0.00     0.000 A 
ATOM     25  C   UNL d   1       9.333   7.699  -8.003  0.00  0.00     0.002 A 
ATOM     26  C   UNL d   1       9.528   8.444  -6.838  0.00  0.00     0.025 A 
ATOM     27  C   UNL d   1      10.791   9.005  -6.575  0.00  0.00     0.100 A 
ATOM     28  C   UNL d   1      11.859   8.820  -7.480  0.00  0.00     0.025 A 
ATOM     29  C   UNL d   1      11.652   8.094  -8.662  0.00  0.00     0.002 A 
BRANCH  27  30
ATOM     30  O   UNL d   1      11.009   9.646  -5.394  0.00  0.00    -0.307 OA
BRANCH  30  31
ATOM     31  C   UNL d   1      11.463   8.887  -4.338  0.00  0.00     0.100 A 
ATOM     32  C   UNL d   1      11.877   9.570  -3.182  0.00  0.00     0.025 A 
ATOM     33  C   UNL d   1      12.335   8.859  -2.062  0.00  0.00     0.002 A 
ATOM     34  C   UNL d   1      12.374   7.459  -2.082  0.00  0.00     0.000 A 
ATOM     35  C   UNL d   1      11.960   6.768  -3.226  0.00  0.00     0.002 A 
ATOM     36  C   UNL d   1      11.500   7.470  -4.353  0.00  0.00     0.025 A 
ENDBRANCH  30  31
ENDBRANCH  27  30
ENDBRANCH  23  24
ENDBRANCH  20  22
ENDBRANCH   1  19
TORSDOF 11
