REMARK  0 active torsions:
REMARK  status: ('A' for Active; 'I' for Inactive)
ROOT
ATOM      1  C   UNL d   1       5.959   4.435 -12.733  0.00  0.00     0.058 C 
ATOM      2  C   UNL d   1       6.598   3.341 -13.519  0.00  0.00     0.074 A 
ATOM      3  O   UNL d   1       5.864   2.202 -13.639  0.00  0.00    -0.316 OA
ATOM      4  C   UNL d   1       6.602   1.303 -14.342  0.00  0.00     0.079 A 
ATOM      5  C   UNL d   1       5.991  -0.052 -14.466  0.00  0.00     0.058 C 
ATOM      6  C   UNL d   1       7.776   1.899 -14.723  0.00  0.00     0.033 A 
ATOM      7  C   UNL d   1       7.817   3.188 -14.125  0.00  0.00    -0.001 A 
ATOM      8  C   UNL d   1       8.991   4.131 -14.134  0.00  0.00     0.029 C 
ATOM      9  C   UNL d   1      10.236   3.441 -13.551  0.00  0.00     0.009 C 
ATOM     10  C   UNL d   1      11.033   2.558 -14.534  0.00  0.00     0.030 C 
ATOM     11  C   UNL d   1      10.238   1.613 -15.411  0.00  0.00     0.016 A 
ATOM     12  C   UNL d   1      10.803   0.789 -16.422  0.00  0.00     0.117 A 
ATOM     13  N   UNL d   1       9.901   0.130 -17.120  0.00  0.00    -0.168 NA
ATOM     14  N   UNL d   1       8.720   0.502 -16.587  0.00  0.00    -0.249 N 
ATOM     15  C   UNL d   1       7.517   0.028 -17.246  0.00  0.00     0.154 C 
ATOM     16  C   UNL d   1       8.891   1.349 -15.496  0.00  0.00     0.077 A 
ENDROOT
TORSDOF 0
