REMARK  8 active torsions:
REMARK  status: ('A' for Active; 'I' for Inactive)
REMARK    1  A    between atoms: C_2  and  C_3 
REMARK    2  A    between atoms: N_13  and  C_14 
REMARK    3  A    between atoms: C_14  and  C_15 
REMARK    4  A    between atoms: C_15  and  C_17 
REMARK    5  A    between atoms: C_17  and  N_18 
REMARK    6  A    between atoms: N_21  and  C_22 
REMARK    7  A    between atoms: C_22  and  C_23 
REMARK    8  A    between atoms: C_22  and  C_29 
ROOT
ATOM      1  N   UNL d   1      10.670   4.286 -16.985  0.00  0.00     0.144 N 
ATOM      2  C   UNL d   1       9.583   5.014 -17.633  0.00  0.00     0.286 C 
ATOM      3  C   UNL d   1       9.899   5.345 -19.093  0.00  0.00     0.286 C 
ATOM      4  N   UNL d   1      11.114   6.162 -19.220  0.00  0.00     0.147 N 
ATOM      5  C   UNL d   1      12.207   5.438 -18.553  0.00  0.00     0.286 C 
ATOM      6  C   UNL d   1      11.873   5.108 -17.092  0.00  0.00     0.286 C 
ENDROOT
BRANCH   1   7
ATOM      7  C   UNL d   1      10.354   4.034 -15.588  0.00  0.00     0.285 C 
BRANCH   7   8
ATOM      8  C   UNL d   1       9.238   2.994 -15.305  0.00  0.00     0.208 C 
ATOM      9  O   UNL d   1       9.626   1.709 -15.760  0.00  0.00    -0.219 OA
BRANCH   8  10
ATOM     10  C   UNL d   1       8.873   2.842 -13.807  0.00  0.00     0.148 C 
BRANCH  10  11
ATOM     11  N   UNL d   1       8.335   4.036 -13.124  0.00  0.00    -0.247 N 
ATOM     12  C   UNL d   1       7.086   4.141 -12.606  0.00  0.00     0.348 A 
ATOM     13  N   UNL d   1       6.994   5.306 -11.942  0.00  0.00    -0.209 NA
ATOM     14  O   UNL d   1       6.207   3.300 -12.681  0.00  0.00    -0.245 OA
ATOM     15  C   UNL d   1       8.236   6.064 -11.982  0.00  0.00     0.179 A 
ATOM     16  C   UNL d   1       7.943   7.409 -12.660  0.00  0.00     0.039 C 
ATOM     17  C   UNL d   1       9.076   5.097 -12.829  0.00  0.00     0.265 A 
ATOM     18  O   UNL d   1      10.262   5.263 -13.123  0.00  0.00    -0.269 OA
BRANCH  15  19
ATOM     19  C   UNL d   1       8.941   6.203 -10.636  0.00  0.00     0.006 A 
ATOM     20  C   UNL d   1       9.863   7.255 -10.407  0.00  0.00     0.000 A 
ATOM     21  C   UNL d   1      10.549   7.363  -9.190  0.00  0.00     0.029 A 
ATOM     22  C   UNL d   1      10.331   6.407  -8.190  0.00  0.00     0.140 A 
ATOM     23  C   UNL d   1       9.450   5.339  -8.427  0.00  0.00     0.029 A 
ATOM     24  F   UNL d   1      10.989   6.496  -7.013  0.00  0.00    -0.204 F 
ATOM     25  C   UNL d   1       8.752   5.227  -9.635  0.00  0.00     0.000 A 
ENDBRANCH  15  19
ENDBRANCH  10  11
ENDBRANCH   8  10
ENDBRANCH   7   8
ENDBRANCH   1   7
BRANCH   4  26
ATOM     26  C   UNL d   1      11.431   6.440 -20.627  0.00  0.00     0.264 C 
BRANCH  26  27
ATOM     27  C   UNL d   1      12.713   7.249 -20.810  0.00  0.00     0.013 A 
ATOM     28  C   UNL d   1      13.649   6.864 -21.793  0.00  0.00    -0.002 A 
ATOM     29  C   UNL d   1      14.832   7.607 -21.972  0.00  0.00    -0.000 A 
ATOM     30  C   UNL d   1      15.084   8.742 -21.175  0.00  0.00    -0.000 A 
ATOM     31  C   UNL d   1      14.154   9.134 -20.194  0.00  0.00    -0.000 A 
ATOM     32  C   UNL d   1      12.977   8.386 -20.012  0.00  0.00    -0.002 A 
ENDBRANCH  26  27
BRANCH  26  33
ATOM     33  C   UNL d   1      10.292   7.129 -21.376  0.00  0.00     0.013 A 
ATOM     34  C   UNL d   1       9.715   6.505 -22.502  0.00  0.00    -0.002 A 
ATOM     35  C   UNL d   1       8.670   7.133 -23.206  0.00  0.00    -0.000 A 
ATOM     36  C   UNL d   1       8.195   8.392 -22.789  0.00  0.00    -0.000 A 
ATOM     37  C   UNL d   1       8.760   9.017 -21.661  0.00  0.00    -0.000 A 
ATOM     38  C   UNL d   1       9.805   8.389 -20.958  0.00  0.00    -0.002 A 
ENDBRANCH  26  33
ENDBRANCH   4  26
TORSDOF 8
