REMARK  6 active torsions:
REMARK  status: ('A' for Active; 'I' for Inactive)
REMARK    1  A    between atoms: S_2  and  C_4 
REMARK    2  A    between atoms: S_2  and  C_15 
REMARK    3  A    between atoms: C_7  and  N_8 
REMARK    4  A    between atoms: N_19  and  C_20 
REMARK    5  A    between atoms: C_20  and  C_21 
REMARK    6  A    between atoms: C_21  and  C_22 
ROOT
ATOM      1  C   UNL d   1       8.914   5.631 -11.054  0.00  0.00     0.234 C 
ATOM      2  F   UNL d   1       9.824   4.693 -11.293  0.00  0.00    -0.223 F 
ATOM      3  C   UNL d   1       9.595   7.008 -10.916  0.00  0.00     0.084 C 
ATOM      4  C   UNL d   1      10.473   7.092  -9.667  0.00  0.00     0.254 C 
ATOM      5  N   UNL d   1       9.688   6.764  -8.487  0.00  0.00     0.138 N 
ATOM      6  C   UNL d   1       9.159   5.406  -8.561  0.00  0.00     0.254 C 
ATOM      7  C   UNL d   1       8.226   5.275  -9.753  0.00  0.00     0.084 C 
ENDROOT
BRANCH   1   8
ATOM      8  S   UNL d   1       7.698   5.640 -12.460  0.00  0.00     0.216 S 
ATOM      9  O   UNL d   1       7.795   6.946 -13.121  0.00  0.00    -0.219 OA
ATOM     10  O   UNL d   1       6.368   5.165 -12.041  0.00  0.00    -0.219 OA
BRANCH   8  11
ATOM     11  C   UNL d   1       8.348   4.434 -13.603  0.00  0.00     0.086 A 
ATOM     12  C   UNL d   1       9.561   4.667 -14.274  0.00  0.00     0.013 A 
ATOM     13  C   UNL d   1      10.077   3.679 -15.138  0.00  0.00     0.020 A 
ATOM     14  C   UNL d   1       9.383   2.461 -15.332  0.00  0.00     0.085 A 
ATOM     15  C   UNL d   1       8.165   2.245 -14.641  0.00  0.00     0.020 A 
ATOM     16  C   UNL d   1       7.649   3.227 -13.780  0.00  0.00     0.013 A 
BRANCH  14  17
ATOM     17  N   UNL d   1       9.902   1.467 -16.207  0.00  0.00    -0.209 N 
ATOM     18  N   UNL d   1       9.344   0.229 -16.273  0.00  0.00    -0.059 NA
ATOM     19  N   UNL d   1       9.995  -0.460 -17.154  0.00  0.00    -0.127 NA
ATOM     20  C   UNL d   1      11.007   0.329 -17.689  0.00  0.00     0.145 A 
ATOM     21  C   UNL d   1      10.962   1.558 -17.097  0.00  0.00     0.125 A 
ENDBRANCH  14  17
ENDBRANCH   8  11
ENDBRANCH   1   8
BRANCH   5  22
ATOM     22  C   UNL d   1      10.508   6.863  -7.300  0.00  0.00     0.255 C 
BRANCH  22  23
ATOM     23  C   UNL d   1      10.497   8.267  -6.679  0.00  0.00     0.064 C 
BRANCH  23  24
ATOM     24  C   UNL d   1      11.125   8.304  -5.282  0.00  0.00     0.007 A 
ATOM     25  C   UNL d   1      11.310   9.543  -4.630  0.00  0.00     0.138 A 
ATOM     26  C   UNL d   1      11.865   9.587  -3.331  0.00  0.00     0.059 A 
ATOM     27  F   UNL d   1      10.949  10.697  -5.243  0.00  0.00    -0.204 F 
ATOM     28  C   UNL d   1      12.244   8.400  -2.682  0.00  0.00     0.142 A 
ATOM     29  C   UNL d   1      12.058   7.163  -3.322  0.00  0.00     0.029 A 
ATOM     30  F   UNL d   1      12.776   8.441  -1.439  0.00  0.00    -0.204 F 
ATOM     31  C   UNL d   1      11.504   7.114  -4.606  0.00  0.00     0.000 A 
ENDBRANCH  23  24
ENDBRANCH  22  23
ENDBRANCH   5  22
TORSDOF 6
