REMARK  9 active torsions:
REMARK  status: ('A' for Active; 'I' for Inactive)
REMARK    1  A    between atoms: C_2  and  C_4 
REMARK    2  A    between atoms: C_9  and  O_10 
REMARK    3  A    between atoms: O_10  and  C_11 
REMARK    4  A    between atoms: C_11  and  C_12 
REMARK    5  A    between atoms: C_12  and  C_13 
REMARK    6  A    between atoms: C_13  and  N_14 
REMARK    7  A    between atoms: C_17  and  C_18 
REMARK    8  A    between atoms: N_20  and  C_21 
REMARK    9  A    between atoms: C_21  and  C_22 
ROOT
ATOM      1  N   UNL d   1       8.275   4.723 -11.118  0.00  0.00     0.142 N 
ATOM      2  C   UNL d   1       9.655   4.568 -11.579  0.00  0.00     0.276 C 
ATOM      3  C   UNL d   1       9.759   3.787 -12.871  0.00  0.00     0.005 C 
ATOM      4  C   UNL d   1       8.705   3.479 -13.639  0.00  0.00    -0.021 C 
ATOM      5  C   UNL d   1       7.339   4.013 -13.239  0.00  0.00     0.061 C 
ATOM      6  C   UNL d   1       7.414   5.149 -12.210  0.00  0.00     0.255 C 
ENDROOT
BRANCH   4   7
ATOM      7  C   UNL d   1       8.886   2.710 -14.879  0.00  0.00     0.015 A 
ATOM      8  C   UNL d   1       7.955   1.787 -15.452  0.00  0.00     0.017 A 
ATOM      9  C   UNL d   1       8.573   1.267 -16.632  0.00  0.00     0.060 A 
ATOM     10  C   UNL d   1       6.663   1.312 -15.128  0.00  0.00     0.002 A 
ATOM     11  N   UNL d   1       9.821   1.877 -16.742  0.00  0.00    -0.322 N 
ATOM     12  C   UNL d   1       7.917   0.316 -17.440  0.00  0.00     0.017 A 
ATOM     13  C   UNL d   1      10.009   2.729 -15.657  0.00  0.00     0.076 A 
ATOM     14  C   UNL d   1       6.629  -0.131 -17.088  0.00  0.00     0.002 A 
ATOM     15  C   UNL d   1       6.001   0.370 -15.937  0.00  0.00     0.000 A 
BRANCH  11  16
ATOM     16  C   UNL d   1      10.803   1.631 -17.786  0.00  0.00     0.133 C 
BRANCH  16  17
ATOM     17  C   UNL d   1      11.542   2.898 -18.177  0.00  0.00     0.000 A 
ATOM     18  C   UNL d   1      12.757   3.235 -17.544  0.00  0.00    -0.002 A 
ATOM     19  C   UNL d   1      13.424   4.429 -17.877  0.00  0.00    -0.000 A 
ATOM     20  C   UNL d   1      12.878   5.288 -18.851  0.00  0.00    -0.000 A 
ATOM     21  C   UNL d   1      11.665   4.956 -19.484  0.00  0.00    -0.000 A 
ATOM     22  C   UNL d   1      10.995   3.764 -19.146  0.00  0.00    -0.002 A 
ENDBRANCH  16  17
ENDBRANCH  11  16
ENDBRANCH   4   7
BRANCH   1  23
ATOM     23  C   UNL d   1       8.213   5.665 -10.019  0.00  0.00     0.253 C 
BRANCH  23  24
ATOM     24  C   UNL d   1       8.664   5.034  -8.695  0.00  0.00     0.068 C 
BRANCH  24  25
ATOM     25  C   UNL d   1       8.744   6.078  -7.583  0.00  0.00     0.151 C 
BRANCH  25  26
ATOM     26  O   UNL d   1       9.518   7.171  -8.022  0.00  0.00    -0.331 OA
BRANCH  26  27
ATOM     27  C   UNL d   1      10.347   7.812  -7.128  0.00  0.00     0.099 A 
ATOM     28  C   UNL d   1      11.365   8.607  -7.676  0.00  0.00     0.082 A 
ATOM     29  C   UNL d   1      12.255   9.291  -6.828  0.00  0.00     0.007 A 
ATOM     30  C   UNL d   1      12.158   9.191  -5.429  0.00  0.00     0.000 A 
ATOM     31  C   UNL d   1      11.158   8.379  -4.875  0.00  0.00     0.002 A 
ATOM     32  C   UNL d   1      10.257   7.699  -5.718  0.00  0.00     0.024 A 
BRANCH  28  33
ATOM     33  C   UNL d   1      11.499   8.713  -9.161  0.00  0.00     0.299 C 
ATOM     34  N   UNL d   1      12.675   8.339  -9.643  0.00  0.00    -0.102 N 
ATOM     35  O   UNL d   1      10.578   9.094  -9.879  0.00  0.00    -0.264 OA
ENDBRANCH  28  33
ENDBRANCH  26  27
ENDBRANCH  25  26
ENDBRANCH  24  25
ENDBRANCH  23  24
ENDBRANCH   1  23
TORSDOF 9
