REMARK  10 active torsions:
REMARK  status: ('A' for Active; 'I' for Inactive)
REMARK    1  A    between atoms: O_2  and  C_3 
REMARK    2  A    between atoms: C_8  and  N_9 
REMARK    3  A    between atoms: N_12  and  C_13 
REMARK    4  A    between atoms: C_13  and  C_14 
REMARK    5  A    between atoms: C_14  and  C_15 
REMARK    6  A    between atoms: C_15  and  C_16 
REMARK    7  A    between atoms: C_16  and  N_17 
REMARK       I    between atoms: N_17  and  C_18 
REMARK    8  A    between atoms: C_18  and  C_20 
REMARK    9  A    between atoms: C_23  and  C_24 
REMARK   10  A    between atoms: C_24  and  C_26 
ROOT
ATOM      1  C   UNL d   1       9.155   5.213 -12.799  0.00  0.00     0.129 C 
ENDROOT
BRANCH   1   2
ATOM      2  C   UNL d   1      10.254   4.156 -12.991  0.00  0.00     0.029 C 
BRANCH   2   3
ATOM      3  C   UNL d   1       9.934   3.312 -14.206  0.00  0.00     0.037 C 
BRANCH   3   4
ATOM      4  C   UNL d   1      10.986   2.205 -14.494  0.00  0.00     0.251 C 
BRANCH   4   5
ATOM      5  N   UNL d   1      10.648   1.337 -15.614  0.00  0.00     0.141 N 
ATOM      6  C   UNL d   1      10.889   2.017 -16.890  0.00  0.00     0.274 C 
ATOM      7  C   UNL d   1      10.576   1.087 -18.075  0.00  0.00     0.137 C 
ATOM      8  N   UNL d   1       9.237   0.555 -17.950  0.00  0.00    -0.343 N 
ATOM      9  C   UNL d   1       8.937  -0.096 -16.686  0.00  0.00     0.137 C 
ATOM     10  C   UNL d   1       9.261   0.854 -15.544  0.00  0.00     0.274 C 
BRANCH   8  11
ATOM     11  C   UNL d   1       8.269   0.670 -19.000  0.00  0.00     0.079 A 
ATOM     12  C   UNL d   1       7.347  -0.368 -19.257  0.00  0.00     0.110 A 
ATOM     13  C   UNL d   1       6.393  -0.207 -20.293  0.00  0.00     0.026 A 
ATOM     14  C   UNL d   1       6.381   0.957 -21.084  0.00  0.00     0.002 A 
ATOM     15  C   UNL d   1       7.319   1.970 -20.847  0.00  0.00     0.002 A 
ATOM     16  C   UNL d   1       8.252   1.838 -19.797  0.00  0.00     0.019 A 
BRANCH  12  17
ATOM     17  O   UNL d   1       7.440  -1.532 -18.514  0.00  0.00    -0.327 OA
ATOM     18  C   UNL d   1       6.437  -2.514 -18.631  0.00  0.00     0.181 C 
ENDBRANCH  12  17
ENDBRANCH   8  11
ENDBRANCH   4   5
ENDBRANCH   3   4
ENDBRANCH   2   3
ENDBRANCH   1   2
BRANCH   1  19
ATOM     19  N   UNL d   1       9.439   6.033 -11.649  0.00  0.00    -0.234 NA
ATOM     20  C   UNL d   1       9.060   5.750 -10.394  0.00  0.00     0.275 C 
ATOM     21  O   UNL d   1       8.351   4.792 -10.116  0.00  0.00    -0.266 OA
BRANCH  20  22
ATOM     22  C   UNL d   1       9.618   6.639  -9.329  0.00  0.00     0.058 A 
ATOM     23  C   UNL d   1       9.309   6.372  -7.976  0.00  0.00     0.005 A 
ATOM     24  C   UNL d   1       9.765   7.221  -6.962  0.00  0.00     0.003 A 
ATOM     25  C   UNL d   1      10.594   8.326  -7.264  0.00  0.00     0.039 A 
ATOM     26  C   UNL d   1      10.889   8.603  -8.620  0.00  0.00     0.003 A 
ATOM     27  C   UNL d   1      10.402   7.774  -9.640  0.00  0.00     0.005 A 
BRANCH  25  28
ATOM     28  C   UNL d   1      11.137   9.228  -6.207  0.00  0.00     0.196 C 
ATOM     29  O   UNL d   1      11.315  10.423  -6.438  0.00  0.00    -0.287 OA
BRANCH  28  30
ATOM     30  C   UNL d   1      11.501   8.649  -4.876  0.00  0.00     0.039 A 
ATOM     31  C   UNL d   1      11.784   7.273  -4.690  0.00  0.00     0.003 A 
ATOM     32  C   UNL d   1      12.104   6.774  -3.425  0.00  0.00     0.000 A 
ATOM     33  C   UNL d   1      12.215   7.636  -2.325  0.00  0.00     0.000 A 
ATOM     34  C   UNL d   1      11.981   9.009  -2.499  0.00  0.00     0.000 A 
ATOM     35  C   UNL d   1      11.616   9.514  -3.760  0.00  0.00     0.003 A 
ENDBRANCH  28  30
ENDBRANCH  25  28
ENDBRANCH  20  22
ENDBRANCH   1  19
TORSDOF 10
