REMARK  7 active torsions:
REMARK  status: ('A' for Active; 'I' for Inactive)
REMARK    1  A    between atoms: C_2  and  C_3 
REMARK    2  A    between atoms: C_2  and  C_21 
REMARK    3  A    between atoms: C_3  and  C_4 
REMARK    4  A    between atoms: C_4  and  C_5 
REMARK    5  A    between atoms: C_5  and  C_6 
REMARK    6  A    between atoms: C_6  and  N_7 
REMARK    7  A    between atoms: C_10  and  C_12 
ROOT
ATOM      1  N   UNL d   1       9.831   6.393 -10.118  0.00  0.00     0.137 N 
ATOM      2  C   UNL d   1       8.853   6.009  -9.099  0.00  0.00     0.253 C 
ATOM      3  C   UNL d   1       9.423   6.291  -7.724  0.00  0.00     0.070 C 
ATOM      4  C   UNL d   1       9.851   7.755  -7.501  0.00  0.00     0.149 C 
ATOM      5  O   UNL d   1       8.685   8.561  -7.542  0.00  0.00    -0.221 OA
ATOM      6  C   UNL d   1      10.745   8.181  -8.679  0.00  0.00     0.070 C 
ATOM      7  C   UNL d   1      10.117   7.829 -10.042  0.00  0.00     0.253 C 
ENDROOT
BRANCH   1   8
ATOM      8  C   UNL d   1       9.269   6.107 -11.421  0.00  0.00     0.250 C 
BRANCH   8   9
ATOM      9  C   UNL d   1       9.251   4.607 -11.670  0.00  0.00     0.036 C 
BRANCH   9  10
ATOM     10  C   UNL d   1       8.644   4.211 -13.003  0.00  0.00     0.010 C 
BRANCH  10  11
ATOM     11  C   UNL d   1       9.466   4.662 -14.242  0.00  0.00     0.069 C 
BRANCH  11  12
ATOM     12  C   UNL d   1      10.723   3.843 -14.513  0.00  0.00     0.173 C 
ATOM     13  O   UNL d   1      11.815   4.328 -14.238  0.00  0.00    -0.291 OA
BRANCH  12  14
ATOM     14  C   UNL d   1      10.558   2.541 -15.232  0.00  0.00     0.035 A 
ATOM     15  C   UNL d   1      11.509   2.128 -16.208  0.00  0.00     0.005 A 
ATOM     16  C   UNL d   1      11.364   0.887 -16.874  0.00  0.00     0.030 A 
ATOM     17  C   UNL d   1      10.302   0.027 -16.552  0.00  0.00     0.140 A 
ATOM     18  C   UNL d   1       9.357   0.419 -15.573  0.00  0.00     0.030 A 
ATOM     19  F   UNL d   1      10.172  -1.173 -17.167  0.00  0.00    -0.204 F 
ATOM     20  C   UNL d   1       9.467   1.675 -14.916  0.00  0.00     0.005 A 
ENDBRANCH  12  14
ENDBRANCH  11  12
ENDBRANCH  10  11
ENDBRANCH   9  10
ENDBRANCH   8   9
ENDBRANCH   1   8
BRANCH   4  21
ATOM     21  C   UNL d   1      10.588   7.939  -6.165  0.00  0.00     0.005 A 
ATOM     22  C   UNL d   1      10.951   6.832  -5.360  0.00  0.00    -0.001 A 
ATOM     23  C   UNL d   1      11.590   6.999  -4.123  0.00  0.00     0.011 A 
ATOM     24  C   UNL d   1      11.871   8.289  -3.664  0.00  0.00     0.058 A 
ATOM     25  C   UNL d   1      11.530   9.398  -4.461  0.00  0.00     0.011 A 
ATOM     26 CL   UNL d   1      12.652   8.495  -2.122  0.00  0.00    -0.082 Cl
ATOM     27  C   UNL d   1      10.895   9.234  -5.712  0.00  0.00    -0.001 A 
ENDBRANCH   4  21
TORSDOF 7
