REMARK  9 active torsions:
REMARK  status: ('A' for Active; 'I' for Inactive)
REMARK    1  A    between atoms: C_2  and  C_3 
REMARK    2  A    between atoms: C_3  and  N_4 
REMARK    3  A    between atoms: N_4  and  C_5 
REMARK    4  A    between atoms: N_4  and  C_26 
REMARK    5  A    between atoms: C_5  and  C_6 
REMARK    6  A    between atoms: C_6  and  C_7 
REMARK    7  A    between atoms: C_10  and  N_11 
REMARK    8  A    between atoms: N_11  and  C_12 
REMARK    9  A    between atoms: C_15  and  N_16 
ROOT
ATOM      1  C   UNL d   1      10.387   3.860 -13.957  0.00  0.00    -0.020 A 
ATOM      2  C   UNL d   1      10.850   5.043 -14.582  0.00  0.00    -0.003 A 
ATOM      3  C   UNL d   1      11.609   4.952 -15.773  0.00  0.00     0.019 A 
ATOM      4  C   UNL d   1      11.930   3.680 -16.310  0.00  0.00     0.081 A 
ATOM      5  C   UNL d   1      11.525   2.514 -15.611  0.00  0.00     0.019 A 
ATOM      6  C   UNL d   1      10.704   2.607 -14.492  0.00  0.00    -0.003 A 
ENDROOT
BRANCH   1   7
ATOM      7  C   UNL d   1       9.585   3.903 -12.683  0.00  0.00     0.062 C 
BRANCH   7   8
ATOM      8  C   UNL d   1       8.242   4.602 -12.964  0.00  0.00     0.255 C 
BRANCH   8   9
ATOM      9  N   UNL d   1       7.385   4.677 -11.778  0.00  0.00     0.136 N 
BRANCH   9  10
ATOM     10  C   UNL d   1       6.028   5.100 -12.147  0.00  0.00     0.250 C 
BRANCH  10  11
ATOM     11  C   UNL d   1       5.353   4.148 -13.171  0.00  0.00     0.035 C 
ATOM     12  C   UNL d   1       5.258   2.717 -12.633  0.00  0.00     0.002 C 
ENDBRANCH  10  11
ENDBRANCH   9  10
BRANCH   9  13
ATOM     13  C   UNL d   1       7.937   5.492 -10.681  0.00  0.00     0.224 C 
ATOM     14  C   UNL d   1       8.886   6.626 -11.156  0.00  0.00     0.059 C 
ATOM     15  C   UNL d   1       9.693   7.247 -10.051  0.00  0.00    -0.022 A 
ATOM     16  C   UNL d   1       9.806   6.690  -8.758  0.00  0.00    -0.001 A 
ATOM     17  C   UNL d   1      10.417   8.403 -10.384  0.00  0.00    -0.004 A 
ATOM     18  C   UNL d   1       9.036   5.432  -8.395  0.00  0.00     0.030 C 
ATOM     19  C   UNL d   1      10.613   7.335  -7.788  0.00  0.00     0.127 A 
ATOM     20  C   UNL d   1       8.566   4.602  -9.592  0.00  0.00     0.038 C 
ATOM     21  O   UNL d   1      10.716   6.845  -6.516  0.00  0.00    -0.191 OA
ATOM     22  C   UNL d   1      11.297   8.521  -8.125  0.00  0.00     0.027 A 
ATOM     23  C   UNL d   1      11.208   9.046  -9.428  0.00  0.00     0.002 A 
ENDBRANCH   9  13
ENDBRANCH   8   9
ENDBRANCH   7   8
ENDBRANCH   1   7
BRANCH   4  24
ATOM     24  N   UNL d   1      12.644   3.637 -17.515  0.00  0.00    -0.244 NA
BRANCH  24  25
ATOM     25  C   UNL d   1      13.033   2.522 -18.298  0.00  0.00     0.103 A 
ATOM     26  C   UNL d   1      12.281   1.361 -18.462  0.00  0.00     0.149 A 
ATOM     27  C   UNL d   1      12.841   0.223 -19.119  0.00  0.00     0.153 A 
ATOM     28  N   UNL d   1      11.034   1.052 -18.071  0.00  0.00    -0.100 NA
ATOM     29  C   UNL d   1      14.086   0.292 -19.743  0.00  0.00     0.148 A 
ATOM     30  N   UNL d   1      12.017  -0.815 -18.974  0.00  0.00    -0.100 NA
ATOM     31  C   UNL d   1      14.800   1.509 -19.660  0.00  0.00     0.027 A 
ATOM     32  C   UNL d   1      14.290   2.597 -18.929  0.00  0.00     0.022 A 
ATOM     33  O   UNL d   1      10.897  -0.302 -18.341  0.00  0.00    -0.106 OA
BRANCH  29  34
ATOM     34  N   UNL d   1      14.646  -0.833 -20.520  0.00  0.00    -0.112 N 
ATOM     35  O   UNL d   1      15.837  -0.792 -20.812  0.00  0.00    -0.532 OA
ATOM     36  O   UNL d   1      13.886  -1.737 -20.873  0.00  0.00    -0.532 OA
ENDBRANCH  29  34
ENDBRANCH  24  25
ENDBRANCH   4  24
TORSDOF 9
