REMARK  4 active torsions:
REMARK  status: ('A' for Active; 'I' for Inactive)
REMARK    1  A    between atoms: N_2  and  C_3 
REMARK    2  A    between atoms: C_3  and  C_4 
REMARK    3  A    between atoms: N_13  and  S_14 
REMARK    4  A    between atoms: S_14  and  C_17 
ROOT
ATOM      1  C   UNL d   1       9.657   5.125  -9.993  0.00  0.00     0.062 A 
ATOM      2  C   UNL d   1       8.345   4.763  -9.193  0.00  0.00     0.033 A 
ATOM      3  C   UNL d   1       8.770   5.781  -8.174  0.00  0.00    -0.026 A 
ATOM      4  C   UNL d   1       8.373   6.415  -6.998  0.00  0.00    -0.003 A 
ATOM      5  C   UNL d   1       9.237   7.438  -6.557  0.00  0.00     0.018 A 
ATOM      6  C   UNL d   1      10.393   7.802  -7.310  0.00  0.00     0.075 A 
ATOM      7  C   UNL d   1      10.726   7.155  -8.490  0.00  0.00     0.014 A 
ATOM      8  C   UNL d   1      11.918   7.657  -9.051  0.00  0.00     0.021 A 
ATOM      9  C   UNL d   1      12.340   8.583  -8.129  0.00  0.00     0.092 A 
ATOM     10  N   UNL d   1      11.412   8.701  -7.090  0.00  0.00    -0.231 N 
ATOM     11  C   UNL d   1       9.916   6.134  -8.920  0.00  0.00    -0.023 A 
ENDROOT
BRANCH  10  12
ATOM     12  S   UNL d   1      11.573   9.701  -5.707  0.00  0.00     0.271 S 
ATOM     13  O   UNL d   1      12.614  10.636  -6.139  0.00  0.00    -0.200 OA
ATOM     14  O   UNL d   1      10.266  10.176  -5.294  0.00  0.00    -0.200 OA
BRANCH  12  15
ATOM     15  C   UNL d   1      12.051   8.685  -4.370  0.00  0.00     0.104 C 
ATOM     16  C   UNL d   1      12.343   9.269  -3.128  0.00  0.00     0.013 C 
ATOM     17  C   UNL d   1      12.657   8.453  -2.015  0.00  0.00     0.001 C 
ATOM     18  C   UNL d   1      12.601   7.052  -2.128  0.00  0.00     0.000 C 
ATOM     19  C   UNL d   1      12.237   6.497  -3.356  0.00  0.00     0.001 C 
ATOM     20  C   UNL d   1      11.912   7.295  -4.454  0.00  0.00     0.013 C 
ENDBRANCH  12  15
ENDBRANCH  10  12
BRANCH   1  21
ATOM     21  C   UNL d   1       9.623   5.779 -11.366  0.00  0.00     0.295 C 
BRANCH  21  22
ATOM     22  N   UNL d   1       9.360   4.757 -12.370  0.00  0.00     0.342 N 
ATOM     23  C   UNL d   1      10.160   4.967 -13.563  0.00  0.00     0.328 C 
ENDBRANCH  21  22
ENDBRANCH   1  21
TORSDOF 4
