REMARK  8 active torsions:
REMARK  status: ('A' for Active; 'I' for Inactive)
REMARK    1  A    between atoms: C_2  and  C_3 
REMARK    2  A    between atoms: C_3  and  N_4 
REMARK    3  A    between atoms: N_4  and  C_5 
REMARK    4  A    between atoms: N_4  and  C_8 
REMARK    5  A    between atoms: C_5  and  C_6 
REMARK    6  A    between atoms: C_13  and  C_14 
REMARK    7  A    between atoms: C_14  and  C_15 
REMARK    8  A    between atoms: C_15  and  C_16 
ROOT
ATOM      1  C   UNL d   1       7.417   1.784 -14.804  0.00  0.00     0.224 C 
ATOM      2  C   UNL d   1       8.738   2.388 -15.324  0.00  0.00     0.038 C 
ATOM      3  C   UNL d   1       9.531   3.075 -14.214  0.00  0.00     0.028 C 
ATOM      4  C   UNL d   1       8.674   3.976 -13.345  0.00  0.00    -0.026 A 
ATOM      5  C   UNL d   1       9.327   4.928 -12.542  0.00  0.00    -0.009 A 
ATOM      6  C   UNL d   1       8.582   5.762 -11.695  0.00  0.00    -0.022 A 
ATOM      7  C   UNL d   1       7.182   5.650 -11.640  0.00  0.00    -0.005 A 
ATOM      8  C   UNL d   1       6.522   4.700 -12.443  0.00  0.00    -0.005 A 
ATOM      9  C   UNL d   1       7.263   3.862 -13.303  0.00  0.00    -0.024 A 
ATOM     10  C   UNL d   1       6.514   2.866 -14.173  0.00  0.00     0.059 C 
ENDROOT
BRANCH   6  11
ATOM     11  C   UNL d   1       9.293   6.786 -10.830  0.00  0.00     0.031 C 
BRANCH  11  12
ATOM     12  C   UNL d   1       9.292   6.402  -9.339  0.00  0.00     0.031 C 
BRANCH  12  13
ATOM     13  C   UNL d   1      10.089   7.369  -8.478  0.00  0.00    -0.022 A 
ATOM     14  C   UNL d   1       9.514   7.925  -7.316  0.00  0.00    -0.004 A 
ATOM     15  C   UNL d   1      10.265   8.816  -6.519  0.00  0.00    -0.000 A 
ATOM     16  C   UNL d   1      11.581   9.161  -6.882  0.00  0.00    -0.000 A 
ATOM     17  C   UNL d   1      12.156   8.603  -8.036  0.00  0.00    -0.000 A 
ATOM     18  C   UNL d   1      11.413   7.709  -8.830  0.00  0.00    -0.004 A 
ENDBRANCH  12  13
ENDBRANCH  11  12
ENDBRANCH   6  11
BRANCH   1  19
ATOM     19  N   UNL d   1       6.646   0.989 -15.798  0.00  0.00     0.135 N 
BRANCH  19  20
ATOM     20  C   UNL d   1       7.094   1.147 -17.181  0.00  0.00     0.250 C 
BRANCH  20  21
ATOM     21  C   UNL d   1       6.082   0.639 -18.221  0.00  0.00     0.035 C 
ATOM     22  C   UNL d   1       6.601   0.814 -19.651  0.00  0.00     0.002 C 
ENDBRANCH  20  21
ENDBRANCH  19  20
BRANCH  19  23
ATOM     23  C   UNL d   1       6.529  -0.408 -15.389  0.00  0.00     0.250 C 
BRANCH  23  24
ATOM     24  C   UNL d   1       5.556  -0.601 -14.212  0.00  0.00     0.035 C 
ATOM     25  C   UNL d   1       4.095  -0.742 -14.660  0.00  0.00     0.002 C 
ENDBRANCH  23  24
ENDBRANCH  19  23
ENDBRANCH   1  19
TORSDOF 8
