REMARK  4 active torsions:
REMARK  status: ('A' for Active; 'I' for Inactive)
REMARK    1  A    between atoms: C_7  and  C_8 
REMARK    2  A    between atoms: C_8  and  N_9 
REMARK    3  A    between atoms: C_12  and  N_13 
REMARK    4  A    between atoms: C_16  and  N_17 
ROOT
ATOM      1  N   UNL d   1       8.995   5.904  -9.693  0.00  0.00     0.135 N 
ATOM      2  C   UNL d   1      10.456   6.043  -9.617  0.00  0.00     0.252 C 
ATOM      3  C   UNL d   1      10.854   7.107  -8.623  0.00  0.00     0.058 C 
ATOM      4  C   UNL d   1      10.339   6.733  -7.217  0.00  0.00     0.094 C 
ATOM      5  C   UNL d   1       8.833   6.428  -7.285  0.00  0.00     0.058 C 
ATOM      6  C   UNL d   1       8.540   5.403  -8.381  0.00  0.00     0.252 C 
ENDROOT
BRANCH   1   7
ATOM      7  C   UNL d   1       8.623   4.903 -10.716  0.00  0.00     0.223 C 
ATOM      8  C   UNL d   1       9.771   4.487 -11.686  0.00  0.00     0.069 C 
ATOM      9  C   UNL d   1       9.444   3.506 -12.798  0.00  0.00     0.253 C 
ATOM     10  N   UNL d   1       8.340   4.058 -13.581  0.00  0.00     0.141 N 
ATOM     11  C   UNL d   1       7.169   4.283 -12.708  0.00  0.00     0.253 C 
ATOM     12  C   UNL d   1       7.469   5.354 -11.614  0.00  0.00     0.069 C 
BRANCH  10  13
ATOM     13  C   UNL d   1       8.044   3.066 -14.600  0.00  0.00     0.276 C 
BRANCH  13  14
ATOM     14  C   UNL d   1       9.220   2.750 -15.527  0.00  0.00     0.007 A 
ATOM     15  C   UNL d   1      10.031   3.750 -16.134  0.00  0.00    -0.024 A 
ATOM     16  C   UNL d   1       9.785   5.233 -15.924  0.00  0.00     0.031 C 
ATOM     17  C   UNL d   1      11.121   3.371 -16.945  0.00  0.00    -0.004 A 
ATOM     18  C   UNL d   1      11.406   2.010 -17.162  0.00  0.00    -0.000 A 
ATOM     19  C   UNL d   1      10.602   1.021 -16.567  0.00  0.00    -0.000 A 
ATOM     20  C   UNL d   1       9.519   1.387 -15.751  0.00  0.00    -0.003 A 
ENDBRANCH  13  14
ENDBRANCH  10  13
ENDBRANCH   1   7
BRANCH   4  21
ATOM     21  N   UNL d   1      10.605   7.833  -6.287  0.00  0.00    -0.281 N 
ATOM     22  C   UNL d   1      11.244   7.707  -5.051  0.00  0.00     0.084 A 
ATOM     23  C   UNL d   1      11.325   8.975  -4.530  0.00  0.00     0.129 A 
ATOM     24  C   UNL d   1      11.714   6.606  -4.325  0.00  0.00     0.019 A 
ATOM     25  N   UNL d   1      10.737   9.843  -5.451  0.00  0.00    -0.189 NA
ATOM     26  C   UNL d   1      11.836   9.213  -3.267  0.00  0.00     0.159 A 
ATOM     27  C   UNL d   1      10.346   9.125  -6.503  0.00  0.00     0.350 A 
ATOM     28  O   UNL d   1       9.845   9.573  -7.526  0.00  0.00    -0.244 OA
ATOM     29  F   UNL d   1      11.778  10.451  -2.785  0.00  0.00    -0.203 F 
ATOM     30  C   UNL d   1      12.331   8.133  -2.511  0.00  0.00     0.031 A 
ATOM     31  C   UNL d   1      12.265   6.816  -3.042  0.00  0.00     0.004 A 
ENDBRANCH   4  21
TORSDOF 4
