REMARK  10 active torsions:
REMARK  status: ('A' for Active; 'I' for Inactive)
REMARK    1  A    between atoms: C_2  and  N_3 
REMARK    2  A    between atoms: N_3  and  C_4 
REMARK    3  A    between atoms: N_3  and  C_23 
REMARK    4  A    between atoms: C_4  and  C_5 
REMARK    5  A    between atoms: C_8  and  C_9 
REMARK    6  A    between atoms: C_11  and  S_12 
REMARK    7  A    between atoms: S_12  and  C_15 
REMARK    8  A    between atoms: C_19  and  O_20 
REMARK    9  A    between atoms: C_23  and  C_24 
REMARK   10  A    between atoms: C_29  and  O_30 
ROOT
ATOM      1  C   UNL d   1      10.271   0.839 -16.678  0.00  0.00     0.092 A 
ATOM      2  C   UNL d   1       9.327  -0.004 -17.207  0.00  0.00     0.018 A 
ATOM      3  C   UNL d   1       8.075   0.288 -16.585  0.00  0.00     0.020 A 
ATOM      4  C   UNL d   1       8.286   1.259 -15.644  0.00  0.00     0.083 A 
ATOM      5  N   UNL d   1       9.620   1.585 -15.726  0.00  0.00    -0.248 NA
ENDROOT
BRANCH   1   6
ATOM      6  C   UNL d   1      11.736   1.057 -16.941  0.00  0.00     0.296 C 
BRANCH   6   7
ATOM      7  N   UNL d   1      12.059   1.643 -18.248  0.00  0.00     0.147 N 
BRANCH   7   8
ATOM      8  C   UNL d   1      11.691   0.783 -19.379  0.00  0.00     0.251 C 
ATOM      9  C   UNL d   1      12.449  -0.557 -19.393  0.00  0.00     0.037 C 
ENDBRANCH   7   8
BRANCH   7  10
ATOM     10  C   UNL d   1      11.463   2.972 -18.436  0.00  0.00     0.279 C 
BRANCH  10  11
ATOM     11  C   UNL d   1      11.930   4.051 -17.468  0.00  0.00     0.033 A 
ATOM     12  C   UNL d   1      13.180   4.688 -17.640  0.00  0.00     0.092 A 
ATOM     13  C   UNL d   1      13.551   5.725 -16.741  0.00  0.00     0.024 A 
ATOM     14  C   UNL d   1      12.689   6.115 -15.700  0.00  0.00     0.002 A 
ATOM     15  C   UNL d   1      11.457   5.464 -15.528  0.00  0.00    -0.000 A 
ATOM     16  C   UNL d   1      11.068   4.460 -16.426  0.00  0.00    -0.000 A 
BRANCH  12  17
ATOM     17  O   UNL d   1      13.964   4.285 -18.703  0.00  0.00    -0.328 OA
ATOM     18  C   UNL d   1      15.195   4.954 -18.915  0.00  0.00     0.181 C 
ENDBRANCH  12  17
ENDBRANCH  10  11
ENDBRANCH   7  10
ENDBRANCH   6   7
ENDBRANCH   1   6
BRANCH   4  19
ATOM     19  C   UNL d   1       7.426   1.929 -14.665  0.00  0.00     0.041 A 
ATOM     20  C   UNL d   1       6.237   1.311 -14.203  0.00  0.00     0.096 A 
ATOM     21  C   UNL d   1       5.457   1.958 -13.213  0.00  0.00     0.025 A 
ATOM     22  C   UNL d   1       5.844   3.201 -12.678  0.00  0.00     0.013 A 
ATOM     23  C   UNL d   1       7.012   3.817 -13.150  0.00  0.00     0.084 A 
ATOM     24  C   UNL d   1       7.801   3.187 -14.130  0.00  0.00     0.015 A 
BRANCH  20  25
ATOM     25  O   UNL d   1       5.907   0.074 -14.717  0.00  0.00    -0.328 OA
ATOM     26  C   UNL d   1       4.624  -0.467 -14.458  0.00  0.00     0.181 C 
ENDBRANCH  20  25
BRANCH  23  27
ATOM     27  S   UNL d   1       7.533   5.370 -12.439  0.00  0.00     0.190 S 
ATOM     28  O   UNL d   1       7.950   5.092 -11.059  0.00  0.00    -0.222 OA
ATOM     29  O   UNL d   1       8.493   5.982 -13.371  0.00  0.00    -0.222 OA
BRANCH  27  30
ATOM     30  C   UNL d   1       5.994   6.385 -12.432  0.00  0.00     0.127 C 
ATOM     31  C   UNL d   1       6.260   7.864 -12.758  0.00  0.00     0.018 C 
ENDBRANCH  27  30
ENDBRANCH  23  27
ENDBRANCH   4  19
TORSDOF 10
