REMARK  8 active torsions:
REMARK  status: ('A' for Active; 'I' for Inactive)
REMARK    1  A    between atoms: O_2  and  C_3 
REMARK    2  A    between atoms: C_7  and  C_8 
REMARK       I    between atoms: C_8  and  N_10 
REMARK    3  A    between atoms: N_10  and  C_11 
REMARK    4  A    between atoms: C_11  and  C_12 
REMARK    5  A    between atoms: C_12  and  C_13 
REMARK    6  A    between atoms: C_13  and  C_14 
REMARK    7  A    between atoms: C_14  and  N_15 
REMARK    8  A    between atoms: N_18  and  C_19 
ROOT
ATOM      1  C   UNL d   1       9.085   4.417 -12.639  0.00  0.00     0.251 C 
ENDROOT
BRANCH   1   2
ATOM      2  C   UNL d   1       9.106   5.947 -12.479  0.00  0.00     0.037 C 
BRANCH   2   3
ATOM      3  C   UNL d   1       9.399   6.305 -11.028  0.00  0.00     0.029 C 
BRANCH   3   4
ATOM      4  C   UNL d   1       9.702   7.785 -10.764  0.00  0.00     0.129 C 
BRANCH   4   5
ATOM      5  N   UNL d   1      10.245   8.042  -9.431  0.00  0.00    -0.234 NA
ATOM      6  C   UNL d   1      10.076   7.337  -8.282  0.00  0.00     0.275 C 
ATOM      7  O   UNL d   1       9.487   6.259  -8.215  0.00  0.00    -0.266 OA
BRANCH   6   8
ATOM      8  C   UNL d   1      10.707   7.933  -7.049  0.00  0.00     0.059 A 
ATOM      9  C   UNL d   1      10.952   9.317  -6.961  0.00  0.00     0.005 A 
ATOM     10  C   UNL d   1      11.463   9.884  -5.777  0.00  0.00     0.002 A 
ATOM     11  C   UNL d   1      11.732   9.052  -4.673  0.00  0.00     0.024 A 
ATOM     12  C   UNL d   1      11.490   7.658  -4.731  0.00  0.00     0.094 A 
ATOM     13  C   UNL d   1      10.978   7.113  -5.936  0.00  0.00     0.029 A 
BRANCH  12  14
ATOM     14  O   UNL d   1      11.725   6.783  -3.697  0.00  0.00    -0.328 OA
ATOM     15  C   UNL d   1      12.197   7.345  -2.488  0.00  0.00     0.181 C 
ENDBRANCH  12  14
ENDBRANCH   6   8
ENDBRANCH   4   5
ENDBRANCH   3   4
ENDBRANCH   2   3
ENDBRANCH   1   2
BRANCH   1  16
ATOM     16  N   UNL d   1       8.865   4.048 -14.039  0.00  0.00     0.141 N 
ATOM     17  C   UNL d   1      10.099   4.226 -14.809  0.00  0.00     0.274 C 
ATOM     18  C   UNL d   1       9.854   3.855 -16.285  0.00  0.00     0.137 C 
ATOM     19  N   UNL d   1       9.300   2.515 -16.390  0.00  0.00    -0.344 N 
ATOM     20  C   UNL d   1       8.171   2.209 -15.535  0.00  0.00     0.137 C 
ATOM     21  C   UNL d   1       8.463   2.645 -14.088  0.00  0.00     0.274 C 
BRANCH  19  22
ATOM     22  C   UNL d   1       9.860   1.525 -17.242  0.00  0.00     0.068 A 
ATOM     23  C   UNL d   1       9.045   0.754 -18.094  0.00  0.00     0.084 A 
ATOM     24  C   UNL d   1       9.639  -0.252 -18.906  0.00  0.00     0.070 A 
ATOM     25 CL   UNL d   1       7.338   1.016 -18.259  0.00  0.00    -0.080 Cl
ATOM     26  C   UNL d   1      11.028  -0.449 -18.870  0.00  0.00     0.012 A 
ATOM     27 CL   UNL d   1       8.678  -1.221 -19.956  0.00  0.00    -0.081 Cl
ATOM     28  C   UNL d   1      11.837   0.335 -18.042  0.00  0.00     0.002 A 
ATOM     29  C   UNL d   1      11.248   1.326 -17.216  0.00  0.00     0.018 A 
ENDBRANCH  19  22
ENDBRANCH   1  16
TORSDOF 8
