REMARK  5 active torsions:
REMARK  status: ('A' for Active; 'I' for Inactive)
REMARK    1  A    between atoms: O_2  and  C_3 
REMARK    2  A    between atoms: C_14  and  C_15 
REMARK    3  A    between atoms: C_15  and  C_16 
REMARK    4  A    between atoms: C_16  and  C_17 
REMARK    5  A    between atoms: C_17  and  C_18 
ROOT
ATOM      1  C   UNL d   1       7.081   1.750 -14.251  0.00  0.00     0.119 A 
ATOM      2  C   UNL d   1       6.258   2.791 -13.737  0.00  0.00     0.022 A 
ATOM      3  C   UNL d   1       6.809   3.983 -13.236  0.00  0.00    -0.020 A 
ATOM      4  C   UNL d   1       8.218   4.137 -13.201  0.00  0.00     0.007 A 
ATOM      5  C   UNL d   1       9.044   3.111 -13.693  0.00  0.00     0.027 A 
ATOM      6  C   UNL d   1       8.481   1.932 -14.240  0.00  0.00     0.153 A 
ATOM      7  O   UNL d   1       9.303   0.921 -14.661  0.00  0.00    -0.188 OA
ATOM      8  C   UNL d   1       8.833   5.378 -12.575  0.00  0.00     0.246 C 
ATOM      9  C   UNL d   1       9.365   5.090 -11.132  0.00  0.00     0.070 C 
ATOM     10  C   UNL d   1       9.804   6.336 -10.431  0.00  0.00     0.007 A 
ATOM     11  S   UNL d   1      10.614   6.412  -8.851  0.00  0.00    -0.096 SA
ATOM     12  C   UNL d   1      10.553   8.149  -8.876  0.00  0.00     0.007 A 
ATOM     13  C   UNL d   1       9.867   8.606  -9.964  0.00  0.00    -0.000 A 
ATOM     14  C   UNL d   1       9.466   7.581 -10.864  0.00  0.00     0.013 A 
ATOM     15  C   UNL d   1       8.632   7.715 -12.105  0.00  0.00     0.277 C 
ATOM     16  N   UNL d   1       7.925   6.532 -12.619  0.00  0.00     0.144 N 
ATOM     17  C   UNL d   1       6.660   6.202 -11.944  0.00  0.00     0.256 C 
ATOM     18  C   UNL d   1       5.899   5.104 -12.729  0.00  0.00     0.061 C 
ENDROOT
BRANCH  12  19
ATOM     19  C   UNL d   1      11.124   8.937  -7.760  0.00  0.00     0.033 C 
BRANCH  19  20
ATOM     20  C   UNL d   1      10.275   8.901  -6.479  0.00  0.00     0.006 C 
BRANCH  20  21
ATOM     21  C   UNL d   1      10.857   9.828  -5.388  0.00  0.00     0.018 C 
BRANCH  21  22
ATOM     22  C   UNL d   1      12.159   9.306  -4.750  0.00  0.00     0.095 C 
ATOM     23 CL   UNL d   1      11.910   7.738  -3.932  0.00  0.00    -0.114 Cl
ENDBRANCH  21  22
ENDBRANCH  20  21
ENDBRANCH  19  20
ENDBRANCH  12  19
BRANCH   1  24
ATOM     24  O   UNL d   1       6.589   0.553 -14.730  0.00  0.00    -0.326 OA
ATOM     25  C   UNL d   1       5.327   0.102 -14.258  0.00  0.00     0.181 C 
ENDBRANCH   1  24
TORSDOF 5
