REMARK  7 active torsions:
REMARK  status: ('A' for Active; 'I' for Inactive)
REMARK    1  A    between atoms: O_2  and  C_3 
REMARK    2  A    between atoms: C_8  and  N_9 
REMARK    3  A    between atoms: N_12  and  C_13 
REMARK    4  A    between atoms: C_13  and  C_14 
REMARK    5  A    between atoms: C_14  and  C_16 
REMARK    6  A    between atoms: C_16  and  N_17 
REMARK    7  A    between atoms: C_21  and  C_23 
ROOT
ATOM      1  C   UNL d   1       8.257   5.466 -12.880  0.00  0.00     0.208 C 
ATOM      2  O   UNL d   1       6.918   5.183 -13.198  0.00  0.00    -0.219 OA
ENDROOT
BRANCH   1   3
ATOM      3  C   UNL d   1       8.327   6.880 -12.260  0.00  0.00     0.285 C 
BRANCH   3   4
ATOM      4  N   UNL d   1       9.534   7.124 -11.434  0.00  0.00     0.144 N 
ATOM      5  C   UNL d   1       9.576   8.517 -10.942  0.00  0.00     0.274 C 
ATOM      6  C   UNL d   1      10.844   8.849 -10.114  0.00  0.00     0.137 C 
ATOM      7  N   UNL d   1      10.998   7.854  -9.064  0.00  0.00    -0.343 N 
ATOM      8  C   UNL d   1      10.995   6.486  -9.566  0.00  0.00     0.137 C 
ATOM      9  C   UNL d   1       9.690   6.192 -10.309  0.00  0.00     0.274 C 
BRANCH   7  10
ATOM     10  C   UNL d   1      11.149   8.169  -7.723  0.00  0.00     0.079 C 
ATOM     11  C   UNL d   1      10.433   7.447  -6.741  0.00  0.00     0.110 C 
ATOM     12  C   UNL d   1      10.662   7.659  -5.374  0.00  0.00     0.026 C 
ATOM     13  C   UNL d   1      11.507   8.721  -4.959  0.00  0.00     0.002 C 
ATOM     14  C   UNL d   1      12.236   9.453  -5.929  0.00  0.00     0.002 C 
ATOM     15  C   UNL d   1      12.097   9.128  -7.289  0.00  0.00     0.019 C 
BRANCH  11  16
ATOM     16  O   UNL d   1       9.535   6.524  -7.237  0.00  0.00    -0.327 OA
ATOM     17  C   UNL d   1       8.351   6.403  -6.505  0.00  0.00     0.181 C 
ENDBRANCH  11  16
ENDBRANCH   7  10
ENDBRANCH   3   4
ENDBRANCH   1   3
BRANCH   1  18
ATOM     18  C   UNL d   1       9.131   5.364 -14.192  0.00  0.00     0.148 C 
BRANCH  18  19
ATOM     19  N   UNL d   1       9.479   4.019 -14.646  0.00  0.00    -0.247 N 
ATOM     20  C   UNL d   1       9.472   3.554 -15.911  0.00  0.00     0.265 C 
ATOM     21  C   UNL d   1       9.817   2.068 -15.860  0.00  0.00     0.179 C 
ATOM     22  O   UNL d   1       9.357   4.191 -16.969  0.00  0.00    -0.269 OA
ATOM     23  N   UNL d   1      10.106   1.957 -14.433  0.00  0.00    -0.209 NA
ATOM     24  C   UNL d   1      11.108   1.808 -16.677  0.00  0.00     0.039 C 
ATOM     25  C   UNL d   1       9.958   3.121 -13.786  0.00  0.00     0.348 C 
ATOM     26  O   UNL d   1      10.206   3.382 -12.615  0.00  0.00    -0.245 OA
BRANCH  21  27
ATOM     27  C   UNL d   1       8.600   1.235 -16.323  0.00  0.00     0.006 A 
ATOM     28  C   UNL d   1       8.438   0.891 -17.689  0.00  0.00    -0.001 A 
ATOM     29  C   UNL d   1       7.343   0.112 -18.113  0.00  0.00     0.011 A 
ATOM     30  C   UNL d   1       6.372  -0.312 -17.187  0.00  0.00     0.058 A 
ATOM     31  C   UNL d   1       6.499   0.046 -15.832  0.00  0.00     0.011 A 
ATOM     32 CL   UNL d   1       5.034  -1.262 -17.721  0.00  0.00    -0.082 Cl
ATOM     33  C   UNL d   1       7.599   0.819 -15.404  0.00  0.00    -0.001 A 
ENDBRANCH  21  27
ENDBRANCH  18  19
ENDBRANCH   1  18
TORSDOF 7
