REMARK  2 active torsions:
REMARK  status: ('A' for Active; 'I' for Inactive)
REMARK    1  A    between atoms: C_2  and  C_3 
REMARK    2  A    between atoms: C_3  and  N_4 
ROOT
ATOM      1  N   UNL d   1       9.305   6.000 -10.824  0.00  0.00     0.140 N 
ATOM      2  C   UNL d   1       8.349   5.061 -10.247  0.00  0.00     0.282 C 
ATOM      3  C   UNL d   1       8.858   4.405  -8.965  0.00  0.00     0.178 C 
ATOM      4  O   UNL d   1       9.186   5.429  -8.036  0.00  0.00    -0.348 OA
ATOM      5  C   UNL d   1      10.172   6.331  -8.521  0.00  0.00     0.169 C 
ATOM      6  C   UNL d   1      10.634   7.296  -7.439  0.00  0.00     0.004 A 
ATOM      7  C   UNL d   1      10.818   6.812  -6.126  0.00  0.00     0.022 A 
ATOM      8  C   UNL d   1      11.282   7.675  -5.125  0.00  0.00     0.090 A 
ATOM      9  C   UNL d   1      11.561   8.991  -5.422  0.00  0.00     0.002 A 
ATOM     10  C   UNL d   1      11.414   9.515  -6.717  0.00  0.00    -0.007 A 
ATOM     11  C   UNL d   1      10.950   8.652  -7.739  0.00  0.00    -0.024 A 
ATOM     12  C   UNL d   1      10.776   9.184  -9.154  0.00  0.00     0.028 C 
ATOM     13  C   UNL d   1      10.625   8.104 -10.225  0.00  0.00     0.041 C 
ATOM     14  C   UNL d   1       9.628   7.010  -9.797  0.00  0.00     0.251 C 
ATOM     15  C   UNL d   1      12.050   9.665  -4.191  0.00  0.00     0.061 C 
ATOM     16  C   UNL d   1      11.872   8.561  -3.128  0.00  0.00     0.154 C 
ATOM     17  O   UNL d   1      11.514   7.351  -3.818  0.00  0.00    -0.331 OA
ENDROOT
BRANCH   1  18
ATOM     18  C   UNL d   1       8.759   6.565 -12.067  0.00  0.00     0.250 C 
BRANCH  18  19
ATOM     19  C   UNL d   1       8.583   5.546 -13.212  0.00  0.00     0.035 C 
ATOM     20  C   UNL d   1       9.883   4.811 -13.563  0.00  0.00     0.002 C 
ENDBRANCH  18  19
ENDBRANCH   1  18
TORSDOF 2
