REMARK  12 active torsions:
REMARK  status: ('A' for Active; 'I' for Inactive)
REMARK    1  A    between atoms: O_2  and  C_3 
REMARK    2  A    between atoms: C_9  and  C_10 
REMARK    3  A    between atoms: C_12  and  C_13 
REMARK    4  A    between atoms: C_13  and  N_14 
REMARK    5  A    between atoms: N_14  and  C_15 
REMARK    6  A    between atoms: N_14  and  C_31 
REMARK    7  A    between atoms: C_15  and  C_16 
REMARK    8  A    between atoms: C_16  and  C_17 
REMARK    9  A    between atoms: C_17  and  S_18 
REMARK   10  A    between atoms: S_18  and  C_19 
REMARK   11  A    between atoms: C_22  and  C_23 
REMARK   12  A    between atoms: C_31  and  C_32 
ROOT
ATOM      1  N   UNL d   1      11.094   4.716 -16.386  0.00  0.00     0.137 N 
ENDROOT
BRANCH   1   2
ATOM      2  C   UNL d   1      11.177   4.264 -17.792  0.00  0.00     0.251 C 
BRANCH   2   3
ATOM      3  C   UNL d   1      12.568   3.667 -18.178  0.00  0.00     0.038 A 
ATOM      4  C   UNL d   1      12.801   2.178 -18.337  0.00  0.00     0.026 A 
ATOM      5  C   UNL d   1      12.786   3.059 -19.559  0.00  0.00     0.007 A 
BRANCH   4   6
ATOM      6  C   UNL d   1      11.729   1.197 -18.061  0.00  0.00     0.002 A 
ATOM      7  C   UNL d   1      11.126   1.088 -16.782  0.00  0.00     0.090 A 
ATOM      8  C   UNL d   1      10.025   0.221 -16.628  0.00  0.00     0.026 A 
ATOM      9  C   UNL d   1       9.590  -0.559 -17.715  0.00  0.00     0.032 A 
ATOM     10  C   UNL d   1      10.240  -0.479 -18.959  0.00  0.00     0.140 A 
ATOM     11  F   UNL d   1       9.826  -1.222 -20.005  0.00  0.00    -0.204 F 
ATOM     12  C   UNL d   1      11.311   0.398 -19.130  0.00  0.00     0.027 A 
BRANCH   7  13
ATOM     13  O   UNL d   1      11.620   1.868 -15.760  0.00  0.00    -0.328 OA
ATOM     14  C   UNL d   1      10.969   1.783 -14.504  0.00  0.00     0.181 C 
ENDBRANCH   7  13
ENDBRANCH   4   6
ENDBRANCH   2   3
ENDBRANCH   1   2
BRANCH   1  15
ATOM     15  C   UNL d   1       9.703   4.857 -15.936  0.00  0.00     0.251 C 
BRANCH  15  16
ATOM     16  C   UNL d   1       9.592   4.816 -14.370  0.00  0.00     0.047 C 
BRANCH  16  17
ATOM     17  C   UNL d   1       8.147   4.978 -13.871  0.00  0.00     0.067 C 
BRANCH  17  18
ATOM     18  S   UNL d   1       8.049   4.558 -12.100  0.00  0.00    -0.075 SA
BRANCH  18  19
ATOM     19  C   UNL d   1       8.827   5.977 -11.406  0.00  0.00     0.193 A 
ATOM     20  N   UNL d   1       9.289   6.011 -10.132  0.00  0.00    -0.289 N 
ATOM     21  C   UNL d   1       9.780   7.264 -10.055  0.00  0.00     0.167 A 
ATOM     22  C   UNL d   1       9.242   4.981  -9.112  0.00  0.00     0.134 C 
ATOM     23  N   UNL d   1       9.677   7.949 -11.197  0.00  0.00    -0.128 NA
ATOM     24  N   UNL d   1       9.005   7.122 -12.063  0.00  0.00    -0.122 NA
BRANCH  21  25
ATOM     25  C   UNL d   1      10.343   7.847  -8.868  0.00  0.00     0.036 A 
ATOM     26  C   UNL d   1      11.733   8.138  -8.820  0.00  0.00     0.003 A 
ATOM     27  C   UNL d   1      12.275   8.684  -7.682  0.00  0.00     0.000 A 
ATOM     28  C   UNL d   1      11.452   9.045  -6.568  0.00  0.00     0.000 A 
ATOM     29  C   UNL d   1      10.078   8.769  -6.627  0.00  0.00     0.000 A 
ATOM     30  C   UNL d   1       9.529   8.158  -7.763  0.00  0.00     0.003 A 
ENDBRANCH  21  25
ENDBRANCH  18  19
ENDBRANCH  17  18
ENDBRANCH  16  17
ENDBRANCH  15  16
ENDBRANCH   1  15
BRANCH   1  31
ATOM     31  C   UNL d   1      11.785   5.997 -16.175  0.00  0.00     0.250 C 
BRANCH  31  32
ATOM     32  C   UNL d   1      13.269   5.916 -16.400  0.00  0.00     0.033 A 
ATOM     33  C   UNL d   1      13.848   6.387 -17.692  0.00  0.00     0.002 A 
ATOM     34  C   UNL d   1      14.123   7.157 -16.418  0.00  0.00     0.002 A 
ENDBRANCH  31  32
ENDBRANCH   1  31
TORSDOF 12
