REMARK  5 active torsions:
REMARK  status: ('A' for Active; 'I' for Inactive)
REMARK    1  A    between atoms: C_7  and  O_8 
REMARK    2  A    between atoms: O_8  and  C_9 
REMARK    3  A    between atoms: C_9  and  C_10 
REMARK    4  A    between atoms: C_10  and  N_11 
REMARK    5  A    between atoms: N_14  and  C_15 
ROOT
ATOM      1  C   UNL d   1       9.319   5.705 -11.232  0.00  0.00     0.283 C 
ENDROOT
BRANCH   1   2
ATOM      2  C   UNL d   1       8.348   6.224 -12.306  0.00  0.00     0.184 C 
BRANCH   2   3
ATOM      3  O   UNL d   1       8.671   5.588 -13.541  0.00  0.00    -0.329 OA
BRANCH   3   4
ATOM      4  C   UNL d   1       8.174   4.338 -13.814  0.00  0.00     0.096 A 
ATOM      5  C   UNL d   1       8.904   3.543 -14.747  0.00  0.00     0.026 A 
ATOM      6  C   UNL d   1       8.464   2.251 -15.129  0.00  0.00     0.023 A 
ATOM      7  C   UNL d   1       7.277   1.788 -14.539  0.00  0.00     0.104 A 
ATOM      8  N   UNL d   1       6.590   0.575 -14.655  0.00  0.00    -0.189 NA
ATOM      9  C   UNL d   1       6.556   2.558 -13.647  0.00  0.00     0.106 A 
ATOM     10  C   UNL d   1       5.500   0.592 -13.858  0.00  0.00     0.369 A 
ATOM     11  O   UNL d   1       4.669  -0.302 -13.727  0.00  0.00    -0.242 OA
ATOM     12  N   UNL d   1       5.475   1.781 -13.233  0.00  0.00    -0.189 NA
ATOM     13  C   UNL d   1       6.964   3.837 -13.256  0.00  0.00     0.045 A 
ENDBRANCH   3   4
ENDBRANCH   2   3
ENDBRANCH   1   2
BRANCH   1  14
ATOM     14  N   UNL d   1       9.066   6.332  -9.945  0.00  0.00     0.144 N 
ATOM     15  C   UNL d   1       9.618   7.697  -9.921  0.00  0.00     0.274 C 
ATOM     16  C   UNL d   1       9.324   8.393  -8.579  0.00  0.00     0.137 C 
ATOM     17  N   UNL d   1       9.859   7.591  -7.479  0.00  0.00    -0.344 N 
ATOM     18  C   UNL d   1       9.392   6.201  -7.500  0.00  0.00     0.137 C 
ATOM     19  C   UNL d   1       9.678   5.560  -8.867  0.00  0.00     0.274 C 
BRANCH  17  20
ATOM     20  C   UNL d   1      10.715   8.118  -6.502  0.00  0.00     0.056 A 
ATOM     21  C   UNL d   1      11.434   9.318  -6.743  0.00  0.00     0.017 A 
ATOM     22  C   UNL d   1      12.261   9.868  -5.762  0.00  0.00     0.002 A 
ATOM     23  C   UNL d   1      12.441   9.226  -4.523  0.00  0.00     0.000 A 
ATOM     24  C   UNL d   1      11.762   8.024  -4.269  0.00  0.00     0.002 A 
ATOM     25  C   UNL d   1      10.903   7.479  -5.244  0.00  0.00     0.017 A 
ENDBRANCH  17  20
ENDBRANCH   1  14
TORSDOF 5
