REMARK  7 active torsions:
REMARK  status: ('A' for Active; 'I' for Inactive)
REMARK    1  A    between atoms: C_8  and  O_9 
REMARK    2  A    between atoms: O_9  and  C_10 
REMARK    3  A    between atoms: C_10  and  C_11 
REMARK    4  A    between atoms: C_11  and  C_12 
REMARK    5  A    between atoms: C_12  and  C_13 
REMARK    6  A    between atoms: C_13  and  N_14 
REMARK    7  A    between atoms: N_18  and  C_19 
ROOT
ATOM      1  N   UNL d   1       7.933   4.672 -13.248  0.00  0.00     0.139 N 
ATOM      2  C   UNL d   1       8.756   4.306 -12.092  0.00  0.00     0.252 C 
ATOM      3  C   UNL d   1      10.065   3.551 -12.406  0.00  0.00     0.053 C 
ATOM      4  C   UNL d   1      10.087   2.607 -13.632  0.00  0.00     0.079 C 
ATOM      5  N   UNL d   1      10.372   3.335 -14.890  0.00  0.00    -0.249 NA
ATOM      6  C   UNL d   1       9.260   4.165 -15.358  0.00  0.00     0.112 C 
ATOM      7  C   UNL d   1       8.756   5.210 -14.331  0.00  0.00     0.268 C 
ENDROOT
BRANCH   1   8
ATOM      8  C   UNL d   1       7.021   3.612 -13.691  0.00  0.00     0.250 C 
BRANCH   8   9
ATOM      9  C   UNL d   1       5.900   3.318 -12.624  0.00  0.00     0.038 C 
BRANCH   9  10
ATOM     10  C   UNL d   1       5.048   2.122 -13.091  0.00  0.00     0.035 C 
BRANCH  10  11
ATOM     11  C   UNL d   1       5.565   0.721 -12.682  0.00  0.00     0.149 C 
BRANCH  11  12
ATOM     12  O   UNL d   1       4.863  -0.275 -13.424  0.00  0.00    -0.331 OA
BRANCH  12  13
ATOM     13  C   UNL d   1       5.166  -0.434 -14.752  0.00  0.00     0.096 A 
ATOM     14  C   UNL d   1       6.143   0.349 -15.407  0.00  0.00     0.024 A 
ATOM     15  C   UNL d   1       6.354   0.237 -16.790  0.00  0.00    -0.001 A 
ATOM     16  C   UNL d   1       5.593  -0.674 -17.543  0.00  0.00    -0.004 A 
ATOM     17  C   UNL d   1       5.845  -0.853 -19.011  0.00  0.00     0.038 C 
ATOM     18  C   UNL d   1       4.612  -1.470 -16.897  0.00  0.00     0.082 A 
ATOM     19  C   UNL d   1       4.576  -1.327 -19.744  0.00  0.00     0.095 C 
ATOM     20  C   UNL d   1       3.855  -2.443 -18.982  0.00  0.00     0.256 C 
ATOM     21  O   UNL d   1       3.297  -3.351 -19.606  0.00  0.00    -0.270 OA
ATOM     22  N   UNL d   1       3.865  -2.405 -17.660  0.00  0.00    -0.212 NA
ATOM     23  C   UNL d   1       4.411  -1.365 -15.506  0.00  0.00     0.043 A 
ENDBRANCH  12  13
ENDBRANCH  11  12
ENDBRANCH  10  11
ENDBRANCH   9  10
ENDBRANCH   8   9
ENDBRANCH   1   8
BRANCH   5  24
ATOM     24  C   UNL d   1      10.772   2.378 -15.984  0.00  0.00     0.061 A 
ATOM     25  C   UNL d   1      11.751   2.765 -16.923  0.00  0.00     0.125 A 
ATOM     26  C   UNL d   1      12.075   1.858 -17.955  0.00  0.00     0.133 A 
ATOM     27  O   UNL d   1      12.335   4.013 -16.873  0.00  0.00    -0.318 OA
ATOM     28  C   UNL d   1      11.457   0.592 -18.031  0.00  0.00     0.151 A 
ATOM     29  N   UNL d   1      12.994   2.252 -18.938  0.00  0.00    -0.205 NA
ATOM     30  C   UNL d   1      10.490   0.226 -17.079  0.00  0.00     0.030 A 
ATOM     31  O   UNL d   1      11.778  -0.293 -19.020  0.00  0.00    -0.189 OA
ATOM     32  C   UNL d   1      10.134   1.119 -16.065  0.00  0.00     0.015 A 
ATOM     33  C   UNL d   1      13.723   3.369 -18.838  0.00  0.00     0.287 C 
ATOM     34  C   UNL d   1      13.608   4.157 -17.520  0.00  0.00     0.238 C 
ATOM     35  O   UNL d   1      14.494   3.739 -19.721  0.00  0.00    -0.267 OA
ENDBRANCH   5  24
TORSDOF 7
