REMARK  7 active torsions:
REMARK  status: ('A' for Active; 'I' for Inactive)
REMARK       I    between atoms: C_2  and  N_3 
REMARK    1  A    between atoms: C_2  and  C_23 
REMARK    2  A    between atoms: N_3  and  C_4 
REMARK    3  A    between atoms: C_4  and  C_5 
REMARK    4  A    between atoms: C_7  and  C_8 
REMARK    5  A    between atoms: C_8  and  N_9 
REMARK    6  A    between atoms: N_12  and  C_13 
REMARK    7  A    between atoms: C_26  and  C_27 
ROOT
ATOM      1  C   UNL d   1       9.629   5.394 -13.041  0.00  0.00     0.026 A 
ATOM      2  C   UNL d   1       8.575   4.319 -13.183  0.00  0.00     0.004 A 
ATOM      3  C   UNL d   1       9.261   4.870 -14.410  0.00  0.00     0.035 A 
ENDROOT
BRANCH   1   4
ATOM      4  C   UNL d   1       9.234   6.785 -12.584  0.00  0.00     0.129 C 
BRANCH   4   5
ATOM      5  N   UNL d   1       9.537   7.083 -11.197  0.00  0.00    -0.234 NA
ATOM      6  C   UNL d   1       9.313   6.275 -10.149  0.00  0.00     0.275 C 
ATOM      7  O   UNL d   1       8.727   5.197 -10.220  0.00  0.00    -0.266 OA
BRANCH   6   8
ATOM      8  C   UNL d   1       9.819   6.778  -8.834  0.00  0.00     0.058 A 
ATOM      9  C   UNL d   1      11.009   7.533  -8.737  0.00  0.00     0.005 A 
ATOM     10  C   UNL d   1      11.502   7.915  -7.474  0.00  0.00     0.002 A 
ATOM     11  C   UNL d   1      10.829   7.537  -6.293  0.00  0.00     0.018 A 
ATOM     12  C   UNL d   1       9.633   6.799  -6.405  0.00  0.00     0.002 A 
ATOM     13  C   UNL d   1       9.126   6.425  -7.662  0.00  0.00     0.005 A 
BRANCH  11  14
ATOM     14  C   UNL d   1      11.379   7.892  -4.974  0.00  0.00     0.081 A 
ATOM     15  N   UNL d   1      11.384   9.210  -4.666  0.00  0.00    -0.244 NA
ATOM     16  C   UNL d   1      11.860   9.581  -3.462  0.00  0.00     0.099 A 
ATOM     17  C   UNL d   1      12.366   8.672  -2.514  0.00  0.00     0.021 A 
ATOM     18  C   UNL d   1      12.360   7.305  -2.834  0.00  0.00     0.003 A 
ATOM     19  C   UNL d   1      11.853   6.907  -4.084  0.00  0.00     0.019 A 
ENDBRANCH  11  14
ENDBRANCH   6   8
ENDBRANCH   4   5
ENDBRANCH   1   4
BRANCH   3  20
ATOM     20  C   UNL d   1      10.255   4.004 -15.154  0.00  0.00     0.250 C 
BRANCH  20  21
ATOM     21  N   UNL d   1      11.375   4.807 -15.625  0.00  0.00     0.141 N 
ATOM     22  C   UNL d   1      10.974   5.643 -16.760  0.00  0.00     0.274 C 
ATOM     23  C   UNL d   1      12.143   6.535 -17.205  0.00  0.00     0.137 C 
ATOM     24  N   UNL d   1      13.305   5.712 -17.509  0.00  0.00    -0.344 N 
ATOM     25  C   UNL d   1      13.679   4.739 -16.494  0.00  0.00     0.137 C 
ATOM     26  C   UNL d   1      12.454   3.913 -16.058  0.00  0.00     0.274 C 
BRANCH  24  27
ATOM     27  C   UNL d   1      13.998   5.825 -18.725  0.00  0.00     0.068 A 
ATOM     28  C   UNL d   1      15.413   5.938 -18.782  0.00  0.00     0.084 A 
ATOM     29  C   UNL d   1      16.058   6.034 -20.034  0.00  0.00     0.070 A 
ATOM     30 CL   UNL d   1      16.386   6.004 -17.343  0.00  0.00    -0.080 Cl
ATOM     31  C   UNL d   1      15.309   6.026 -21.221  0.00  0.00     0.012 A 
ATOM     32 CL   UNL d   1      17.776   6.175 -20.125  0.00  0.00    -0.081 Cl
ATOM     33  C   UNL d   1      13.909   5.927 -21.170  0.00  0.00     0.002 A 
ATOM     34  C   UNL d   1      13.257   5.831 -19.928  0.00  0.00     0.018 A 
ENDBRANCH  24  27
ENDBRANCH  20  21
ENDBRANCH   3  20
TORSDOF 7
