REMARK  5 active torsions:
REMARK  status: ('A' for Active; 'I' for Inactive)
REMARK       I    between atoms: C_2  and  N_3 
REMARK    1  A    between atoms: C_2  and  C_23 
REMARK    2  A    between atoms: N_3  and  C_4 
REMARK    3  A    between atoms: C_4  and  C_5 
REMARK    4  A    between atoms: C_5  and  N_6 
REMARK    5  A    between atoms: C_9  and  N_10 
ROOT
ATOM      1  N   UNL d   1       8.458   5.582 -10.805  0.00  0.00     0.142 N 
ATOM      2  C   UNL d   1       9.206   4.633 -11.634  0.00  0.00     0.253 C 
ATOM      3  C   UNL d   1       9.290   5.170 -13.044  0.00  0.00     0.061 C 
ATOM      4  C   UNL d   1       7.874   5.153 -13.652  0.00  0.00     0.127 C 
ATOM      5  C   UNL d   1       7.011   6.088 -12.754  0.00  0.00     0.215 C 
ATOM      6  F   UNL d   1       7.482   7.347 -12.838  0.00  0.00    -0.233 F 
ATOM      7  C   UNL d   1       7.076   5.641 -11.279  0.00  0.00     0.287 C 
ENDROOT
BRANCH   1   8
ATOM      8  C   UNL d   1       8.422   5.192  -9.404  0.00  0.00     0.277 C 
BRANCH   8   9
ATOM      9  C   UNL d   1       9.820   5.130  -8.784  0.00  0.00     0.164 C 
BRANCH   9  10
ATOM     10  N   UNL d   1       9.941   6.029  -7.652  0.00  0.00    -0.232 NA
ATOM     11  C   UNL d   1      10.525   7.226  -7.753  0.00  0.00     0.275 C 
ATOM     12  O   UNL d   1      10.825   7.785  -8.811  0.00  0.00    -0.266 OA
BRANCH  11  13
ATOM     13  C   UNL d   1      10.859   7.856  -6.451  0.00  0.00     0.060 A 
ATOM     14  C   UNL d   1      10.718   9.245  -6.292  0.00  0.00     0.037 A 
ATOM     15  C   UNL d   1      11.061   9.844  -5.069  0.00  0.00     0.168 A 
ATOM     16  C   UNL d   1      11.573   9.059  -4.017  0.00  0.00     0.167 A 
ATOM     17  F   UNL d   1      10.874  11.173  -4.902  0.00  0.00    -0.202 F 
ATOM     18  C   UNL d   1      11.744   7.670  -4.186  0.00  0.00     0.032 A 
ATOM     19  F   UNL d   1      11.892   9.635  -2.838  0.00  0.00    -0.202 F 
ATOM     20  C   UNL d   1      11.383   7.068  -5.400  0.00  0.00     0.007 A 
ENDBRANCH  11  13
ENDBRANCH   9  10
ENDBRANCH   8   9
ENDBRANCH   1   8
BRANCH   4  21
ATOM     21  N   UNL d   1       7.303   3.771 -13.843  0.00  0.00    -0.278 N 
ATOM     22  C   UNL d   1       8.010   2.724 -14.506  0.00  0.00     0.082 A 
ATOM     23  C   UNL d   1       7.216   1.593 -14.406  0.00  0.00     0.102 A 
ATOM     24  C   UNL d   1       9.249   2.687 -15.185  0.00  0.00     0.019 A 
ATOM     25  N   UNL d   1       6.065   1.929 -13.731  0.00  0.00    -0.191 NA
ATOM     26  C   UNL d   1       7.604   0.346 -14.925  0.00  0.00     0.021 A 
ATOM     27  C   UNL d   1       6.081   3.268 -13.468  0.00  0.00     0.350 A 
ATOM     28  O   UNL d   1       5.115   3.879 -13.014  0.00  0.00    -0.244 OA
ATOM     29  C   UNL d   1       8.860   0.274 -15.560  0.00  0.00     0.002 A 
ATOM     30  C   UNL d   1       9.683   1.425 -15.679  0.00  0.00     0.002 A 
ENDBRANCH   4  21
TORSDOF 5
