REMARK  7 active torsions:
REMARK  status: ('A' for Active; 'I' for Inactive)
REMARK    1  A    between atoms: O_2  and  N_3 
REMARK    2  A    between atoms: C_4  and  C_5 
REMARK    3  A    between atoms: C_4  and  C_12 
REMARK    4  A    between atoms: C_12  and  C_13 
REMARK    5  A    between atoms: C_12  and  O_26 
REMARK    6  A    between atoms: C_13  and  N_14 
REMARK    7  A    between atoms: N_17  and  C_18 
ROOT
ATOM      1  C   UNL d   1       8.551   5.824 -12.592  0.00  0.00     0.191 C 
ENDROOT
BRANCH   1   2
ATOM      2  C   UNL d   1       8.837   4.514 -13.341  0.00  0.00     0.114 C 
ATOM      3  N   UNL d   1       9.979   4.195 -13.830  0.00  0.00    -0.133 NA
BRANCH   3   4
ATOM      4  O   UNL d   1      10.982   5.163 -13.669  0.00  0.00    -0.234 OA
ATOM      5  C   UNL d   1      12.086   4.839 -14.508  0.00  0.00     0.211 C 
ENDBRANCH   3   4
BRANCH   2   6
ATOM      6  C   UNL d   1       7.663   3.578 -13.489  0.00  0.00     0.018 A 
ATOM      7  C   UNL d   1       7.723   2.525 -14.451  0.00  0.00     0.002 A 
ATOM      8  C   UNL d   1       6.711   1.535 -14.521  0.00  0.00     0.011 A 
ATOM      9  C   UNL d   1       5.650   1.552 -13.615  0.00  0.00     0.058 A 
ATOM     10  C   UNL d   1       5.523   2.620 -12.703  0.00  0.00     0.011 A 
ATOM     11 CL   UNL d   1       4.531   0.249 -13.691  0.00  0.00    -0.082 Cl
ATOM     12  C   UNL d   1       6.533   3.627 -12.655  0.00  0.00     0.002 A 
ENDBRANCH   2   6
ENDBRANCH   1   2
BRANCH   1  13
ATOM     13  C   UNL d   1       8.384   5.580 -11.060  0.00  0.00     0.286 C 
BRANCH  13  14
ATOM     14  N   UNL d   1       9.535   5.831 -10.216  0.00  0.00     0.144 N 
ATOM     15  C   UNL d   1       9.142   5.570  -8.829  0.00  0.00     0.274 C 
ATOM     16  C   UNL d   1      10.296   5.761  -7.862  0.00  0.00     0.138 C 
ATOM     17  N   UNL d   1      10.883   7.088  -8.062  0.00  0.00    -0.330 N 
ATOM     18  C   UNL d   1      11.194   7.459  -9.452  0.00  0.00     0.138 C 
ATOM     19  C   UNL d   1       9.975   7.225 -10.319  0.00  0.00     0.274 C 
BRANCH  17  20
ATOM     20  C   UNL d   1      11.084   7.946  -6.983  0.00  0.00     0.140 A 
ATOM     21  N   UNL d   1      11.218   7.377  -5.764  0.00  0.00    -0.227 NA
ATOM     22  C   UNL d   1      11.454   8.181  -4.713  0.00  0.00     0.101 A 
ATOM     23  C   UNL d   1      11.543   9.581  -4.812  0.00  0.00     0.021 A 
ATOM     24  C   UNL d   1      11.409  10.160  -6.084  0.00  0.00     0.005 A 
ATOM     25  C   UNL d   1      11.170   9.336  -7.188  0.00  0.00     0.037 A 
ENDBRANCH  17  20
ENDBRANCH  13  14
ENDBRANCH   1  13
BRANCH   1  26
ATOM     26  O   UNL d   1       7.410   6.410 -13.169  0.00  0.00    -0.346 OA
ATOM     27  C   UNL d   1       6.636   7.350 -12.460  0.00  0.00     0.175 C 
ENDBRANCH   1  26
TORSDOF 7
