REMARK  2 active torsions:
REMARK  status: ('A' for Active; 'I' for Inactive)
REMARK    1  A    between atoms: N_10  and  C_11 
REMARK    2  A    between atoms: C_11  and  C_12 
ROOT
ATOM      1 CL   UNL d   1      11.988   6.572  -2.751  0.00  0.00    -0.082 Cl
ATOM      2  C   UNL d   1      11.620   7.474  -4.178  0.00  0.00     0.058 A 
ATOM      3  C   UNL d   1      11.572   8.873  -4.041  0.00  0.00     0.013 A 
ATOM      4  C   UNL d   1      11.368   9.695  -5.157  0.00  0.00     0.025 A 
ATOM      5  C   UNL d   1      11.183   9.125  -6.433  0.00  0.00     0.090 A 
ATOM      6  C   UNL d   1      11.136   7.723  -6.554  0.00  0.00     0.003 A 
ATOM      7  C   UNL d   1      11.387   6.881  -5.433  0.00  0.00     0.009 A 
ATOM      8  C   UNL d   1      10.972   7.217  -7.963  0.00  0.00     0.062 C 
ATOM      9  C   UNL d   1      10.188   5.961  -8.258  0.00  0.00     0.255 C 
ATOM     10  N   UNL d   1      10.063   5.992  -9.712  0.00  0.00     0.142 N 
ATOM     11  C   UNL d   1      10.096   7.391 -10.155  0.00  0.00     0.254 C 
ATOM     12  C   UNL d   1      10.219   8.154  -8.842  0.00  0.00     0.070 C 
ATOM     13  C   UNL d   1      11.063   9.396  -8.863  0.00  0.00     0.151 C 
ATOM     14  O   UNL d   1      11.054   9.968  -7.529  0.00  0.00    -0.331 OA
ENDROOT
BRANCH  10  15
ATOM     15  C   UNL d   1       8.950   5.206 -10.209  0.00  0.00     0.277 C 
BRANCH  15  16
ATOM     16  C   UNL d   1       9.089   4.825 -11.678  0.00  0.00     0.011 A 
ATOM     17  C   UNL d   1       8.506   5.605 -12.685  0.00  0.00    -0.002 A 
ATOM     18  C   UNL d   1       8.654   5.204 -14.043  0.00  0.00    -0.000 A 
ATOM     19  C   UNL d   1       9.308   4.025 -14.405  0.00  0.00    -0.000 A 
ATOM     20  C   UNL d   1       9.905   3.238 -13.395  0.00  0.00    -0.000 A 
ATOM     21  C   UNL d   1       9.815   3.670 -12.061  0.00  0.00    -0.002 A 
ENDBRANCH  15  16
ENDBRANCH  10  15
TORSDOF 2
