REMARK  8 active torsions:
REMARK  status: ('A' for Active; 'I' for Inactive)
REMARK    1  A    between atoms: C_5  and  N_6 
REMARK    2  A    between atoms: N_9  and  C_10 
REMARK    3  A    between atoms: C_10  and  C_11 
REMARK    4  A    between atoms: C_11  and  C_12 
REMARK    5  A    between atoms: C_12  and  C_13 
REMARK    6  A    between atoms: C_13  and  N_14 
REMARK    7  A    between atoms: N_14  and  C_15 
REMARK    8  A    between atoms: C_18  and  C_19 
ROOT
ATOM      1  C   UNL d   1       9.242   4.870 -12.480  0.00  0.00     0.037 C 
ENDROOT
BRANCH   1   2
ATOM      2  C   UNL d   1       9.412   3.476 -13.142  0.00  0.00     0.251 C 
BRANCH   2   3
ATOM      3  N   UNL d   1      10.066   3.510 -14.457  0.00  0.00     0.141 N 
ATOM      4  C   UNL d   1      11.516   3.411 -14.289  0.00  0.00     0.274 C 
ATOM      5  C   UNL d   1      12.219   3.385 -15.654  0.00  0.00     0.137 C 
ATOM      6  N   UNL d   1      11.842   4.542 -16.453  0.00  0.00    -0.344 N 
ATOM      7  C   UNL d   1      10.406   4.715 -16.621  0.00  0.00     0.137 C 
ATOM      8  C   UNL d   1       9.739   4.716 -15.233  0.00  0.00     0.274 C 
BRANCH   6   9
ATOM      9  C   UNL d   1      12.814   5.411 -16.998  0.00  0.00     0.056 A 
ATOM     10  C   UNL d   1      12.519   6.767 -17.279  0.00  0.00     0.018 A 
ATOM     11  C   UNL d   1      13.490   7.626 -17.835  0.00  0.00     0.013 A 
ATOM     12  C   UNL d   1      14.784   7.144 -18.111  0.00  0.00     0.058 A 
ATOM     13 CL   UNL d   1      15.974   8.181 -18.801  0.00  0.00    -0.082 Cl
ATOM     14  C   UNL d   1      15.098   5.803 -17.826  0.00  0.00     0.013 A 
ATOM     15  C   UNL d   1      14.124   4.947 -17.282  0.00  0.00     0.018 A 
ENDBRANCH   6   9
ENDBRANCH   2   3
ENDBRANCH   1   2
BRANCH   1  16
ATOM     16  C   UNL d   1       9.161   4.828 -10.954  0.00  0.00     0.029 C 
BRANCH  16  17
ATOM     17  C   UNL d   1       9.399   6.218 -10.355  0.00  0.00     0.145 C 
BRANCH  17  18
ATOM     18  N   UNL d   1       9.338   6.153  -8.905  0.00  0.00    -0.084 NA
BRANCH  18  19
ATOM     19  C   UNL d   1      10.150   6.957  -8.081  0.00  0.00     0.770 A 
ATOM     20  N   UNL d   1      10.103   6.796  -6.731  0.00  0.00    -0.032 NA
ATOM     21  C   UNL d   1      11.017   7.677  -6.328  0.00  0.00     0.225 A 
ATOM     22  O   UNL d   1      11.591   8.366  -7.343  0.00  0.00    -0.177 OA
ATOM     23  N   UNL d   1      11.017   7.865  -8.520  0.00  0.00     0.072 NA
BRANCH  21  24
ATOM     24  C   UNL d   1      11.451   7.967  -4.972  0.00  0.00     0.044 A 
ATOM     25  C   UNL d   1      11.466   9.299  -4.514  0.00  0.00     0.004 A 
ATOM     26  C   UNL d   1      11.863   9.589  -3.198  0.00  0.00     0.000 A 
ATOM     27  C   UNL d   1      12.265   8.546  -2.333  0.00  0.00     0.000 A 
ATOM     28  C   UNL d   1      12.256   7.215  -2.787  0.00  0.00     0.000 A 
ATOM     29  C   UNL d   1      11.846   6.924  -4.103  0.00  0.00     0.004 A 
ENDBRANCH  21  24
ENDBRANCH  18  19
ENDBRANCH  17  18
ENDBRANCH  16  17
ENDBRANCH   1  16
TORSDOF 8
