REMARK  9 active torsions:
REMARK  status: ('A' for Active; 'I' for Inactive)
REMARK    1  A    between atoms: C_8  and  C_9 
REMARK    2  A    between atoms: C_9  and  N_10 
REMARK    3  A    between atoms: N_10  and  C_11 
REMARK    4  A    between atoms: C_14  and  C_15 
REMARK       I    between atoms: C_15  and  N_17 
REMARK    5  A    between atoms: N_17  and  CA_18 
REMARK    6  A    between atoms: CA_18  and  CB_19 
REMARK    7  A    between atoms: CA_18  and  C_24 
REMARK    8  A    between atoms: CB_19  and  CG_20 
REMARK    9  A    between atoms: CG_20  and  CD_21 
ROOT
ATOM      1  C   UNK d   0       7.520   3.960 -13.364  0.00  0.00     0.076 A 
ATOM      2  C   UNK d   0       8.927   3.975 -13.215  0.00  0.00     0.019 A 
ATOM      3  C   UNK d   0       9.557   5.012 -12.505  0.00  0.00     0.006 A 
ATOM      4  C   UNK d   0       8.784   6.033 -11.920  0.00  0.00     0.058 A 
ATOM      5  C   UNK d   0       7.387   6.035 -12.078  0.00  0.00     0.006 A 
ATOM      6  C   UNK d   0       6.757   5.003 -12.798  0.00  0.00     0.019 A 
ENDROOT
BRANCH   1   7
ATOM      7  N   UNK d   0       6.843   2.947 -14.053  0.00  0.00    -0.264 NA
BRANCH   7   8
ATOM      8  C   UNK d   0       7.583   1.912 -14.756  0.00  0.00     0.172 C 
BRANCH   8   9
ATOM      9  C   UNK d   0       6.689   0.855 -15.363  0.00  0.00     0.103 A 
ATOM     10  N   UNK d   0       6.640   0.785 -16.702  0.00  0.00    -0.241 NA
ATOM     11  C   UNK d   0       5.836  -0.164 -17.219  0.00  0.00     0.148 A 
ATOM     12  C   UNK d   0       5.676  -0.358 -18.610  0.00  0.00     0.174 A 
ATOM     13  C   UNK d   0       5.071  -1.056 -16.393  0.00  0.00     0.185 A 
ATOM     14  N   UNK d   0       4.902  -1.290 -19.168  0.00  0.00    -0.199 NA
ATOM     15  N   UNK d   0       6.341   0.464 -19.512  0.00  0.00    -0.078 NA
ATOM     16  C   UNK d   0       4.247  -2.064 -18.293  0.00  0.00     0.240 A 
ATOM     17  N   UNK d   0       3.440  -3.052 -18.825  0.00  0.00    -0.059 NA
ATOM     18  N   UNK d   0       4.282  -1.996 -16.956  0.00  0.00    -0.194 NA
ATOM     19  N   UNK d   0       5.134  -0.957 -15.055  0.00  0.00    -0.223 NA
ATOM     20  C   UNK d   0       5.940  -0.013 -14.547  0.00  0.00     0.117 A 
ENDBRANCH   8   9
ENDBRANCH   7   8
ENDBRANCH   1   7
BRANCH   4  21
ATOM     21  C   UNK d   0       9.442   7.138 -11.154  0.00  0.00     0.275 C 
ATOM     22  O   UNK d   0       9.331   8.306 -11.521  0.00  0.00    -0.266 OA
ATOM     23  N   GLU d   1      10.118   6.740 -10.065  0.00  0.00    -0.225 NA
BRANCH  23  24
ATOM     24  CA  GLU d   1      10.594   7.644  -9.004  0.00  0.00     0.194 C 
BRANCH  24  25
ATOM     25  CB  GLU d   1      10.709   6.845  -7.673  0.00  0.00     0.047 C 
BRANCH  25  26
ATOM     26  CG  GLU d   1      11.195   7.632  -6.427  0.00  0.00     0.100 C 
BRANCH  26  27
ATOM     27  CD  GLU d   1      10.315   8.813  -6.035  0.00  0.00     0.185 C 
ATOM     28  OE1 GLU d   1      10.702   9.716  -5.277  0.00  0.00    -0.647 OA
ATOM     29  OE2 GLU d   1       9.084   8.785  -6.600  0.00  0.00    -0.647 OA
ENDBRANCH  26  27
ENDBRANCH  25  26
ENDBRANCH  24  25
BRANCH  24  30
ATOM     30  C   GLU d   1      11.933   8.276  -9.435  0.00  0.00     0.209 C 
ATOM     31  O   GLU d   1      13.011   7.987  -8.915  0.00  0.00    -0.646 OA
ATOM     32  OXT GLU d   1      11.860   9.216 -10.412  0.00  0.00    -0.646 OA
ENDBRANCH  24  30
ENDBRANCH  23  24
ENDBRANCH   4  21
TORSDOF 9
