REMARK  7 active torsions:
REMARK  status: ('A' for Active; 'I' for Inactive)
REMARK    1  A    between atoms: C_2  and  C_3 
REMARK       I    between atoms: C_2  and  N_10 
REMARK    2  A    between atoms: C_3  and  C_4 
REMARK    3  A    between atoms: N_10  and  C_11 
REMARK    4  A    between atoms: C_15  and  C_16 
REMARK    5  A    between atoms: C_16  and  C_17 
REMARK    6  A    between atoms: C_17  and  N_18 
REMARK    7  A    between atoms: N_21  and  C_22 
ROOT
ATOM      1  C   UNL d   1       8.582   3.495 -13.512  0.00  0.00     0.084 A 
ATOM      2  C   UNL d   1       7.186   3.613 -13.691  0.00  0.00     0.019 A 
ATOM      3  C   UNL d   1       6.486   4.680 -13.106  0.00  0.00     0.001 A 
ATOM      4  C   UNL d   1       7.174   5.627 -12.326  0.00  0.00    -0.004 A 
ATOM      5  C   UNL d   1       8.561   5.504 -12.111  0.00  0.00    -0.019 A 
ATOM      6  C   UNL d   1       9.264   4.425 -12.695  0.00  0.00     0.015 A 
ENDROOT
BRANCH   5   7
ATOM      7  C   UNL d   1       9.263   6.526 -11.219  0.00  0.00     0.062 C 
BRANCH   7   8
ATOM      8  C   UNL d   1       9.412   6.038  -9.768  0.00  0.00     0.255 C 
BRANCH   8   9
ATOM      9  N   UNL d   1       9.694   7.142  -8.846  0.00  0.00     0.141 N 
ATOM     10  C   UNL d   1       8.969   6.923  -7.593  0.00  0.00     0.274 C 
ATOM     11  C   UNL d   1       9.163   8.113  -6.635  0.00  0.00     0.137 C 
ATOM     12  N   UNL d   1      10.574   8.371  -6.421  0.00  0.00    -0.344 N 
ATOM     13  C   UNL d   1      11.401   8.475  -7.609  0.00  0.00     0.137 C 
ATOM     14  C   UNL d   1      11.123   7.276  -8.549  0.00  0.00     0.274 C 
BRANCH  12  15
ATOM     15  C   UNL d   1      11.140   8.350  -5.144  0.00  0.00     0.056 A 
ATOM     16  C   UNL d   1      11.365   9.568  -4.474  0.00  0.00     0.017 A 
ATOM     17  C   UNL d   1      11.918   9.574  -3.177  0.00  0.00     0.002 A 
ATOM     18  C   UNL d   1      12.258   8.368  -2.542  0.00  0.00     0.000 A 
ATOM     19  C   UNL d   1      12.029   7.145  -3.203  0.00  0.00     0.002 A 
ATOM     20  C   UNL d   1      11.464   7.137  -4.496  0.00  0.00     0.017 A 
ENDBRANCH  12  15
ENDBRANCH   8   9
ENDBRANCH   7   8
ENDBRANCH   5   7
BRANCH   1  21
ATOM     21  N   UNL d   1       9.300   2.387 -14.037  0.00  0.00    -0.211 NA
ATOM     22  C   UNL d   1       9.054   1.758 -15.203  0.00  0.00     0.260 C 
ATOM     23  O   UNL d   1       8.303   2.211 -16.065  0.00  0.00    -0.270 OA
BRANCH  22  24
ATOM     24  C   UNL d   1       9.774   0.427 -15.444  0.00  0.00     0.116 C 
BRANCH  24  25
ATOM     25  C   UNL d   1      10.347   0.362 -16.851  0.00  0.00    -0.013 A 
ATOM     26  C   UNL d   1       9.721  -0.419 -17.848  0.00  0.00    -0.004 A 
ATOM     27  C   UNL d   1      10.257  -0.466 -19.149  0.00  0.00    -0.000 A 
ATOM     28  C   UNL d   1      11.418   0.267 -19.462  0.00  0.00    -0.000 A 
ATOM     29  C   UNL d   1      12.043   1.050 -18.472  0.00  0.00    -0.000 A 
ATOM     30  C   UNL d   1      11.508   1.098 -17.172  0.00  0.00    -0.004 A 
ENDBRANCH  24  25
ENDBRANCH  22  24
ENDBRANCH   1  21
TORSDOF 7
