REMARK  3 active torsions:
REMARK  status: ('A' for Active; 'I' for Inactive)
REMARK    1  A    between atoms: C_2  and  C_3 
REMARK    2  A    between atoms: C_3  and  N_4 
REMARK    3  A    between atoms: C_8  and  C_9 
ROOT
ATOM      1  N   UNL d   1       9.855   6.830  -8.232  0.00  0.00     0.137 N 
ATOM      2  C   UNL d   1       9.544   8.079  -8.925  0.00  0.00     0.250 C 
ATOM      3  C   UNL d   1      10.756   9.014  -8.889  0.00  0.00     0.036 C 
ATOM      4  C   UNL d   1      11.098   9.318  -7.427  0.00  0.00     0.008 C 
ATOM      5  C   UNL d   1      11.312   8.027  -6.622  0.00  0.00     0.056 C 
ATOM      6  C   UNL d   1      10.103   7.090  -6.809  0.00  0.00     0.255 C 
ENDROOT
BRANCH   5   7
ATOM      7  C   UNL d   1      11.587   8.292  -5.130  0.00  0.00    -0.019 A 
ATOM      8  C   UNL d   1      11.859   7.204  -4.267  0.00  0.00     0.017 A 
ATOM      9  C   UNL d   1      12.138   7.431  -2.901  0.00  0.00     0.103 A 
ATOM     10  C   UNL d   1      12.135   8.735  -2.374  0.00  0.00     0.021 A 
ATOM     11  N   UNL d   1      12.417   6.380  -2.052  0.00  0.00    -0.148 N 
ATOM     12  C   UNL d   1      11.854   9.809  -3.223  0.00  0.00     0.001 A 
ATOM     13  C   UNL d   1      11.607   9.603  -4.585  0.00  0.00    -0.004 A 
ENDBRANCH   5   7
BRANCH   1  14
ATOM     14  C   UNL d   1       8.723   5.912  -8.358  0.00  0.00     0.250 C 
BRANCH  14  15
ATOM     15  C   UNL d   1       9.147   4.673  -9.153  0.00  0.00     0.035 C 
ATOM     16  C   UNL d   1       9.139   4.906 -10.669  0.00  0.00     0.002 C 
ENDBRANCH  14  15
ENDBRANCH   1  14
TORSDOF 3
