REMARK  10 active torsions:
REMARK  status: ('A' for Active; 'I' for Inactive)
REMARK    1  A    between atoms: O_2  and  C_3 
REMARK    2  A    between atoms: C_8  and  C_9 
REMARK    3  A    between atoms: C_11  and  C_12 
REMARK    4  A    between atoms: C_12  and  N_13 
REMARK    5  A    between atoms: N_13  and  C_14 
REMARK    6  A    between atoms: C_14  and  C_15 
REMARK    7  A    between atoms: C_15  and  C_16 
REMARK    8  A    between atoms: C_16  and  C_17 
REMARK    9  A    between atoms: C_17  and  O_18 
REMARK   10  A    between atoms: O_18  and  C_19 
ROOT
ATOM      1  C   UNL d   1      10.034   7.536 -10.898  0.00  0.00     0.041 C 
ENDROOT
BRANCH   1   2
ATOM      2  C   UNL d   1       8.670   7.010 -11.264  0.00  0.00     0.290 C 
BRANCH   2   3
ATOM      3  N   UNL d   1       8.778   5.984 -12.263  0.00  0.00     0.339 N 
BRANCH   3   4
ATOM      4  C   UNL d   1       7.449   5.513 -12.633  0.00  0.00     0.290 C 
BRANCH   4   5
ATOM      5  C   UNL d   1       7.564   4.596 -13.842  0.00  0.00     0.041 A 
ATOM      6  C   UNL d   1       8.348   3.311 -13.757  0.00  0.00     0.026 A 
ATOM      7  C   UNL d   1       8.874   4.432 -14.617  0.00  0.00     0.007 A 
BRANCH   6   8
ATOM      8  C   UNL d   1       7.827   2.066 -14.389  0.00  0.00    -0.000 A 
ATOM      9  C   UNL d   1       8.674   1.272 -15.197  0.00  0.00     0.090 A 
ATOM     10  C   UNL d   1       8.137   0.128 -15.823  0.00  0.00     0.024 A 
ATOM     11  C   UNL d   1       6.788  -0.234 -15.629  0.00  0.00     0.002 A 
ATOM     12  C   UNL d   1       5.963   0.526 -14.795  0.00  0.00    -0.000 A 
ATOM     13  C   UNL d   1       6.481   1.672 -14.174  0.00  0.00    -0.002 A 
BRANCH   9  14
ATOM     14  O   UNL d   1       9.988   1.682 -15.334  0.00  0.00    -0.328 OA
ATOM     15  C   UNL d   1      10.861   0.899 -16.133  0.00  0.00     0.181 C 
ENDBRANCH   9  14
ENDBRANCH   6   8
ENDBRANCH   4   5
ENDBRANCH   3   4
ENDBRANCH   2   3
ENDBRANCH   1   2
BRANCH   1  16
ATOM     16  C   UNL d   1       9.941   8.491  -9.708  0.00  0.00     0.035 C 
BRANCH  16  17
ATOM     17  C   UNL d   1      11.382   8.960  -9.346  0.00  0.00     0.149 C 
BRANCH  17  18
ATOM     18  O   UNL d   1      11.448   9.584  -8.063  0.00  0.00    -0.331 OA
BRANCH  18  19
ATOM     19  C   UNL d   1      11.473   8.770  -6.974  0.00  0.00     0.096 C 
ATOM     20  C   UNL d   1      11.973   9.360  -5.756  0.00  0.00     0.043 C 
ATOM     21  C   UNL d   1      12.036   8.586  -4.591  0.00  0.00     0.082 C 
ATOM     22  C   UNL d   1      11.576   7.259  -4.615  0.00  0.00    -0.004 C 
ATOM     23  N   UNL d   1      12.634   9.048  -3.394  0.00  0.00    -0.212 NA
ATOM     24  C   UNL d   1      11.042   6.720  -5.812  0.00  0.00    -0.001 C 
ATOM     25  C   UNL d   1      11.754   6.373  -3.433  0.00  0.00     0.038 C 
ATOM     26  C   UNL d   1      11.059   7.413  -6.973  0.00  0.00     0.024 C 
ATOM     27  C   UNL d   1      11.669   7.154  -2.146  0.00  0.00     0.095 C 
ATOM     28  C   UNL d   1      12.549   8.402  -2.233  0.00  0.00     0.256 C 
ATOM     29  O   UNL d   1      13.104   8.787  -1.243  0.00  0.00    -0.270 OA
ENDBRANCH  18  19
ENDBRANCH  17  18
ENDBRANCH  16  17
ENDBRANCH   1  16
TORSDOF 10
