REMARK  4 active torsions:
REMARK  status: ('A' for Active; 'I' for Inactive)
REMARK    1  A    between atoms: N_7  and  C_8 
REMARK    2  A    between atoms: C_8  and  C_9 
REMARK    3  A    between atoms: C_9  and  C_10 
REMARK    4  A    between atoms: C_20  and  C_21 
ROOT
ATOM      1  O   UNL d   1       5.853   4.665 -13.510  0.00  0.00    -0.291 OA
ATOM      2  C   UNL d   1       7.056   4.792 -13.267  0.00  0.00     0.177 C 
ATOM      3  C   UNL d   1       7.575   6.156 -12.849  0.00  0.00     0.097 C 
ATOM      4  C   UNL d   1       8.683   6.000 -11.808  0.00  0.00     0.110 C 
ATOM      5  C   UNL d   1       9.281   7.385 -11.491  0.00  0.00     0.064 C 
ATOM      6  C   UNL d   1      10.209   7.364 -10.263  0.00  0.00     0.253 C 
ATOM      7  N   UNL d   1       9.537   6.779  -9.100  0.00  0.00     0.138 N 
ATOM      8  C   UNL d   1       9.132   5.406  -9.387  0.00  0.00     0.253 C 
ATOM      9  C   UNL d   1       8.109   5.387 -10.517  0.00  0.00     0.064 C 
ATOM     10  O   UNL d   1       9.720   5.163 -12.324  0.00  0.00    -0.333 OA
ATOM     11  C   UNL d   1       9.323   3.998 -12.952  0.00  0.00     0.119 C 
ATOM     12  C   UNL d   1       8.068   3.712 -13.402  0.00  0.00     0.061 C 
ENDROOT
BRANCH  12  13
ATOM     13  C   UNL d   1       7.703   2.432 -14.075  0.00  0.00     0.032 A 
ATOM     14  C   UNL d   1       8.591   1.757 -14.957  0.00  0.00     0.140 A 
ATOM     15  C   UNL d   1       8.206   0.537 -15.544  0.00  0.00     0.030 A 
ATOM     16  F   UNL d   1       9.806   2.278 -15.254  0.00  0.00    -0.204 F 
ATOM     17  C   UNL d   1       6.942  -0.019 -15.270  0.00  0.00     0.002 A 
ATOM     18  C   UNL d   1       6.066   0.618 -14.382  0.00  0.00     0.000 A 
ATOM     19  C   UNL d   1       6.444   1.834 -13.791  0.00  0.00     0.002 A 
ENDBRANCH  12  13
BRANCH   7  20
ATOM     20  C   UNL d   1      10.419   6.775  -7.944  0.00  0.00     0.255 C 
BRANCH  20  21
ATOM     21  C   UNL d   1      10.267   8.050  -7.098  0.00  0.00     0.062 C 
BRANCH  21  22
ATOM     22  C   UNL d   1      11.084   8.031  -5.810  0.00  0.00    -0.020 A 
ATOM     23  C   UNL d   1      11.819   9.163  -5.410  0.00  0.00    -0.004 A 
ATOM     24  C   UNL d   1      12.566   9.132  -4.212  0.00  0.00    -0.000 A 
ATOM     25  C   UNL d   1      12.582   7.975  -3.409  0.00  0.00    -0.000 A 
ATOM     26  C   UNL d   1      11.861   6.847  -3.804  0.00  0.00    -0.000 A 
ATOM     27  C   UNL d   1      11.107   6.875  -4.993  0.00  0.00    -0.004 A 
ENDBRANCH  21  22
ENDBRANCH  20  21
ENDBRANCH   7  20
TORSDOF 4
