REMARK  0 active torsions:
REMARK  status: ('A' for Active; 'I' for Inactive)
ROOT
ATOM      1  C   UNL d   1       6.052  -1.041 -14.412  0.00  0.00     0.286 C 
ATOM      2  N   UNL d   1       6.295   0.232 -13.757  0.00  0.00     0.142 N 
ATOM      3  C   UNL d   1       5.011   0.890 -13.695  0.00  0.00     0.255 C 
ATOM      4  C   UNL d   1       5.158   2.135 -12.827  0.00  0.00     0.061 C 
ATOM      5  C   UNL d   1       6.260   3.093 -13.248  0.00  0.00    -0.022 A 
ATOM      6  C   UNL d   1       6.362   4.427 -12.826  0.00  0.00    -0.004 A 
ATOM      7  C   UNL d   1       7.480   5.189 -13.201  0.00  0.00    -0.000 A 
ATOM      8  C   UNL d   1       8.491   4.621 -13.998  0.00  0.00    -0.000 A 
ATOM      9  C   UNL d   1       8.448   3.281 -14.450  0.00  0.00    -0.003 A 
ATOM     10  C   UNL d   1       7.304   2.547 -14.040  0.00  0.00     0.005 A 
ATOM     11  C   UNL d   1       7.208   1.087 -14.537  0.00  0.00     0.246 C 
ATOM     12  C   UNL d   1       8.609   0.432 -14.638  0.00  0.00     0.064 C 
ATOM     13  C   UNL d   1       9.617   1.286 -15.370  0.00  0.00    -0.020 A 
ATOM     14  C   UNL d   1      10.631   0.677 -16.140  0.00  0.00    -0.004 A 
ATOM     15  C   UNL d   1      11.554   1.469 -16.842  0.00  0.00    -0.000 A 
ATOM     16  C   UNL d   1      11.460   2.870 -16.780  0.00  0.00    -0.000 A 
ATOM     17  C   UNL d   1      10.446   3.474 -16.010  0.00  0.00    -0.000 A 
ATOM     18  C   UNL d   1       9.520   2.690 -15.284  0.00  0.00    -0.004 A 
ENDROOT
TORSDOF 0
