REMARK  3 active torsions:
REMARK  status: ('A' for Active; 'I' for Inactive)
REMARK    1  A    between atoms: C_10  and  N_11 
REMARK    2  A    between atoms: N_14  and  C_15 
REMARK    3  A    between atoms: C_15  and  C_16 
ROOT
ATOM      1  N   UNL d   1       7.950   2.381 -14.801  0.00  0.00    -0.344 N 
ATOM      2  C   UNL d   1       6.704   2.563 -14.070  0.00  0.00     0.137 C 
ATOM      3  C   UNL d   1       6.603   3.998 -13.535  0.00  0.00     0.275 C 
ATOM      4  N   UNL d   1       7.779   4.325 -12.725  0.00  0.00     0.145 N 
ATOM      5  C   UNL d   1       8.999   4.196 -13.536  0.00  0.00     0.275 C 
ATOM      6  C   UNL d   1       9.146   2.755 -14.063  0.00  0.00     0.137 C 
ENDROOT
BRANCH   1   7
ATOM      7  C   UNL d   1       8.004   1.800 -16.083  0.00  0.00     0.065 A 
ATOM      8  C   UNL d   1       8.818   2.363 -17.102  0.00  0.00     0.021 A 
ATOM      9  C   UNL d   1       9.706   3.602 -17.079  0.00  0.00     0.119 A 
ATOM     10  C   UNL d   1       8.871   1.792 -18.371  0.00  0.00     0.082 A 
ATOM     11  C   UNL d   1      10.249   3.562 -18.510  0.00  0.00     0.260 A 
ATOM     12  O   UNL d   1      11.079   4.355 -18.944  0.00  0.00    -0.270 OA
ATOM     13  N   UNL d   1       9.727   2.534 -19.187  0.00  0.00    -0.212 NA
ATOM     14  C   UNL d   1       8.136   0.651 -18.713  0.00  0.00     0.020 A 
ATOM     15  C   UNL d   1       7.323   0.076 -17.720  0.00  0.00     0.014 A 
ATOM     16  C   UNL d   1       7.256   0.630 -16.418  0.00  0.00     0.073 A 
ATOM     17 CL   UNL d   1       6.258  -0.210 -15.277  0.00  0.00    -0.081 Cl
ENDBRANCH   1   7
BRANCH   4  18
ATOM     18  C   UNL d   1       7.654   5.690 -12.218  0.00  0.00     0.277 C 
BRANCH  18  19
ATOM     19  C   UNL d   1       8.601   5.984 -11.074  0.00  0.00     0.011 A 
ATOM     20  C   UNL d   1       8.595   5.162  -9.928  0.00  0.00    -0.002 A 
ATOM     21  C   UNL d   1       9.438   5.447  -8.841  0.00  0.00    -0.000 A 
ATOM     22  C   UNL d   1      10.290   6.564  -8.894  0.00  0.00    -0.000 A 
ATOM     23  C   UNL d   1      10.306   7.384 -10.037  0.00  0.00    -0.000 A 
ATOM     24  C   UNL d   1       9.463   7.099 -11.128  0.00  0.00    -0.002 A 
ENDBRANCH  18  19
ENDBRANCH   4  18
TORSDOF 3
