REMARK  7 active torsions:
REMARK  status: ('A' for Active; 'I' for Inactive)
REMARK    1  A    between atoms: C_4  and  C_5 
REMARK    2  A    between atoms: N_17  and  C_18 
REMARK    3  A    between atoms: C_18  and  C_19 
REMARK    4  A    between atoms: C_19  and  C_20 
REMARK    5  A    between atoms: C_20  and  C_21 
REMARK    6  A    between atoms: C_21  and  N_22 
REMARK    7  A    between atoms: C_25  and  C_26 
ROOT
ATOM      1  C   UNL d   1       9.385   4.279 -14.157  0.00  0.00     0.112 C 
ENDROOT
BRANCH   1   2
ATOM      2  N   UNL d   1       9.465   3.051 -14.958  0.00  0.00    -0.270 N 
ATOM      3  C   UNL d   1      10.599   2.576 -15.499  0.00  0.00     0.240 A 
ATOM      4  O   UNL d   1      11.719   3.088 -15.425  0.00  0.00    -0.272 OA
ATOM      5  C   UNL d   1      10.345   1.289 -16.272  0.00  0.00     0.102 A 
ATOM      6  C   UNL d   1       8.822   1.095 -16.125  0.00  0.00     0.113 A 
ATOM      7  C   UNL d   1       8.419   2.265 -15.236  0.00  0.00     0.243 A 
ATOM      8  O   UNL d   1       7.260   2.432 -14.842  0.00  0.00    -0.272 OA
BRANCH   6   9
ATOM      9  C   UNL d   1       8.044   1.131 -17.417  0.00  0.00     0.008 A 
ATOM     10  C   UNL d   1       6.783   0.488 -17.686  0.00  0.00     0.018 A 
ATOM     11  C   UNL d   1       6.420   0.764 -19.038  0.00  0.00     0.081 A 
ATOM     12  C   UNL d   1       5.891  -0.315 -16.933  0.00  0.00     0.031 A 
ATOM     13  N   UNL d   1       7.437   1.553 -19.542  0.00  0.00    -0.244 NA
ATOM     14  C   UNL d   1       5.239   0.267 -19.617  0.00  0.00     0.021 A 
ATOM     15  C   UNL d   1       8.395   1.782 -18.577  0.00  0.00     0.095 A 
ATOM     16  C   UNL d   1       4.372  -0.523 -18.839  0.00  0.00     0.031 A 
ATOM     17  C   UNL d   1       4.699  -0.812 -17.498  0.00  0.00     0.140 A 
ATOM     18  F   UNL d   1       3.858  -1.558 -16.747  0.00  0.00    -0.204 F 
ENDBRANCH   6   9
ENDBRANCH   1   2
BRANCH   1  19
ATOM     19  C   UNL d   1       8.967   4.004 -12.706  0.00  0.00     0.027 C 
BRANCH  19  20
ATOM     20  C   UNL d   1       9.008   5.269 -11.851  0.00  0.00     0.037 C 
BRANCH  20  21
ATOM     21  C   UNL d   1       8.575   4.997 -10.395  0.00  0.00     0.250 C 
BRANCH  21  22
ATOM     22  N   UNL d   1       8.990   6.017  -9.440  0.00  0.00     0.137 N 
ATOM     23  C   UNL d   1       8.551   5.630  -8.090  0.00  0.00     0.251 C 
ATOM     24  C   UNL d   1       8.930   6.700  -7.048  0.00  0.00     0.040 C 
ATOM     25  C   UNL d   1      10.441   6.971  -7.052  0.00  0.00     0.028 C 
ATOM     26  C   UNL d   1      10.889   7.265  -8.483  0.00  0.00     0.040 C 
ATOM     27  C   UNL d   1      10.438   6.165  -9.432  0.00  0.00     0.251 C 
BRANCH  25  28
ATOM     28  C   UNL d   1      10.806   8.102  -6.142  0.00  0.00    -0.002 A 
ATOM     29  C   UNL d   1      11.380   8.007  -4.831  0.00  0.00     0.015 A 
ATOM     30  C   UNL d   1      11.540   9.329  -4.328  0.00  0.00     0.081 A 
ATOM     31  C   UNL d   1      11.758   6.939  -3.986  0.00  0.00     0.001 A 
ATOM     32  N   UNL d   1      11.091  10.173  -5.321  0.00  0.00    -0.244 NA
ATOM     33  C   UNL d   1      12.055   9.575  -3.047  0.00  0.00     0.019 A 
ATOM     34  C   UNL d   1      10.662   9.439  -6.404  0.00  0.00     0.095 A 
ATOM     35  C   UNL d   1      12.424   8.495  -2.229  0.00  0.00     0.002 A 
ATOM     36  C   UNL d   1      12.264   7.174  -2.689  0.00  0.00     0.000 A 
ENDBRANCH  25  28
ENDBRANCH  21  22
ENDBRANCH  20  21
ENDBRANCH  19  20
ENDBRANCH   1  19
TORSDOF 7
