REMARK  5 active torsions:
REMARK  status: ('A' for Active; 'I' for Inactive)
REMARK    1  A    between atoms: N_11  and  C_12 
REMARK    2  A    between atoms: N_15  and  C_16 
REMARK    3  A    between atoms: N_19  and  C_20 
REMARK    4  A    between atoms: C_20  and  C_21 
REMARK    5  A    between atoms: C_26  and  C_27 
ROOT
ATOM      1  C   UNL d   1      10.857   7.437  -6.961  0.00  0.00     0.094 C 
ATOM      2  C   UNL d   1      11.179   8.113  -8.322  0.00  0.00     0.058 C 
ATOM      3  C   UNL d   1      10.784   7.236  -9.500  0.00  0.00     0.252 C 
ATOM      4  N   UNL d   1       9.356   6.914  -9.375  0.00  0.00     0.135 N 
ATOM      5  C   UNL d   1       9.044   6.198  -8.128  0.00  0.00     0.252 C 
ATOM      6  C   UNL d   1       9.373   7.042  -6.907  0.00  0.00     0.058 C 
ENDROOT
BRANCH   4   7
ATOM      7  C   UNL d   1       8.751   6.224 -10.537  0.00  0.00     0.223 C 
ATOM      8  C   UNL d   1       9.149   6.851 -11.889  0.00  0.00     0.069 C 
ATOM      9  C   UNL d   1       8.658   5.964 -13.036  0.00  0.00     0.253 C 
ATOM     10  N   UNL d   1       9.318   4.677 -13.013  0.00  0.00     0.141 N 
ATOM     11  C   UNL d   1       8.801   4.029 -11.825  0.00  0.00     0.253 C 
ATOM     12  C   UNL d   1       9.160   4.745 -10.537  0.00  0.00     0.069 C 
BRANCH  10  13
ATOM     13  C   UNL d   1       8.913   3.787 -14.112  0.00  0.00     0.277 C 
BRANCH  13  14
ATOM     14  C   UNL d   1       9.611   4.084 -15.438  0.00  0.00     0.015 A 
ATOM     15  C   UNL d   1      10.689   3.367 -15.957  0.00  0.00     0.069 A 
ATOM     16  C   UNL d   1      11.347   3.800 -17.140  0.00  0.00     0.004 A 
ATOM     17  C   UNL d   1      10.866   4.894 -17.880  0.00  0.00    -0.000 A 
ATOM     18  C   UNL d   1       9.753   5.577 -17.395  0.00  0.00    -0.000 A 
ATOM     19  C   UNL d   1       9.175   5.189 -16.189  0.00  0.00    -0.002 A 
BRANCH  15  20
ATOM     20  C   UNL d   1      11.251   2.189 -15.196  0.00  0.00     0.418 C 
ATOM     21  F   UNL d   1      11.805   2.713 -14.099  0.00  0.00    -0.166 F 
ATOM     22  F   UNL d   1      10.340   1.254 -14.889  0.00  0.00    -0.166 F 
ATOM     23  F   UNL d   1      12.178   1.652 -15.994  0.00  0.00    -0.166 F 
ENDBRANCH  15  20
ENDBRANCH  13  14
ENDBRANCH  10  13
ENDBRANCH   4   7
BRANCH   1  24
ATOM     24  N   UNL d   1      11.184   8.271  -5.808  0.00  0.00    -0.281 N 
ATOM     25  C   UNL d   1      11.063   9.624  -5.713  0.00  0.00     0.350 A 
ATOM     26  O   UNL d   1      10.735  10.390  -6.582  0.00  0.00    -0.244 OA
ATOM     27  N   UNL d   1      11.383   9.996  -4.469  0.00  0.00    -0.189 NA
ATOM     28  C   UNL d   1      11.745   8.897  -3.752  0.00  0.00     0.129 A 
ATOM     29  C   UNL d   1      11.600   7.801  -4.571  0.00  0.00     0.084 A 
ATOM     30  C   UNL d   1      12.152   8.813  -2.433  0.00  0.00     0.159 A 
ATOM     31  C   UNL d   1      11.841   6.511  -4.109  0.00  0.00     0.019 A 
ATOM     32  C   UNL d   1      12.267   6.405  -2.767  0.00  0.00     0.004 A 
ATOM     33  C   UNL d   1      12.422   7.540  -1.950  0.00  0.00     0.031 A 
ATOM     34  F   UNL d   1      12.257   9.886  -1.644  0.00  0.00    -0.203 F 
ENDBRANCH   1  24
TORSDOF 5
