REMARK  4 active torsions:
REMARK  status: ('A' for Active; 'I' for Inactive)
REMARK    1  A    between atoms: C_11  and  C_12 
REMARK    2  A    between atoms: C_12  and  C_13 
REMARK    3  A    between atoms: C_13  and  N_14 
REMARK    4  A    between atoms: N_17  and  C_18 
ROOT
ATOM      1  C   UNL d   1      10.741   7.576 -10.438  0.00  0.00     0.251 C 
ENDROOT
BRANCH   1   2
ATOM      2  C   UNL d   1       9.560   7.087 -11.303  0.00  0.00     0.043 C 
BRANCH   2   3
ATOM      3  C   UNL d   1       9.320   5.554 -11.264  0.00  0.00     0.068 A 
ATOM      4  C   UNL d   1       9.576   4.848 -12.611  0.00  0.00     0.173 A 
ATOM      5  O   UNL d   1      10.631   4.894 -13.247  0.00  0.00    -0.291 OA
ATOM      6  C   UNL d   1       8.381   4.107 -12.974  0.00  0.00     0.032 A 
ATOM      7  C   UNL d   1       7.388   4.310 -12.026  0.00  0.00    -0.019 A 
ATOM      8  C   UNL d   1       8.194   3.258 -14.074  0.00  0.00     0.014 A 
ATOM      9  C   UNL d   1       6.138   3.678 -12.140  0.00  0.00    -0.003 A 
ATOM     10  C   UNL d   1       7.859   5.183 -10.894  0.00  0.00     0.034 A 
ATOM     11  C   UNL d   1       5.925   2.818 -13.244  0.00  0.00     0.011 A 
ATOM     12  C   UNL d   1       6.952   2.598 -14.200  0.00  0.00     0.058 A 
ATOM     13 CL   UNL d   1       6.736   1.490 -15.500  0.00  0.00    -0.082 Cl
ENDBRANCH   2   3
ENDBRANCH   1   2
BRANCH   1  14
ATOM     14  N   UNL d   1      10.310   8.003  -9.112  0.00  0.00     0.141 N 
ATOM     15  C   UNL d   1      10.157   6.845  -8.229  0.00  0.00     0.274 C 
ATOM     16  C   UNL d   1       9.670   7.278  -6.838  0.00  0.00     0.138 C 
ATOM     17  N   UNL d   1      10.587   8.273  -6.295  0.00  0.00    -0.330 N 
ATOM     18  C   UNL d   1      10.834   9.417  -7.160  0.00  0.00     0.138 C 
ATOM     19  C   UNL d   1      11.298   8.921  -8.545  0.00  0.00     0.274 C 
BRANCH  17  20
ATOM     20  C   UNL d   1      11.194   8.149  -5.032  0.00  0.00     0.140 A 
ATOM     21  N   UNL d   1      11.483   9.291  -4.370  0.00  0.00    -0.227 NA
ATOM     22  C   UNL d   1      12.041   9.207  -3.144  0.00  0.00     0.101 A 
ATOM     23  C   UNL d   1      12.345   7.990  -2.517  0.00  0.00     0.021 A 
ATOM     24  C   UNL d   1      12.056   6.802  -3.198  0.00  0.00     0.005 A 
ATOM     25  C   UNL d   1      11.464   6.878  -4.475  0.00  0.00     0.037 A 
ENDBRANCH  17  20
ENDBRANCH   1  14
TORSDOF 4
