REMARK  7 active torsions:
REMARK  status: ('A' for Active; 'I' for Inactive)
REMARK    1  A    between atoms: C_2  and  C_3 
REMARK    2  A    between atoms: C_3  and  N_4 
REMARK    3  A    between atoms: N_4  and  C_5 
REMARK    4  A    between atoms: N_4  and  C_8 
REMARK    5  A    between atoms: C_5  and  C_6 
REMARK    6  A    between atoms: C_14  and  C_15 
REMARK    7  A    between atoms: C_15  and  O_17 
ROOT
ATOM      1  C   UNL d   1       9.432   4.303 -13.918  0.00  0.00     0.227 C 
ATOM      2  C   UNL d   1       9.368   2.761 -13.779  0.00  0.00     0.060 C 
ATOM      3  C   UNL d   1       9.783   1.989 -15.047  0.00  0.00     0.129 C 
ATOM      4  N   UNL d   1      10.919   2.605 -15.698  0.00  0.00    -0.255 N 
ATOM      5  N   UNL d   1      11.550   1.983 -16.716  0.00  0.00    -0.168 NA
ATOM      6  C   UNL d   1      12.492   2.836 -17.096  0.00  0.00     0.127 A 
ATOM      7  C   UNL d   1      12.451   4.032 -16.324  0.00  0.00     0.097 A 
ATOM      8  C   UNL d   1      11.429   3.859 -15.436  0.00  0.00     0.064 A 
ATOM      9  C   UNL d   1      10.863   4.711 -14.349  0.00  0.00     0.079 C 
ENDROOT
BRANCH   1  10
ATOM     10  N   UNL d   1       9.008   5.010 -12.689  0.00  0.00     0.135 N 
BRANCH  10  11
ATOM     11  C   UNL d   1       7.740   4.548 -12.096  0.00  0.00     0.250 C 
BRANCH  11  12
ATOM     12  C   UNL d   1       6.530   4.574 -13.027  0.00  0.00     0.035 C 
ATOM     13  C   UNL d   1       5.321   3.902 -12.401  0.00  0.00     0.002 C 
ENDBRANCH  11  12
ENDBRANCH  10  11
BRANCH  10  14
ATOM     14  C   UNL d   1       8.957   6.460 -12.887  0.00  0.00     0.250 C 
BRANCH  14  15
ATOM     15  C   UNL d   1       8.598   7.275 -11.659  0.00  0.00     0.035 C 
ATOM     16  C   UNL d   1       9.104   8.701 -11.678  0.00  0.00     0.002 C 
ENDBRANCH  14  15
ENDBRANCH  10  14
ENDBRANCH   1  10
BRANCH   7  17
ATOM     17  C   UNL d   1      13.327   5.215 -16.465  0.00  0.00     0.299 C 
ATOM     18  O   UNL d   1      13.125   6.288 -15.891  0.00  0.00    -0.259 OA
BRANCH  17  19
ATOM     19  O   UNL d   1      14.366   4.979 -17.282  0.00  0.00    -0.296 OA
ATOM     20  C   UNL d   1      15.327   5.995 -17.511  0.00  0.00     0.185 C 
ENDBRANCH  17  19
ENDBRANCH   7  17
TORSDOF 7
