REMARK  7 active torsions:
REMARK  status: ('A' for Active; 'I' for Inactive)
REMARK    1  A    between atoms: C_2  and  C_3 
REMARK       I    between atoms: C_2  and  N_11 
REMARK    2  A    between atoms: C_14  and  C_16 
REMARK    3  A    between atoms: C_16  and  N_17 
REMARK    4  A    between atoms: N_17  and  C_18 
REMARK    5  A    between atoms: C_18  and  C_19 
REMARK    6  A    between atoms: C_19  and  O_20 
REMARK    7  A    between atoms: O_20  and  C_21 
ROOT
ATOM      1  O   UNL d   1       9.504   1.596 -14.752  0.00  0.00    -0.267 OA
ATOM      2  C   UNL d   1       8.383   2.054 -14.443  0.00  0.00     0.257 C 
ATOM      3  N   UNL d   1       8.188   3.318 -13.974  0.00  0.00    -0.317 N 
ATOM      4  C   UNL d   1       9.316   4.285 -13.959  0.00  0.00     0.107 C 
ATOM      5  C   UNL d   1       9.526   4.852 -12.545  0.00  0.00     0.059 C 
ATOM      6  C   UNL d   1       8.233   5.442 -11.959  0.00  0.00     0.172 C 
ATOM      7  F   UNL d   1       7.876   6.516 -12.675  0.00  0.00    -0.238 F 
ATOM      8  C   UNL d   1       7.090   4.425 -12.071  0.00  0.00     0.059 C 
ATOM      9  C   UNL d   1       6.910   3.939 -13.517  0.00  0.00     0.107 C 
ENDROOT
BRANCH   6  10
ATOM     10  C   UNL d   1       8.437   5.877 -10.505  0.00  0.00     0.323 C 
BRANCH  10  11
ATOM     11  N   UNL d   1       9.480   6.895 -10.446  0.00  0.00     0.345 N 
BRANCH  11  12
ATOM     12  C   UNL d   1       9.564   7.332  -9.069  0.00  0.00     0.323 C 
BRANCH  12  13
ATOM     13  C   UNL d   1      10.701   8.375  -8.935  0.00  0.00     0.187 C 
BRANCH  13  14
ATOM     14  O   UNL d   1      10.556   9.176  -7.769  0.00  0.00    -0.329 OA
BRANCH  14  15
ATOM     15  C   UNL d   1      10.964   8.668  -6.560  0.00  0.00     0.094 A 
ATOM     16  C   UNL d   1      11.040   7.285  -6.240  0.00  0.00     0.024 A 
ATOM     17  C   UNL d   1      11.475   6.875  -4.968  0.00  0.00     0.002 A 
ATOM     18  C   UNL d   1      11.850   7.822  -4.001  0.00  0.00     0.000 A 
ATOM     19  C   UNL d   1      11.791   9.193  -4.314  0.00  0.00     0.002 A 
ATOM     20  C   UNL d   1      11.333   9.618  -5.577  0.00  0.00     0.024 A 
ENDBRANCH  14  15
ENDBRANCH  13  14
ENDBRANCH  12  13
ENDBRANCH  11  12
ENDBRANCH  10  11
ENDBRANCH   6  10
BRANCH   2  21
ATOM     21  C   UNL d   1       7.192   1.178 -14.695  0.00  0.00     0.057 A 
ATOM     22  C   UNL d   1       7.042   0.537 -15.946  0.00  0.00     0.017 A 
ATOM     23  C   UNL d   1       5.886  -0.221 -16.236  0.00  0.00     0.069 A 
ATOM     24  C   UNL d   1       4.864  -0.351 -15.260  0.00  0.00     0.068 A 
ATOM     25 CL   UNL d   1       5.743  -1.007 -17.770  0.00  0.00    -0.082 Cl
ATOM     26  C   UNL d   1       5.011   0.261 -14.023  0.00  0.00     0.012 A 
ATOM     27 CL   UNL d   1       3.446  -1.296 -15.580  0.00  0.00    -0.082 Cl
ATOM     28  C   UNL d   1       6.191   0.985 -13.707  0.00  0.00     0.006 A 
ENDBRANCH   2  21
TORSDOF 7
