REMARK  4 active torsions:
REMARK  status: ('A' for Active; 'I' for Inactive)
REMARK    1  A    between atoms: C_2  and  C_3 
REMARK       I    between atoms: C_2  and  N_16 
REMARK    2  A    between atoms: C_3  and  N_4 
REMARK    3  A    between atoms: N_7  and  C_8 
REMARK    4  A    between atoms: N_16  and  C_17 
ROOT
ATOM      1  N   UNL d   1       9.464   7.252  -9.389  0.00  0.00     0.151 N 
ATOM      2  C   UNL d   1      10.502   6.399  -8.797  0.00  0.00     0.275 C 
ATOM      3  C   UNL d   1      10.240   6.189  -7.302  0.00  0.00     0.138 C 
ATOM      4  N   UNL d   1      10.102   7.472  -6.619  0.00  0.00    -0.330 N 
ATOM      5  C   UNL d   1       9.122   8.355  -7.254  0.00  0.00     0.138 C 
ATOM      6  C   UNL d   1       9.464   8.554  -8.734  0.00  0.00     0.275 C 
ENDROOT
BRANCH   1   7
ATOM      7  C   UNL d   1       9.667   7.435 -10.831  0.00  0.00     0.339 C 
BRANCH   7   8
ATOM      8  C   UNL d   1       9.196   6.234 -11.651  0.00  0.00     0.290 C 
ATOM      9  O   UNL d   1      10.004   5.536 -12.233  0.00  0.00    -0.268 OA
ATOM     10  N   UNL d   1       7.881   5.996 -11.678  0.00  0.00    -0.207 NA
BRANCH  10  11
ATOM     11  C   UNL d   1       7.241   4.929 -12.386  0.00  0.00     0.123 A 
ATOM     12  C   UNL d   1       5.916   4.588 -12.061  0.00  0.00     0.121 A 
ATOM     13  N   UNL d   1       5.261   3.590 -12.692  0.00  0.00    -0.221 NA
ATOM     14  C   UNL d   1       5.934   2.923 -13.632  0.00  0.00     0.199 A 
ATOM     15  N   UNL d   1       7.174   3.148 -14.040  0.00  0.00    -0.221 NA
ATOM     16  C   UNL d   1       7.834   4.149 -13.425  0.00  0.00     0.121 A 
ENDBRANCH  10  11
ENDBRANCH   7   8
ENDBRANCH   1   7
BRANCH   4  17
ATOM     17  C   UNL d   1      10.859   7.867  -5.509  0.00  0.00     0.140 A 
ATOM     18  N   UNL d   1      10.872   9.182  -5.195  0.00  0.00    -0.227 NA
ATOM     19  C   UNL d   1      11.526   9.590  -4.087  0.00  0.00     0.101 A 
ATOM     20  C   UNL d   1      12.261   8.727  -3.243  0.00  0.00     0.021 A 
ATOM     21  C   UNL d   1      12.259   7.365  -3.571  0.00  0.00     0.005 A 
ATOM     22  C   UNL d   1      11.548   6.925  -4.701  0.00  0.00     0.037 A 
ENDBRANCH   4  17
TORSDOF 4
