REMARK  3 active torsions:
REMARK  status: ('A' for Active; 'I' for Inactive)
REMARK    1  A    between atoms: C_4  and  N_5 
REMARK    2  A    between atoms: N_15  and  S_16 
REMARK    3  A    between atoms: S_16  and  C_19 
ROOT
ATOM      1  C   UNL d   1       5.207   3.348 -13.379  0.00  0.00     0.031 C 
ATOM      2  C   UNL d   1       6.680   3.447 -13.488  0.00  0.00    -0.019 A 
ATOM      3  C   UNL d   1       7.355   4.329 -12.639  0.00  0.00     0.007 A 
ATOM      4  C   UNL d   1       8.742   4.523 -12.762  0.00  0.00     0.040 A 
ATOM      5  C   UNL d   1       9.460   3.822 -13.788  0.00  0.00     0.061 A 
ATOM      6  C   UNL d   1       8.762   2.956 -14.708  0.00  0.00     0.073 A 
ATOM      7  C   UNL d   1       7.375   2.767 -14.511  0.00  0.00     0.014 A 
ATOM      8  N   UNL d   1       9.394   2.340 -15.819  0.00  0.00    -0.255 N 
ATOM      9  C   UNL d   1      10.780   2.777 -16.161  0.00  0.00     0.105 C 
ATOM     10  C   UNL d   1      10.730   3.992 -17.104  0.00  0.00     0.026 C 
ATOM     11  C   UNL d   1      11.617   3.040 -14.935  0.00  0.00     0.093 C 
ATOM     12  C   UNL d   1      10.916   3.963 -14.010  0.00  0.00     0.177 C 
ATOM     13  O   UNL d   1      11.634   4.804 -13.409  0.00  0.00    -0.291 OA
ENDROOT
BRANCH   8  14
ATOM     14  S   UNL d   1       8.493   1.400 -17.015  0.00  0.00     0.268 S 
ATOM     15  O   UNL d   1       8.106   0.140 -16.346  0.00  0.00    -0.200 OA
ATOM     16  O   UNL d   1       7.455   2.281 -17.546  0.00  0.00    -0.200 OA
BRANCH  14  17
ATOM     17  C   UNL d   1       9.617   1.025 -18.319  0.00  0.00     0.104 A 
ATOM     18  C   UNL d   1      10.709   0.189 -18.082  0.00  0.00     0.013 A 
ATOM     19  C   UNL d   1      11.620  -0.046 -19.133  0.00  0.00     0.001 A 
ATOM     20  C   UNL d   1      11.377   0.470 -20.434  0.00  0.00     0.000 A 
ATOM     21  C   UNL d   1      12.773  -0.817 -18.893  0.00  0.00     0.000 A 
ATOM     22  C   UNL d   1      10.242   1.282 -20.665  0.00  0.00     0.001 A 
ATOM     23  C   UNL d   1      12.280   0.203 -21.476  0.00  0.00     0.000 A 
ATOM     24  C   UNL d   1       9.358   1.541 -19.602  0.00  0.00     0.013 A 
ATOM     25  C   UNL d   1      13.424  -0.587 -21.232  0.00  0.00     0.000 A 
ATOM     26  C   UNL d   1      13.669  -1.091 -19.936  0.00  0.00     0.000 A 
ENDBRANCH  14  17
ENDBRANCH   8  14
BRANCH   4  27
ATOM     27  N   UNL d   1       9.394   5.374 -11.873  0.00  0.00    -0.248 NA
ATOM     28  C   UNL d   1       9.438   4.831 -10.511  0.00  0.00     0.112 C 
ATOM     29  C   UNL d   1      10.257   5.795  -9.597  0.00  0.00     0.268 C 
ATOM     30  N   UNL d   1       9.607   7.106  -9.541  0.00  0.00     0.142 N 
ATOM     31  C   UNL d   1       9.651   7.643 -10.907  0.00  0.00     0.268 C 
ATOM     32  C   UNL d   1      10.512   7.920  -8.756  0.00  0.00     0.285 C 
ATOM     33  C   UNL d   1       8.854   6.742 -11.869  0.00  0.00     0.112 C 
ENDBRANCH   4  27
TORSDOF 3
