REMARK  3 active torsions:
REMARK  status: ('A' for Active; 'I' for Inactive)
REMARK    1  A    between atoms: C_2  and  C_3 
REMARK    2  A    between atoms: N_12  and  C_13 
REMARK    3  A    between atoms: C_13  and  C_14 
ROOT
ATOM      1  O   UNL d   1       9.069   9.041 -10.473  0.00  0.00    -0.221 OA
ATOM      2  C   UNL d   1       9.684   7.835 -10.022  0.00  0.00     0.149 C 
ATOM      3  C   UNL d   1      11.195   8.020 -10.096  0.00  0.00     0.070 C 
ATOM      4  C   UNL d   1      11.764   9.004  -9.086  0.00  0.00     0.254 C 
ATOM      5  N   UNL d   1      11.415   8.623  -7.724  0.00  0.00     0.142 N 
ATOM      6  C   UNL d   1       9.964   8.651  -7.593  0.00  0.00     0.254 C 
ATOM      7  C   UNL d   1       9.397   7.611  -8.521  0.00  0.00     0.070 C 
ENDROOT
BRANCH   5   8
ATOM      8  C   UNL d   1      11.980   9.578  -6.810  0.00  0.00     0.278 C 
BRANCH   8   9
ATOM      9  C   UNL d   1      11.659   9.422  -5.373  0.00  0.00     0.032 C 
ATOM     10  C   UNL d   1      11.750   8.286  -4.533  0.00  0.00     0.017 C 
ATOM     11  C   UNL d   1      11.492   8.669  -3.195  0.00  0.00     0.081 C 
ATOM     12  C   UNL d   1      12.024   6.952  -4.728  0.00  0.00     0.001 C 
ATOM     13  N   UNL d   1      11.126   9.965  -3.284  0.00  0.00    -0.244 NA
ATOM     14  C   UNL d   1      11.552   7.763  -2.120  0.00  0.00     0.019 C 
ATOM     15  C   UNL d   1      11.081  10.364  -4.596  0.00  0.00     0.097 C 
ATOM     16  C   UNL d   1      11.923   6.461  -2.352  0.00  0.00     0.002 C 
ATOM     17  C   UNL d   1      12.236   6.130  -3.650  0.00  0.00     0.000 C 
ENDBRANCH   8   9
ENDBRANCH   5   8
BRANCH   2  18
ATOM     18  C   UNL d   1       9.213   6.650 -10.887  0.00  0.00     0.005 A 
ATOM     19  C   UNL d   1       8.469   5.571 -10.347  0.00  0.00     0.000 A 
ATOM     20  C   UNL d   1       7.973   4.556 -11.166  0.00  0.00     0.029 A 
ATOM     21  C   UNL d   1       8.253   4.548 -12.536  0.00  0.00     0.140 A 
ATOM     22  C   UNL d   1       8.998   5.591 -13.098  0.00  0.00     0.029 A 
ATOM     23  F   UNL d   1       7.793   3.550 -13.321  0.00  0.00    -0.204 F 
ATOM     24  C   UNL d   1       9.435   6.659 -12.284  0.00  0.00     0.000 A 
ENDBRANCH   2  18
TORSDOF 3
