REMARK  7 active torsions:
REMARK  status: ('A' for Active; 'I' for Inactive)
REMARK    1  A    between atoms: O_2  and  C_3 
REMARK    2  A    between atoms: C_12  and  O_13 
REMARK    3  A    between atoms: O_13  and  C_14 
REMARK    4  A    between atoms: C_14  and  C_16 
REMARK    5  A    between atoms: C_16  and  C_17 
REMARK    6  A    between atoms: N_20  and  C_21 
REMARK    7  A    between atoms: C_21  and  C_22 
ROOT
ATOM      1  C   UNL d   1       8.854   6.612 -12.380  0.00  0.00     0.276 C 
ATOM      2  O   UNL d   1       7.719   6.723 -12.842  0.00  0.00    -0.264 OA
ENDROOT
BRANCH   1   3
ATOM      3  O   UNL d   1       9.710   5.583 -12.562  0.00  0.00    -0.274 OA
BRANCH   3   4
ATOM      4  C   UNL d   1       9.397   4.514 -13.363  0.00  0.00     0.125 A 
ATOM      5  C   UNL d   1      10.361   4.086 -14.304  0.00  0.00     0.117 A 
ATOM      6  C   UNL d   1      10.053   3.007 -15.169  0.00  0.00     0.026 A 
ATOM      7  C   UNL d   1       8.800   2.361 -15.091  0.00  0.00     0.002 A 
ATOM      8  C   UNL d   1       7.850   2.785 -14.132  0.00  0.00     0.002 A 
ATOM      9  C   UNL d   1       8.492   1.297 -15.961  0.00  0.00     0.000 A 
ATOM     10  C   UNL d   1       6.598   2.136 -14.042  0.00  0.00     0.000 A 
ATOM     11  C   UNL d   1       8.153   3.847 -13.266  0.00  0.00     0.027 A 
ATOM     12  C   UNL d   1       6.301   1.067 -14.907  0.00  0.00     0.000 A 
ATOM     13  C   UNL d   1       7.243   0.650 -15.868  0.00  0.00     0.000 A 
BRANCH   5  14
ATOM     14  O   UNL d   1      11.564   4.766 -14.322  0.00  0.00    -0.326 OA
ATOM     15  C   UNL d   1      12.490   4.465 -15.354  0.00  0.00     0.181 C 
ENDBRANCH   5  14
ENDBRANCH   3   4
ENDBRANCH   1   3
BRANCH   1  16
ATOM     16  C   UNL d   1       9.460   7.712 -11.516  0.00  0.00     0.096 C 
BRANCH  16  17
ATOM     17  C   UNL d   1      10.142   7.179 -10.240  0.00  0.00     0.014 C 
ATOM     18  C   UNL d   1      10.628   8.345  -9.379  0.00  0.00     0.036 C 
ATOM     19  C   UNL d   1      11.292   7.823  -8.102  0.00  0.00     0.251 C 
ATOM     20  N   UNL d   1      10.305   7.052  -7.334  0.00  0.00     0.141 N 
ATOM     21  C   UNL d   1       9.911   5.861  -8.087  0.00  0.00     0.251 C 
ATOM     22  C   UNL d   1       9.232   6.262  -9.395  0.00  0.00     0.036 C 
BRANCH  20  23
ATOM     23  C   UNL d   1      10.829   6.649  -6.032  0.00  0.00     0.277 C 
BRANCH  23  24
ATOM     24  C   UNL d   1      11.152   7.791  -5.088  0.00  0.00     0.011 A 
ATOM     25  C   UNL d   1      11.904   7.535  -3.921  0.00  0.00    -0.002 A 
ATOM     26  C   UNL d   1      12.227   8.585  -3.035  0.00  0.00    -0.000 A 
ATOM     27  C   UNL d   1      11.797   9.890  -3.322  0.00  0.00    -0.000 A 
ATOM     28  C   UNL d   1      11.052  10.147  -4.491  0.00  0.00    -0.000 A 
ATOM     29  C   UNL d   1      10.690   9.102  -5.344  0.00  0.00    -0.002 A 
ENDBRANCH  23  24
ENDBRANCH  20  23
ENDBRANCH  16  17
ENDBRANCH   1  16
TORSDOF 7
