REMARK  17 active torsions:
REMARK  status: ('A' for Active; 'I' for Inactive)
REMARK    1  A    between atoms: O_2  and  C_3 
REMARK    2  A    between atoms: C_8  and  N_9 
REMARK    3  A    between atoms: N_12  and  C_13 
REMARK    4  A    between atoms: C_13  and  C_14 
REMARK    5  A    between atoms: C_14  and  C_15 
REMARK    6  A    between atoms: C_15  and  C_16 
REMARK    7  A    between atoms: C_16  and  N_17 
REMARK       I    between atoms: N_17  and  C_18 
REMARK    8  A    between atoms: C_18  and  C_20 
REMARK    9  A    between atoms: C_24  and  O_25 
REMARK   10  A    between atoms: O_25  and  C_26 
REMARK   11  A    between atoms: C_26  and  C_27 
REMARK   12  A    between atoms: C_27  and  O_28 
REMARK   13  A    between atoms: O_28  and  C_29 
REMARK   14  A    between atoms: C_29  and  C_30 
REMARK   15  A    between atoms: C_30  and  O_31 
REMARK   16  A    between atoms: O_31  and  C_32 
REMARK   17  A    between atoms: C_32  and  C_33 
ROOT
ATOM      1  N   UNL d   1       7.733   5.949 -11.237  0.00  0.00    -0.233 NA
ATOM      2  C   UNL d   1       9.069   6.018 -11.106  0.00  0.00     0.293 C 
ATOM      3  O   UNL d   1       9.841   5.612 -11.972  0.00  0.00    -0.264 OA
ENDROOT
BRANCH   2   4
ATOM      4  C   UNL d   1       9.570   6.720  -9.899  0.00  0.00     0.139 A 
ATOM      5  N   UNL d   1      10.775   7.412  -9.950  0.00  0.00    -0.241 NA
ATOM      6  C   UNL d   1      11.070   7.978  -8.719  0.00  0.00     0.082 A 
ATOM      7  C   UNL d   1       9.988   7.630  -7.865  0.00  0.00     0.021 A 
ATOM      8  C   UNL d   1      12.147   8.745  -8.255  0.00  0.00     0.021 A 
ATOM      9  C   UNL d   1       9.074   6.828  -8.624  0.00  0.00     0.026 A 
ATOM     10  C   UNL d   1      10.025   8.101  -6.529  0.00  0.00     0.026 A 
ATOM     11  C   UNL d   1      11.109   8.858  -6.039  0.00  0.00     0.094 A 
ATOM     12  C   UNL d   1      12.165   9.187  -6.920  0.00  0.00     0.026 A 
BRANCH  11  13
ATOM     13  O   UNL d   1      11.069   9.277  -4.727  0.00  0.00    -0.328 OA
BRANCH  13  14
ATOM     14  C   UNL d   1      12.277   9.212  -3.964  0.00  0.00     0.181 C 
BRANCH  14  15
ATOM     15  C   UNL d   1      12.433   7.820  -3.345  0.00  0.00     0.175 C 
BRANCH  15  16
ATOM     16  O   UNL d   1      11.497   7.668  -2.290  0.00  0.00    -0.349 OA
BRANCH  16  17
ATOM     17  C   UNL d   1      10.884   6.393  -2.290  0.00  0.00     0.174 C 
BRANCH  17  18
ATOM     18  C   UNL d   1       9.855   6.309  -1.150  0.00  0.00     0.174 C 
BRANCH  18  19
ATOM     19  O   UNL d   1       8.587   5.909  -1.627  0.00  0.00    -0.349 OA
BRANCH  19  20
ATOM     20  C   UNL d   1       7.671   5.516  -0.616  0.00  0.00     0.180 C 
BRANCH  20  21
ATOM     21  C   UNL d   1       6.477   4.835  -1.283  0.00  0.00     0.225 C 
ATOM     22  F   UNL d   1       6.780   3.587  -1.606  0.00  0.00    -0.232 F 
ENDBRANCH  20  21
ENDBRANCH  19  20
ENDBRANCH  18  19
ENDBRANCH  17  18
ENDBRANCH  16  17
ENDBRANCH  15  16
ENDBRANCH  14  15
ENDBRANCH  13  14
ENDBRANCH  11  13
ENDBRANCH   2   4
BRANCH   1  23
ATOM     23  C   UNL d   1       7.035   5.471 -12.426  0.00  0.00     0.129 C 
BRANCH  23  24
ATOM     24  C   UNL d   1       6.702   3.982 -12.294  0.00  0.00     0.029 C 
BRANCH  24  25
ATOM     25  C   UNL d   1       6.840   3.195 -13.618  0.00  0.00     0.037 C 
BRANCH  25  26
ATOM     26  C   UNL d   1       8.312   3.092 -14.088  0.00  0.00     0.251 C 
BRANCH  26  27
ATOM     27  N   UNL d   1       8.385   2.757 -15.503  0.00  0.00     0.141 N 
ATOM     28  C   UNL d   1       9.480   3.502 -16.148  0.00  0.00     0.274 C 
ATOM     29  C   UNL d   1       9.572   3.170 -17.650  0.00  0.00     0.137 C 
ATOM     30  N   UNL d   1       9.682   1.732 -17.811  0.00  0.00    -0.343 N 
ATOM     31  C   UNL d   1       8.668   0.932 -17.144  0.00  0.00     0.137 C 
ATOM     32  C   UNL d   1       8.613   1.317 -15.656  0.00  0.00     0.274 C 
BRANCH  30  33
ATOM     33  C   UNL d   1      10.684   1.137 -18.613  0.00  0.00     0.079 A 
ATOM     34  C   UNL d   1      10.350   0.165 -19.591  0.00  0.00     0.110 A 
ATOM     35  C   UNL d   1      11.384  -0.410 -20.366  0.00  0.00     0.026 A 
ATOM     36  C   UNL d   1      12.729  -0.046 -20.168  0.00  0.00     0.002 A 
ATOM     37  C   UNL d   1      13.052   0.919 -19.198  0.00  0.00     0.002 A 
ATOM     38  C   UNL d   1      12.034   1.514 -18.432  0.00  0.00     0.019 A 
BRANCH  34  39
ATOM     39  O   UNL d   1       9.016  -0.156 -19.754  0.00  0.00    -0.327 OA
ATOM     40  C   UNL d   1       8.645  -1.041 -20.797  0.00  0.00     0.181 C 
ENDBRANCH  34  39
ENDBRANCH  30  33
ENDBRANCH  26  27
ENDBRANCH  25  26
ENDBRANCH  24  25
ENDBRANCH  23  24
ENDBRANCH   1  23
TORSDOF 17
