REMARK  5 active torsions:
REMARK  status: ('A' for Active; 'I' for Inactive)
REMARK    1  A    between atoms: C_9  and  O_10 
REMARK    2  A    between atoms: O_10  and  C_11 
REMARK    3  A    between atoms: C_11  and  C_12 
REMARK    4  A    between atoms: C_12  and  C_14 
REMARK    5  A    between atoms: C_14  and  N_15 
ROOT
ATOM      1  C   UNL d   1       8.246   3.430  -8.219  0.00  0.00    -0.034 C 
ATOM      2  B   UNL d   1       8.778   4.616  -9.075  0.00  0.00     0.359 B 
ATOM      3  C   UNL d   1       8.608   4.787 -10.640  0.00  0.00    -0.059 C 
ATOM      4  C   UNL d   1       9.092   5.924 -11.181  0.00  0.00    -0.015 C 
ATOM      5  C   UNL d   1       9.762   6.937 -10.373  0.00  0.00     0.016 C 
ATOM      6  C   UNL d   1      10.206   8.122 -10.983  0.00  0.00     0.002 C 
ATOM      7  C   UNL d   1      10.959   9.046 -10.259  0.00  0.00     0.002 C 
ATOM      8  C   UNL d   1      11.139   8.895  -8.890  0.00  0.00     0.026 C 
ATOM      9  C   UNL d   1      10.682   7.734  -8.238  0.00  0.00     0.110 C 
ATOM     10  C   UNL d   1      10.014   6.756  -8.995  0.00  0.00     0.081 C 
ATOM     11  N   UNL d   1       9.632   5.588  -8.351  0.00  0.00    -0.343 NA
ENDROOT
BRANCH   9  12
ATOM     12  O   UNL d   1      10.911   7.508  -6.900  0.00  0.00    -0.327 OA
BRANCH  12  13
ATOM     13  C   UNL d   1      11.464   8.601  -6.180  0.00  0.00     0.184 C 
BRANCH  13  14
ATOM     14  C   UNL d   1      11.338   8.330  -4.689  0.00  0.00     0.215 C 
ATOM     15  O   UNL d   1      11.060   9.597  -4.147  0.00  0.00    -0.219 OA
BRANCH  14  16
ATOM     16  C   UNL d   1      12.579   7.687  -4.077  0.00  0.00     0.286 C 
BRANCH  16  17
ATOM     17  N   UNL d   1      12.586   7.390  -2.647  0.00  0.00     0.144 N 
ATOM     18  C   UNL d   1      11.662   6.354  -2.292  0.00  0.00     0.286 C 
ATOM     19  C   UNL d   1      12.478   8.528  -1.783  0.00  0.00     0.286 C 
ENDBRANCH  16  17
ENDBRANCH  14  16
ENDBRANCH  13  14
ENDBRANCH  12  13
ENDBRANCH   9  12
TORSDOF 5
