REMARK  12 active torsions:
REMARK  status: ('A' for Active; 'I' for Inactive)
REMARK    1  A    between atoms: C_2  and  C_3 
REMARK    2  A    between atoms: C_3  and  N_4 
REMARK    3  A    between atoms: N_4  and  C_5 
REMARK    4  A    between atoms: N_4  and  C_24 
REMARK    5  A    between atoms: C_5  and  C_6 
REMARK    6  A    between atoms: C_6  and  C_7 
REMARK    7  A    between atoms: C_7  and  C_8 
REMARK    8  A    between atoms: C_8  and  N_9 
REMARK       I    between atoms: N_9  and  C_10 
REMARK    9  A    between atoms: C_10  and  C_12 
REMARK   10  A    between atoms: C_15  and  C_16 
REMARK   11  A    between atoms: C_24  and  C_25 
REMARK   12  A    between atoms: C_27  and  C_28 
ROOT
ATOM      1  C   UNL d   1       6.694   3.381 -13.425  0.00  0.00     0.037 C 
ENDROOT
BRANCH   1   2
ATOM      2  C   UNL d   1       5.734   2.199 -13.211  0.00  0.00     0.250 C 
BRANCH   2   3
ATOM      3  N   UNL d   1       5.861   1.193 -14.289  0.00  0.00     0.137 N 
BRANCH   3   4
ATOM      4  C   UNL d   1       4.766   0.219 -14.174  0.00  0.00     0.250 C 
BRANCH   4   5
ATOM      5  C   UNL d   1       4.560  -0.577 -15.479  0.00  0.00     0.035 C 
ATOM      6  C   UNL d   1       3.202  -1.281 -15.554  0.00  0.00     0.002 C 
ENDBRANCH   4   5
ENDBRANCH   3   4
BRANCH   3   7
ATOM      7  C   UNL d   1       7.170   0.526 -14.333  0.00  0.00     0.251 C 
BRANCH   7   8
ATOM      8  C   UNL d   1       8.221   1.295 -15.110  0.00  0.00     0.038 A 
ATOM      9  C   UNL d   1       9.682   0.827 -15.052  0.00  0.00     0.024 A 
ATOM     10  C   UNL d   1       9.284   2.089 -14.388  0.00  0.00     0.007 A 
BRANCH   9  11
ATOM     11  C   UNL d   1      10.574   0.939 -16.213  0.00  0.00    -0.020 A 
ATOM     12  C   UNL d   1      10.482  -0.009 -17.242  0.00  0.00     0.025 A 
ATOM     13  C   UNL d   1      11.305   0.108 -18.375  0.00  0.00     0.140 A 
ATOM     14  C   UNL d   1      12.212   1.182 -18.475  0.00  0.00     0.030 A 
ATOM     15  F   UNL d   1      11.216  -0.829 -19.343  0.00  0.00    -0.204 F 
ATOM     16  C   UNL d   1      12.292   2.150 -17.461  0.00  0.00     0.002 A 
ATOM     17  C   UNL d   1      11.472   2.028 -16.328  0.00  0.00    -0.004 A 
ENDBRANCH   9  11
ENDBRANCH   7   8
ENDBRANCH   3   7
ENDBRANCH   2   3
ENDBRANCH   1   2
BRANCH   1  18
ATOM     18  C   UNL d   1       7.015   4.238 -12.201  0.00  0.00     0.029 C 
BRANCH  18  19
ATOM     19  C   UNL d   1       8.349   5.024 -12.328  0.00  0.00     0.129 C 
BRANCH  19  20
ATOM     20  N   UNL d   1       8.761   5.571 -11.041  0.00  0.00    -0.234 NA
ATOM     21  C   UNL d   1       9.308   6.769 -10.838  0.00  0.00     0.275 C 
ATOM     22  O   UNL d   1       9.406   7.602 -11.740  0.00  0.00    -0.266 OA
BRANCH  21  23
ATOM     23  C   UNL d   1       9.800   7.041  -9.441  0.00  0.00     0.058 A 
ATOM     24  C   UNL d   1       9.118   6.508  -8.317  0.00  0.00     0.005 A 
ATOM     25  C   UNL d   1       9.579   6.774  -7.012  0.00  0.00     0.002 A 
ATOM     26  C   UNL d   1      10.710   7.599  -6.796  0.00  0.00     0.018 A 
ATOM     27  C   UNL d   1      11.376   8.142  -7.925  0.00  0.00     0.002 A 
ATOM     28  C   UNL d   1      10.916   7.866  -9.229  0.00  0.00     0.005 A 
BRANCH  26  29
ATOM     29  C   UNL d   1      11.195   7.883  -5.429  0.00  0.00     0.081 A 
ATOM     30  N   UNL d   1      11.451   6.801  -4.656  0.00  0.00    -0.244 NA
ATOM     31  C   UNL d   1      11.913   6.992  -3.402  0.00  0.00     0.099 A 
ATOM     32  C   UNL d   1      12.137   8.264  -2.849  0.00  0.00     0.021 A 
ATOM     33  C   UNL d   1      11.860   9.396  -3.643  0.00  0.00     0.003 A 
ATOM     34  C   UNL d   1      11.388   9.198  -4.960  0.00  0.00     0.019 A 
ENDBRANCH  26  29
ENDBRANCH  21  23
ENDBRANCH  19  20
ENDBRANCH  18  19
ENDBRANCH   1  18
TORSDOF 12
