REMARK  4 active torsions:
REMARK  status: ('A' for Active; 'I' for Inactive)
REMARK    1  A    between atoms: C_4  and  C_5 
REMARK    2  A    between atoms: N_16  and  C_17 
REMARK    3  A    between atoms: C_17  and  C_18 
REMARK    4  A    between atoms: C_18  and  C_19 
ROOT
ATOM      1  O   UNL d   1      13.128   4.076 -15.528  0.00  0.00    -0.289 OA
ATOM      2  C   UNL d   1      12.107   4.417 -16.117  0.00  0.00     0.200 A 
ATOM      3  C   UNL d   1      12.026   5.013 -17.392  0.00  0.00     0.064 A 
ATOM      4  C   UNL d   1      10.750   5.352 -17.605  0.00  0.00     0.097 A 
ATOM      5  O   UNL d   1       9.921   5.029 -16.559  0.00  0.00    -0.328 OA
ATOM      6  C   UNL d   1      10.717   4.460 -15.513  0.00  0.00     0.157 A 
ATOM      7  C   UNL d   1      10.733   5.403 -14.351  0.00  0.00     0.071 C 
ATOM      8  C   UNL d   1       9.369   5.541 -13.750  0.00  0.00     0.253 C 
ATOM      9  N   UNL d   1       8.917   4.255 -13.204  0.00  0.00     0.138 N 
ATOM     10  C   UNL d   1       8.793   3.267 -14.298  0.00  0.00     0.253 C 
ATOM     11  C   UNL d   1      10.149   3.102 -15.036  0.00  0.00     0.071 C 
ENDROOT
BRANCH   4  12
ATOM     12  C   UNL d   1      10.186   5.953 -18.834  0.00  0.00     0.023 A 
ATOM     13  C   UNL d   1      10.990   6.052 -20.001  0.00  0.00     0.004 A 
ATOM     14  C   UNL d   1      10.429   6.617 -21.160  0.00  0.00     0.030 A 
ATOM     15  C   UNL d   1       9.107   7.075 -21.165  0.00  0.00     0.140 A 
ATOM     16  C   UNL d   1       8.318   6.972 -20.012  0.00  0.00     0.030 A 
ATOM     17  F   UNL d   1       8.579   7.625 -22.276  0.00  0.00    -0.204 F 
ATOM     18  C   UNL d   1       8.870   6.413 -18.838  0.00  0.00     0.004 A 
ENDBRANCH   4  12
BRANCH   9  19
ATOM     19  C   UNL d   1       7.638   4.383 -12.486  0.00  0.00     0.255 C 
BRANCH  19  20
ATOM     20  C   UNL d   1       7.431   5.732 -11.743  0.00  0.00     0.062 C 
BRANCH  20  21
ATOM     21  C   UNL d   1       8.539   5.999 -10.710  0.00  0.00    -0.020 A 
ATOM     22  C   UNL d   1       8.615   5.201  -9.560  0.00  0.00    -0.004 A 
ATOM     23  C   UNL d   1       9.573   5.481  -8.568  0.00  0.00    -0.000 A 
ATOM     24  C   UNL d   1      10.491   6.524  -8.749  0.00  0.00    -0.000 A 
ATOM     25  C   UNL d   1      10.447   7.314  -9.900  0.00  0.00    -0.000 A 
ATOM     26  C   UNL d   1       9.425   7.084 -10.850  0.00  0.00    -0.004 A 
ENDBRANCH  20  21
ENDBRANCH  19  20
ENDBRANCH   9  19
TORSDOF 4
