REMARK  9 active torsions:
REMARK  status: ('A' for Active; 'I' for Inactive)
REMARK    1  A    between atoms: C_2  and  C_3 
REMARK    2  A    between atoms: C_3  and  C_4 
REMARK    3  A    between atoms: C_4  and  C_5 
REMARK    4  A    between atoms: C_5  and  C_6 
REMARK    5  A    between atoms: C_6  and  O_7 
REMARK    6  A    between atoms: O_7  and  C_8 
REMARK    7  A    between atoms: C_11  and  C_12 
REMARK    8  A    between atoms: N_16  and  C_17 
REMARK    9  A    between atoms: C_17  and  C_18 
ROOT
ATOM      1  C   UNL d   1       9.665   7.778  -9.986  0.00  0.00     0.149 C 
ATOM      2  O   UNL d   1       9.061   8.970 -10.476  0.00  0.00    -0.221 OA
ATOM      3  C   UNL d   1       9.356   7.552  -8.497  0.00  0.00     0.070 C 
ATOM      4  C   UNL d   1       9.920   8.624  -7.596  0.00  0.00     0.254 C 
ATOM      5  N   UNL d   1      11.373   8.593  -7.716  0.00  0.00     0.142 N 
ATOM      6  C   UNL d   1      11.735   8.950  -9.081  0.00  0.00     0.254 C 
ATOM      7  C   UNL d   1      11.180   7.940 -10.066  0.00  0.00     0.070 C 
ENDROOT
BRANCH   1   8
ATOM      8  C   UNL d   1       9.178   6.613 -10.844  0.00  0.00     0.005 A 
ATOM      9  C   UNL d   1       9.456   6.628 -12.222  0.00  0.00     0.000 A 
ATOM     10  C   UNL d   1       9.024   5.611 -13.073  0.00  0.00     0.024 A 
ATOM     11  C   UNL d   1       8.227   4.558 -12.587  0.00  0.00     0.094 A 
ATOM     12  C   UNL d   1       7.893   4.542 -11.212  0.00  0.00     0.024 A 
ATOM     13  C   UNL d   1       8.386   5.543 -10.348  0.00  0.00     0.000 A 
BRANCH  11  14
ATOM     14  O   UNL d   1       7.756   3.560 -13.405  0.00  0.00    -0.331 OA
BRANCH  14  15
ATOM     15  C   UNL d   1       8.429   3.314 -14.633  0.00  0.00     0.149 C 
BRANCH  15  16
ATOM     16  C   UNL d   1       9.631   2.385 -14.410  0.00  0.00     0.033 C 
BRANCH  16  17
ATOM     17  C   UNL d   1       9.219   0.905 -14.439  0.00  0.00     0.003 C 
BRANCH  17  18
ATOM     18  C   UNL d   1       8.794   0.435 -15.847  0.00  0.00     0.000 C 
BRANCH  18  19
ATOM     19  C   UNL d   1       9.987   0.222 -16.788  0.00  0.00     0.000 C 
ATOM     20  C   UNL d   1       9.550  -0.230 -18.181  0.00  0.00     0.000 C 
ENDBRANCH  18  19
ENDBRANCH  17  18
ENDBRANCH  16  17
ENDBRANCH  15  16
ENDBRANCH  14  15
ENDBRANCH  11  14
ENDBRANCH   1   8
BRANCH   5  21
ATOM     21  C   UNL d   1      11.923   9.573  -6.815  0.00  0.00     0.278 C 
BRANCH  21  22
ATOM     22  C   UNL d   1      11.617   9.425  -5.372  0.00  0.00     0.032 C 
ATOM     23  C   UNL d   1      11.707   8.297  -4.533  0.00  0.00     0.017 C 
ATOM     24  C   UNL d   1      11.505   8.674  -3.185  0.00  0.00     0.081 C 
ATOM     25  C   UNL d   1      12.024   6.961  -4.730  0.00  0.00     0.001 C 
ATOM     26  N   UNL d   1      11.105   9.972  -3.277  0.00  0.00    -0.244 NA
ATOM     27  C   UNL d   1      11.548   7.777  -2.101  0.00  0.00     0.019 C 
ATOM     28  C   UNL d   1      11.088  10.392  -4.583  0.00  0.00     0.097 C 
ATOM     29  C   UNL d   1      11.931   6.470  -2.325  0.00  0.00     0.002 C 
ATOM     30  C   UNL d   1      12.250   6.137  -3.637  0.00  0.00     0.000 C 
ENDBRANCH  21  22
ENDBRANCH   5  21
TORSDOF 9
