REMARK  6 active torsions:
REMARK  status: ('A' for Active; 'I' for Inactive)
REMARK       I    between atoms: C_2  and  N_3 
REMARK    1  A    between atoms: C_2  and  C_30 
REMARK    2  A    between atoms: N_3  and  C_4 
REMARK    3  A    between atoms: C_9  and  C_10 
REMARK    4  A    between atoms: C_10  and  C_11 
REMARK    5  A    between atoms: C_11  and  N_12 
REMARK    6  A    between atoms: N_15  and  C_16 
ROOT
ATOM      1  C   UNL d   1       9.155   3.437 -15.263  0.00  0.00     0.062 C 
ENDROOT
BRANCH   1   2
ATOM      2  C   UNL d   1       8.850   2.264 -16.170  0.00  0.00    -0.021 A 
ATOM      3  C   UNL d   1       9.899   1.538 -16.785  0.00  0.00    -0.009 A 
ATOM      4  C   UNL d   1       9.564   0.467 -17.638  0.00  0.00    -0.025 A 
ATOM      5  C   UNL d   1      10.519  -0.430 -18.371  0.00  0.00     0.028 C 
ATOM      6  C   UNL d   1       8.240   0.123 -17.891  0.00  0.00    -0.004 A 
ATOM      7  C   UNL d   1       9.602  -1.524 -18.956  0.00  0.00     0.034 C 
ATOM      8  C   UNL d   1       8.131  -1.057 -18.824  0.00  0.00     0.129 C 
ATOM      9  C   UNL d   1       7.184   0.827 -17.288  0.00  0.00    -0.003 A 
ATOM     10  C   UNL d   1       7.501   1.902 -16.434  0.00  0.00    -0.004 A 
BRANCH   8  11
ATOM     11  N   UNL d   1       7.240  -2.088 -18.296  0.00  0.00    -0.228 NA
ATOM     12  C   UNL d   1       6.876  -3.212 -18.929  0.00  0.00     0.347 C 
ATOM     13  O   UNL d   1       7.247  -3.478 -20.073  0.00  0.00    -0.261 OA
BRANCH  12  14
ATOM     14  C   UNL d   1       5.987  -4.187 -18.142  0.00  0.00     0.474 C 
ATOM     15  F   UNL d   1       5.147  -3.498 -17.367  0.00  0.00    -0.162 F 
ATOM     16  F   UNL d   1       5.293  -4.947 -18.988  0.00  0.00    -0.162 F 
ATOM     17  F   UNL d   1       6.756  -4.966 -17.381  0.00  0.00    -0.162 F 
ENDBRANCH  12  14
ENDBRANCH   8  11
ENDBRANCH   1   2
BRANCH   1  18
ATOM     18  C   UNL d   1       8.618   3.217 -13.845  0.00  0.00     0.255 C 
BRANCH  18  19
ATOM     19  N   UNL d   1       8.604   4.481 -13.120  0.00  0.00     0.141 N 
ATOM     20  C   UNL d   1       9.898   4.698 -12.488  0.00  0.00     0.274 C 
ATOM     21  C   UNL d   1       9.858   6.039 -11.752  0.00  0.00     0.138 C 
ATOM     22  N   UNL d   1       8.850   6.035 -10.720  0.00  0.00    -0.329 N 
ATOM     23  C   UNL d   1       7.537   5.779 -11.296  0.00  0.00     0.138 C 
ATOM     24  C   UNL d   1       7.571   4.452 -12.081  0.00  0.00     0.274 C 
BRANCH  22  25
ATOM     25  C   UNL d   1       9.114   6.319  -9.375  0.00  0.00     0.148 C 
ATOM     26  C   UNL d   1      10.146   7.265  -8.910  0.00  0.00     0.042 A 
ATOM     27  C   UNL d   1      10.091   7.369  -7.484  0.00  0.00     0.050 A 
ATOM     28  C   UNL d   1      11.123   8.049  -9.549  0.00  0.00     0.004 A 
ATOM     29  S   UNL d   1       8.725   6.425  -6.950  0.00  0.00     0.015 SA
ATOM     30  C   UNL d   1      11.005   8.134  -6.739  0.00  0.00     0.008 A 
ATOM     31  N   UNL d   1       8.429   5.692  -8.438  0.00  0.00    -0.192 NA
ATOM     32  C   UNL d   1      12.032   8.812  -7.414  0.00  0.00     0.001 A 
ATOM     33  C   UNL d   1      12.078   8.737  -8.811  0.00  0.00     0.000 A 
ENDBRANCH  22  25
ENDBRANCH  18  19
ENDBRANCH   1  18
TORSDOF 6
