REMARK  11 active torsions:
REMARK  status: ('A' for Active; 'I' for Inactive)
REMARK    1  A    between atoms: C_2  and  C_3 
REMARK    2  A    between atoms: C_3  and  N_4 
REMARK    3  A    between atoms: N_4  and  C_5 
REMARK    4  A    between atoms: N_4  and  C_22 
REMARK    5  A    between atoms: C_5  and  C_6 
REMARK    6  A    between atoms: C_6  and  C_7 
REMARK    7  A    between atoms: C_7  and  C_8 
REMARK    8  A    between atoms: C_8  and  N_9 
REMARK       I    between atoms: N_9  and  C_10 
REMARK    9  A    between atoms: C_10  and  C_12 
REMARK   10  A    between atoms: C_22  and  C_23 
REMARK   11  A    between atoms: C_25  and  C_26 
ROOT
ATOM      1  C   UNL d   1       7.761   6.197 -12.449  0.00  0.00     0.250 C 
ENDROOT
BRANCH   1   2
ATOM      2  N   UNL d   1       8.351   4.878 -12.741  0.00  0.00     0.137 N 
BRANCH   2   3
ATOM      3  C   UNL d   1       7.317   3.902 -13.137  0.00  0.00     0.250 C 
BRANCH   3   4
ATOM      4  C   UNL d   1       6.225   3.711 -12.062  0.00  0.00     0.035 C 
ATOM      5  C   UNL d   1       5.314   2.525 -12.379  0.00  0.00     0.002 C 
ENDBRANCH   3   4
ENDBRANCH   2   3
BRANCH   2   6
ATOM      6  C   UNL d   1       9.389   4.998 -13.759  0.00  0.00     0.251 C 
BRANCH   6   7
ATOM      7  C   UNL d   1      10.075   3.710 -14.117  0.00  0.00     0.038 A 
ATOM      8  C   UNL d   1      10.623   3.522 -15.526  0.00  0.00     0.024 A 
ATOM      9  C   UNL d   1      11.571   3.691 -14.367  0.00  0.00     0.007 A 
BRANCH   8  10
ATOM     10  C   UNL d   1      10.455   2.210 -16.213  0.00  0.00    -0.022 A 
ATOM     11  C   UNL d   1      10.395   2.130 -17.617  0.00  0.00    -0.002 A 
ATOM     12  C   UNL d   1      10.264   0.874 -18.248  0.00  0.00     0.029 A 
ATOM     13  C   UNL d   1      10.175  -0.297 -17.477  0.00  0.00     0.140 A 
ATOM     14  C   UNL d   1      10.205  -0.217 -16.072  0.00  0.00     0.029 A 
ATOM     15  F   UNL d   1      10.070  -1.507 -18.071  0.00  0.00    -0.204 F 
ATOM     16  C   UNL d   1      10.353   1.018 -15.447  0.00  0.00    -0.002 A 
ENDBRANCH   8  10
ENDBRANCH   6   7
ENDBRANCH   2   6
ENDBRANCH   1   2
BRANCH   1  17
ATOM     17  C   UNL d   1       8.737   7.391 -12.301  0.00  0.00     0.037 C 
BRANCH  17  18
ATOM     18  C   UNL d   1       9.435   7.275 -10.956  0.00  0.00     0.029 C 
BRANCH  18  19
ATOM     19  C   UNL d   1      10.012   8.597 -10.460  0.00  0.00     0.129 C 
BRANCH  19  20
ATOM     20  N   UNL d   1      10.620   8.542  -9.136  0.00  0.00    -0.234 NA
ATOM     21  C   UNL d   1      10.226   7.776  -8.100  0.00  0.00     0.275 C 
ATOM     22  O   UNL d   1       9.531   6.775  -8.159  0.00  0.00    -0.266 OA
BRANCH  21  23
ATOM     23  C   UNL d   1      10.729   8.226  -6.768  0.00  0.00     0.058 A 
ATOM     24  C   UNL d   1      11.079   7.250  -5.826  0.00  0.00     0.005 A 
ATOM     25  C   UNL d   1      11.483   7.634  -4.539  0.00  0.00     0.000 A 
ATOM     26  C   UNL d   1      11.508   9.005  -4.178  0.00  0.00     0.000 A 
ATOM     27  C   UNL d   1      11.862   6.635  -3.627  0.00  0.00     0.000 A 
ATOM     28  C   UNL d   1      11.105   9.991  -5.103  0.00  0.00     0.000 A 
ATOM     29  C   UNL d   1      11.938   9.368  -2.892  0.00  0.00     0.000 A 
ATOM     30  C   UNL d   1      10.732   9.588  -6.397  0.00  0.00     0.005 A 
ATOM     31  C   UNL d   1      12.345   8.371  -1.991  0.00  0.00     0.000 A 
ATOM     32  C   UNL d   1      12.285   7.011  -2.346  0.00  0.00     0.000 A 
ENDBRANCH  21  23
ENDBRANCH  19  20
ENDBRANCH  18  19
ENDBRANCH  17  18
ENDBRANCH   1  17
TORSDOF 11
