REMARK  2 active torsions:
REMARK  status: ('A' for Active; 'I' for Inactive)
REMARK    1  A    between atoms: N_2  and  C_4 
REMARK    2  A    between atoms: C_7  and  C_8 
ROOT
ATOM      1  C   UNL d   1      10.796   1.089 -19.030  0.00  0.00     0.270 C 
ATOM      2  C   UNL d   1       9.889   1.774 -20.065  0.00  0.00     0.147 C 
ATOM      3  O   UNL d   1       9.488   0.843 -20.948  0.00  0.00    -0.193 OA
ATOM      4  C   UNL d   1       9.421   3.058 -20.041  0.00  0.00     0.120 C 
ATOM      5  C   UNL d   1       9.834   3.922 -18.886  0.00  0.00     0.213 C 
ATOM      6  O   UNL d   1       9.319   5.023 -18.670  0.00  0.00    -0.288 OA
ATOM      7  C   UNL d   1      10.945   3.420 -17.930  0.00  0.00     0.225 C 
ATOM      8  O   UNL d   1      12.199   3.688 -18.541  0.00  0.00    -0.211 OA
ATOM      9  C   UNL d   1      10.864   4.126 -16.562  0.00  0.00     0.142 C 
ATOM     10  O   UNL d   1      11.578   5.271 -16.542  0.00  0.00    -0.192 OA
ATOM     11  C   UNL d   1      10.261   3.594 -15.473  0.00  0.00     0.043 C 
ATOM     12  C   UNL d   1      10.350   4.250 -14.159  0.00  0.00     0.195 C 
ATOM     13  O   UNL d   1      11.418   4.737 -13.786  0.00  0.00    -0.287 OA
ATOM     14  C   UNL d   1       9.070   4.298 -13.375  0.00  0.00     0.063 A 
ATOM     15  C   UNL d   1       8.892   5.274 -12.353  0.00  0.00     0.134 A 
ATOM     16  O   UNL d   1       9.858   6.151 -11.971  0.00  0.00    -0.190 OA
ATOM     17  C   UNL d   1       7.669   5.409 -11.677  0.00  0.00     0.028 A 
ATOM     18  C   UNL d   1       6.614   4.579 -12.020  0.00  0.00     0.013 A 
ATOM     19  C   UNL d   1       6.785   3.591 -12.999  0.00  0.00     0.056 A 
ATOM     20 CL   UNL d   1       5.458   2.502 -13.126  0.00  0.00    -0.083 Cl
ATOM     21  C   UNL d   1       8.005   3.399 -13.681  0.00  0.00     0.021 A 
ATOM     22  C   UNL d   1       8.195   2.231 -14.699  0.00  0.00     0.150 C 
ATOM     23  C   UNL d   1       8.040   0.823 -14.071  0.00  0.00     0.038 C 
ATOM     24  O   UNL d   1       7.169   2.296 -15.659  0.00  0.00    -0.221 OA
ATOM     25  C   UNL d   1       9.569   2.244 -15.462  0.00  0.00     0.059 C 
ATOM     26  C   UNL d   1       9.578   1.543 -16.853  0.00  0.00     0.013 C 
ATOM     27  C   UNL d   1      10.822   1.887 -17.700  0.00  0.00     0.080 C 
ENDROOT
BRANCH   1  28
ATOM     28  N   UNL d   1      12.175   0.810 -19.485  0.00  0.00     0.146 N 
ATOM     29  C   UNL d   1      12.793  -0.273 -18.729  0.00  0.00     0.286 C 
ATOM     30  C   UNL d   1      12.377   0.535 -20.907  0.00  0.00     0.286 C 
ENDBRANCH   1  28
BRANCH   4  31
ATOM     31  C   UNL d   1       8.509   3.518 -21.115  0.00  0.00     0.301 C 
ATOM     32  N   UNL d   1       8.385   4.842 -21.230  0.00  0.00    -0.102 N 
ATOM     33  O   UNL d   1       7.863   2.811 -21.885  0.00  0.00    -0.263 OA
ENDBRANCH   4  31
TORSDOF 2
