REMARK  4 active torsions:
REMARK  status: ('A' for Active; 'I' for Inactive)
REMARK    1  A    between atoms: C_2  and  C_3 
REMARK    2  A    between atoms: C_2  and  N_10 
REMARK    3  A    between atoms: N_13  and  C_14 
REMARK    4  A    between atoms: C_14  and  C_15 
REMARK       I    between atoms: C_15  and  N_17 
ROOT
ATOM      1  N   UNL d   1       8.315   4.856 -11.002  0.00  0.00     0.143 N 
ATOM      2  C   UNL d   1       9.541   4.172 -11.401  0.00  0.00     0.286 C 
ATOM      3  C   UNL d   1       9.742   3.958 -12.892  0.00  0.00     0.286 C 
ATOM      4  N   UNL d   1       9.548   5.192 -13.625  0.00  0.00     0.151 N 
ATOM      5  C   UNL d   1       8.217   5.757 -13.302  0.00  0.00     0.286 C 
ATOM      6  C   UNL d   1       8.047   6.064 -11.821  0.00  0.00     0.286 C 
ENDROOT
BRANCH   4   7
ATOM      7  C   UNL d   1       9.725   4.969 -15.055  0.00  0.00     0.337 C 
BRANCH   7   8
ATOM      8  C   UNL d   1      11.175   4.975 -15.598  0.00  0.00     0.271 C 
ATOM      9  O   UNL d   1      12.104   5.192 -14.774  0.00  0.00    -0.270 OA
ATOM     10  N   UNL d   1      11.417   4.800 -16.888  0.00  0.00    -0.299 N 
ATOM     11  C   UNL d   1      12.771   4.427 -17.388  0.00  0.00     0.093 A 
ATOM     12  C   UNL d   1      10.706   5.425 -17.981  0.00  0.00     0.058 A 
ATOM     13  C   UNL d   1      12.853   4.890 -18.866  0.00  0.00     0.051 A 
ATOM     14  C   UNL d   1      13.051   2.918 -17.243  0.00  0.00     0.025 C 
ATOM     15  C   UNL d   1      11.522   5.542 -19.081  0.00  0.00    -0.004 A 
ATOM     16  C   UNL d   1      11.103   6.235 -20.260  0.00  0.00    -0.003 A 
ATOM     17  C   UNL d   1       9.816   6.835 -20.262  0.00  0.00    -0.000 A 
ATOM     18  C   UNL d   1       8.973   6.697 -19.149  0.00  0.00     0.002 A 
ATOM     19  C   UNL d   1       9.382   5.948 -18.021  0.00  0.00     0.017 A 
ENDBRANCH   7   8
ENDBRANCH   4   7
BRANCH   1  20
ATOM     20  C   UNL d   1       8.342   5.165  -9.573  0.00  0.00     0.242 C 
ATOM     21  C   UNL d   1       8.266   3.885  -8.720  0.00  0.00     0.040 C 
BRANCH  20  22
ATOM     22  C   UNL d   1       9.372   6.170  -9.019  0.00  0.00     0.009 A 
ATOM     23  C   UNL d   1      10.327   6.874  -9.812  0.00  0.00    -0.002 A 
ATOM     24  C   UNL d   1      11.200   7.807  -9.281  0.00  0.00     0.011 A 
ATOM     25  C   UNL d   1      11.146   8.070  -7.910  0.00  0.00     0.058 A 
ATOM     26  C   UNL d   1      10.213   7.425  -7.090  0.00  0.00     0.011 A 
ATOM     27 CL   UNL d   1      12.252   9.147  -7.185  0.00  0.00    -0.082 Cl
ATOM     28  C   UNL d   1       9.315   6.489  -7.637  0.00  0.00    -0.002 A 
ENDBRANCH  20  22
ENDBRANCH   1  20
TORSDOF 4
