REMARK  6 active torsions:
REMARK  status: ('A' for Active; 'I' for Inactive)
REMARK    1  A    between atoms: N_10  and  C_11 
REMARK    2  A    between atoms: C_14  and  O_15 
REMARK    3  A    between atoms: O_15  and  C_16 
REMARK    4  A    between atoms: C_16  and  C_17 
REMARK    5  A    between atoms: C_21  and  C_22 
REMARK    6  A    between atoms: C_23  and  C_24 
ROOT
ATOM      1  C   UNL d   1       9.939   3.708 -18.510  0.00  0.00     0.008 A 
ATOM      2  C   UNL d   1      10.649   4.676 -19.223  0.00  0.00    -0.002 A 
ATOM      3  C   UNL d   1      11.287   5.764 -18.567  0.00  0.00    -0.000 A 
ATOM      4  C   UNL d   1      11.159   5.882 -17.180  0.00  0.00    -0.000 A 
ATOM      5  C   UNL d   1      10.384   4.959 -16.449  0.00  0.00    -0.000 A 
ATOM      6  C   UNL d   1       9.746   3.889 -17.110  0.00  0.00    -0.002 A 
ENDROOT
BRANCH   1   7
ATOM      7  C   UNL d   1       9.418   2.453 -19.212  0.00  0.00     0.175 C 
BRANCH   7   8
ATOM      8  O   UNL d   1      10.293   1.319 -19.102  0.00  0.00    -0.326 OA
BRANCH   8   9
ATOM      9  C   UNL d   1      11.594   1.388 -19.559  0.00  0.00     0.095 C 
ATOM     10  C   UNL d   1      12.454   2.411 -19.115  0.00  0.00     0.026 C 
ATOM     11  C   UNL d   1      13.694   2.604 -19.709  0.00  0.00     0.020 C 
ATOM     12  C   UNL d   1      14.204   1.645 -20.608  0.00  0.00     0.065 C 
ATOM     13  C   UNL d   1      13.416   0.521 -20.969  0.00  0.00     0.020 C 
ATOM     14  C   UNL d   1      12.100   0.385 -20.452  0.00  0.00     0.026 C 
BRANCH  12  15
ATOM     15  N   UNL d   1      15.537   1.789 -21.058  0.00  0.00    -0.294 N 
ATOM     16  C   UNL d   1      16.498   0.859 -20.814  0.00  0.00     0.125 A 
ATOM     17  C   UNL d   1      16.244  -0.422 -20.061  0.00  0.00     0.072 C 
ATOM     18  N   UNL d   1      17.704   1.194 -21.288  0.00  0.00    -0.229 NA
ATOM     19  C   UNL d   1      17.491   2.448 -21.849  0.00  0.00     0.118 A 
ATOM     20  C   UNL d   1      16.141   2.862 -21.696  0.00  0.00     0.086 A 
ATOM     21  C   UNL d   1      18.375   3.322 -22.525  0.00  0.00     0.119 A 
ATOM     22  C   UNL d   1      15.709   4.112 -22.172  0.00  0.00     0.040 A 
ATOM     23  C   UNL d   1      16.663   4.900 -22.838  0.00  0.00     0.101 A 
ATOM     24  N   UNL d   1      17.946   4.516 -23.007  0.00  0.00    -0.241 NA
ENDBRANCH  12  15
ENDBRANCH   8   9
ENDBRANCH   7   8
ENDBRANCH   1   7
BRANCH   5  25
ATOM     25  C   UNL d   1      10.227   5.199 -15.007  0.00  0.00     0.002 C 
ATOM     26  C   UNL d   1       9.175   4.784 -14.262  0.00  0.00     0.019 C 
BRANCH  26  27
ATOM     27  C   UNL d   1       8.982   5.074 -12.837  0.00  0.00     0.081 A 
ATOM     28  N   UNL d   1       9.758   5.996 -12.221  0.00  0.00    -0.246 NA
ATOM     29  C   UNL d   1       9.605   6.240 -10.900  0.00  0.00     0.082 A 
ATOM     30  C   UNL d   1       8.689   5.528 -10.108  0.00  0.00     0.018 A 
ATOM     31  C   UNL d   1      10.396   7.221 -10.250  0.00  0.00     0.030 A 
ATOM     32  C   UNL d   1       7.888   4.583 -10.756  0.00  0.00     0.003 A 
ATOM     33  C   UNL d   1       8.582   5.746  -8.715  0.00  0.00     0.002 A 
ATOM     34  C   UNL d   1       7.994   4.374 -12.135  0.00  0.00     0.019 A 
ATOM     35  C   UNL d   1       9.375   6.732  -8.097  0.00  0.00     0.011 A 
ATOM     36  C   UNL d   1      10.282   7.464  -8.871  0.00  0.00     0.059 A 
ATOM     37 CL   UNL d   1      11.283   8.666  -8.129  0.00  0.00    -0.082 Cl
ENDBRANCH  26  27
ENDBRANCH   5  25
TORSDOF 6
