REMARK  6 active torsions:
REMARK  status: ('A' for Active; 'I' for Inactive)
REMARK    1  A    between atoms: C_5  and  C_6 
REMARK    2  A    between atoms: C_9  and  C_10 
REMARK    3  A    between atoms: C_10  and  N_11 
REMARK    4  A    between atoms: N_11  and  C_12 
REMARK    5  A    between atoms: C_12  and  C_13 
REMARK    6  A    between atoms: C_13  and  C_14 
ROOT
ATOM      1  C   UNL d   1       8.254   4.926  -9.652  0.00  0.00     0.341 C 
ENDROOT
BRANCH   1   2
ATOM      2  C   UNL d   1       8.395   5.133 -11.119  0.00  0.00     0.114 A 
ATOM      3  C   UNL d   1       7.892   6.077 -11.956  0.00  0.00     0.024 A 
ATOM      4  C   UNL d   1       8.411   5.794 -13.236  0.00  0.00     0.026 A 
ATOM      5  C   UNL d   1       9.171   4.671 -13.110  0.00  0.00     0.100 A 
ATOM      6  O   UNL d   1       9.162   4.243 -11.816  0.00  0.00    -0.309 OA
BRANCH   5   7
ATOM      7  C   UNL d   1       9.960   3.917 -14.068  0.00  0.00     0.023 A 
ATOM      8  C   UNL d   1      10.743   4.575 -15.042  0.00  0.00     0.004 A 
ATOM      9  C   UNL d   1      11.495   3.830 -15.972  0.00  0.00     0.028 A 
ATOM     10  C   UNL d   1      11.457   2.426 -15.943  0.00  0.00     0.131 A 
ATOM     11  O   UNL d   1      12.190   1.718 -16.850  0.00  0.00    -0.190 OA
ATOM     12  C   UNL d   1      10.680   1.761 -14.969  0.00  0.00     0.028 A 
ATOM     13  C   UNL d   1       9.933   2.511 -14.049  0.00  0.00     0.004 A 
ENDBRANCH   5   7
ENDBRANCH   1   2
BRANCH   1  14
ATOM     14  N   UNL d   1       9.496   5.103  -8.935  0.00  0.00     0.346 N 
BRANCH  14  15
ATOM     15  C   UNL d   1       9.607   6.505  -8.577  0.00  0.00     0.295 C 
BRANCH  15  16
ATOM     16  C   UNL d   1      10.936   6.710  -7.856  0.00  0.00     0.066 C 
BRANCH  16  17
ATOM     17  C   UNL d   1      10.938   7.920  -7.006  0.00  0.00     0.001 A 
ATOM     18  C   UNL d   1      11.308   8.005  -5.620  0.00  0.00     0.016 A 
ATOM     19  C   UNL d   1      11.188   9.364  -5.220  0.00  0.00     0.081 A 
ATOM     20  C   UNL d   1      11.753   7.088  -4.645  0.00  0.00     0.013 A 
ATOM     21  N   UNL d   1      10.780  10.039  -6.348  0.00  0.00    -0.244 NA
ATOM     22  C   UNL d   1      11.457   9.773  -3.908  0.00  0.00     0.020 A 
ATOM     23  C   UNL d   1      10.609   9.180  -7.415  0.00  0.00     0.095 A 
ATOM     24  C   UNL d   1      11.916   8.851  -2.966  0.00  0.00     0.013 A 
ATOM     25  C   UNL d   1      12.068   7.512  -3.345  0.00  0.00     0.058 A 
ATOM     26 CL   UNL d   1      12.648   6.389  -2.203  0.00  0.00    -0.082 Cl
ENDBRANCH  16  17
ENDBRANCH  15  16
ENDBRANCH  14  15
ENDBRANCH   1  14
TORSDOF 6
