REMARK  9 active torsions:
REMARK  status: ('A' for Active; 'I' for Inactive)
REMARK    1  A    between atoms: C_2  and  C_3 
REMARK    2  A    between atoms: C_3  and  N_4 
REMARK    3  A    between atoms: C_11  and  O_12 
REMARK    4  A    between atoms: O_12  and  C_13 
REMARK    5  A    between atoms: C_13  and  C_14 
REMARK    6  A    between atoms: C_14  and  C_15 
REMARK    7  A    between atoms: C_15  and  C_16 
REMARK    8  A    between atoms: C_16  and  O_17 
REMARK    9  A    between atoms: O_17  and  C_18 
ROOT
ATOM      1  N   UNL d   1      11.836   2.643 -16.817  0.00  0.00     0.143 N 
ATOM      2  C   UNL d   1      10.874   2.209 -17.814  0.00  0.00     0.282 C 
ATOM      3  C   UNL d   1       9.557   1.718 -17.283  0.00  0.00     0.178 C 
ATOM      4  O   UNL d   1       9.015   2.750 -16.439  0.00  0.00    -0.348 OA
ATOM      5  C   UNL d   1       9.896   3.084 -15.360  0.00  0.00     0.173 C 
ATOM      6  C   UNL d   1       9.280   4.069 -14.388  0.00  0.00     0.031 A 
ATOM      7  C   UNL d   1       7.940   4.025 -14.130  0.00  0.00     0.024 A 
ATOM      8  C   UNL d   1       7.307   4.819 -13.126  0.00  0.00     0.094 A 
ATOM      9  C   UNL d   1       8.110   5.797 -12.493  0.00  0.00     0.026 A 
ATOM     10  C   UNL d   1       9.463   5.899 -12.802  0.00  0.00     0.026 A 
ATOM     11  C   UNL d   1      10.095   5.040 -13.737  0.00  0.00     0.092 A 
ATOM     12  O   UNL d   1      11.410   5.190 -14.034  0.00  0.00    -0.329 OA
ATOM     13  C   UNL d   1      12.068   4.136 -14.740  0.00  0.00     0.185 C 
ATOM     14  C   UNL d   1      11.205   3.622 -15.926  0.00  0.00     0.280 C 
ENDROOT
BRANCH   8  15
ATOM     15  O   UNL d   1       6.004   4.719 -12.722  0.00  0.00    -0.331 OA
BRANCH  15  16
ATOM     16  C   UNL d   1       5.215   3.644 -13.220  0.00  0.00     0.149 C 
BRANCH  16  17
ATOM     17  C   UNL d   1       5.745   2.260 -12.775  0.00  0.00     0.035 C 
BRANCH  17  18
ATOM     18  C   UNL d   1       5.083   1.115 -13.503  0.00  0.00     0.035 C 
BRANCH  18  19
ATOM     19  C   UNL d   1       5.956  -0.169 -13.485  0.00  0.00     0.149 C 
BRANCH  19  20
ATOM     20  O   UNL d   1       5.346  -1.188 -14.279  0.00  0.00    -0.331 OA
BRANCH  20  21
ATOM     21  C   UNL d   1       5.334  -1.031 -15.650  0.00  0.00     0.096 C 
ATOM     22  C   UNL d   1       4.665  -2.011 -16.416  0.00  0.00     0.043 C 
ATOM     23  C   UNL d   1       4.565  -1.883 -17.808  0.00  0.00     0.082 C 
ATOM     24  C   UNL d   1       5.071  -0.730 -18.449  0.00  0.00    -0.004 C 
ATOM     25  N   UNL d   1       3.970  -2.914 -18.583  0.00  0.00    -0.212 NA
ATOM     26  C   UNL d   1       5.726   0.258 -17.699  0.00  0.00    -0.001 C 
ATOM     27  C   UNL d   1       4.930  -0.580 -19.941  0.00  0.00     0.038 C 
ATOM     28  C   UNL d   1       5.924   0.062 -16.343  0.00  0.00     0.024 C 
ATOM     29  C   UNL d   1       4.960  -1.954 -20.635  0.00  0.00     0.095 C 
ATOM     30  C   UNL d   1       4.075  -2.987 -19.918  0.00  0.00     0.256 C 
ATOM     31  O   UNL d   1       3.505  -3.857 -20.575  0.00  0.00    -0.270 OA
ENDBRANCH  20  21
ENDBRANCH  19  20
ENDBRANCH  18  19
ENDBRANCH  17  18
ENDBRANCH  16  17
ENDBRANCH  15  16
ENDBRANCH   8  15
BRANCH   1  32
ATOM     32  C   UNL d   1      13.101   3.103 -17.398  0.00  0.00     0.251 C 
BRANCH  32  33
ATOM     33  C   UNL d   1      13.062   4.419 -18.233  0.00  0.00     0.035 C 
ATOM     34  C   UNL d   1      12.458   4.342 -19.662  0.00  0.00     0.002 C 
ENDBRANCH  32  33
ENDBRANCH   1  32
TORSDOF 9
