REMARK  10 active torsions:
REMARK  status: ('A' for Active; 'I' for Inactive)
REMARK    1  A    between atoms: C_2  and  C_3 
REMARK    2  A    between atoms: C_3  and  C_4 
REMARK    3  A    between atoms: C_4  and  C_5 
REMARK    4  A    between atoms: C_5  and  C_6 
REMARK    5  A    between atoms: C_6  and  C_7 
REMARK    6  A    between atoms: C_7  and  C_8 
REMARK    7  A    between atoms: C_8  and  C_9 
REMARK    8  A    between atoms: C_9  and  C_10 
REMARK    9  A    between atoms: C_10  and  N_11 
REMARK   10  A    between atoms: C_14  and  C_15 
ROOT
ATOM      1  N   UNL d   1       7.025   5.125 -11.737  0.00  0.00     0.137 N 
ATOM      2  C   UNL d   1       6.855   5.524 -13.120  0.00  0.00     0.251 C 
ATOM      3  C   UNL d   1       5.722   4.623 -13.640  0.00  0.00     0.042 C 
ATOM      4  C   UNL d   1       5.827   3.369 -12.795  0.00  0.00     0.058 C 
ATOM      5  C   UNL d   1       6.972   3.682 -11.838  0.00  0.00     0.255 C 
ENDROOT
BRANCH   1   6
ATOM      6  C   UNL d   1       8.311   5.572 -11.200  0.00  0.00     0.250 C 
BRANCH   6   7
ATOM      7  C   UNL d   1       8.339   5.444  -9.671  0.00  0.00     0.035 C 
BRANCH   7   8
ATOM      8  C   UNL d   1       9.637   5.999  -9.062  0.00  0.00     0.002 C 
BRANCH   8   9
ATOM      9  C   UNL d   1       9.391   6.813  -7.782  0.00  0.00     0.000 C 
BRANCH   9  10
ATOM     10  C   UNL d   1      10.685   7.439  -7.248  0.00  0.00     0.000 C 
BRANCH  10  11
ATOM     11  C   UNL d   1      10.411   8.550  -6.214  0.00  0.00     0.000 C 
BRANCH  11  12
ATOM     12  C   UNL d   1      11.502   8.707  -5.146  0.00  0.00     0.000 C 
BRANCH  12  13
ATOM     13  C   UNL d   1      11.696   7.422  -4.314  0.00  0.00     0.000 C 
BRANCH  13  14
ATOM     14  C   UNL d   1      12.427   7.666  -2.992  0.00  0.00     0.000 C 
ATOM     15  C   UNL d   1      12.521   6.388  -2.164  0.00  0.00     0.000 C 
ENDBRANCH  13  14
ENDBRANCH  12  13
ENDBRANCH  11  12
ENDBRANCH  10  11
ENDBRANCH   9  10
ENDBRANCH   8   9
ENDBRANCH   7   8
ENDBRANCH   6   7
ENDBRANCH   1   6
BRANCH   4  16
ATOM     16  C   UNL d   1       6.058   2.097 -13.610  0.00  0.00    -0.018 A 
ATOM     17  C   UNL d   1       7.168   1.993 -14.480  0.00  0.00     0.023 A 
ATOM     18  C   UNL d   1       7.377   0.818 -15.227  0.00  0.00     0.131 A 
ATOM     19  C   UNL d   1       6.481  -0.264 -15.116  0.00  0.00     0.027 A 
ATOM     20  O   UNL d   1       8.454   0.731 -16.061  0.00  0.00    -0.190 OA
ATOM     21  C   UNL d   1       5.378  -0.173 -14.246  0.00  0.00     0.002 A 
ATOM     22  C   UNL d   1       5.181   0.999 -13.493  0.00  0.00    -0.004 A 
ENDBRANCH   4  16
TORSDOF 10
