REMARK  5 active torsions:
REMARK  status: ('A' for Active; 'I' for Inactive)
REMARK    1  A    between atoms: C_4  and  C_5 
REMARK    2  A    between atoms: C_5  and  C_6 
REMARK    3  A    between atoms: C_6  and  C_7 
REMARK    4  A    between atoms: N_10  and  C_11 
REMARK    5  A    between atoms: C_11  and  C_12 
ROOT
ATOM      1  C   UNL d   1       9.543   6.839  -8.744  0.00  0.00     0.004 C 
ATOM      2  C   UNL d   1       9.068   5.422  -9.098  0.00  0.00     0.035 C 
ATOM      3  C   UNL d   1       8.338   5.405 -10.443  0.00  0.00     0.251 C 
ATOM      4  N   UNL d   1       9.220   5.921 -11.494  0.00  0.00     0.141 N 
ATOM      5  C   UNL d   1       9.554   7.322 -11.220  0.00  0.00     0.251 C 
ATOM      6  C   UNL d   1      10.347   7.425  -9.914  0.00  0.00     0.035 C 
ENDROOT
BRANCH   4   7
ATOM      7  C   UNL d   1       8.520   5.856 -12.772  0.00  0.00     0.278 C 
BRANCH   7   8
ATOM      8  C   UNL d   1       8.199   4.527 -13.364  0.00  0.00     0.033 A 
ATOM      9  C   UNL d   1       9.115   3.599 -13.975  0.00  0.00     0.035 A 
ATOM     10  C   UNL d   1       8.373   2.463 -14.407  0.00  0.00     0.162 A 
ATOM     11  C   UNL d   1      10.501   3.549 -14.234  0.00  0.00     0.004 A 
ATOM     12  N   UNL d   1       7.064   2.714 -14.059  0.00  0.00    -0.226 NA
ATOM     13  N   UNL d   1       8.855   1.345 -15.028  0.00  0.00    -0.225 NA
ATOM     14  C   UNL d   1       6.958   3.946 -13.425  0.00  0.00     0.098 A 
ATOM     15  C   UNL d   1      10.188   1.358 -15.242  0.00  0.00     0.101 A 
ATOM     16  C   UNL d   1      11.044   2.420 -14.883  0.00  0.00     0.021 A 
ENDBRANCH   7   8
ENDBRANCH   4   7
BRANCH   1  17
ATOM     17  C   UNL d   1      10.338   6.806  -7.436  0.00  0.00     0.005 C 
BRANCH  17  18
ATOM     18  C   UNL d   1      10.761   8.176  -6.880  0.00  0.00     0.026 C 
BRANCH  18  19
ATOM     19  C   UNL d   1      11.243   8.135  -5.431  0.00  0.00    -0.022 A 
ATOM     20  C   UNL d   1      11.460   9.349  -4.745  0.00  0.00    -0.004 A 
ATOM     21  C   UNL d   1      11.899   9.344  -3.398  0.00  0.00    -0.000 A 
ATOM     22  C   UNL d   1      12.129   8.124  -2.736  0.00  0.00    -0.000 A 
ATOM     23  C   UNL d   1      11.911   6.910  -3.417  0.00  0.00    -0.000 A 
ATOM     24  C   UNL d   1      11.480   6.915  -4.761  0.00  0.00    -0.004 A 
ENDBRANCH  18  19
ENDBRANCH  17  18
ENDBRANCH   1  17
TORSDOF 5
