REMARK  1 active torsions:
REMARK  status: ('A' for Active; 'I' for Inactive)
REMARK    1  A    between atoms: C_10  and  C_11 
ROOT
ATOM      1  C   UNL d   1       6.853  -0.564 -13.089  0.00  0.00     0.009 C 
ATOM      2  C   UNL d   1       5.688   0.277 -13.644  0.00  0.00     0.045 C 
ATOM      3  C   UNL d   1       5.292  -0.161 -15.032  0.00  0.00    -0.018 A 
ATOM      4  C   UNL d   1       4.051  -0.806 -15.202  0.00  0.00    -0.004 A 
ATOM      5  C   UNL d   1       3.647  -1.223 -16.480  0.00  0.00    -0.000 A 
ATOM      6  C   UNL d   1       4.461  -0.975 -17.602  0.00  0.00    -0.000 A 
ATOM      7  C   UNL d   1       5.699  -0.331 -17.429  0.00  0.00    -0.000 A 
ATOM      8  C   UNL d   1       6.134   0.075 -16.145  0.00  0.00    -0.004 A 
ATOM      9  C   UNL d   1       7.423   0.791 -16.070  0.00  0.00    -0.001 C 
ATOM     10  C   UNL d   1       7.807   1.817 -15.280  0.00  0.00    -0.004 C 
ATOM     11  C   UNL d   1       6.933   2.481 -14.284  0.00  0.00    -0.004 A 
ATOM     12  C   UNL d   1       7.142   3.855 -13.987  0.00  0.00    -0.000 A 
ATOM     13  C   UNL d   1       6.314   4.566 -13.113  0.00  0.00    -0.000 A 
ATOM     14  C   UNL d   1       5.310   3.883 -12.433  0.00  0.00    -0.000 A 
ATOM     15  C   UNL d   1       5.144   2.509 -12.646  0.00  0.00    -0.004 A 
ATOM     16  C   UNL d   1       5.918   1.785 -13.572  0.00  0.00    -0.018 A 
ENDROOT
BRANCH  10  17
ATOM     17  C   UNL d   1       9.152   2.326 -15.461  0.00  0.00    -0.022 C 
ATOM     18  C   UNL d   1       9.427   3.433 -16.470  0.00  0.00     0.061 C 
ATOM     19  C   UNL d   1      10.911   3.569 -16.817  0.00  0.00     0.255 C 
ATOM     20  N   UNL d   1      11.677   3.621 -15.587  0.00  0.00     0.144 N 
ATOM     21  C   UNL d   1      11.602   2.335 -14.897  0.00  0.00     0.276 C 
ATOM     22  C   UNL d   1      13.059   3.938 -15.902  0.00  0.00     0.286 C 
ATOM     23  C   UNL d   1      10.179   1.809 -14.761  0.00  0.00     0.005 C 
ENDBRANCH  10  17
TORSDOF 1
