REMARK  4 active torsions:
REMARK  status: ('A' for Active; 'I' for Inactive)
REMARK       I    between atoms: C_2  and  N_3 
REMARK    1  A    between atoms: C_2  and  C_18 
REMARK    2  A    between atoms: N_3  and  C_4 
REMARK    3  A    between atoms: C_7  and  O_8 
REMARK    4  A    between atoms: O_8  and  C_9 
ROOT
ATOM      1  C   UNL d   1       9.770   7.034  -9.940  0.00  0.00     0.104 A 
ATOM      2  C   UNL d   1       9.461   5.654 -10.008  0.00  0.00     0.025 A 
ATOM      3  C   UNL d   1       8.959   5.131 -11.212  0.00  0.00     0.046 A 
ATOM      4  C   UNL d   1       8.759   6.007 -12.304  0.00  0.00     0.183 A 
ATOM      5  N   UNL d   1       9.039   7.322 -12.245  0.00  0.00    -0.219 NA
ATOM      6  C   UNL d   1       9.516   7.816 -11.086  0.00  0.00     0.120 A 
ENDROOT
BRANCH   1   7
ATOM      7  N   UNL d   1      10.257   7.702  -8.785  0.00  0.00    -0.206 NA
ATOM      8  C   UNL d   1      10.706   7.188  -7.626  0.00  0.00     0.281 C 
ATOM      9  O   UNL d   1      10.817   5.988  -7.396  0.00  0.00    -0.265 OA
BRANCH   8  10
ATOM     10  C   UNL d   1      11.072   8.224  -6.622  0.00  0.00     0.078 A 
ATOM     11  C   UNL d   1      11.403   7.947  -5.244  0.00  0.00     0.024 A 
ATOM     12  C   UNL d   1      11.710   9.199  -4.629  0.00  0.00     0.082 A 
ATOM     13  C   UNL d   1      11.491   6.797  -4.427  0.00  0.00     0.002 A 
ATOM     14  N   UNL d   1      11.560  10.156  -5.615  0.00  0.00    -0.244 NA
ATOM     15  C   UNL d   1      12.073   9.296  -3.275  0.00  0.00     0.019 A 
ATOM     16  C   UNL d   1      11.198   9.574  -6.812  0.00  0.00     0.104 A 
ATOM     17  C   UNL d   1      12.164   8.132  -2.492  0.00  0.00     0.002 A 
ATOM     18  C   UNL d   1      11.870   6.883  -3.071  0.00  0.00     0.000 A 
ENDBRANCH   8  10
ENDBRANCH   1   7
BRANCH   4  19
ATOM     19  O   UNL d   1       8.265   5.608 -13.522  0.00  0.00    -0.287 OA
BRANCH  19  20
ATOM     20  C   UNL d   1       8.216   4.273 -13.819  0.00  0.00     0.130 A 
ATOM     21  C   UNL d   1       7.001   3.559 -13.725  0.00  0.00     0.161 A 
ATOM     22  N   UNL d   1       6.903   2.253 -14.047  0.00  0.00    -0.231 NA
ATOM     23 CL   UNL d   1       5.567   4.373 -13.214  0.00  0.00    -0.059 Cl
ATOM     24  C   UNL d   1       8.018   1.608 -14.451  0.00  0.00     0.100 A 
ATOM     25  C   UNL d   1       9.273   2.234 -14.575  0.00  0.00     0.023 A 
ATOM     26  C   UNL d   1       9.371   3.599 -14.257  0.00  0.00     0.029 A 
ENDBRANCH  19  20
ENDBRANCH   4  19
TORSDOF 4
