REMARK  5 active torsions:
REMARK  status: ('A' for Active; 'I' for Inactive)
REMARK    1  A    between atoms: C_2  and  C_3 
REMARK    2  A    between atoms: C_3  and  N_4 
REMARK    3  A    between atoms: C_11  and  C_12 
REMARK       I    between atoms: C_12  and  N_14 
REMARK    4  A    between atoms: N_14  and  C_15 
REMARK    5  A    between atoms: C_18  and  O_19 
ROOT
ATOM      1  N   UNL d   1      11.341   9.173  -6.062  0.00  0.00     0.140 N 
ATOM      2  C   UNL d   1      12.179   9.866  -6.978  0.00  0.00     0.282 C 
ATOM      3  C   UNL d   1      12.867   8.940  -8.029  0.00  0.00     0.178 C 
ATOM      4  O   UNL d   1      11.951   8.196  -8.776  0.00  0.00    -0.348 OA
ATOM      5  C   UNL d   1      11.149   7.439  -7.915  0.00  0.00     0.169 C 
ATOM      6  C   UNL d   1      10.167   6.613  -8.690  0.00  0.00     0.003 A 
ATOM      7  C   UNL d   1      10.255   6.382 -10.075  0.00  0.00     0.003 A 
ATOM      8  C   UNL d   1       9.342   5.501 -10.695  0.00  0.00     0.058 A 
ATOM      9  C   UNL d   1       8.334   4.903  -9.914  0.00  0.00     0.004 A 
ATOM     10  C   UNL d   1       8.262   5.137  -8.529  0.00  0.00    -0.004 A 
ATOM     11  C   UNL d   1       9.145   6.028  -7.951  0.00  0.00    -0.024 A 
ATOM     12  C   UNL d   1       9.027   6.374  -6.508  0.00  0.00     0.028 C 
ATOM     13  C   UNL d   1       9.260   7.809  -6.181  0.00  0.00     0.041 C 
ATOM     14  C   UNL d   1      10.432   8.411  -6.922  0.00  0.00     0.251 C 
ENDROOT
BRANCH   8  15
ATOM     15  C   UNL d   1       9.427   5.194 -12.160  0.00  0.00     0.279 C 
ATOM     16  O   UNL d   1       9.763   6.034 -12.991  0.00  0.00    -0.265 OA
ATOM     17  N   UNL d   1       9.140   3.930 -12.493  0.00  0.00    -0.208 NA
BRANCH  17  18
ATOM     18  C   UNL d   1       9.254   3.362 -13.780  0.00  0.00     0.085 A 
ATOM     19  C   UNL d   1      10.413   3.467 -14.577  0.00  0.00     0.021 A 
ATOM     20  C   UNL d   1      10.491   2.776 -15.803  0.00  0.00     0.026 A 
ATOM     21  C   UNL d   1       9.417   1.977 -16.251  0.00  0.00     0.094 A 
ATOM     22  C   UNL d   1       8.257   1.889 -15.438  0.00  0.00     0.026 A 
ATOM     23  C   UNL d   1       8.179   2.576 -14.219  0.00  0.00     0.021 A 
BRANCH  21  24
ATOM     24  O   UNL d   1       9.525   1.315 -17.459  0.00  0.00    -0.328 OA
ATOM     25  C   UNL d   1       8.426   0.492 -17.856  0.00  0.00     0.181 C 
ENDBRANCH  21  24
ENDBRANCH  17  18
ENDBRANCH   8  15
BRANCH   1  26
ATOM     26  C   UNL d   1      12.125   8.405  -5.089  0.00  0.00     0.250 C 
BRANCH  26  27
ATOM     27  C   UNL d   1      11.555   8.385  -3.682  0.00  0.00     0.035 C 
ATOM     28  C   UNL d   1      12.630   8.574  -2.618  0.00  0.00     0.002 C 
ENDBRANCH  26  27
ENDBRANCH   1  26
TORSDOF 5
