REMARK  6 active torsions:
REMARK  status: ('A' for Active; 'I' for Inactive)
REMARK       I    between atoms: C_2  and  N_3 
REMARK    1  A    between atoms: C_2  and  C_27 
REMARK    2  A    between atoms: N_3  and  C_4 
REMARK    3  A    between atoms: C_7  and  C_8 
REMARK    4  A    between atoms: C_8  and  C_9 
REMARK    5  A    between atoms: C_9  and  N_10 
REMARK    6  A    between atoms: C_13  and  C_14 
ROOT
ATOM      1  C   UNL d   1       9.482   6.185 -11.225  0.00  0.00     0.250 C 
ENDROOT
BRANCH   1   2
ATOM      2  C   UNL d   1       8.088   5.554 -11.347  0.00  0.00     0.035 C 
BRANCH   2   3
ATOM      3  C   UNL d   1       7.810   4.852 -12.682  0.00  0.00     0.002 C 
ATOM      4  C   UNL d   1       8.990   3.963 -13.144  0.00  0.00     0.002 C 
ATOM      5  C   UNL d   1       8.681   3.252 -14.458  0.00  0.00     0.024 C 
ATOM      6  C   UNL d   1       7.400   2.401 -14.344  0.00  0.00     0.106 C 
ATOM      7  C   UNL d   1       6.205   3.247 -13.851  0.00  0.00     0.024 C 
ATOM      8  C   UNL d   1       6.529   3.993 -12.554  0.00  0.00     0.002 C 
BRANCH   6   9
ATOM      9  N   UNL d   1       7.084   1.807 -15.627  0.00  0.00    -0.240 NA
ATOM     10  C   UNL d   1       7.702   0.750 -16.158  0.00  0.00     0.253 C 
ATOM     11  O   UNL d   1       8.610   0.146 -15.589  0.00  0.00    -0.271 OA
BRANCH  10  12
ATOM     12  C   UNL d   1       7.252   0.320 -17.557  0.00  0.00     0.113 C 
ATOM     13  C   UNL d   1       7.705   1.312 -18.632  0.00  0.00     0.152 C 
ATOM     14  O   UNL d   1       6.701   1.290 -19.654  0.00  0.00    -0.354 OA
ATOM     15  C   UNL d   1       5.587   0.503 -19.239  0.00  0.00     0.143 C 
ATOM     16  C   UNL d   1       5.734   0.317 -17.735  0.00  0.00     0.044 C 
ENDBRANCH  10  12
ENDBRANCH   6   9
ENDBRANCH   2   3
ENDBRANCH   1   2
BRANCH   1  17
ATOM     17  N   UNL d   1       9.719   6.877  -9.966  0.00  0.00     0.137 N 
ATOM     18  C   UNL d   1       9.543   5.996  -8.810  0.00  0.00     0.251 C 
ATOM     19  C   UNL d   1       9.690   6.782  -7.505  0.00  0.00     0.040 C 
ATOM     20  C   UNL d   1      11.054   7.470  -7.422  0.00  0.00     0.026 C 
ATOM     21  C   UNL d   1      11.280   8.287  -8.716  0.00  0.00     0.040 C 
ATOM     22  C   UNL d   1      11.060   7.454  -9.981  0.00  0.00     0.251 C 
BRANCH  20  23
ATOM     23  C   UNL d   1      11.166   8.305  -6.144  0.00  0.00    -0.024 A 
ATOM     24  C   UNL d   1      11.499   7.735  -4.891  0.00  0.00    -0.001 A 
ATOM     25  C   UNL d   1      11.634   8.485  -3.734  0.00  0.00     0.090 A 
ATOM     26  C   UNL d   1      11.797   6.317  -4.569  0.00  0.00     0.061 A 
ATOM     27  C   UNL d   1      11.394   9.861  -3.746  0.00  0.00     0.024 A 
ATOM     28  O   UNL d   1      11.973   7.753  -2.635  0.00  0.00    -0.331 OA
ATOM     29  C   UNL d   1      11.037  10.447  -4.972  0.00  0.00     0.002 A 
ATOM     30  C   UNL d   1      10.927   9.690  -6.159  0.00  0.00    -0.004 A 
ATOM     31  C   UNL d   1      12.118   6.392  -3.052  0.00  0.00     0.154 A 
ENDBRANCH  20  23
ENDBRANCH   1  17
TORSDOF 6
