REMARK  5 active torsions:
REMARK  status: ('A' for Active; 'I' for Inactive)
REMARK    1  A    between atoms: C_2  and  C_3 
REMARK    2  A    between atoms: C_3  and  N_4 
REMARK    3  A    between atoms: C_7  and  C_8 
REMARK    4  A    between atoms: C_8  and  O_9 
REMARK    5  A    between atoms: O_9  and  C_10 
ROOT
ATOM      1  N   UNL d   1       8.454   2.375 -15.525  0.00  0.00     0.140 N 
ATOM      2  C   UNL d   1       9.640   3.099 -15.102  0.00  0.00     0.251 C 
ATOM      3  C   UNL d   1       9.249   4.416 -14.395  0.00  0.00     0.038 C 
ATOM      4  C   UNL d   1       8.344   4.126 -13.192  0.00  0.00     0.034 C 
ATOM      5  C   UNL d   1       7.131   3.317 -13.659  0.00  0.00     0.038 C 
ATOM      6  C   UNL d   1       7.586   2.036 -14.395  0.00  0.00     0.251 C 
ENDROOT
BRANCH   4   7
ATOM      7  C   UNL d   1       7.883   5.430 -12.523  0.00  0.00     0.149 C 
BRANCH   7   8
ATOM      8  O   UNL d   1       9.010   6.188 -12.101  0.00  0.00    -0.331 OA
BRANCH   8   9
ATOM      9  C   UNL d   1       9.280   6.325 -10.759  0.00  0.00     0.094 A 
ATOM     10  C   UNL d   1       8.702   5.528  -9.752  0.00  0.00     0.025 A 
ATOM     11  C   UNL d   1       8.993   5.797  -8.394  0.00  0.00     0.008 A 
ATOM     12  C   UNL d   1       9.880   6.827  -8.040  0.00  0.00     0.030 A 
ATOM     13  C   UNL d   1      10.488   7.603  -9.045  0.00  0.00     0.008 A 
ATOM     14  I   UNL d   1      10.296   7.199  -6.025  0.00  0.00    -0.043 I 
ATOM     15  C   UNL d   1      10.185   7.349 -10.397  0.00  0.00     0.025 A 
ENDBRANCH   8   9
ENDBRANCH   7   8
ENDBRANCH   4   7
BRANCH   1  16
ATOM     16  C   UNL d   1       8.828   1.156 -16.287  0.00  0.00     0.288 C 
BRANCH  16  17
ATOM     17  C   UNL d   1       9.456   0.023 -15.463  0.00  0.00     0.229 C 
ATOM     18  F   UNL d   1      10.624   0.371 -14.927  0.00  0.00    -0.232 F 
ENDBRANCH  16  17
ENDBRANCH   1  16
TORSDOF 5
