REMARK  7 active torsions:
REMARK  status: ('A' for Active; 'I' for Inactive)
REMARK    1  A    between atoms: N_2  and  C_3 
REMARK    2  A    between atoms: C_5  and  O_6 
REMARK    3  A    between atoms: C_8  and  C_9 
REMARK       I    between atoms: C_9  and  N_11 
REMARK    4  A    between atoms: N_11  and  C_12 
REMARK    5  A    between atoms: C_12  and  C_13 
REMARK    6  A    between atoms: N_16  and  C_17 
REMARK    7  A    between atoms: C_17  and  C_18 
ROOT
ATOM      1  C   UNL d   1       8.174   4.915 -12.822  0.00  0.00     0.277 C 
ATOM      2  O   UNL d   1       7.121   5.494 -13.033  0.00  0.00    -0.266 OA
ATOM      3  N   UNL d   1       8.999   5.262 -11.832  0.00  0.00    -0.234 NA
ENDROOT
BRANCH   3   4
ATOM      4  C   UNL d   1       8.827   6.465 -11.028  0.00  0.00     0.131 C 
BRANCH   4   5
ATOM      5  C   UNL d   1       9.977   6.578 -10.015  0.00  0.00     0.060 C 
ATOM      6  C   UNL d   1      10.056   7.950  -9.331  0.00  0.00     0.253 C 
ATOM      7  N   UNL d   1      10.506   7.619  -7.992  0.00  0.00     0.141 N 
ATOM      8  C   UNL d   1       9.660   6.465  -7.632  0.00  0.00     0.251 C 
ATOM      9  C   UNL d   1       9.772   5.593  -8.868  0.00  0.00     0.039 C 
BRANCH   7  10
ATOM     10  C   UNL d   1      10.359   8.764  -7.084  0.00  0.00     0.277 C 
BRANCH  10  11
ATOM     11  C   UNL d   1      10.969   8.585  -5.694  0.00  0.00     0.011 A 
ATOM     12  C   UNL d   1      11.445   7.301  -5.260  0.00  0.00    -0.002 A 
ATOM     13  C   UNL d   1      11.895   7.150  -3.931  0.00  0.00    -0.000 A 
ATOM     14  C   UNL d   1      12.029   8.261  -3.059  0.00  0.00    -0.000 A 
ATOM     15  C   UNL d   1      11.640   9.538  -3.534  0.00  0.00    -0.000 A 
ATOM     16  C   UNL d   1      11.076   9.716  -4.825  0.00  0.00    -0.002 A 
ENDBRANCH  10  11
ENDBRANCH   7  10
ENDBRANCH   4   5
ENDBRANCH   3   4
BRANCH   1  17
ATOM     17  C   UNL d   1       8.587   3.731 -13.652  0.00  0.00     0.081 A 
ATOM     18  C   UNL d   1       9.941   3.516 -14.023  0.00  0.00     0.100 A 
ATOM     19  C   UNL d   1      10.265   2.349 -14.768  0.00  0.00     0.044 A 
ATOM     20  C   UNL d   1       9.269   1.421 -15.150  0.00  0.00     0.089 A 
ATOM     21  C   UNL d   1       7.922   1.672 -14.797  0.00  0.00     0.075 A 
ATOM     22  C   UNL d   1       7.597   2.824 -14.090  0.00  0.00     0.020 A 
ATOM     23 CL   UNL d   1       6.635   0.546 -15.107  0.00  0.00    -0.081 Cl
BRANCH  18  24
ATOM     24  O   UNL d   1      10.877   4.465 -13.660  0.00  0.00    -0.328 OA
ATOM     25  C   UNL d   1      12.197   4.360 -14.156  0.00  0.00     0.181 C 
ENDBRANCH  18  24
BRANCH  20  26
ATOM     26  N   UNL d   1       9.684   0.285 -15.866  0.00  0.00    -0.268 NA
ATOM     27  C   UNL d   1       9.153   0.073 -17.207  0.00  0.00     0.152 C 
ENDBRANCH  20  26
ENDBRANCH   1  17
TORSDOF 7
