REMARK  3 active torsions:
REMARK  status: ('A' for Active; 'I' for Inactive)
REMARK    1  A    between atoms: C_8  and  O_9 
REMARK    2  A    between atoms: O_9  and  C_10 
REMARK    3  A    between atoms: C_10  and  C_11 
ROOT
ATOM      1  C   UNL d   1       8.325   6.407  -6.873  0.00  0.00     0.033 C 
ATOM      2  C   UNL d   1       9.470   7.060  -7.636  0.00  0.00     0.000 A 
ATOM      3  C   UNL d   1       9.582   6.823  -9.033  0.00  0.00    -0.002 A 
ATOM      4  C   UNL d   1      10.618   7.432  -9.776  0.00  0.00    -0.001 A 
ATOM      5  C   UNL d   1      11.530   8.300  -9.127  0.00  0.00    -0.002 A 
ATOM      6  C   UNL d   1      11.411   8.549  -7.757  0.00  0.00     0.000 A 
ATOM      7  C   UNL d   1      12.423   9.407  -7.075  0.00  0.00     0.033 C 
ATOM      8  C   UNL d   1      10.399   7.918  -6.988  0.00  0.00     0.086 A 
ENDROOT
BRANCH   8   9
ATOM      9  O   UNL d   1      10.306   8.170  -5.644  0.00  0.00    -0.329 OA
BRANCH   9  10
ATOM     10  C   UNL d   1      11.127   7.358  -4.796  0.00  0.00     0.188 C 
BRANCH  10  11
ATOM     11  C   UNL d   1      11.604   8.185  -3.549  0.00  0.00     0.332 C 
ATOM     12  C   UNL d   1      12.171   7.293  -2.457  0.00  0.00     0.044 C 
ATOM     13  N   UNL d   1      12.660   9.111  -3.934  0.00  0.00     0.619 N 
ENDBRANCH  10  11
ENDBRANCH   9  10
ENDBRANCH   8   9
TORSDOF 3
