REMARK  6 active torsions:
REMARK  status: ('A' for Active; 'I' for Inactive)
REMARK    1  A    between atoms: C_6  and  C_7 
REMARK    2  A    between atoms: C_10  and  S_11 
REMARK    3  A    between atoms: S_11  and  C_12 
REMARK    4  A    between atoms: C_12  and  C_13 
REMARK    5  A    between atoms: C_13  and  C_14 
REMARK    6  A    between atoms: C_14  and  N_15 
ROOT
ATOM      1  C   UNL d   1       9.436   1.416 -14.623  0.00  0.00     0.067 C 
ENDROOT
BRANCH   1   2
ATOM      2  S   UNL d   1      11.051   1.683 -15.421  0.00  0.00    -0.075 SA
BRANCH   2   3
ATOM      3  C   UNL d   1      10.785   3.290 -16.069  0.00  0.00     0.193 A 
ATOM      4  N   UNL d   1       9.852   4.123 -15.612  0.00  0.00    -0.122 NA
ATOM      5  N   UNL d   1       9.919   5.223 -16.409  0.00  0.00    -0.128 NA
ATOM      6  C   UNL d   1      10.920   5.006 -17.265  0.00  0.00     0.167 A 
ATOM      7  N   UNL d   1      11.498   3.794 -17.091  0.00  0.00    -0.289 N 
ATOM      8  C   UNL d   1      12.614   3.196 -17.809  0.00  0.00     0.134 C 
BRANCH   6   9
ATOM      9  C   UNL d   1      11.351   6.012 -18.229  0.00  0.00     0.037 A 
ATOM     10  C   UNL d   1      10.461   6.624 -19.154  0.00  0.00     0.021 A 
ATOM     11  C   UNL d   1       9.087   6.274 -19.229  0.00  0.00     0.003 A 
ATOM     12  C   UNL d   1      10.938   7.633 -20.045  0.00  0.00     0.081 A 
ATOM     13  C   UNL d   1       8.258   6.922 -20.157  0.00  0.00     0.015 A 
ATOM     14  C   UNL d   1       8.827   7.899 -20.990  0.00  0.00     0.059 A 
ATOM     15  C   UNL d   1       7.988   8.630 -22.012  0.00  0.00     0.052 C 
ATOM     16  N   UNL d   1      10.129   8.249 -20.937  0.00  0.00    -0.250 NA
ATOM     17  C   UNL d   1      12.304   7.985 -20.000  0.00  0.00     0.019 A 
ATOM     18  C   UNL d   1      13.185   7.378 -19.088  0.00  0.00     0.002 A 
ATOM     19  C   UNL d   1      12.706   6.398 -18.204  0.00  0.00     0.003 A 
ENDBRANCH   6   9
ENDBRANCH   2   3
ENDBRANCH   1   2
BRANCH   1  20
ATOM     20  C   UNL d   1       8.263   1.348 -15.626  0.00  0.00     0.047 C 
BRANCH  20  21
ATOM     21  C   UNL d   1       8.389   0.118 -16.536  0.00  0.00     0.251 C 
BRANCH  21  22
ATOM     22  N   UNL d   1       7.291   0.024 -17.496  0.00  0.00     0.138 N 
ATOM     23  C   UNL d   1       7.739  -0.833 -18.598  0.00  0.00     0.255 C 
ATOM     24  C   UNL d   1       6.804  -0.823 -19.818  0.00  0.00     0.061 C 
ATOM     25  C   UNL d   1       5.620  -1.756 -19.667  0.00  0.00    -0.022 A 
ATOM     26  C   UNL d   1       4.680  -1.560 -18.635  0.00  0.00    -0.022 A 
ATOM     27  C   UNL d   1       5.467  -2.835 -20.564  0.00  0.00     0.015 A 
ATOM     28  C   UNL d   1       4.820  -0.417 -17.650  0.00  0.00     0.061 C 
ATOM     29  C   UNL d   1       3.600  -2.452 -18.503  0.00  0.00     0.021 A 
ATOM     30  C   UNL d   1       6.102  -0.499 -16.812  0.00  0.00     0.255 C 
ATOM     31  C   UNL d   1       3.457  -3.539 -19.382  0.00  0.00     0.110 A 
ATOM     32  O   UNL d   1       2.383  -4.383 -19.240  0.00  0.00    -0.319 OA
ATOM     33  C   UNL d   1       4.379  -3.731 -20.435  0.00  0.00     0.084 A 
ATOM     34  C   UNL d   1       2.586  -5.722 -19.689  0.00  0.00     0.236 C 
ATOM     35  C   UNL d   1       3.271  -5.781 -21.064  0.00  0.00     0.268 C 
ATOM     36  N   UNL d   1       4.169  -4.808 -21.353  0.00  0.00    -0.293 N 
ATOM     37  O   UNL d   1       3.008  -6.717 -21.821  0.00  0.00    -0.269 OA
ATOM     38  C   UNL d   1       4.941  -4.854 -22.602  0.00  0.00     0.134 C 
ENDBRANCH  21  22
ENDBRANCH  20  21
ENDBRANCH   1  20
TORSDOF 6
