REMARK  6 active torsions:
REMARK  status: ('A' for Active; 'I' for Inactive)
REMARK    1  A    between atoms: C_5  and  O_6 
REMARK    2  A    between atoms: O_6  and  C_7 
REMARK    3  A    between atoms: C_7  and  C_8 
REMARK    4  A    between atoms: C_8  and  C_9 
REMARK    5  A    between atoms: C_9  and  N_10 
REMARK    6  A    between atoms: N_14  and  C_15 
ROOT
ATOM      1  N   UNL d   1       7.529   3.075 -13.691  0.00  0.00     0.139 N 
ATOM      2  C   UNL d   1       6.076   2.983 -13.804  0.00  0.00     0.252 C 
ATOM      3  C   UNL d   1       5.499   1.630 -13.322  0.00  0.00     0.059 C 
ATOM      4  C   UNL d   1       5.436   0.524 -14.389  0.00  0.00     0.103 C 
ATOM      5  N   UNL d   1       6.686   0.322 -15.117  0.00  0.00    -0.346 N 
ATOM      6  C   UNL d   1       7.949   0.718 -14.502  0.00  0.00     0.137 C 
ATOM      7  C   UNL d   1       8.210   2.229 -14.682  0.00  0.00     0.274 C 
ENDROOT
BRANCH   1   8
ATOM      8  C   UNL d   1       7.970   4.461 -13.857  0.00  0.00     0.253 C 
BRANCH   8   9
ATOM      9  C   UNL d   1       9.164   4.782 -12.950  0.00  0.00     0.068 C 
BRANCH   9  10
ATOM     10  C   UNL d   1       8.752   5.343 -11.580  0.00  0.00     0.151 C 
BRANCH  10  11
ATOM     11  O   UNL d   1       9.862   6.081 -11.075  0.00  0.00    -0.331 OA
BRANCH  11  12
ATOM     12  C   UNL d   1       9.818   6.559  -9.783  0.00  0.00     0.094 A 
ATOM     13  C   UNL d   1      10.653   7.654  -9.466  0.00  0.00     0.026 A 
ATOM     14  C   UNL d   1      10.666   8.197  -8.168  0.00  0.00     0.032 A 
ATOM     15  C   UNL d   1       9.855   7.641  -7.166  0.00  0.00     0.140 A 
ATOM     16  F   UNL d   1       9.870   8.167  -5.920  0.00  0.00    -0.204 F 
ATOM     17  C   UNL d   1       9.026   6.544  -7.465  0.00  0.00     0.032 A 
ATOM     18  C   UNL d   1       9.007   6.000  -8.764  0.00  0.00     0.026 A 
ENDBRANCH  11  12
ENDBRANCH  10  11
ENDBRANCH   9  10
ENDBRANCH   8   9
ENDBRANCH   1   8
BRANCH   5  19
ATOM     19  C   UNL d   1       6.646  -0.165 -16.449  0.00  0.00     0.056 A 
ATOM     20  C   UNL d   1       7.731   0.041 -17.342  0.00  0.00     0.018 A 
ATOM     21  C   UNL d   1       7.702  -0.472 -18.650  0.00  0.00     0.013 A 
ATOM     22  C   UNL d   1       6.586  -1.192 -19.106  0.00  0.00     0.058 A 
ATOM     23  C   UNL d   1       5.495  -1.398 -18.242  0.00  0.00     0.013 A 
ATOM     24 CL   UNL d   1       6.560  -1.814 -20.709  0.00  0.00    -0.082 Cl
ATOM     25  C   UNL d   1       5.525  -0.893 -16.928  0.00  0.00     0.018 A 
ENDBRANCH   5  19
TORSDOF 6
