REMARK  3 active torsions:
REMARK  status: ('A' for Active; 'I' for Inactive)
REMARK    1  A    between atoms: O_2  and  C_3 
REMARK    2  A    between atoms: C_14  and  C_15 
REMARK    3  A    between atoms: C_15  and  C_16 
ROOT
ATOM      1  C   UNL d   1       7.102   1.581 -14.239  0.00  0.00     0.119 A 
ATOM      2  C   UNL d   1       6.257   2.615 -13.735  0.00  0.00     0.022 A 
ATOM      3  C   UNL d   1       6.805   3.825 -13.257  0.00  0.00    -0.020 A 
ATOM      4  C   UNL d   1       8.207   4.005 -13.248  0.00  0.00     0.007 A 
ATOM      5  C   UNL d   1       9.053   2.983 -13.727  0.00  0.00     0.027 A 
ATOM      6  C   UNL d   1       8.506   1.783 -14.231  0.00  0.00     0.153 A 
ATOM      7  O   UNL d   1       9.342   0.769 -14.593  0.00  0.00    -0.188 OA
ATOM      8  C   UNL d   1       8.809   5.272 -12.649  0.00  0.00     0.246 C 
ATOM      9  C   UNL d   1       9.370   5.021 -11.221  0.00  0.00     0.070 C 
ATOM     10  C   UNL d   1       9.788   6.300 -10.550  0.00  0.00     0.007 A 
ATOM     11  S   UNL d   1      10.590   6.416  -9.028  0.00  0.00    -0.096 SA
ATOM     12  C   UNL d   1      10.513   8.146  -9.014  0.00  0.00     0.007 A 
ATOM     13  C   UNL d   1       9.818   8.578 -10.109  0.00  0.00    -0.000 A 
ATOM     14  C   UNL d   1       9.426   7.528 -10.992  0.00  0.00     0.013 A 
ATOM     15  C   UNL d   1       8.546   7.625 -12.204  0.00  0.00     0.277 C 
ATOM     16  N   UNL d   1       7.871   6.405 -12.691  0.00  0.00     0.144 N 
ATOM     17  C   UNL d   1       6.633   6.052 -11.981  0.00  0.00     0.256 C 
ATOM     18  C   UNL d   1       5.880   4.934 -12.754  0.00  0.00     0.061 C 
ENDROOT
BRANCH  12  19
ATOM     19  C   UNL d   1      11.090   8.926  -7.865  0.00  0.00     0.033 C 
BRANCH  19  20
ATOM     20  C   UNL d   1      10.396   8.743  -6.485  0.00  0.00     0.005 C 
ATOM     21  C   UNL d   1      11.031   9.700  -5.463  0.00  0.00     0.000 C 
ATOM     22  C   UNL d   1      10.432   7.303  -5.920  0.00  0.00     0.000 C 
ENDBRANCH  19  20
ENDBRANCH  12  19
BRANCH   1  23
ATOM     23  O   UNL d   1       6.645   0.349 -14.656  0.00  0.00    -0.326 OA
ATOM     24  C   UNL d   1       5.269   0.053 -14.499  0.00  0.00     0.181 C 
ENDBRANCH   1  23
TORSDOF 3
