REMARK  9 active torsions:
REMARK  status: ('A' for Active; 'I' for Inactive)
REMARK    1  A    between atoms: O_2  and  C_3 
REMARK    2  A    between atoms: C_8  and  N_9 
REMARK    3  A    between atoms: N_12  and  C_13 
REMARK    4  A    between atoms: C_13  and  C_14 
REMARK    5  A    between atoms: N_16  and  C_17 
REMARK    6  A    between atoms: C_20  and  O_21 
REMARK    7  A    between atoms: O_21  and  C_22 
REMARK    8  A    between atoms: C_22  and  C_23 
REMARK    9  A    between atoms: C_23  and  C_24 
ROOT
ATOM      1  C   UNL d   1       8.975   4.373 -12.943  0.00  0.00     0.135 A 
ATOM      2  C   UNL d   1       9.441   4.414 -11.660  0.00  0.00     0.121 A 
ATOM      3  N   UNL d   1       9.102   5.678 -11.236  0.00  0.00    -0.209 N 
ATOM      4  N   UNL d   1       8.475   6.382 -12.212  0.00  0.00    -0.060 NA
ATOM      5  N   UNL d   1       8.382   5.599 -13.240  0.00  0.00    -0.131 NA
ENDROOT
BRANCH   1   6
ATOM      6  C   UNL d   1       9.017   3.255 -13.938  0.00  0.00     0.299 C 
BRANCH   6   7
ATOM      7  N   UNL d   1       9.656   3.461 -15.233  0.00  0.00     0.147 N 
ATOM      8  C   UNL d   1      11.118   3.395 -15.089  0.00  0.00     0.275 C 
ATOM      9  C   UNL d   1      11.822   3.635 -16.449  0.00  0.00     0.137 C 
ATOM     10  N   UNL d   1      11.296   2.724 -17.448  0.00  0.00    -0.343 N 
ATOM     11  C   UNL d   1       9.849   2.686 -17.564  0.00  0.00     0.137 C 
ATOM     12  C   UNL d   1       9.223   2.426 -16.176  0.00  0.00     0.275 C 
BRANCH  10  13
ATOM     13  C   UNL d   1      12.138   1.855 -18.196  0.00  0.00     0.079 A 
ATOM     14  C   UNL d   1      11.826   0.482 -18.337  0.00  0.00     0.110 A 
ATOM     15  C   UNL d   1      12.663  -0.335 -19.143  0.00  0.00     0.026 A 
ATOM     16  C   UNL d   1      13.800   0.201 -19.773  0.00  0.00     0.002 A 
ATOM     17  C   UNL d   1      14.112   1.562 -19.613  0.00  0.00     0.002 A 
ATOM     18  C   UNL d   1      13.281   2.385 -18.823  0.00  0.00     0.019 A 
BRANCH  14  19
ATOM     19  O   UNL d   1      10.731  -0.005 -17.654  0.00  0.00    -0.327 OA
ATOM     20  C   UNL d   1      10.276  -1.308 -17.947  0.00  0.00     0.181 C 
ENDBRANCH  14  19
ENDBRANCH  10  13
ENDBRANCH   6   7
ENDBRANCH   1   6
BRANCH   3  21
ATOM     21  C   UNL d   1       9.409   6.286 -10.005  0.00  0.00     0.085 A 
ATOM     22  C   UNL d   1       8.879   5.785  -8.800  0.00  0.00     0.021 A 
ATOM     23  C   UNL d   1       9.166   6.450  -7.586  0.00  0.00     0.026 A 
ATOM     24  C   UNL d   1      10.011   7.587  -7.563  0.00  0.00     0.094 A 
ATOM     25  C   UNL d   1      10.578   8.044  -8.778  0.00  0.00     0.026 A 
ATOM     26  C   UNL d   1      10.257   7.411  -9.989  0.00  0.00     0.021 A 
BRANCH  24  27
ATOM     27  O   UNL d   1      10.218   8.206  -6.349  0.00  0.00    -0.331 OA
BRANCH  27  28
ATOM     28  C   UNL d   1      11.055   9.363  -6.349  0.00  0.00     0.152 C 
BRANCH  28  29
ATOM     29  C   UNL d   1      10.951  10.160  -5.051  0.00  0.00     0.071 C 
BRANCH  29  30
ATOM     30  C   UNL d   1      11.559   9.444  -3.843  0.00  0.00     0.196 C 
ATOM     31  F   UNL d   1      12.852   9.213  -4.050  0.00  0.00    -0.234 F 
ENDBRANCH  29  30
ENDBRANCH  28  29
ENDBRANCH  27  28
ENDBRANCH  24  27
ENDBRANCH   3  21
TORSDOF 9
