REMARK  7 active torsions:
REMARK  status: ('A' for Active; 'I' for Inactive)
REMARK    1  A    between atoms: O_2  and  C_3 
REMARK    2  A    between atoms: C_8  and  N_9 
REMARK    3  A    between atoms: N_12  and  C_13 
REMARK    4  A    between atoms: C_13  and  C_14 
REMARK    5  A    between atoms: C_14  and  C_15 
REMARK    6  A    between atoms: C_15  and  N_16 
REMARK       I    between atoms: N_16  and  C_17 
REMARK    7  A    between atoms: C_17  and  C_19 
ROOT
ATOM      1  C   UNL d   1       9.551   6.008 -12.676  0.00  0.00     0.253 C 
ENDROOT
BRANCH   1   2
ATOM      2  N   UNL d   1      10.149   4.871 -13.372  0.00  0.00     0.141 N 
ATOM      3  C   UNL d   1       9.353   3.673 -13.062  0.00  0.00     0.274 C 
ATOM      4  C   UNL d   1       9.937   2.439 -13.761  0.00  0.00     0.137 C 
ATOM      5  N   UNL d   1      10.004   2.659 -15.194  0.00  0.00    -0.343 N 
ATOM      6  C   UNL d   1      10.691   3.874 -15.593  0.00  0.00     0.137 C 
ATOM      7  C   UNL d   1      10.102   5.077 -14.827  0.00  0.00     0.274 C 
BRANCH   5   8
ATOM      8  C   UNL d   1       9.372   1.804 -16.120  0.00  0.00     0.079 A 
ATOM      9  C   UNL d   1       8.062   1.290 -15.907  0.00  0.00     0.110 A 
ATOM     10  C   UNL d   1       7.502   0.413 -16.868  0.00  0.00     0.026 A 
ATOM     11  C   UNL d   1       8.213   0.066 -18.031  0.00  0.00     0.002 A 
ATOM     12  C   UNL d   1       9.498   0.585 -18.245  0.00  0.00     0.002 A 
ATOM     13  C   UNL d   1      10.078   1.444 -17.293  0.00  0.00     0.019 A 
BRANCH   9  14
ATOM     14  O   UNL d   1       7.371   1.707 -14.786  0.00  0.00    -0.327 OA
ATOM     15  C   UNL d   1       6.201   1.006 -14.413  0.00  0.00     0.181 C 
ENDBRANCH   9  14
ENDBRANCH   5   8
ENDBRANCH   1   2
BRANCH   1  16
ATOM     16  C   UNL d   1       9.967   6.029 -11.186  0.00  0.00     0.062 C 
BRANCH  16  17
ATOM     17  C   UNL d   1       9.076   6.938 -10.370  0.00  0.00     0.131 C 
BRANCH  17  18
ATOM     18  N   UNL d   1       9.778   7.465  -9.207  0.00  0.00    -0.234 NA
ATOM     19  C   UNL d   1      10.061   6.770  -8.102  0.00  0.00     0.275 C 
ATOM     20  O   UNL d   1       9.889   5.557  -8.029  0.00  0.00    -0.266 OA
BRANCH  19  21
ATOM     21  C   UNL d   1      10.596   7.578  -6.943  0.00  0.00     0.059 A 
ATOM     22  C   UNL d   1      11.001   6.929  -5.754  0.00  0.00     0.028 A 
ATOM     23  C   UNL d   1      11.471   7.667  -4.675  0.00  0.00     0.130 A 
ATOM     24  C   UNL d   1      11.539   9.093  -4.749  0.00  0.00     0.130 A 
ATOM     25  N   UNL d   1      11.896   7.263  -3.474  0.00  0.00    -0.102 NA
ATOM     26  C   UNL d   1      11.149   9.740  -5.915  0.00  0.00     0.023 A 
ATOM     27  N   UNL d   1      12.010   9.584  -3.601  0.00  0.00    -0.102 NA
ATOM     28  C   UNL d   1      10.675   8.988  -7.004  0.00  0.00     0.006 A 
ATOM     29  O   UNL d   1      12.247   8.449  -2.816  0.00  0.00    -0.106 OA
ENDBRANCH  19  21
ENDBRANCH  17  18
ENDBRANCH  16  17
ENDBRANCH   1  16
TORSDOF 7
