REMARK  1 active torsions:
REMARK  status: ('A' for Active; 'I' for Inactive)
REMARK       I    between atoms: N_4  and  C_5 
REMARK    1  A    between atoms: C_5  and  C_7 
ROOT
ATOM      1  C   UNL d   1       7.438   3.990 -12.948  0.00  0.00     0.058 A 
ATOM      2  C   UNL d   1       6.195   3.643 -12.363  0.00  0.00     0.005 A 
ATOM      3  C   UNL d   1       5.460   2.531 -12.837  0.00  0.00    -0.000 A 
ATOM      4  C   UNL d   1       5.997   1.769 -13.893  0.00  0.00    -0.004 A 
ATOM      5  C   UNL d   1       7.213   2.131 -14.491  0.00  0.00    -0.018 A 
ATOM      6  C   UNL d   1       7.949   3.238 -14.036  0.00  0.00     0.001 A 
ATOM      7  C   UNL d   1       7.562   1.211 -15.647  0.00  0.00     0.053 A 
ATOM      8  C   UNL d   1       6.364   0.275 -15.624  0.00  0.00    -0.018 A 
ATOM      9  C   UNL d   1       6.104  -0.794 -16.501  0.00  0.00    -0.004 A 
ATOM     10  C   UNL d   1       4.925  -1.548 -16.312  0.00  0.00    -0.000 A 
ATOM     11  C   UNL d   1       4.017  -1.211 -15.283  0.00  0.00    -0.000 A 
ATOM     12  C   UNL d   1       4.282  -0.130 -14.413  0.00  0.00    -0.000 A 
ATOM     13  C   UNL d   1       5.473   0.600 -14.594  0.00  0.00    -0.004 A 
ENDROOT
BRANCH   1  14
ATOM     14  C   UNL d   1       8.204   5.162 -12.424  0.00  0.00     0.281 C 
ATOM     15  N   UNL d   1       8.574   5.058 -11.085  0.00  0.00    -0.175 NA
ATOM     16  C   UNL d   1       9.156   6.040 -10.463  0.00  0.00     0.259 C 
ATOM     17  N   UNL d   1       9.492   7.282 -10.967  0.00  0.00    -0.058 NA
ATOM     18  N   UNL d   1       9.536   5.892  -9.150  0.00  0.00    -0.111 N 
ATOM     19  O   UNL d   1       8.494   6.045 -13.234  0.00  0.00    -0.265 OA
ENDBRANCH   1  14
TORSDOF 1
