REMARK  11 active torsions:
REMARK  status: ('A' for Active; 'I' for Inactive)
REMARK    1  A    between atoms: C_2  and  C_3 
REMARK    2  A    between atoms: C_3  and  N_4 
REMARK    3  A    between atoms: N_4  and  C_5 
REMARK    4  A    between atoms: N_4  and  C_24 
REMARK    5  A    between atoms: C_5  and  C_6 
REMARK    6  A    between atoms: C_6  and  C_7 
REMARK    7  A    between atoms: C_7  and  C_8 
REMARK    8  A    between atoms: C_8  and  N_9 
REMARK       I    between atoms: N_9  and  C_10 
REMARK    9  A    between atoms: C_10  and  C_12 
REMARK   10  A    between atoms: C_15  and  C_16 
REMARK   11  A    between atoms: C_29  and  S_30 
ROOT
ATOM      1  C   UNL d   1       7.484   3.957 -13.547  0.00  0.00     0.037 C 
ENDROOT
BRANCH   1   2
ATOM      2  C   UNL d   1       6.432   2.986 -14.095  0.00  0.00     0.250 C 
BRANCH   2   3
ATOM      3  N   UNL d   1       6.910   1.591 -14.172  0.00  0.00     0.135 N 
BRANCH   3   4
ATOM      4  C   UNL d   1       5.765   0.677 -14.379  0.00  0.00     0.250 C 
BRANCH   4   5
ATOM      5  C   UNL d   1       4.802   0.565 -13.176  0.00  0.00     0.035 C 
ATOM      6  C   UNL d   1       5.489   0.663 -11.790  0.00  0.00     0.002 C 
ENDBRANCH   4   5
ENDBRANCH   3   4
BRANCH   3   7
ATOM      7  C   UNL d   1       8.016   1.378 -15.138  0.00  0.00     0.224 C 
ATOM      8  C   UNL d   1       7.523   1.519 -16.601  0.00  0.00     0.062 C 
ATOM      9  C   UNL d   1       8.523   0.998 -17.598  0.00  0.00     0.013 A 
ATOM     10  C   UNL d   1       9.610   0.174 -17.269  0.00  0.00     0.059 A 
ATOM     11  C   UNL d   1       8.292   1.235 -18.962  0.00  0.00     0.098 A 
ATOM     12  C   UNL d   1       9.932  -0.187 -15.824  0.00  0.00     0.048 C 
ATOM     13  N   UNL d   1      10.421  -0.347 -18.224  0.00  0.00    -0.226 NA
ATOM     14  C   UNL d   1       8.765   0.058 -14.857  0.00  0.00     0.040 C 
ATOM     15  C   UNL d   1      10.111  -0.014 -19.506  0.00  0.00     0.190 A 
ATOM     16  N   UNL d   1       9.097   0.713 -19.931  0.00  0.00    -0.220 NA
BRANCH  15  17
ATOM     17  S   UNL d   1      11.256  -0.470 -20.765  0.00  0.00    -0.075 SA
ATOM     18  C   UNL d   1      10.152  -1.455 -21.825  0.00  0.00     0.077 C 
ENDBRANCH  15  17
ENDBRANCH   3   7
ENDBRANCH   2   3
ENDBRANCH   1   2
BRANCH   1  19
ATOM     19  C   UNL d   1       6.837   5.200 -12.929  0.00  0.00     0.029 C 
BRANCH  19  20
ATOM     20  C   UNL d   1       7.868   6.358 -12.739  0.00  0.00     0.129 C 
BRANCH  20  21
ATOM     21  N   UNL d   1       8.271   6.525 -11.371  0.00  0.00    -0.234 NA
ATOM     22  C   UNL d   1       9.127   5.751 -10.671  0.00  0.00     0.275 C 
ATOM     23  O   UNL d   1       9.497   4.650 -11.086  0.00  0.00    -0.266 OA
BRANCH  22  24
ATOM     24  C   UNL d   1       9.604   6.305  -9.348  0.00  0.00     0.058 C 
ATOM     25  C   UNL d   1       9.466   7.670  -8.992  0.00  0.00     0.005 C 
ATOM     26  C   UNL d   1       9.813   8.152  -7.733  0.00  0.00     0.000 C 
ATOM     27  C   UNL d   1      10.548   7.357  -6.846  0.00  0.00     0.000 C 
ATOM     28  C   UNL d   1      10.852   6.058  -7.275  0.00  0.00     0.000 C 
ATOM     29  C   UNL d   1      10.290   5.490  -8.437  0.00  0.00     0.005 C 
BRANCH  27  30
ATOM     30  C   UNL d   1      11.039   7.855  -5.555  0.00  0.00     0.000 A 
ATOM     31  C   UNL d   1      11.536   6.986  -4.542  0.00  0.00     0.000 A 
ATOM     32  C   UNL d   1      12.033   7.477  -3.316  0.00  0.00     0.000 A 
ATOM     33  C   UNL d   1      12.001   8.861  -3.064  0.00  0.00     0.000 A 
ATOM     34  C   UNL d   1      11.482   9.733  -4.027  0.00  0.00     0.000 A 
ATOM     35  C   UNL d   1      11.036   9.259  -5.268  0.00  0.00     0.000 A 
ENDBRANCH  27  30
ENDBRANCH  22  24
ENDBRANCH  20  21
ENDBRANCH  19  20
ENDBRANCH   1  19
TORSDOF 11
