REMARK  7 active torsions:
REMARK  status: ('A' for Active; 'I' for Inactive)
REMARK    1  A    between atoms: C_6  and  C_7 
REMARK    2  A    between atoms: C_10  and  S_11 
REMARK    3  A    between atoms: S_11  and  C_12 
REMARK    4  A    between atoms: C_12  and  C_13 
REMARK    5  A    between atoms: C_13  and  C_14 
REMARK    6  A    between atoms: C_14  and  N_15 
REMARK    7  A    between atoms: C_20  and  C_21 
ROOT
ATOM      1  C   UNL d   1       9.246   7.174 -11.265  0.00  0.00     0.047 C 
ENDROOT
BRANCH   1   2
ATOM      2  C   UNL d   1       9.952   5.867 -11.037  0.00  0.00     0.067 C 
BRANCH   2   3
ATOM      3  S   UNL d   1       9.067   4.459 -11.715  0.00  0.00    -0.075 SA
BRANCH   3   4
ATOM      4  C   UNL d   1       9.863   4.241 -13.293  0.00  0.00     0.193 A 
ATOM      5  N   UNL d   1      11.032   4.765 -13.674  0.00  0.00    -0.122 NA
ATOM      6  N   UNL d   1      11.265   4.311 -14.944  0.00  0.00    -0.126 NA
ATOM      7  C   UNL d   1      10.210   3.557 -15.251  0.00  0.00     0.191 A 
ATOM      8  N   UNL d   1       9.313   3.463 -14.242  0.00  0.00    -0.287 N 
ATOM      9  C   UNL d   1       8.079   2.707 -14.155  0.00  0.00     0.134 C 
BRANCH   7  10
ATOM     10  C   UNL d   1      10.097   2.912 -16.558  0.00  0.00     0.151 A 
ATOM     11  C   UNL d   1      10.993   2.747 -17.584  0.00  0.00     0.087 A 
ATOM     12  C   UNL d   1      12.427   3.175 -17.699  0.00  0.00     0.054 C 
ATOM     13  N   UNL d   1      10.357   2.058 -18.611  0.00  0.00    -0.221 NA
ATOM     14  C   UNL d   1       9.128   1.844 -18.154  0.00  0.00     0.225 A 
ATOM     15  O   UNL d   1       8.904   2.338 -16.911  0.00  0.00    -0.282 OA
ENDBRANCH   7  10
ENDBRANCH   3   4
ENDBRANCH   2   3
ENDBRANCH   1   2
BRANCH   1  16
ATOM     16  C   UNL d   1      10.036   8.379 -10.710  0.00  0.00     0.251 C 
BRANCH  16  17
ATOM     17  N   UNL d   1      10.316   8.334  -9.286  0.00  0.00     0.137 N 
ATOM     18  C   UNL d   1      11.136   9.460  -8.870  0.00  0.00     0.251 C 
ATOM     19  C   UNL d   1      10.894   9.552  -7.369  0.00  0.00     0.037 A 
ATOM     20  C   UNL d   1       9.630   8.726  -7.153  0.00  0.00     0.038 C 
ATOM     21  C   UNL d   1      12.034   9.477  -6.374  0.00  0.00     0.024 A 
ATOM     22  C   UNL d   1      11.299  10.762  -6.519  0.00  0.00     0.007 A 
ATOM     23  C   UNL d   1       9.104   8.451  -8.509  0.00  0.00     0.250 C 
BRANCH  21  24
ATOM     24  C   UNL d   1      11.889   8.697  -5.117  0.00  0.00    -0.022 A 
ATOM     25  C   UNL d   1      11.992   9.312  -3.855  0.00  0.00    -0.002 A 
ATOM     26  C   UNL d   1      11.926   8.570  -2.671  0.00  0.00     0.029 A 
ATOM     27  C   UNL d   1      11.738   7.166  -2.746  0.00  0.00     0.140 A 
ATOM     28  C   UNL d   1      11.639   6.587  -4.035  0.00  0.00     0.029 A 
ATOM     29  F   UNL d   1      11.568   6.432  -1.670  0.00  0.00    -0.204 F 
ATOM     30  C   UNL d   1      11.721   7.317  -5.203  0.00  0.00    -0.002 A 
ENDBRANCH  21  24
ENDBRANCH  16  17
ENDBRANCH   1  16
TORSDOF 7
