REMARK  7 active torsions:
REMARK  status: ('A' for Active; 'I' for Inactive)
REMARK    1  A    between atoms: C_8  and  O_9 
REMARK    2  A    between atoms: O_9  and  C_10 
REMARK    3  A    between atoms: C_10  and  C_11 
REMARK    4  A    between atoms: C_11  and  C_12 
REMARK    5  A    between atoms: C_12  and  C_13 
REMARK    6  A    between atoms: C_13  and  N_14 
REMARK    7  A    between atoms: N_17  and  C_18 
ROOT
ATOM      1  C   UNL d   1       7.594   4.445 -12.361  0.00  0.00     0.038 C 
ENDROOT
BRANCH   1   2
ATOM      2  C   UNL d   1       7.878   5.934 -12.118  0.00  0.00     0.035 C 
BRANCH   2   3
ATOM      3  C   UNL d   1       9.396   6.213 -12.179  0.00  0.00     0.149 C 
BRANCH   3   4
ATOM      4  O   UNL d   1       9.767   7.401 -11.505  0.00  0.00    -0.331 OA
BRANCH   4   5
ATOM      5  C   UNL d   1       9.917   7.315 -10.137  0.00  0.00     0.096 A 
ATOM      6  C   UNL d   1       9.241   6.315  -9.389  0.00  0.00     0.024 A 
ATOM      7  C   UNL d   1       9.359   6.307  -7.998  0.00  0.00    -0.001 A 
ATOM      8  C   UNL d   1      10.199   7.220  -7.350  0.00  0.00    -0.004 A 
ATOM      9  C   UNL d   1      10.406   7.126  -5.851  0.00  0.00     0.038 C 
ATOM     10  C   UNL d   1      10.907   8.196  -8.092  0.00  0.00     0.082 A 
ATOM     11  C   UNL d   1      10.753   8.494  -5.256  0.00  0.00     0.095 C 
ATOM     12  C   UNL d   1      11.792   9.239  -6.099  0.00  0.00     0.256 C 
ATOM     13  O   UNL d   1      12.586   9.993  -5.545  0.00  0.00    -0.270 OA
ATOM     14  N   UNL d   1      11.783   9.071  -7.428  0.00  0.00    -0.212 NA
ATOM     15  C   UNL d   1      10.753   8.257  -9.494  0.00  0.00     0.043 A 
ENDBRANCH   4   5
ENDBRANCH   3   4
ENDBRANCH   2   3
ENDBRANCH   1   2
BRANCH   1  16
ATOM     16  C   UNL d   1       8.110   3.954 -13.733  0.00  0.00     0.251 C 
BRANCH  16  17
ATOM     17  N   UNL d   1       7.715   2.587 -14.038  0.00  0.00     0.141 N 
ATOM     18  C   UNL d   1       8.313   2.171 -15.327  0.00  0.00     0.274 C 
ATOM     19  C   UNL d   1       7.932   0.717 -15.655  0.00  0.00     0.137 C 
ATOM     20  N   UNL d   1       6.482   0.567 -15.637  0.00  0.00    -0.344 N 
ATOM     21  C   UNL d   1       5.849   1.050 -14.420  0.00  0.00     0.137 C 
ATOM     22  C   UNL d   1       6.256   2.490 -14.131  0.00  0.00     0.274 C 
BRANCH  20  23
ATOM     23  C   UNL d   1       5.758  -0.011 -16.696  0.00  0.00     0.067 A 
ATOM     24  C   UNL d   1       4.625  -0.848 -16.490  0.00  0.00     0.073 A 
ATOM     25  C   UNL d   1       3.925  -1.375 -17.588  0.00  0.00     0.013 A 
ATOM     26 CL   UNL d   1       4.015  -1.276 -14.933  0.00  0.00    -0.081 Cl
ATOM     27  C   UNL d   1       4.325  -1.089 -18.900  0.00  0.00     0.001 A 
ATOM     28  C   UNL d   1       5.446  -0.273 -19.121  0.00  0.00     0.002 A 
ATOM     29  C   UNL d   1       6.154   0.262 -18.027  0.00  0.00     0.018 A 
ENDBRANCH  20  23
ENDBRANCH  16  17
ENDBRANCH   1  16
TORSDOF 7
