REMARK  7 active torsions:
REMARK  status: ('A' for Active; 'I' for Inactive)
REMARK    1  A    between atoms: C_8  and  O_9 
REMARK    2  A    between atoms: O_9  and  C_10 
REMARK    3  A    between atoms: C_10  and  C_11 
REMARK    4  A    between atoms: C_11  and  C_12 
REMARK    5  A    between atoms: C_12  and  C_13 
REMARK    6  A    between atoms: C_13  and  N_14 
REMARK    7  A    between atoms: N_17  and  C_18 
ROOT
ATOM      1  N   UNL d   1       8.005   5.453 -12.022  0.00  0.00     0.141 N 
ATOM      2  C   UNL d   1       8.776   4.234 -12.131  0.00  0.00     0.274 C 
ATOM      3  C   UNL d   1       8.452   3.564 -13.456  0.00  0.00     0.137 C 
ATOM      4  N   UNL d   1       7.013   3.350 -13.565  0.00  0.00    -0.344 N 
ATOM      5  C   UNL d   1       6.137   4.445 -13.246  0.00  0.00     0.137 C 
ATOM      6  C   UNL d   1       6.557   5.148 -11.982  0.00  0.00     0.274 C 
ENDROOT
BRANCH   1   7
ATOM      7  C   UNL d   1       8.382   6.033 -10.754  0.00  0.00     0.251 C 
BRANCH   7   8
ATOM      8  C   UNL d   1       9.592   6.978 -10.830  0.00  0.00     0.038 C 
BRANCH   8   9
ATOM      9  C   UNL d   1       9.705   7.904  -9.606  0.00  0.00     0.035 C 
BRANCH   9  10
ATOM     10  C   UNL d   1      11.062   8.634  -9.584  0.00  0.00     0.149 C 
BRANCH  10  11
ATOM     11  O   UNL d   1      11.264   9.336  -8.373  0.00  0.00    -0.331 OA
BRANCH  11  12
ATOM     12  C   UNL d   1      11.485   8.606  -7.236  0.00  0.00     0.096 A 
ATOM     13  C   UNL d   1      11.466   7.195  -7.206  0.00  0.00     0.024 A 
ATOM     14  C   UNL d   1      11.576   6.530  -5.984  0.00  0.00    -0.001 A 
ATOM     15  C   UNL d   1      11.800   7.215  -4.790  0.00  0.00    -0.004 A 
ATOM     16  C   UNL d   1      12.067   6.471  -3.514  0.00  0.00     0.038 C 
ATOM     17  C   UNL d   1      11.875   8.613  -4.809  0.00  0.00     0.082 A 
ATOM     18  C   UNL d   1      11.694   7.239  -2.298  0.00  0.00     0.095 C 
ATOM     19  C   UNL d   1      12.208   8.676  -2.393  0.00  0.00     0.256 C 
ATOM     20  O   UNL d   1      12.624   9.217  -1.365  0.00  0.00    -0.270 OA
ATOM     21  N   UNL d   1      12.223   9.277  -3.602  0.00  0.00    -0.212 NA
ATOM     22  C   UNL d   1      11.735   9.316  -6.034  0.00  0.00     0.043 A 
ENDBRANCH  11  12
ENDBRANCH  10  11
ENDBRANCH   9  10
ENDBRANCH   8   9
ENDBRANCH   7   8
ENDBRANCH   1   7
BRANCH   4  23
ATOM     23  C   UNL d   1       6.467   2.115 -13.902  0.00  0.00     0.058 A 
ATOM     24  C   UNL d   1       6.840   1.416 -15.084  0.00  0.00     0.035 A 
ATOM     25  C   UNL d   1       6.252   0.160 -15.380  0.00  0.00     0.108 A 
ATOM     26  C   UNL d   1       7.753   1.961 -16.017  0.00  0.00     0.005 A 
ATOM     27  C   UNL d   1       5.322  -0.406 -14.477  0.00  0.00     0.149 A 
ATOM     28  N   UNL d   1       6.539  -0.507 -16.527  0.00  0.00    -0.242 NA
ATOM     29  C   UNL d   1       4.983   0.299 -13.307  0.00  0.00     0.030 A 
ATOM     30  O   UNL d   1       4.733  -1.616 -14.727  0.00  0.00    -0.189 OA
ATOM     31  C   UNL d   1       5.525   1.554 -13.023  0.00  0.00     0.019 A 
ATOM     32  C   UNL d   1       7.446  -0.001 -17.379  0.00  0.00     0.099 A 
ATOM     33  C   UNL d   1       8.070   1.236 -17.176  0.00  0.00     0.021 A 
ENDBRANCH   4  23
TORSDOF 7
