REMARK  6 active torsions:
REMARK  status: ('A' for Active; 'I' for Inactive)
REMARK    1  A    between atoms: C_5  and  C_6 
REMARK    2  A    between atoms: C_8  and  C_9 
REMARK    3  A    between atoms: N_12  and  C_13 
REMARK    4  A    between atoms: C_13  and  C_14 
REMARK    5  A    between atoms: C_14  and  C_15 
REMARK    6  A    between atoms: C_15  and  C_16 
ROOT
ATOM      1  C   UNL d   1       8.199   5.731 -11.216  0.00  0.00     0.046 C 
ATOM      2  C   UNL d   1       9.235   6.639 -11.907  0.00  0.00     0.041 C 
ATOM      3  C   UNL d   1       9.837   7.646 -10.917  0.00  0.00     0.251 C 
ATOM      4  N   UNL d   1      10.446   6.940  -9.790  0.00  0.00     0.137 N 
ATOM      5  C   UNL d   1       9.450   6.120  -9.103  0.00  0.00     0.251 C 
ATOM      6  C   UNL d   1       8.847   5.055 -10.006  0.00  0.00     0.041 C 
ENDROOT
BRANCH   1   7
ATOM      7  C   UNL d   1       7.604   4.736 -12.146  0.00  0.00     0.082 A 
ATOM      8  C   UNL d   1       8.169   4.043 -13.179  0.00  0.00     0.037 A 
ATOM      9  C   UNL d   1       7.127   3.198 -13.656  0.00  0.00     0.104 A 
ATOM     10  N   UNL d   1       5.996   3.364 -12.973  0.00  0.00    -0.148 NA
ATOM     11  N   UNL d   1       6.304   4.293 -12.041  0.00  0.00    -0.152 NA
BRANCH   9  12
ATOM     12  C   UNL d   1       7.221   2.220 -14.749  0.00  0.00     0.019 A 
ATOM     13  C   UNL d   1       8.266   2.314 -15.697  0.00  0.00     0.002 A 
ATOM     14  C   UNL d   1       8.340   1.406 -16.770  0.00  0.00     0.011 A 
ATOM     15  C   UNL d   1       7.382   0.383 -16.896  0.00  0.00     0.058 A 
ATOM     16 CL   UNL d   1       7.470  -0.719 -18.216  0.00  0.00    -0.082 Cl
ATOM     17  C   UNL d   1       6.352   0.267 -15.941  0.00  0.00     0.011 A 
ATOM     18  C   UNL d   1       6.278   1.175 -14.869  0.00  0.00     0.002 A 
ENDBRANCH   9  12
ENDBRANCH   1   7
BRANCH   4  19
ATOM     19  C   UNL d   1      11.104   7.874  -8.871  0.00  0.00     0.251 C 
BRANCH  19  20
ATOM     20  C   UNL d   1      10.141   8.822  -8.115  0.00  0.00     0.040 C 
BRANCH  20  21
ATOM     21  C   UNL d   1       9.511   8.213  -6.843  0.00  0.00     0.028 C 
BRANCH  21  22
ATOM     22  C   UNL d   1      10.509   8.180  -5.708  0.00  0.00    -0.022 A 
ATOM     23  C   UNL d   1      10.945   9.392  -5.115  0.00  0.00    -0.004 A 
ATOM     24  C   UNL d   1      11.818   9.368  -4.006  0.00  0.00    -0.000 A 
ATOM     25  C   UNL d   1      12.277   8.128  -3.504  0.00  0.00    -0.000 A 
ATOM     26  C   UNL d   1      11.870   6.920  -4.118  0.00  0.00    -0.000 A 
ATOM     27  C   UNL d   1      11.001   6.957  -5.218  0.00  0.00    -0.004 A 
ENDBRANCH  21  22
ENDBRANCH  20  21
ENDBRANCH  19  20
ENDBRANCH   4  19
TORSDOF 6
