REMARK  7 active torsions:
REMARK  status: ('A' for Active; 'I' for Inactive)
REMARK       I    between atoms: C_2  and  N_3 
REMARK    1  A    between atoms: C_2  and  C_27 
REMARK    2  A    between atoms: N_3  and  C_4 
REMARK    3  A    between atoms: C_7  and  C_8 
REMARK    4  A    between atoms: C_8  and  C_9 
REMARK    5  A    between atoms: C_9  and  N_10 
REMARK    6  A    between atoms: C_13  and  C_14 
REMARK    7  A    between atoms: C_27  and  C_29 
ROOT
ATOM      1  C   UNL d   1       7.877   6.275 -11.623  0.00  0.00     0.035 C 
ENDROOT
BRANCH   1   2
ATOM      2  C   UNL d   1       7.583   5.298 -12.774  0.00  0.00     0.002 C 
ATOM      3  C   UNL d   1       8.410   4.005 -12.677  0.00  0.00     0.002 C 
ATOM      4  C   UNL d   1       8.036   2.986 -13.749  0.00  0.00     0.024 C 
ATOM      5  C   UNL d   1       6.548   2.644 -13.694  0.00  0.00     0.106 C 
ATOM      6  C   UNL d   1       5.691   3.907 -13.806  0.00  0.00     0.024 C 
ATOM      7  C   UNL d   1       6.073   4.953 -12.752  0.00  0.00     0.002 C 
BRANCH   5   8
ATOM      8  N   UNL d   1       6.264   1.712 -14.774  0.00  0.00    -0.238 NA
ATOM      9  C   UNL d   1       6.094   0.382 -14.640  0.00  0.00     0.291 C 
ATOM     10  O   UNL d   1       6.307  -0.210 -13.588  0.00  0.00    -0.268 OA
BRANCH   9  11
ATOM     11  C   UNL d   1       5.544  -0.352 -15.878  0.00  0.00     0.325 C 
ATOM     12  O   UNL d   1       5.468  -1.747 -15.632  0.00  0.00    -0.204 OA
BRANCH  11  13
ATOM     13  C   UNL d   1       6.359  -0.105 -17.169  0.00  0.00     0.434 C 
ATOM     14  F   UNL d   1       6.274   1.170 -17.543  0.00  0.00    -0.167 F 
ATOM     15  F   UNL d   1       7.654  -0.390 -16.986  0.00  0.00    -0.167 F 
ATOM     16  F   UNL d   1       5.871  -0.847 -18.158  0.00  0.00    -0.167 F 
ENDBRANCH  11  13
ENDBRANCH   9  11
ENDBRANCH   5   8
ENDBRANCH   1   2
BRANCH   1  17
ATOM     17  C   UNL d   1       9.368   6.459 -11.296  0.00  0.00     0.250 C 
BRANCH  17  18
ATOM     18  N   UNL d   1       9.626   7.110 -10.027  0.00  0.00     0.137 N 
ATOM     19  C   UNL d   1       9.229   6.257  -8.898  0.00  0.00     0.251 C 
ATOM     20  C   UNL d   1       9.450   7.004  -7.585  0.00  0.00     0.040 C 
ATOM     21  C   UNL d   1      10.917   7.399  -7.433  0.00  0.00     0.028 C 
ATOM     22  C   UNL d   1      11.419   8.112  -8.714  0.00  0.00     0.040 C 
ATOM     23  C   UNL d   1      11.069   7.345  -9.983  0.00  0.00     0.251 C 
BRANCH  21  24
ATOM     24  C   UNL d   1      11.092   8.251  -6.175  0.00  0.00     0.002 A 
ATOM     25  C   UNL d   1      11.461   7.681  -4.938  0.00  0.00     0.115 A 
ATOM     26  C   UNL d   1      11.669   8.463  -3.819  0.00  0.00     0.119 A 
ATOM     27  O   UNL d   1      11.724   6.390  -4.626  0.00  0.00    -0.300 OA
ATOM     28  C   UNL d   1      11.461   9.844  -3.829  0.00  0.00     0.026 A 
ATOM     29  O   UNL d   1      12.046   7.695  -2.774  0.00  0.00    -0.300 OA
ATOM     30  C   UNL d   1      11.051  10.415  -5.042  0.00  0.00     0.002 A 
ATOM     31  C   UNL d   1      10.876   9.634  -6.207  0.00  0.00    -0.002 A 
ATOM     32  C   UNL d   1      12.068   6.388  -3.264  0.00  0.00     0.304 A 
ENDBRANCH  21  24
ENDBRANCH  17  18
ENDBRANCH   1  17
TORSDOF 7
