REMARK  8 active torsions:
REMARK  status: ('A' for Active; 'I' for Inactive)
REMARK    1  A    between atoms: O_2  and  C_3 
REMARK    2  A    between atoms: C_8  and  N_9 
REMARK    3  A    between atoms: N_15  and  C_16 
REMARK    4  A    between atoms: C_16  and  C_17 
REMARK    5  A    between atoms: C_17  and  C_18 
REMARK    6  A    between atoms: C_18  and  S_19 
REMARK    7  A    between atoms: S_19  and  C_20 
REMARK    8  A    between atoms: C_23  and  C_24 
ROOT
ATOM      1  N   UNL d   1      10.507   7.048  -6.074  0.00  0.00    -0.347 N 
ATOM      2  C   UNL d   1      11.159   6.192  -7.070  0.00  0.00     0.102 C 
ATOM      3  C   UNL d   1      11.075   6.862  -8.442  0.00  0.00     0.024 C 
ATOM      4  C   UNL d   1       9.625   7.208  -8.841  0.00  0.00     0.008 C 
ATOM      5  C   UNL d   1       9.717   7.878 -10.233  0.00  0.00     0.035 C 
ATOM      6  C   UNL d   1       9.993   6.826 -11.320  0.00  0.00     0.250 C 
ATOM      7  N   UNL d   1       8.979   5.760 -11.349  0.00  0.00     0.137 N 
ATOM      8  C   UNL d   1       9.077   5.014 -10.090  0.00  0.00     0.250 C 
ATOM      9  C   UNL d   1       8.737   5.908  -8.889  0.00  0.00     0.035 C 
ATOM     10  C   UNL d   1       9.126   8.201  -7.756  0.00  0.00     0.024 C 
ATOM     11  C   UNL d   1       9.181   7.568  -6.370  0.00  0.00     0.102 C 
ENDROOT
BRANCH   7  12
ATOM     12  C   UNL d   1       7.635   6.235 -11.684  0.00  0.00     0.251 C 
BRANCH  12  13
ATOM     13  C   UNL d   1       7.081   5.491 -12.893  0.00  0.00     0.047 C 
BRANCH  13  14
ATOM     14  C   UNL d   1       6.864   3.987 -12.647  0.00  0.00     0.067 C 
BRANCH  14  15
ATOM     15  S   UNL d   1       7.324   2.943 -14.062  0.00  0.00    -0.075 SA
BRANCH  15  16
ATOM     16  C   UNL d   1       8.975   3.459 -14.366  0.00  0.00     0.193 A 
ATOM     17  N   UNL d   1       9.507   3.512 -15.602  0.00  0.00    -0.292 N 
ATOM     18  C   UNL d   1      10.699   4.101 -15.349  0.00  0.00     0.143 A 
ATOM     19  C   UNL d   1       8.886   2.992 -16.836  0.00  0.00     0.134 C 
ATOM     20  N   UNL d   1      10.922   4.361 -14.077  0.00  0.00    -0.133 NA
ATOM     21  N   UNL d   1       9.821   3.900 -13.418  0.00  0.00    -0.122 NA
BRANCH  18  22
ATOM     22  C   UNL d   1      11.774   4.346 -16.369  0.00  0.00     0.059 C 
ATOM     23  C   UNL d   1      12.331   3.001 -16.885  0.00  0.00     0.007 C 
ATOM     24  C   UNL d   1      13.422   3.195 -17.955  0.00  0.00     0.000 C 
ATOM     25  C   UNL d   1      12.883   4.098 -19.077  0.00  0.00     0.000 C 
ATOM     26  C   UNL d   1      12.462   5.481 -18.561  0.00  0.00     0.000 C 
ATOM     27  C   UNL d   1      11.353   5.327 -17.493  0.00  0.00     0.007 C 
ENDBRANCH  18  22
ENDBRANCH  15  16
ENDBRANCH  14  15
ENDBRANCH  13  14
ENDBRANCH  12  13
ENDBRANCH   7  12
BRANCH   1  28
ATOM     28  C   UNL d   1      11.234   7.530  -5.026  0.00  0.00     0.079 A 
ATOM     29  C   UNL d   1      11.574   8.913  -4.909  0.00  0.00     0.110 A 
ATOM     30  C   UNL d   1      12.225   9.348  -3.755  0.00  0.00     0.026 A 
ATOM     31  C   UNL d   1      12.593   8.447  -2.720  0.00  0.00     0.002 A 
ATOM     32  C   UNL d   1      12.265   7.071  -2.849  0.00  0.00     0.002 A 
ATOM     33  C   UNL d   1      11.600   6.644  -3.991  0.00  0.00     0.019 A 
BRANCH  29  34
ATOM     34  O   UNL d   1      11.230   9.716  -5.998  0.00  0.00    -0.327 OA
ATOM     35  C   UNL d   1      11.794  11.001  -6.080  0.00  0.00     0.181 C 
ENDBRANCH  29  34
ENDBRANCH   1  28
TORSDOF 8
