REMARK  5 active torsions:
REMARK  status: ('A' for Active; 'I' for Inactive)
REMARK    1  A    between atoms: C_6  and  O_7 
REMARK    2  A    between atoms: O_7  and  C_8 
REMARK    3  A    between atoms: C_8  and  C_9 
REMARK    4  A    between atoms: N_12  and  C_13 
REMARK    5  A    between atoms: C_13  and  C_14 
ROOT
ATOM      1  N   UNL d   1      12.200   8.182  -2.563  0.00  0.00    -0.191 NA
ATOM      2  C   UNL d   1      11.860   8.156  -3.670  0.00  0.00     0.101 C 
ATOM      3  C   UNL d   1      11.455   8.124  -5.061  0.00  0.00     0.068 A 
ATOM      4  C   UNL d   1      11.531   9.285  -5.848  0.00  0.00     0.012 A 
ATOM      5  C   UNL d   1      11.203   9.220  -7.215  0.00  0.00     0.025 A 
ATOM      6  C   UNL d   1      10.809   8.013  -7.816  0.00  0.00     0.094 A 
ATOM      7  C   UNL d   1      10.704   6.855  -7.015  0.00  0.00     0.025 A 
ATOM      8  C   UNL d   1      11.051   6.905  -5.647  0.00  0.00     0.012 A 
ENDROOT
BRANCH   6   9
ATOM      9  O   UNL d   1      10.570   8.066  -9.170  0.00  0.00    -0.331 OA
BRANCH   9  10
ATOM     10  C   UNL d   1      10.567   6.853  -9.910  0.00  0.00     0.149 C 
BRANCH  10  11
ATOM     11  C   UNL d   1       9.171   6.403 -10.344  0.00  0.00     0.034 C 
ATOM     12  C   UNL d   1       8.696   7.194 -11.584  0.00  0.00     0.038 C 
ATOM     13  C   UNL d   1       7.308   6.676 -12.072  0.00  0.00     0.251 C 
ATOM     14  N   UNL d   1       7.422   5.282 -12.448  0.00  0.00     0.141 N 
ATOM     15  C   UNL d   1       7.813   4.543 -11.269  0.00  0.00     0.251 C 
ATOM     16  C   UNL d   1       9.183   4.924 -10.717  0.00  0.00     0.038 C 
BRANCH  14  17
ATOM     17  C   UNL d   1       6.123   4.761 -12.887  0.00  0.00     0.277 C 
BRANCH  17  18
ATOM     18  C   UNL d   1       6.256   3.419 -13.570  0.00  0.00     0.015 C 
ATOM     19  C   UNL d   1       5.638   2.305 -13.156  0.00  0.00     0.033 C 
ATOM     20  I   UNL d   1       5.866   0.404 -14.196  0.00  0.00    -0.043 I 
ENDBRANCH  17  18
ENDBRANCH  14  17
ENDBRANCH  10  11
ENDBRANCH   9  10
ENDBRANCH   6   9
TORSDOF 5
