REMARK  4 active torsions:
REMARK  status: ('A' for Active; 'I' for Inactive)
REMARK    1  A    between atoms: C_2  and  C_4 
REMARK    2  A    between atoms: C_9  and  N_10 
REMARK    3  A    between atoms: N_10  and  C_11 
REMARK    4  A    between atoms: C_15  and  C_16 
ROOT
ATOM      1  C   UNL d   1      10.810   8.005  -6.053  0.00  0.00     0.083 A 
ATOM      2  C   UNL d   1      10.871   9.412  -6.168  0.00  0.00     0.019 A 
ATOM      3  C   UNL d   1      11.376  10.186  -5.118  0.00  0.00     0.002 A 
ATOM      4  C   UNL d   1      11.812   9.580  -3.929  0.00  0.00     0.004 A 
ATOM      5  C   UNL d   1      11.744   8.183  -3.802  0.00  0.00     0.073 A 
ATOM      6  C   UNL d   1      11.239   7.400  -4.858  0.00  0.00     0.023 A 
ENDROOT
BRANCH   1   7
ATOM      7  N   UNL d   1      10.325   7.169  -7.068  0.00  0.00    -0.227 NA
BRANCH   7   8
ATOM      8  C   UNL d   1      10.169   7.433  -8.436  0.00  0.00     0.168 C 
ATOM      9  C   UNL d   1       9.397   6.574  -9.253  0.00  0.00     0.100 C 
ATOM     10  C   UNL d   1       9.286   6.832 -10.632  0.00  0.00     0.011 C 
ATOM     11  C   UNL d   1       9.868   8.000 -11.135  0.00  0.00     0.021 C 
ATOM     12  C   UNL d   1      10.672   8.759 -10.259  0.00  0.00     0.101 C 
ATOM     13  N   UNL d   1      10.835   8.483  -8.954  0.00  0.00    -0.225 NA
BRANCH   9  14
ATOM     14  C   UNL d   1       8.663   5.404  -8.719  0.00  0.00     0.214 C 
ATOM     15  O   UNL d   1       8.966   4.295  -9.110  0.00  0.00    -0.644 OA
ATOM     16  O   UNL d   1       7.855   5.648  -7.646  0.00  0.00    -0.644 OA
ENDBRANCH   9  14
ENDBRANCH   7   8
ENDBRANCH   1   7
BRANCH   5  17
ATOM     17  C   UNL d   1      12.131   7.500  -2.523  0.00  0.00     0.419 C 
ATOM     18  F   UNL d   1      12.647   8.329  -1.621  0.00  0.00    -0.166 F 
ATOM     19  F   UNL d   1      11.053   6.923  -2.033  0.00  0.00    -0.166 F 
ATOM     20  F   UNL d   1      12.989   6.531  -2.784  0.00  0.00    -0.166 F 
ENDBRANCH   5  17
TORSDOF 4
