REMARK  13 active torsions:
REMARK  status: ('A' for Active; 'I' for Inactive)
REMARK    1  A    between atoms: C_2  and  N_5 
REMARK       I    between atoms: N_5  and  C_6 
REMARK    2  A    between atoms: C_6  and  C_8 
REMARK    3  A    between atoms: N_17  and  C_18 
REMARK    4  A    between atoms: C_18  and  C_19 
REMARK    5  A    between atoms: C_19  and  C_21 
REMARK    6  A    between atoms: C_21  and  C_22 
REMARK    7  A    between atoms: C_21  and  N_29 
REMARK    8  A    between atoms: C_22  and  C_23 
REMARK       I    between atoms: N_29  and  C_30 
REMARK    9  A    between atoms: C_30  and  C_32 
REMARK   10  A    between atoms: C_32  and  C_33 
REMARK   11  A    between atoms: C_32  and  N_37 
REMARK   12  A    between atoms: C_33  and  C_34 
REMARK       I    between atoms: N_37  and  C_38 
REMARK   13  A    between atoms: C_38  and  C_40 
ROOT
ATOM      1  C   UNL d   1      10.206   3.812 -14.291  0.00  0.00     0.143 C 
ENDROOT
BRANCH   1   2
ATOM      2  C   UNL d   1      10.027   2.276 -14.092  0.00  0.00     0.208 C 
ATOM      3  O   UNL d   1      11.232   1.630 -13.898  0.00  0.00    -0.219 OA
BRANCH   2   4
ATOM      4  C   UNL d   1       9.500   1.523 -15.305  0.00  0.00     0.285 C 
BRANCH   4   5
ATOM      5  N   UNL d   1       8.055   1.214 -15.343  0.00  0.00     0.147 N 
ATOM      6  C   UNL d   1       7.684   0.548 -16.621  0.00  0.00     0.298 C 
ATOM      7  C   UNL d   1       6.207   0.076 -16.611  0.00  0.00     0.043 C 
ATOM      8  C   UNL d   1       5.891  -0.801 -15.421  0.00  0.00     0.004 C 
ATOM      9  C   UNL d   1       6.351  -0.242 -14.086  0.00  0.00     0.034 C 
ATOM     10  C   UNL d   1       4.519  -1.462 -15.389  0.00  0.00     0.000 C 
ATOM     11  C   UNL d   1       5.361   0.796 -13.593  0.00  0.00     0.002 C 
ATOM     12  C   UNL d   1       7.777   0.280 -14.268  0.00  0.00     0.251 C 
ATOM     13  C   UNL d   1       3.943   0.208 -13.566  0.00  0.00     0.000 C 
ATOM     14  C   UNL d   1       3.521  -0.463 -14.851  0.00  0.00     0.000 C 
BRANCH   6  15
ATOM     15  C   UNL d   1       7.894   1.452 -17.850  0.00  0.00     0.283 C 
ATOM     16  N   UNL d   1       9.151   1.742 -18.209  0.00  0.00    -0.240 NA
ATOM     17  O   UNL d   1       6.930   1.921 -18.431  0.00  0.00    -0.268 OA
BRANCH  16  18
ATOM     18  C   UNL d   1       9.652   2.695 -19.193  0.00  0.00     0.088 C 
ATOM     19  C   UNL d   1      11.180   2.586 -19.144  0.00  0.00     0.025 C 
ATOM     20  C   UNL d   1       9.284   4.158 -18.856  0.00  0.00     0.025 C 
ATOM     21  C   UNL d   1       9.129   2.278 -20.571  0.00  0.00     0.025 C 
ENDBRANCH  16  18
ENDBRANCH   6  15
ENDBRANCH   4   5
ENDBRANCH   2   4
ENDBRANCH   1   2
BRANCH   1  22
ATOM     22  C   UNL d   1      11.655   4.348 -14.082  0.00  0.00     0.053 C 
BRANCH  22  23
ATOM     23  C   UNL d   1      12.252   4.895 -15.358  0.00  0.00    -0.020 A 
ATOM     24  C   UNL d   1      12.984   4.055 -16.219  0.00  0.00    -0.004 A 
ATOM     25  C   UNL d   1      13.576   4.581 -17.381  0.00  0.00    -0.000 A 
ATOM     26  C   UNL d   1      13.413   5.943 -17.696  0.00  0.00    -0.000 A 
ATOM     27  C   UNL d   1      12.667   6.779 -16.844  0.00  0.00    -0.000 A 
ATOM     28  C   UNL d   1      12.086   6.255 -15.677  0.00  0.00    -0.004 A 
ENDBRANCH  22  23
ENDBRANCH   1  22
BRANCH   1  29
ATOM     29  N   UNL d   1       9.292   4.511 -13.393  0.00  0.00    -0.235 NA
ATOM     30  C   UNL d   1       7.957   4.376 -13.287  0.00  0.00     0.274 C 
ATOM     31  O   UNL d   1       7.270   3.674 -14.026  0.00  0.00    -0.268 OA
BRANCH  30  32
ATOM     32  C   UNL d   1       7.268   5.156 -12.164  0.00  0.00     0.196 C 
BRANCH  32  33
ATOM     33  C   UNL d   1       6.374   6.184 -12.835  0.00  0.00     0.126 C 
BRANCH  33  34
ATOM     34  C   UNL d   1       5.488   6.957 -11.967  0.00  0.00     0.276 C 
ATOM     35  N   UNL d   1       5.276   8.259 -12.198  0.00  0.00    -0.107 N 
ATOM     36  O   UNL d   1       5.064   6.406 -10.982  0.00  0.00    -0.269 OA
ENDBRANCH  33  34
ENDBRANCH  32  33
BRANCH  32  37
ATOM     37  N   UNL d   1       8.242   5.893 -11.357  0.00  0.00    -0.225 NA
ATOM     38  C   UNL d   1       8.643   5.495 -10.143  0.00  0.00     0.293 C 
ATOM     39  O   UNL d   1       8.346   4.407  -9.625  0.00  0.00    -0.264 OA
BRANCH  38  40
ATOM     40  C   UNL d   1       9.476   6.499  -9.423  0.00  0.00     0.139 A 
ATOM     41  N   UNL d   1       9.527   6.355  -8.084  0.00  0.00    -0.241 NA
ATOM     42  C   UNL d   1      10.225   7.226  -7.346  0.00  0.00     0.082 A 
ATOM     43  C   UNL d   1      10.942   8.283  -7.950  0.00  0.00     0.018 A 
ATOM     44  C   UNL d   1      10.264   7.110  -5.944  0.00  0.00     0.019 A 
ATOM     45  C   UNL d   1      10.943   8.421  -9.349  0.00  0.00     0.003 A 
ATOM     46  C   UNL d   1      11.654   9.188  -7.163  0.00  0.00     0.002 A 
ATOM     47  C   UNL d   1      10.205   7.503 -10.112  0.00  0.00     0.024 A 
ATOM     48  C   UNL d   1      11.698   9.066  -5.774  0.00  0.00     0.000 A 
ATOM     49  C   UNL d   1      11.021   8.006  -5.165  0.00  0.00     0.002 A 
ENDBRANCH  38  40
ENDBRANCH  32  37
ENDBRANCH  30  32
ENDBRANCH   1  29
TORSDOF 13
