REMARK  3 active torsions:
REMARK  status: ('A' for Active; 'I' for Inactive)
REMARK    1  A    between atoms: C_11  and  C_12 
REMARK    2  A    between atoms: N_15  and  C_16 
REMARK    3  A    between atoms: C_16  and  C_17 
ROOT
ATOM      1  O   UNL d   1       9.504   9.185  -7.077  0.00  0.00    -0.291 OA
ATOM      2  C   UNL d   1      10.042   8.285  -6.452  0.00  0.00     0.172 C 
ATOM      3  C   UNL d   1      10.915   8.528  -5.260  0.00  0.00     0.031 A 
ATOM      4  C   UNL d   1      10.928   9.792  -4.595  0.00  0.00     0.003 A 
ATOM      5  C   UNL d   1      11.738   9.947  -3.451  0.00  0.00     0.000 A 
ATOM      6  C   UNL d   1      12.566   8.918  -2.971  0.00  0.00    -0.000 A 
ATOM      7  C   UNL d   1      12.552   7.676  -3.608  0.00  0.00    -0.004 A 
ATOM      8  C   UNL d   1      11.727   7.494  -4.743  0.00  0.00    -0.019 A 
ATOM      9  C   UNL d   1      11.673   6.130  -5.372  0.00  0.00     0.027 C 
ATOM     10  C   UNL d   1      11.263   6.198  -6.842  0.00  0.00     0.012 C 
ATOM     11  C   UNL d   1       9.884   6.843  -6.958  0.00  0.00     0.062 C 
ENDROOT
BRANCH  11  12
ATOM     12  C   UNL d   1       9.352   6.822  -8.424  0.00  0.00     0.011 C 
ATOM     13  C   UNL d   1      10.312   7.512  -9.437  0.00  0.00     0.036 C 
ATOM     14  C   UNL d   1       9.795   7.418 -10.864  0.00  0.00     0.250 C 
ATOM     15  N   UNL d   1       9.624   6.006 -11.198  0.00  0.00     0.137 N 
ATOM     16  C   UNL d   1       8.541   5.435 -10.398  0.00  0.00     0.250 C 
ATOM     17  C   UNL d   1       8.963   5.416  -8.912  0.00  0.00     0.036 C 
BRANCH  15  18
ATOM     18  C   UNL d   1       9.323   5.905 -12.604  0.00  0.00     0.250 C 
BRANCH  18  19
ATOM     19  C   UNL d   1       9.353   4.469 -13.101  0.00  0.00     0.033 A 
ATOM     20  C   UNL d   1       8.145   3.884 -13.811  0.00  0.00     0.002 A 
ATOM     21  C   UNL d   1       9.386   4.207 -14.595  0.00  0.00     0.002 A 
ENDBRANCH  18  19
ENDBRANCH  15  18
ENDBRANCH  11  12
TORSDOF 3
