REMARK  5 active torsions:
REMARK  status: ('A' for Active; 'I' for Inactive)
REMARK    1  A    between atoms: C_2  and  C_3 
REMARK    2  A    between atoms: C_3  and  N_4 
REMARK    3  A    between atoms: N_4  and  C_5 
REMARK    4  A    between atoms: N_4  and  C_8 
REMARK    5  A    between atoms: C_5  and  C_6 
ROOT
ATOM      1  C   UNL d   1      10.601   7.817  -7.406  0.00  0.00     0.224 C 
ATOM      2  C   UNL d   1      11.269   9.197  -7.240  0.00  0.00     0.038 C 
ATOM      3  C   UNL d   1      11.164   9.726  -5.801  0.00  0.00     0.030 C 
ATOM      4  C   UNL d   1      11.519   8.715  -4.747  0.00  0.00     0.001 A 
ATOM      5  C   UNL d   1      11.566   7.348  -5.087  0.00  0.00    -0.022 A 
ATOM      6  C   UNL d   1      11.953   6.422  -4.115  0.00  0.00    -0.002 A 
ATOM      7  C   UNL d   1      12.292   6.791  -2.822  0.00  0.00     0.029 A 
ATOM      8  C   UNL d   1      12.269   8.149  -2.480  0.00  0.00     0.156 A 
ATOM      9  O   UNL d   1      12.699   8.511  -1.250  0.00  0.00    -0.188 OA
ATOM     10  C   UNL d   1      11.843   9.096  -3.428  0.00  0.00     0.152 A 
ATOM     11  O   UNL d   1      11.742  10.389  -3.049  0.00  0.00    -0.188 OA
ATOM     12  C   UNL d   1      11.357   6.840  -6.501  0.00  0.00     0.059 C 
ENDROOT
BRANCH   1  13
ATOM     13  N   UNL d   1      10.588   7.377  -8.821  0.00  0.00     0.135 N 
BRANCH  13  14
ATOM     14  C   UNL d   1       9.704   8.213  -9.629  0.00  0.00     0.250 C 
BRANCH  14  15
ATOM     15  C   UNL d   1      10.070   8.145 -11.097  0.00  0.00     0.035 C 
ATOM     16  C   UNL d   1       8.971   8.626 -12.021  0.00  0.00     0.002 C 
ENDBRANCH  14  15
ENDBRANCH  13  14
BRANCH  13  17
ATOM     17  C   UNL d   1      10.215   5.958  -8.985  0.00  0.00     0.250 C 
BRANCH  17  18
ATOM     18  C   UNL d   1       8.845   5.531  -8.402  0.00  0.00     0.035 C 
ATOM     19  C   UNL d   1       8.548   4.098  -8.786  0.00  0.00     0.002 C 
ENDBRANCH  17  18
ENDBRANCH  13  17
ENDBRANCH   1  13
TORSDOF 5
