REMARK  8 active torsions:
REMARK  status: ('A' for Active; 'I' for Inactive)
REMARK    1  A    between atoms: C_6  and  C_7 
REMARK    2  A    between atoms: C_10  and  S_11 
REMARK    3  A    between atoms: S_11  and  C_12 
REMARK    4  A    between atoms: C_12  and  C_13 
REMARK    5  A    between atoms: C_13  and  C_14 
REMARK    6  A    between atoms: C_14  and  N_15 
REMARK    7  A    between atoms: C_19  and  C_20 
REMARK    8  A    between atoms: C_25  and  C_26 
ROOT
ATOM      1  N   UNL d   1      10.191   6.433  -9.289  0.00  0.00     0.137 N 
ATOM      2  C   UNL d   1      11.298   7.096 -10.003  0.00  0.00     0.251 C 
ATOM      3  C   UNL d   1      11.977   7.791  -8.870  0.00  0.00     0.039 A 
ATOM      4  C   UNL d   1      11.572   9.156  -8.525  0.00  0.00     0.008 A 
ATOM      5  C   UNL d   1      10.922   8.037  -7.822  0.00  0.00     0.052 A 
ATOM      6  C   UNL d   1       9.661   7.418  -8.333  0.00  0.00     0.254 C 
ENDROOT
BRANCH   1   7
ATOM      7  C   UNL d   1       9.107   6.027 -10.165  0.00  0.00     0.251 C 
BRANCH   7   8
ATOM      8  C   UNL d   1       9.614   5.072 -11.240  0.00  0.00     0.047 C 
BRANCH   8   9
ATOM      9  C   UNL d   1       8.561   4.687 -12.279  0.00  0.00     0.067 C 
BRANCH   9  10
ATOM     10  S   UNL d   1       9.055   3.273 -13.333  0.00  0.00    -0.075 SA
BRANCH  10  11
ATOM     11  C   UNL d   1      10.319   3.985 -14.316  0.00  0.00     0.193 A 
ATOM     12  N   UNL d   1      10.661   5.263 -14.238  0.00  0.00    -0.122 NA
ATOM     13  N   UNL d   1      11.629   5.445 -15.180  0.00  0.00    -0.126 NA
ATOM     14  C   UNL d   1      11.796   4.266 -15.776  0.00  0.00     0.191 A 
ATOM     15  N   UNL d   1      11.010   3.297 -15.250  0.00  0.00    -0.287 N 
ATOM     16  C   UNL d   1      10.881   1.895 -15.633  0.00  0.00     0.134 C 
BRANCH  14  17
ATOM     17  C   UNL d   1      12.711   4.154 -16.896  0.00  0.00     0.151 A 
ATOM     18  C   UNL d   1      13.438   5.105 -17.574  0.00  0.00     0.087 A 
ATOM     19  C   UNL d   1      13.524   6.595 -17.380  0.00  0.00     0.054 C 
ATOM     20  N   UNL d   1      14.147   4.454 -18.569  0.00  0.00    -0.221 NA
ATOM     21  C   UNL d   1      13.791   3.178 -18.444  0.00  0.00     0.225 A 
ATOM     22  O   UNL d   1      12.912   2.923 -17.451  0.00  0.00    -0.282 OA
ENDBRANCH  14  17
ENDBRANCH  10  11
ENDBRANCH   9  10
ENDBRANCH   8   9
ENDBRANCH   7   8
ENDBRANCH   1   7
BRANCH   5  23
ATOM     23  C   UNL d   1      11.230   7.835  -6.357  0.00  0.00    -0.017 A 
ATOM     24  C   UNL d   1      11.394   8.861  -5.370  0.00  0.00     0.068 A 
ATOM     25  C   UNL d   1      11.715   8.593  -4.006  0.00  0.00     0.004 A 
ATOM     26  C   UNL d   1      11.928   7.287  -3.624  0.00  0.00    -0.000 A 
ATOM     27  C   UNL d   1      11.860   6.317  -4.623  0.00  0.00    -0.000 A 
ATOM     28  C   UNL d   1      11.457   6.543  -5.931  0.00  0.00    -0.004 A 
BRANCH  24  29
ATOM     29  C   UNL d   1      11.127  10.289  -5.692  0.00  0.00     0.418 C 
ATOM     30  F   UNL d   1      10.575  10.806  -4.584  0.00  0.00    -0.166 F 
ATOM     31  F   UNL d   1      12.239  10.923  -6.019  0.00  0.00    -0.166 F 
ATOM     32  F   UNL d   1      10.265  10.372  -6.679  0.00  0.00    -0.166 F 
ENDBRANCH  24  29
ENDBRANCH   5  23
TORSDOF 8
