REMARK  5 active torsions:
REMARK  status: ('A' for Active; 'I' for Inactive)
REMARK    1  A    between atoms: C_2  and  C_3 
REMARK    2  A    between atoms: C_3  and  C_4 
REMARK    3  A    between atoms: C_4  and  O_5 
REMARK    4  A    between atoms: O_5  and  C_6 
REMARK    5  A    between atoms: C_6  and  C_8 
ROOT
ATOM      1  C   UNL d   1      10.809   8.224  -6.887  0.00  0.00     0.063 A 
ATOM      2  C   UNL d   1      10.968   9.488  -6.279  0.00  0.00     0.006 A 
ATOM      3  C   UNL d   1      11.371   9.591  -4.934  0.00  0.00     0.014 A 
ATOM      4  C   UNL d   1      11.637   8.430  -4.185  0.00  0.00     0.070 A 
ATOM      5  N   UNL d   1      12.055   8.535  -2.860  0.00  0.00    -0.101 NA
ATOM      6  C   UNL d   1      11.461   7.163  -4.775  0.00  0.00     0.014 A 
ATOM      7  C   UNL d   1      11.053   7.059  -6.120  0.00  0.00     0.006 A 
ENDROOT
BRANCH   1   8
ATOM      8  C   UNL d   1      10.386   8.149  -8.314  0.00  0.00     0.296 C 
ATOM      9  O   UNL d   1      10.284   9.142  -9.037  0.00  0.00    -0.259 OA
BRANCH   8  10
ATOM     10  O   UNL d   1      10.134   6.887  -8.719  0.00  0.00    -0.298 OA
BRANCH  10  11
ATOM     11  C   UNL d   1       9.685   6.644 -10.042  0.00  0.00     0.152 C 
BRANCH  11  12
ATOM     12  C   UNL d   1       8.870   5.342 -10.079  0.00  0.00     0.033 C 
BRANCH  12  13
ATOM     13  C   UNL d   1       8.361   5.001 -11.489  0.00  0.00     0.003 C 
ATOM     14  C   UNL d   1       7.297   5.979 -12.011  0.00  0.00     0.000 C 
ENDBRANCH  12  13
ENDBRANCH  11  12
ENDBRANCH  10  11
ENDBRANCH   8  10
ENDBRANCH   1   8
TORSDOF 5
