REMARK  11 active torsions:
REMARK  status: ('A' for Active; 'I' for Inactive)
REMARK    1  A    between atoms: O_2  and  C_3 
REMARK    2  A    between atoms: C_8  and  N_9 
REMARK    3  A    between atoms: N_12  and  C_13 
REMARK    4  A    between atoms: C_13  and  C_14 
REMARK    5  A    between atoms: C_14  and  C_15 
REMARK    6  A    between atoms: C_15  and  C_16 
REMARK    7  A    between atoms: C_16  and  N_17 
REMARK       I    between atoms: N_17  and  C_18 
REMARK    8  A    between atoms: C_18  and  C_20 
REMARK    9  A    between atoms: C_24  and  O_25 
REMARK   10  A    between atoms: O_25  and  C_26 
REMARK   11  A    between atoms: C_26  and  C_27 
ROOT
ATOM      1  C   UNL d   1       8.708   4.870 -11.476  0.00  0.00     0.029 C 
ENDROOT
BRANCH   1   2
ATOM      2  C   UNL d   1       8.288   5.987 -10.527  0.00  0.00     0.037 C 
BRANCH   2   3
ATOM      3  C   UNL d   1       8.554   5.661  -9.049  0.00  0.00     0.251 C 
BRANCH   3   4
ATOM      4  N   UNL d   1       9.537   6.587  -8.492  0.00  0.00     0.141 N 
ATOM      5  C   UNL d   1      10.565   5.838  -7.791  0.00  0.00     0.274 C 
ATOM      6  C   UNL d   1      11.625   6.758  -7.188  0.00  0.00     0.137 C 
ATOM      7  N   UNL d   1      10.990   7.728  -6.315  0.00  0.00    -0.343 N 
ATOM      8  C   UNL d   1       9.870   8.449  -6.911  0.00  0.00     0.137 C 
ATOM      9  C   UNL d   1       8.879   7.466  -7.517  0.00  0.00     0.274 C 
BRANCH   7  10
ATOM     10  C   UNL d   1      11.432   7.932  -5.001  0.00  0.00     0.079 A 
ATOM     11  C   UNL d   1      11.505   9.230  -4.422  0.00  0.00     0.110 A 
ATOM     12  C   UNL d   1      11.894   9.359  -3.071  0.00  0.00     0.026 A 
ATOM     13  C   UNL d   1      12.258   8.235  -2.306  0.00  0.00     0.002 A 
ATOM     14  C   UNL d   1      12.211   6.956  -2.880  0.00  0.00     0.002 A 
ATOM     15  C   UNL d   1      11.791   6.813  -4.213  0.00  0.00     0.019 A 
BRANCH  11  16
ATOM     16  O   UNL d   1      11.162  10.382  -5.100  0.00  0.00    -0.327 OA
ATOM     17  C   UNL d   1      11.944  10.692  -6.255  0.00  0.00     0.181 C 
ENDBRANCH  11  16
ENDBRANCH   7  10
ENDBRANCH   3   4
ENDBRANCH   2   3
ENDBRANCH   1   2
BRANCH   1  18
ATOM     18  C   UNL d   1       8.484   5.251 -12.945  0.00  0.00     0.129 C 
BRANCH  18  19
ATOM     19  N   UNL d   1       8.989   4.215 -13.836  0.00  0.00    -0.233 NA
ATOM     20  C   UNL d   1      10.279   4.072 -14.178  0.00  0.00     0.293 C 
ATOM     21  O   UNL d   1      11.175   4.786 -13.742  0.00  0.00    -0.264 OA
BRANCH  20  22
ATOM     22  C   UNL d   1      10.581   3.047 -15.200  0.00  0.00     0.139 A 
ATOM     23  N   UNL d   1       9.733   1.958 -15.376  0.00  0.00    -0.241 NA
ATOM     24  C   UNL d   1      10.210   1.127 -16.370  0.00  0.00     0.082 A 
ATOM     25  C   UNL d   1      11.408   1.732 -16.841  0.00  0.00     0.021 A 
ATOM     26  C   UNL d   1       9.727  -0.079 -16.904  0.00  0.00     0.021 A 
ATOM     27  C   UNL d   1      11.625   2.931 -16.079  0.00  0.00     0.026 A 
ATOM     28  C   UNL d   1      12.101   1.083 -17.886  0.00  0.00     0.026 A 
ATOM     29  C   UNL d   1      11.632  -0.135 -18.440  0.00  0.00     0.094 A 
ATOM     30  C   UNL d   1      10.443  -0.706 -17.940  0.00  0.00     0.026 A 
BRANCH  29  31
ATOM     31  O   UNL d   1      12.268  -0.814 -19.455  0.00  0.00    -0.328 OA
BRANCH  31  32
ATOM     32  C   UNL d   1      13.485  -0.294 -19.973  0.00  0.00     0.187 C 
BRANCH  32  33
ATOM     33  C   UNL d   1      14.083  -1.311 -20.948  0.00  0.00     0.226 C 
ATOM     34  F   UNL d   1      15.280  -0.897 -21.366  0.00  0.00    -0.232 F 
ENDBRANCH  32  33
ENDBRANCH  31  32
ENDBRANCH  29  31
ENDBRANCH  20  22
ENDBRANCH  18  19
ENDBRANCH   1  18
TORSDOF 11
