REMARK  2 active torsions:
REMARK  status: ('A' for Active; 'I' for Inactive)
REMARK    1  A    between atoms: O_2  and  C_3 
REMARK    2  A    between atoms: C_7  and  C_8 
ROOT
ATOM      1  C   UNL d   1       9.263   7.900  -8.032  0.00  0.00     0.318 C 
ATOM      2  N   UNL d   1       9.584   9.144  -8.682  0.00  0.00     0.348 N 
ATOM      3  C   UNL d   1      11.012   9.379  -8.787  0.00  0.00     0.296 C 
ATOM      4  C   UNL d   1      11.612   9.585  -7.382  0.00  0.00     0.066 C 
ATOM      5  C   UNL d   1      11.127   8.562  -6.472  0.00  0.00    -0.003 A 
ATOM      6  C   UNL d   1      10.069   7.765  -6.796  0.00  0.00     0.093 A 
ATOM      7  N   UNL d   1       9.875   6.878  -5.761  0.00  0.00    -0.248 NA
ATOM      8  C   UNL d   1      10.848   7.051  -4.810  0.00  0.00     0.081 A 
ATOM      9  C   UNL d   1      11.086   6.441  -3.585  0.00  0.00     0.019 A 
ATOM     10  C   UNL d   1      12.152   6.846  -2.793  0.00  0.00     0.002 A 
ATOM     11  C   UNL d   1      12.904   7.945  -3.195  0.00  0.00     0.000 A 
ATOM     12  C   UNL d   1      12.651   8.609  -4.403  0.00  0.00     0.001 A 
ATOM     13  C   UNL d   1      11.597   8.166  -5.226  0.00  0.00     0.015 A 
ENDROOT
BRANCH   1  14
ATOM     14  C   UNL d   1       9.368   6.709  -8.975  0.00  0.00     0.019 A 
ATOM     15  C   UNL d   1       9.283   5.420  -8.428  0.00  0.00    -0.002 A 
ATOM     16  C   UNL d   1       9.390   4.295  -9.220  0.00  0.00     0.002 A 
ATOM     17  C   UNL d   1       9.466   4.409 -10.600  0.00  0.00     0.024 A 
ATOM     18  C   UNL d   1       9.493   5.677 -11.224  0.00  0.00     0.094 A 
ATOM     19  C   UNL d   1       9.444   6.833 -10.401  0.00  0.00     0.022 A 
BRANCH  18  20
ATOM     20  O   UNL d   1       9.758   5.826 -12.576  0.00  0.00    -0.328 OA
ATOM     21  C   UNL d   1       9.856   4.642 -13.360  0.00  0.00     0.181 C 
ENDBRANCH  18  20
ENDBRANCH   1  14
TORSDOF 2
