REMARK  7 active torsions:
REMARK  status: ('A' for Active; 'I' for Inactive)
REMARK    1  A    between atoms: C_8  and  O_9 
REMARK    2  A    between atoms: O_9  and  C_10 
REMARK    3  A    between atoms: C_10  and  C_11 
REMARK    4  A    between atoms: C_11  and  C_12 
REMARK    5  A    between atoms: C_12  and  C_13 
REMARK    6  A    between atoms: C_13  and  N_14 
REMARK    7  A    between atoms: N_17  and  C_18 
ROOT
ATOM      1  N   UNL d   1       9.346   6.109 -12.184  0.00  0.00     0.141 N 
ATOM      2  C   UNL d   1       8.324   6.076 -13.227  0.00  0.00     0.274 C 
ATOM      3  C   UNL d   1       8.829   5.149 -14.339  0.00  0.00     0.137 C 
ATOM      4  N   UNL d   1       9.015   3.819 -13.791  0.00  0.00    -0.344 N 
ATOM      5  C   UNL d   1       9.891   3.778 -12.636  0.00  0.00     0.137 C 
ATOM      6  C   UNL d   1       9.408   4.774 -11.578  0.00  0.00     0.274 C 
ENDROOT
BRANCH   1   7
ATOM      7  C   UNL d   1       8.909   7.096 -11.215  0.00  0.00     0.251 C 
BRANCH   7   8
ATOM      8  C   UNL d   1       9.979   7.376 -10.159  0.00  0.00     0.038 C 
BRANCH   8   9
ATOM      9  C   UNL d   1       9.690   8.622  -9.331  0.00  0.00     0.035 C 
BRANCH   9  10
ATOM     10  C   UNL d   1      10.752   8.819  -8.259  0.00  0.00     0.149 C 
BRANCH  10  11
ATOM     11  O   UNL d   1      10.564   7.859  -7.210  0.00  0.00    -0.331 OA
BRANCH  11  12
ATOM     12  C   UNL d   1      10.916   8.259  -5.945  0.00  0.00     0.094 A 
ATOM     13  C   UNL d   1      10.740   9.588  -5.451  0.00  0.00     0.024 A 
ATOM     14  C   UNL d   1      11.160   9.968  -4.183  0.00  0.00    -0.000 A 
ATOM     15  C   UNL d   1      11.701   8.997  -3.352  0.00  0.00     0.007 A 
ATOM     16  C   UNL d   1      12.203   9.103  -1.952  0.00  0.00     0.155 A 
ATOM     17  C   UNL d   1      11.859   7.688  -3.784  0.00  0.00     0.057 A 
ATOM     18  N   UNL d   1      12.590   7.752  -1.631  0.00  0.00    -0.229 NA
ATOM     19  C   UNL d   1      12.461   6.949  -2.679  0.00  0.00     0.275 A 
ATOM     20  O   UNL d   1      12.885   5.829  -2.717  0.00  0.00    -0.266 OA
ATOM     21  C   UNL d   1      11.454   7.270  -5.068  0.00  0.00     0.029 A 
ENDBRANCH  11  12
ENDBRANCH  10  11
ENDBRANCH   9  10
ENDBRANCH   8   9
ENDBRANCH   7   8
ENDBRANCH   1   7
BRANCH   4  22
ATOM     22  C   UNL d   1       8.430   2.678 -14.329  0.00  0.00     0.054 A 
ATOM     23  C   UNL d   1       9.173   1.756 -15.105  0.00  0.00     0.021 A 
ATOM     24  C   UNL d   1       8.616   0.633 -15.636  0.00  0.00     0.007 A 
ATOM     25  C   UNL d   1      10.607   1.823 -15.520  0.00  0.00     0.170 C 
ATOM     26  C   UNL d   1       7.262   0.298 -15.441  0.00  0.00    -0.002 A 
ATOM     27  C   UNL d   1       9.657  -0.092 -16.434  0.00  0.00     0.169 C 
ATOM     28  C   UNL d   1       6.489   1.182 -14.655  0.00  0.00     0.001 A 
ATOM     29  C   UNL d   1       7.059   2.368 -14.116  0.00  0.00     0.017 A 
ATOM     30  O   UNL d   1      10.883   0.596 -16.195  0.00  0.00    -0.345 OA
ENDBRANCH   4  22
TORSDOF 7
