REMARK  8 active torsions:
REMARK  status: ('A' for Active; 'I' for Inactive)
REMARK    1  A    between atoms: C_2  and  O_5 
REMARK    2  A    between atoms: O_5  and  C_6 
REMARK       I    between atoms: C_6  and  N_8 
REMARK    3  A    between atoms: N_8  and  C_9 
REMARK    4  A    between atoms: C_9  and  C_10 
REMARK    5  A    between atoms: C_10  and  C_11 
REMARK    6  A    between atoms: C_11  and  C_12 
REMARK    7  A    between atoms: C_12  and  N_13 
REMARK    8  A    between atoms: C_16  and  C_18 
ROOT
ATOM      1  N   UNL d   1       9.845   6.336 -10.294  0.00  0.00     0.137 N 
ATOM      2  C   UNL d   1       8.881   5.911  -9.279  0.00  0.00     0.253 C 
ATOM      3  C   UNL d   1       9.471   6.182  -7.892  0.00  0.00     0.070 C 
ATOM      4  C   UNL d   1       9.860   7.657  -7.635  0.00  0.00     0.149 C 
ATOM      5  O   UNL d   1       8.665   8.421  -7.637  0.00  0.00    -0.221 OA
ATOM      6  C   UNL d   1      10.724   8.130  -8.816  0.00  0.00     0.070 C 
ATOM      7  C   UNL d   1      10.096   7.773 -10.186  0.00  0.00     0.253 C 
ENDROOT
BRANCH   1   8
ATOM      8  C   UNL d   1       9.332   6.024 -11.631  0.00  0.00     0.250 C 
BRANCH   8   9
ATOM      9  C   UNL d   1       9.337   4.512 -11.914  0.00  0.00     0.037 C 
BRANCH   9  10
ATOM     10  C   UNL d   1       9.268   4.212 -13.415  0.00  0.00     0.029 C 
BRANCH  10  11
ATOM     11  C   UNL d   1       9.690   2.789 -13.756  0.00  0.00     0.131 C 
BRANCH  11  12
ATOM     12  N   UNL d   1       9.623   2.556 -15.193  0.00  0.00    -0.212 NA
ATOM     13  C   UNL d   1      10.090   1.382 -15.751  0.00  0.00     0.383 C 
ATOM     14  O   UNL d   1      10.662   0.490 -15.129  0.00  0.00    -0.236 OA
BRANCH  13  15
ATOM     15  O   UNL d   1       9.823   1.375 -17.092  0.00  0.00    -0.289 OA
BRANCH  15  16
ATOM     16  C   UNL d   1      10.329   0.378 -18.003  0.00  0.00     0.103 C 
ATOM     17  C   UNL d   1       9.741   0.723 -19.385  0.00  0.00     0.030 C 
ATOM     18  C   UNL d   1       9.866  -1.055 -17.631  0.00  0.00     0.030 C 
ATOM     19  C   UNL d   1      11.864   0.474 -18.107  0.00  0.00     0.030 C 
ENDBRANCH  15  16
ENDBRANCH  13  15
ENDBRANCH  11  12
ENDBRANCH  10  11
ENDBRANCH   9  10
ENDBRANCH   8   9
ENDBRANCH   1   8
BRANCH   4  20
ATOM     20  C   UNL d   1      10.602   7.881  -6.303  0.00  0.00     0.005 A 
ATOM     21  C   UNL d   1      10.756   9.194  -5.806  0.00  0.00    -0.001 A 
ATOM     22  C   UNL d   1      11.391   9.428  -4.567  0.00  0.00     0.011 A 
ATOM     23  C   UNL d   1      11.889   8.347  -3.817  0.00  0.00     0.058 A 
ATOM     24  C   UNL d   1      11.750   7.039  -4.308  0.00  0.00     0.011 A 
ATOM     25 CL   UNL d   1      12.636   8.605  -2.286  0.00  0.00    -0.082 Cl
ATOM     26  C   UNL d   1      11.117   6.809  -5.535  0.00  0.00    -0.001 A 
ENDBRANCH   4  20
TORSDOF 8
