REMARK  5 active torsions:
REMARK  status: ('A' for Active; 'I' for Inactive)
REMARK    1  A    between atoms: C_2  and  C_3 
REMARK    2  A    between atoms: C_3  and  C_4 
REMARK    3  A    between atoms: C_4  and  C_5 
REMARK    4  A    between atoms: C_4  and  N_14 
REMARK    5  A    between atoms: C_5  and  C_7 
ROOT
ATOM      1  C   UNL d   1       8.301   5.654 -12.071  0.00  0.00     0.280 C 
ENDROOT
BRANCH   1   2
ATOM      2  C   UNL d   1       6.973   6.484 -12.240  0.00  0.00     0.041 C 
BRANCH   2   3
ATOM      3  C   UNL d   1       7.108   7.960 -12.614  0.00  0.00     0.003 C 
ATOM      4  C   UNL d   1       8.461   8.632 -12.325  0.00  0.00     0.000 C 
ENDBRANCH   2   3
ENDBRANCH   1   2
BRANCH   1   5
ATOM      5  C   UNL d   1       8.566   4.752 -13.287  0.00  0.00     0.204 C 
ATOM      6  O   UNL d   1       9.532   4.976 -14.011  0.00  0.00    -0.289 OA
BRANCH   5   7
ATOM      7  C   UNL d   1       7.645   3.601 -13.530  0.00  0.00     0.037 A 
ATOM      8  C   UNL d   1       6.367   3.503 -12.940  0.00  0.00     0.005 A 
ATOM      9  C   UNL d   1       5.523   2.423 -13.206  0.00  0.00     0.028 A 
ATOM     10  C   UNL d   1       5.966   1.376 -14.037  0.00  0.00     0.131 A 
ATOM     11  C   UNL d   1       7.255   1.431 -14.612  0.00  0.00     0.028 A 
ATOM     12  O   UNL d   1       5.138   0.322 -14.286  0.00  0.00    -0.190 OA
ATOM     13  C   UNL d   1       8.081   2.542 -14.387  0.00  0.00     0.005 A 
ENDBRANCH   5   7
ENDBRANCH   1   5
BRANCH   1  14
ATOM     14  N   UNL d   1       8.405   4.949 -10.767  0.00  0.00     0.142 N 
ATOM     15  C   UNL d   1       8.148   5.815  -9.623  0.00  0.00     0.251 C 
ATOM     16  C   UNL d   1       8.657   5.048  -8.419  0.00  0.00     0.037 C 
ATOM     17  C   UNL d   1       9.793   4.240  -8.976  0.00  0.00     0.037 C 
ATOM     18  C   UNL d   1       9.780   4.607 -10.462  0.00  0.00     0.251 C 
ENDBRANCH   1  14
TORSDOF 5
