REMARK  6 active torsions:
REMARK  status: ('A' for Active; 'I' for Inactive)
REMARK    1  A    between atoms: C_2  and  C_4 
REMARK    2  A    between atoms: C_7  and  N_8 
REMARK    3  A    between atoms: N_8  and  C_9 
REMARK    4  A    between atoms: C_11  and  N_12 
REMARK    5  A    between atoms: N_15  and  C_16 
REMARK    6  A    between atoms: C_16  and  C_17 
ROOT
ATOM      1  C   UNL d   1      12.555   6.899 -18.439  0.00  0.00     0.182 A 
ATOM      2  N   UNL d   1      11.728   6.145 -17.693  0.00  0.00    -0.042 NA
ATOM      3  C   UNL d   1      12.243   5.293 -16.811  0.00  0.00     0.729 A 
ATOM      4  N   UNL d   1      13.545   5.105 -16.598  0.00  0.00    -0.061 NA
ATOM      5  C   UNL d   1      14.417   5.823 -17.336  0.00  0.00     0.103 A 
ATOM      6  C   UNL d   1      15.803   5.638 -17.163  0.00  0.00     0.020 A 
ATOM      7  C   UNL d   1      16.729   6.387 -17.914  0.00  0.00     0.002 A 
ATOM      8  C   UNL d   1      16.270   7.327 -18.860  0.00  0.00     0.000 A 
ATOM      9  C   UNL d   1      14.887   7.518 -19.051  0.00  0.00     0.005 A 
ATOM     10  C   UNL d   1      13.959   6.772 -18.292  0.00  0.00     0.055 A 
ENDROOT
BRANCH   1  11
ATOM     11  N   UNL d   1      11.996   7.792 -19.372  0.00  0.00    -0.226 NA
BRANCH  11  12
ATOM     12  C   UNL d   1      10.716   7.813 -19.964  0.00  0.00     0.083 A 
ATOM     13  C   UNL d   1      10.564   8.527 -21.175  0.00  0.00     0.019 A 
ATOM     14  C   UNL d   1       9.313   8.591 -21.824  0.00  0.00    -0.003 A 
ATOM     15  C   UNL d   1       8.192   7.932 -21.274  0.00  0.00    -0.022 A 
ATOM     16  C   UNL d   1       8.334   7.219 -20.069  0.00  0.00    -0.003 A 
ATOM     17  C   UNL d   1       9.575   7.181 -19.413  0.00  0.00     0.019 A 
BRANCH  15  18
ATOM     18  C   UNL d   1       6.839   7.997 -21.964  0.00  0.00     0.022 C 
ATOM     19  C   UNL d   1       5.766   8.604 -21.042  0.00  0.00     0.005 C 
ATOM     20  C   UNL d   1       6.423   6.612 -22.481  0.00  0.00     0.005 C 
ENDBRANCH  15  18
ENDBRANCH  11  12
ENDBRANCH   1  11
BRANCH   3  21
ATOM     21  N   UNL d   1      11.342   4.542 -16.062  0.00  0.00    -0.179 N 
ATOM     22  C   UNL d   1      11.700   3.784 -14.863  0.00  0.00     0.155 C 
ATOM     23  C   UNL d   1      11.226   2.322 -14.989  0.00  0.00     0.275 C 
ATOM     24  N   UNL d   1       9.790   2.229 -15.272  0.00  0.00     0.144 N 
ATOM     25  C   UNL d   1       9.508   2.962 -16.503  0.00  0.00     0.275 C 
ATOM     26  C   UNL d   1       9.922   4.430 -16.412  0.00  0.00     0.155 C 
BRANCH  24  27
ATOM     27  C   UNL d   1       9.351   0.836 -15.379  0.00  0.00     0.286 C 
BRANCH  27  28
ATOM     28  C   UNL d   1       7.825   0.626 -15.301  0.00  0.00     0.218 C 
ATOM     29  O   UNL d   1       7.172   0.922 -16.517  0.00  0.00    -0.218 OA
ENDBRANCH  27  28
ENDBRANCH  24  27
ENDBRANCH   3  21
TORSDOF 6
