REMARK  6 active torsions:
REMARK  status: ('A' for Active; 'I' for Inactive)
REMARK    1  A    between atoms: C_3  and  O_4 
REMARK    2  A    between atoms: O_4  and  C_5 
REMARK    3  A    between atoms: C_5  and  C_6 
REMARK    4  A    between atoms: C_6  and  C_7 
REMARK    5  A    between atoms: C_7  and  N_8 
REMARK    6  A    between atoms: N_11  and  C_12 
ROOT
ATOM      1  N   UNL d   1      10.164   3.673 -14.324  0.00  0.00     0.141 N 
ATOM      2  C   UNL d   1       9.078   2.713 -14.498  0.00  0.00     0.274 C 
ATOM      3  C   UNL d   1       9.632   1.325 -14.916  0.00  0.00     0.137 C 
ATOM      4  N   UNL d   1      10.455   1.452 -16.114  0.00  0.00    -0.344 N 
ATOM      5  C   UNL d   1      11.501   2.464 -16.030  0.00  0.00     0.137 C 
ATOM      6  C   UNL d   1      10.882   3.812 -15.597  0.00  0.00     0.274 C 
ENDROOT
BRANCH   1   7
ATOM      7  C   UNL d   1       9.590   4.957 -13.944  0.00  0.00     0.253 C 
BRANCH   7   8
ATOM      8  C   UNL d   1       9.181   4.962 -12.465  0.00  0.00     0.068 C 
BRANCH   8   9
ATOM      9  C   UNL d   1       9.011   6.395 -11.971  0.00  0.00     0.151 C 
BRANCH   9  10
ATOM     10  O   UNL d   1       8.966   6.342 -10.551  0.00  0.00    -0.331 OA
BRANCH  10  11
ATOM     11  C   UNL d   1       9.693   7.221  -9.771  0.00  0.00     0.090 A 
ATOM     12  C   UNL d   1       9.704   6.993  -8.365  0.00  0.00     0.005 A 
ATOM     13  C   UNL d   1       8.893   5.875  -7.742  0.00  0.00     0.033 C 
ATOM     14  C   UNL d   1      10.502   7.837  -7.561  0.00  0.00     0.053 A 
ATOM     15  C   UNL d   1      11.230   8.871  -8.109  0.00  0.00     0.007 A 
ATOM     16  C   UNL d   1      10.745   7.809  -6.093  0.00  0.00     0.275 A 
ATOM     17  C   UNL d   1      11.205   9.152  -9.480  0.00  0.00    -0.000 A 
ATOM     18  C   UNL d   1      11.975   9.588  -7.012  0.00  0.00     0.155 A 
ATOM     19  C   UNL d   1      10.400   8.337 -10.298  0.00  0.00     0.024 A 
ATOM     20  N   UNL d   1      11.566   8.836  -5.822  0.00  0.00    -0.229 NA
ATOM     21  O   UNL d   1      10.300   6.995  -5.286  0.00  0.00    -0.266 OA
ENDBRANCH  10  11
ENDBRANCH   9  10
ENDBRANCH   8   9
ENDBRANCH   7   8
ENDBRANCH   1   7
BRANCH   4  22
ATOM     22  C   UNL d   1      10.238   0.718 -17.298  0.00  0.00     0.056 A 
ATOM     23  C   UNL d   1       8.969   0.598 -17.948  0.00  0.00     0.015 A 
ATOM     24  C   UNL d   1       8.845  -0.157 -19.147  0.00  0.00     0.001 A 
ATOM     25  C   UNL d   1       7.804   1.249 -17.472  0.00  0.00     0.001 A 
ATOM     26  C   UNL d   1       9.973  -0.802 -19.698  0.00  0.00     0.000 A 
ATOM     27  C   UNL d   1       7.594  -0.266 -19.812  0.00  0.00     0.000 A 
ATOM     28  C   UNL d   1      11.230  -0.690 -19.067  0.00  0.00     0.002 A 
ATOM     29  C   UNL d   1      11.359   0.069 -17.887  0.00  0.00     0.017 A 
ATOM     30  C   UNL d   1       6.454   0.376 -19.287  0.00  0.00     0.000 A 
ATOM     31  C   UNL d   1       6.572   1.123 -18.111  0.00  0.00     0.000 A 
ENDBRANCH   4  22
TORSDOF 6
