REMARK  7 active torsions:
REMARK  status: ('A' for Active; 'I' for Inactive)
REMARK    1  A    between atoms: C_2  and  C_3 
REMARK    2  A    between atoms: C_3  and  N_4 
REMARK    3  A    between atoms: N_4  and  C_5 
REMARK    4  A    between atoms: N_4  and  C_21 
REMARK    5  A    between atoms: C_5  and  C_6 
REMARK    6  A    between atoms: C_6  and  N_7 
REMARK    7  A    between atoms: N_10  and  C_11 
ROOT
ATOM      1  C   UNL d   1       9.553   4.780 -11.802  0.00  0.00     0.133 C 
ENDROOT
BRANCH   1   2
ATOM      2  N   UNL d   1       8.383   4.276 -12.531  0.00  0.00    -0.368 N 
BRANCH   2   3
ATOM      3  C   UNL d   1       7.176   5.099 -12.361  0.00  0.00     0.097 C 
BRANCH   3   4
ATOM      4  C   UNL d   1       5.888   4.306 -12.140  0.00  0.00     0.024 C 
ATOM      5  C   UNL d   1       5.171   3.949 -13.438  0.00  0.00     0.002 C 
ENDBRANCH   3   4
ENDBRANCH   2   3
BRANCH   2   6
ATOM      6  C   UNL d   1       8.651   3.818 -13.908  0.00  0.00     0.082 C 
ATOM      7  C   UNL d   1       9.106   2.363 -14.019  0.00  0.00     0.048 C 
ATOM      8  C   UNL d   1       9.434   1.965 -15.452  0.00  0.00    -0.022 A 
ATOM      9  C   UNL d   1       9.675   2.943 -16.462  0.00  0.00    -0.026 A 
ATOM     10  C   UNL d   1       9.502   0.596 -15.774  0.00  0.00     0.023 A 
ATOM     11  C   UNL d   1       9.601   4.441 -16.180  0.00  0.00     0.028 C 
ATOM     12  C   UNL d   1       9.987   2.523 -17.771  0.00  0.00    -0.003 A 
ATOM     13  C   UNL d   1       9.613   4.723 -14.679  0.00  0.00     0.027 C 
ATOM     14  C   UNL d   1      10.059   1.153 -18.079  0.00  0.00     0.027 A 
ATOM     15  C   UNL d   1       9.815   0.188 -17.083  0.00  0.00     0.131 A 
ATOM     16  O   UNL d   1       9.882  -1.142 -17.384  0.00  0.00    -0.190 OA
ENDBRANCH   2   6
ENDBRANCH   1   2
BRANCH   1  17
ATOM     17  C   UNL d   1       9.541   6.312 -11.476  0.00  0.00     0.274 C 
BRANCH  17  18
ATOM     18  N   UNL d   1       9.404   6.621 -10.073  0.00  0.00     0.143 N 
ATOM     19  C   UNL d   1      10.446   6.002  -9.267  0.00  0.00     0.274 C 
ATOM     20  C   UNL d   1      10.261   6.285  -7.784  0.00  0.00     0.137 C 
ATOM     21  N   UNL d   1      10.188   7.701  -7.572  0.00  0.00    -0.344 N 
ATOM     22  C   UNL d   1       9.265   8.462  -8.392  0.00  0.00     0.137 C 
ATOM     23  C   UNL d   1       9.457   8.078  -9.879  0.00  0.00     0.274 C 
BRANCH  21  24
ATOM     24  C   UNL d   1      11.018   8.348  -6.602  0.00  0.00     0.068 C 
ATOM     25  C   UNL d   1      11.284   7.818  -5.334  0.00  0.00     0.084 C 
ATOM     26  C   UNL d   1      12.112   8.453  -4.399  0.00  0.00     0.070 C 
ATOM     27 CL   UNL d   1      10.696   6.378  -4.777  0.00  0.00    -0.080 Cl
ATOM     28  C   UNL d   1      12.761   9.585  -4.822  0.00  0.00     0.012 C 
ATOM     29 CL   UNL d   1      12.335   7.878  -2.786  0.00  0.00    -0.081 Cl
ATOM     30  C   UNL d   1      12.441  10.165  -6.063  0.00  0.00     0.002 C 
ATOM     31  C   UNL d   1      11.588   9.542  -6.980  0.00  0.00     0.018 C 
ENDBRANCH  21  24
ENDBRANCH  17  18
ENDBRANCH   1  17
TORSDOF 7
