REMARK  6 active torsions:
REMARK  status: ('A' for Active; 'I' for Inactive)
REMARK       I    between atoms: C_2  and  N_3 
REMARK    1  A    between atoms: C_2  and  C_27 
REMARK    2  A    between atoms: N_3  and  C_4 
REMARK    3  A    between atoms: C_7  and  C_8 
REMARK    4  A    between atoms: C_8  and  C_9 
REMARK    5  A    between atoms: C_9  and  N_10 
REMARK    6  A    between atoms: C_13  and  C_14 
ROOT
ATOM      1  C   UNL d   1       9.330   4.473 -13.851  0.00  0.00     0.035 C 
ENDROOT
BRANCH   1   2
ATOM      2  C   UNL d   1       9.588   5.203 -12.523  0.00  0.00     0.002 C 
ATOM      3  C   UNL d   1       8.907   6.579 -12.445  0.00  0.00     0.002 C 
ATOM      4  C   UNL d   1       9.188   7.268 -11.107  0.00  0.00     0.024 C 
ATOM      5  C   UNL d   1       8.788   6.389  -9.886  0.00  0.00     0.106 C 
ATOM      6  C   UNL d   1       9.391   4.995  -9.969  0.00  0.00     0.024 C 
ATOM      7  C   UNL d   1       9.139   4.346 -11.338  0.00  0.00     0.002 C 
BRANCH   5   8
ATOM      8  N   UNL d   1       9.083   7.006  -8.589  0.00  0.00    -0.240 NA
ATOM      9  C   UNL d   1      10.281   7.424  -8.156  0.00  0.00     0.252 C 
ATOM     10  O   UNL d   1      11.299   7.480  -8.841  0.00  0.00    -0.271 OA
BRANCH   9  11
ATOM     11  C   UNL d   1      10.372   7.798  -6.698  0.00  0.00     0.098 C 
ATOM     12  C   UNL d   1      11.011   9.191  -6.511  0.00  0.00     0.132 C 
ATOM     13  S   UNL d   1      11.730   9.186  -4.824  0.00  0.00     0.171 S 
ATOM     14  C   UNL d   1      11.633   7.363  -4.584  0.00  0.00     0.123 C 
ATOM     15  O   UNL d   1      10.796   9.863  -3.923  0.00  0.00    -0.226 OA
ATOM     16  O   UNL d   1      13.147   9.582  -4.891  0.00  0.00    -0.226 OA
ATOM     17  C   UNL d   1      11.259   6.798  -5.957  0.00  0.00     0.027 C 
ENDBRANCH   9  11
ENDBRANCH   5   8
ENDBRANCH   1   2
BRANCH   1  18
ATOM     18  C   UNL d   1      10.045   5.128 -15.052  0.00  0.00     0.250 C 
BRANCH  18  19
ATOM     19  N   UNL d   1      10.816   4.167 -15.826  0.00  0.00     0.137 N 
ATOM     20  C   UNL d   1       9.916   3.304 -16.591  0.00  0.00     0.251 C 
ATOM     21  C   UNL d   1      10.720   2.259 -17.357  0.00  0.00     0.040 C 
ATOM     22  C   UNL d   1      11.760   2.871 -18.313  0.00  0.00     0.028 C 
ATOM     23  C   UNL d   1      12.585   3.901 -17.520  0.00  0.00     0.040 C 
ATOM     24  C   UNL d   1      11.695   4.884 -16.750  0.00  0.00     0.251 C 
BRANCH  22  25
ATOM     25  C   UNL d   1      12.641   1.814 -18.986  0.00  0.00     0.002 A 
ATOM     26  C   UNL d   1      13.739   2.186 -19.791  0.00  0.00     0.115 A 
ATOM     27  C   UNL d   1      14.574   1.243 -20.361  0.00  0.00     0.119 A 
ATOM     28  O   UNL d   1      14.174   3.427 -20.129  0.00  0.00    -0.300 OA
ATOM     29  C   UNL d   1      14.358  -0.134 -20.188  0.00  0.00     0.026 A 
ATOM     30  O   UNL d   1      15.558   1.865 -21.062  0.00  0.00    -0.300 OA
ATOM     31  C   UNL d   1      13.259  -0.541 -19.407  0.00  0.00     0.002 A 
ATOM     32  C   UNL d   1      12.413   0.421 -18.817  0.00  0.00    -0.002 A 
ATOM     33  C   UNL d   1      15.315   3.241 -20.923  0.00  0.00     0.304 A 
ENDBRANCH  22  25
ENDBRANCH  18  19
ENDBRANCH   1  18
TORSDOF 6
