REMARK  11 active torsions:
REMARK  status: ('A' for Active; 'I' for Inactive)
REMARK    1  A    between atoms: C_2  and  C_3 
REMARK    2  A    between atoms: C_2  and  N_22 
REMARK    3  A    between atoms: C_3  and  C_4 
REMARK    4  A    between atoms: C_8  and  C_9 
REMARK    5  A    between atoms: C_9  and  N_10 
REMARK    6  A    between atoms: N_10  and  C_11 
REMARK    7  A    between atoms: C_11  and  C_12 
REMARK    8  A    between atoms: C_12  and  C_13 
REMARK    9  A    between atoms: N_22  and  C_23 
REMARK   10  A    between atoms: C_23  and  C_24 
REMARK   11  A    between atoms: C_24  and  C_26 
ROOT
ATOM      1  C   UNL d   1       8.277   2.499 -14.911  0.00  0.00    -0.021 A 
ATOM      2  C   UNL d   1       6.885   2.650 -14.835  0.00  0.00    -0.004 A 
ATOM      3  C   UNL d   1       6.296   3.378 -13.749  0.00  0.00    -0.001 A 
ATOM      4  C   UNL d   1       7.120   4.052 -12.870  0.00  0.00    -0.002 A 
ATOM      5  C   UNL d   1       8.523   4.005 -13.022  0.00  0.00     0.013 A 
ATOM      6  C   UNL d   1       9.107   3.168 -14.011  0.00  0.00    -0.006 A 
ENDROOT
BRANCH   1   7
ATOM      7  C   UNL d   1       8.857   1.670 -16.032  0.00  0.00     0.050 C 
BRANCH   7   8
ATOM      8  C   UNL d   1       8.495   0.189 -16.132  0.00  0.00     0.102 C 
ATOM      9  C   UNL d   1       6.975  -0.044 -16.167  0.00  0.00     0.026 C 
BRANCH   8  10
ATOM     10  N   UNL d   1       9.104  -0.417 -17.336  0.00  0.00    -0.294 NA
BRANCH  10  11
ATOM     11  C   UNL d   1      10.571  -0.307 -17.462  0.00  0.00     0.157 C 
BRANCH  11  12
ATOM     12  C   UNL d   1      10.994   0.483 -18.727  0.00  0.00     0.199 C 
ATOM     13  O   UNL d   1      12.383   0.355 -18.890  0.00  0.00    -0.216 OA
BRANCH  12  14
ATOM     14  C   UNL d   1      10.546   1.950 -18.728  0.00  0.00     0.018 A 
ATOM     15  C   UNL d   1      10.985   2.893 -17.758  0.00  0.00     0.052 A 
ATOM     16  C   UNL d   1      10.428   4.188 -17.675  0.00  0.00     0.116 A 
ATOM     17  S   UNL d   1      12.165   2.659 -16.469  0.00  0.00    -0.024 SA
ATOM     18  C   UNL d   1       9.521   4.616 -18.636  0.00  0.00     0.149 A 
ATOM     19  N   UNL d   1      10.879   4.907 -16.555  0.00  0.00    -0.200 NA
ATOM     20  C   UNL d   1       9.128   3.727 -19.658  0.00  0.00     0.029 A 
ATOM     21  O   UNL d   1       9.032   5.888 -18.598  0.00  0.00    -0.189 OA
ATOM     22  C   UNL d   1       9.629   2.403 -19.694  0.00  0.00     0.001 A 
ATOM     23  C   UNL d   1      11.768   4.253 -15.707  0.00  0.00     0.311 A 
ATOM     24  O   UNL d   1      12.211   4.643 -14.637  0.00  0.00    -0.258 OA
ENDBRANCH  12  14
ENDBRANCH  11  12
ENDBRANCH  10  11
ENDBRANCH   8  10
ENDBRANCH   7   8
ENDBRANCH   1   7
BRANCH   5  25
ATOM     25  C   UNL d   1       9.393   4.793 -12.103  0.00  0.00     0.317 C 
BRANCH  25  26
ATOM     26  N   UNL d   1       9.098   6.220 -12.153  0.00  0.00     0.344 N 
BRANCH  26  27
ATOM     27  C   UNL d   1       9.119   6.792 -10.820  0.00  0.00     0.295 C 
BRANCH  27  28
ATOM     28  C   UNL d   1      10.374   6.383 -10.033  0.00  0.00     0.066 C 
BRANCH  28  29
ATOM     29  C   UNL d   1      10.486   7.055  -8.690  0.00  0.00     0.001 A 
ATOM     30  C   UNL d   1       9.574   6.728  -7.668  0.00  0.00     0.055 A 
ATOM     31  C   UNL d   1       9.696   7.321  -6.398  0.00  0.00     0.011 A 
ATOM     32 CL   UNL d   1       8.285   5.496  -7.955  0.00  0.00    -0.083 Cl
ATOM     33  C   UNL d   1      10.731   8.251  -6.139  0.00  0.00     0.002 A 
ATOM     34  C   UNL d   1      11.631   8.567  -7.157  0.00  0.00     0.011 A 
ATOM     35  C   UNL d   1      11.526   7.984  -8.419  0.00  0.00     0.055 A 
ATOM     36 CL   UNL d   1      12.624   8.394  -9.628  0.00  0.00    -0.083 Cl
ENDBRANCH  28  29
ENDBRANCH  27  28
ENDBRANCH  26  27
ENDBRANCH  25  26
ENDBRANCH   5  25
TORSDOF 11
