REMARK  4 active torsions:
REMARK  status: ('A' for Active; 'I' for Inactive)
REMARK       I    between atoms: C_2  and  N_4 
REMARK    1  A    between atoms: N_4  and  C_5 
REMARK    2  A    between atoms: C_8  and  C_9 
REMARK    3  A    between atoms: N_11  and  S_12 
REMARK    4  A    between atoms: S_12  and  C_15 
ROOT
ATOM      1  C   UNL d   1       9.250   4.926 -11.928  0.00  0.00     0.040 A 
ATOM      2  C   UNL d   1      10.209   4.777 -12.890  0.00  0.00     0.093 A 
ATOM      3  N   UNL d   1       9.716   4.100 -13.987  0.00  0.00    -0.231 N 
ATOM      4  C   UNL d   1       8.397   3.746 -13.738  0.00  0.00     0.075 A 
ATOM      5  C   UNL d   1       7.434   3.043 -14.465  0.00  0.00     0.018 A 
ATOM      6  C   UNL d   1       6.176   2.799 -13.910  0.00  0.00     0.002 A 
ATOM      7  C   UNL d   1       5.818   3.320 -12.658  0.00  0.00     0.000 A 
ATOM      8  C   UNL d   1       6.775   4.063 -11.930  0.00  0.00     0.002 A 
ATOM      9  C   UNL d   1       8.086   4.276 -12.443  0.00  0.00     0.020 A 
ENDROOT
BRANCH   1  10
ATOM     10  C   UNL d   1       9.403   5.569 -10.636  0.00  0.00     0.121 A 
ATOM     11  C   UNL d   1       8.946   5.209  -9.391  0.00  0.00     0.138 A 
ATOM     12  N   UNL d   1       9.430   6.100  -8.437  0.00  0.00    -0.056 NA
ATOM     13  C   UNL d   1      10.108   6.990  -9.149  0.00  0.00     0.753 A 
ATOM     14  N   UNL d   1      10.142   6.724 -10.466  0.00  0.00    -0.058 NA
BRANCH  13  15
ATOM     15  N   UNL d   1      10.743   8.145  -8.636  0.00  0.00    -0.023 NA
ATOM     16  C   UNL d   1      10.842   8.564  -7.363  0.00  0.00     0.273 C 
ATOM     17  C   UNL d   1      10.243   7.771  -6.189  0.00  0.00     0.101 C 
ATOM     18  O   UNL d   1      11.454   9.596  -7.120  0.00  0.00    -0.270 OA
ENDBRANCH  13  15
ENDBRANCH   1  10
BRANCH   3  19
ATOM     19  S   UNL d   1      10.669   3.819 -15.393  0.00  0.00     0.271 S 
ATOM     20  O   UNL d   1      10.291   4.896 -16.330  0.00  0.00    -0.200 OA
ATOM     21  O   UNL d   1      12.045   3.702 -14.898  0.00  0.00    -0.200 OA
BRANCH  19  22
ATOM     22  C   UNL d   1      10.108   2.248 -16.022  0.00  0.00     0.104 A 
ATOM     23  C   UNL d   1      10.450   1.061 -15.344  0.00  0.00     0.013 A 
ATOM     24  C   UNL d   1       9.896  -0.158 -15.780  0.00  0.00     0.001 A 
ATOM     25  C   UNL d   1       9.030  -0.196 -16.888  0.00  0.00     0.000 A 
ATOM     26  C   UNL d   1       8.700   0.990 -17.564  0.00  0.00     0.001 A 
ATOM     27  C   UNL d   1       9.271   2.210 -17.159  0.00  0.00     0.013 A 
ENDBRANCH  19  22
ENDBRANCH   3  19
TORSDOF 4
