REMARK  4 active torsions:
REMARK  status: ('A' for Active; 'I' for Inactive)
REMARK    1  A    between atoms: C_6  and  N_7 
REMARK    2  A    between atoms: N_7  and  C_8 
REMARK    3  A    between atoms: C_10  and  C_11 
REMARK    4  A    between atoms: C_11  and  C_12 
ROOT
ATOM      1  C   UNL d   1       7.167   2.006 -14.797  0.00  0.00     0.161 A 
ATOM      2  N   UNL d   1       7.085   2.905 -13.802  0.00  0.00    -0.212 NA
ATOM      3  C   UNL d   1       6.088   2.782 -12.932  0.00  0.00     0.145 A 
ATOM      4  N   UNL d   1       5.140   1.850 -12.962  0.00  0.00    -0.235 NA
ATOM      5  C   UNL d   1       5.150   0.964 -13.989  0.00  0.00     0.061 A 
ATOM      6  C   UNL d   1       6.170   1.036 -14.978  0.00  0.00     0.029 A 
ATOM      7  C   UNL d   1       6.165   0.218 -16.260  0.00  0.00     0.069 C 
ATOM      8  C   UNL d   1       5.967  -1.258 -16.010  0.00  0.00     0.295 C 
ATOM      9  N   UNL d   1       4.583  -1.627 -15.787  0.00  0.00     0.340 N 
ATOM     10  C   UNL d   1       4.209  -1.371 -14.404  0.00  0.00     0.296 C 
ATOM     11  C   UNL d   1       3.903   0.088 -14.122  0.00  0.00     0.084 C 
ENDROOT
BRANCH   1  12
ATOM     12  N   UNL d   1       8.215   2.113 -15.704  0.00  0.00    -0.227 NA
BRANCH  12  13
ATOM     13  C   UNL d   1       9.379   2.882 -15.637  0.00  0.00     0.084 A 
ATOM     14  C   UNL d   1      10.074   3.080 -14.423  0.00  0.00     0.019 A 
ATOM     15  C   UNL d   1      11.256   3.846 -14.402  0.00  0.00     0.002 A 
ATOM     16  C   UNL d   1      11.747   4.415 -15.594  0.00  0.00     0.011 A 
ATOM     17  C   UNL d   1      11.061   4.213 -16.809  0.00  0.00     0.059 A 
ATOM     18 CL   UNL d   1      11.649   4.928 -18.267  0.00  0.00    -0.082 Cl
ATOM     19  C   UNL d   1       9.881   3.441 -16.825  0.00  0.00     0.031 A 
ENDBRANCH  12  13
ENDBRANCH   1  12
BRANCH   3  20
ATOM     20  C   UNL d   1       6.121   3.720 -11.729  0.00  0.00     0.092 C 
BRANCH  20  21
ATOM     21  C   UNL d   1       7.001   4.944 -11.943  0.00  0.00    -0.015 A 
ATOM     22  C   UNL d   1       8.396   4.881 -11.723  0.00  0.00    -0.004 A 
ATOM     23  C   UNL d   1       9.200   6.008 -11.954  0.00  0.00    -0.000 A 
ATOM     24  C   UNL d   1       8.618   7.200 -12.424  0.00  0.00    -0.000 A 
ATOM     25  C   UNL d   1       7.232   7.261 -12.650  0.00  0.00    -0.000 A 
ATOM     26  C   UNL d   1       6.421   6.141 -12.395  0.00  0.00    -0.004 A 
ENDBRANCH  20  21
ENDBRANCH   3  20
TORSDOF 4
