REMARK  2 active torsions:
REMARK  status: ('A' for Active; 'I' for Inactive)
REMARK    1  A    between atoms: O_2  and  C_3 
REMARK    2  A    between atoms: C_17  and  O_18 
ROOT
ATOM      1  C   UNL d   1       9.268   4.883 -12.987  0.00  0.00     0.119 A 
ATOM      2  C   UNL d   1       7.956   4.360 -12.887  0.00  0.00     0.022 A 
ATOM      3  C   UNL d   1       7.552   3.278 -13.695  0.00  0.00    -0.020 A 
ATOM      4  C   UNL d   1       8.447   2.707 -14.628  0.00  0.00     0.007 A 
ATOM      5  C   UNL d   1       9.756   3.223 -14.723  0.00  0.00     0.027 A 
ATOM      6  C   UNL d   1      10.161   4.303 -13.915  0.00  0.00     0.153 A 
ATOM      7  O   UNL d   1      11.437   4.779 -14.038  0.00  0.00    -0.188 OA
ATOM      8  C   UNL d   1       8.023   1.504 -15.481  0.00  0.00     0.246 C 
ATOM      9  C   UNL d   1       8.395   1.708 -16.974  0.00  0.00     0.064 C 
ATOM     10  C   UNL d   1       7.862   0.621 -17.893  0.00  0.00    -0.020 A 
ATOM     11  C   UNL d   1       8.385   0.472 -19.194  0.00  0.00    -0.002 A 
ATOM     12  C   UNL d   1       7.876  -0.526 -20.045  0.00  0.00     0.029 A 
ATOM     13  C   UNL d   1       6.846  -1.380 -19.602  0.00  0.00     0.153 A 
ATOM     14  O   UNL d   1       6.388  -2.363 -20.433  0.00  0.00    -0.188 OA
ATOM     15  C   UNL d   1       6.305  -1.222 -18.302  0.00  0.00     0.117 A 
ATOM     16  C   UNL d   1       6.822  -0.224 -17.447  0.00  0.00     0.031 A 
ATOM     17  C   UNL d   1       6.292  -0.073 -16.030  0.00  0.00     0.279 C 
ATOM     18  N   UNL d   1       6.582   1.229 -15.432  0.00  0.00     0.144 N 
ATOM     19  C   UNL d   1       6.078   1.256 -14.064  0.00  0.00     0.256 C 
ATOM     20  C   UNL d   1       6.160   2.698 -13.536  0.00  0.00     0.061 C 
ENDROOT
BRANCH   1  21
ATOM     21  O   UNL d   1       9.733   5.927 -12.215  0.00  0.00    -0.326 OA
ATOM     22  C   UNL d   1       8.834   6.550 -11.308  0.00  0.00     0.181 C 
ENDBRANCH   1  21
BRANCH  15  23
ATOM     23  O   UNL d   1       5.316  -2.056 -17.849  0.00  0.00    -0.326 OA
ATOM     24  C   UNL d   1       4.027  -1.753 -18.362  0.00  0.00     0.181 C 
ENDBRANCH  15  23
TORSDOF 2
