REMARK  3 active torsions:
REMARK  status: ('A' for Active; 'I' for Inactive)
REMARK    1  A    between atoms: C_2  and  N_3 
REMARK    2  A    between atoms: C_7  and  C_8 
REMARK    3  A    between atoms: C_14  and  C_15 
ROOT
ATOM      1  C   UNL d   1      10.493   8.207  -7.110  0.00  0.00     0.038 A 
ATOM      2  C   UNL d   1      10.370   9.501  -7.448  0.00  0.00     0.100 A 
ATOM      3  N   UNL d   1      10.764  10.330  -6.414  0.00  0.00    -0.244 NA
ATOM      4  C   UNL d   1      11.036   9.584  -5.330  0.00  0.00     0.082 A 
ATOM      5  C   UNL d   1      11.358   9.979  -4.042  0.00  0.00     0.019 C 
ATOM      6  C   UNL d   1      11.765   9.021  -3.134  0.00  0.00     0.005 C 
ATOM      7  C   UNL d   1      11.714   7.676  -3.531  0.00  0.00     0.072 C 
ATOM      8  C   UNL d   1      11.251   7.250  -4.795  0.00  0.00     0.005 C 
ATOM      9  C   UNL d   1      10.942   8.230  -5.754  0.00  0.00     0.021 A 
ENDROOT
BRANCH   1  10
ATOM     10  C   UNL d   1      10.148   7.097  -7.945  0.00  0.00     0.082 A 
ATOM     11  N   UNL d   1      10.411   6.979  -9.300  0.00  0.00    -0.309 N 
ATOM     12  C   UNL d   1       9.906   5.785  -9.644  0.00  0.00     0.179 A 
ATOM     13  N   UNL d   1       9.393   5.086  -8.657  0.00  0.00    -0.223 NA
ATOM     14  C   UNL d   1       9.482   5.960  -7.596  0.00  0.00     0.118 A 
BRANCH  11  15
ATOM     15  C   UNL d   1      11.066   7.915 -10.184  0.00  0.00     0.108 C 
ATOM     16  C   UNL d   1      12.608   7.920 -10.042  0.00  0.00     0.027 C 
ENDBRANCH  11  15
ENDBRANCH   1  10
BRANCH   7  17
ATOM     17  C   UNL d   1      11.966   6.699  -2.487  0.00  0.00     0.419 C 
ATOM     18  F   UNL d   1      10.788   6.404  -1.990  0.00  0.00    -0.166 F 
ATOM     19  F   UNL d   1      12.638   5.705  -3.021  0.00  0.00    -0.166 F 
ATOM     20  F   UNL d   1      12.669   7.235  -1.538  0.00  0.00    -0.166 F 
ENDBRANCH   7  17
TORSDOF 3
