REMARK  4 active torsions:
REMARK  status: ('A' for Active; 'I' for Inactive)
REMARK       I    between atoms: N_10  and  C_11 
REMARK    1  A    between atoms: C_11  and  C_13 
REMARK    2  A    between atoms: C_13  and  N_14 
REMARK    3  A    between atoms: N_17  and  C_18 
REMARK    4  A    between atoms: C_18  and  C_19 
ROOT
ATOM      1  N   UNL d   1       9.095   3.860 -14.978  0.00  0.00     0.151 N 
ATOM      2  C   UNL d   1       8.305   3.088 -14.014  0.00  0.00     0.286 C 
ATOM      3  C   UNL d   1       7.655   4.003 -12.939  0.00  0.00     0.286 C 
ATOM      4  N   UNL d   1       8.665   4.764 -12.194  0.00  0.00     0.146 N 
ATOM      5  C   UNL d   1       9.415   5.530 -13.162  0.00  0.00     0.286 C 
ATOM      6  C   UNL d   1      10.058   4.659 -14.225  0.00  0.00     0.286 C 
ENDROOT
BRANCH   1   7
ATOM      7  C   UNL d   1       9.720   2.988 -16.008  0.00  0.00     0.337 C 
BRANCH   7   8
ATOM      8  C   UNL d   1       9.407   3.388 -17.477  0.00  0.00     0.271 C 
ATOM      9  N   UNL d   1      10.147   4.308 -18.155  0.00  0.00    -0.299 N 
ATOM     10  C   UNL d   1       9.890   4.606 -19.587  0.00  0.00     0.093 C 
ATOM     11  C   UNL d   1      11.146   5.215 -17.674  0.00  0.00     0.058 C 
ATOM     12  C   UNL d   1      10.423   3.456 -20.466  0.00  0.00     0.025 C 
ATOM     13  C   UNL d   1      10.633   5.944 -19.886  0.00  0.00     0.051 C 
ATOM     14  C   UNL d   1      11.390   6.209 -18.612  0.00  0.00    -0.004 C 
ATOM     15  C   UNL d   1      12.302   7.268 -18.355  0.00  0.00    -0.003 C 
ATOM     16  C   UNL d   1      12.924   7.332 -17.077  0.00  0.00    -0.000 C 
ATOM     17  C   UNL d   1      12.676   6.304 -16.142  0.00  0.00     0.002 C 
ATOM     18  C   UNL d   1      11.866   5.205 -16.458  0.00  0.00     0.017 C 
ATOM     19  O   UNL d   1       8.463   2.789 -18.014  0.00  0.00    -0.270 OA
ENDBRANCH   7   8
ENDBRANCH   1   7
BRANCH   4  20
ATOM     20  C   UNL d   1       8.055   5.664 -11.210  0.00  0.00     0.278 C 
BRANCH  20  21
ATOM     21  C   UNL d   1       9.081   6.381 -10.336  0.00  0.00     0.024 A 
ATOM     22  C   UNL d   1       9.404   5.889  -9.054  0.00  0.00     0.085 A 
ATOM     23  C   UNL d   1      10.332   6.578  -8.249  0.00  0.00     0.178 A 
ATOM     24 CL   UNL d   1       8.676   4.454  -8.456  0.00  0.00    -0.080 Cl
ATOM     25  C   UNL d   1      10.951   7.751  -8.723  0.00  0.00     0.168 A 
ATOM     26  F   UNL d   1      10.650   6.102  -7.022  0.00  0.00    -0.201 F 
ATOM     27  C   UNL d   1      10.636   8.246 -10.000  0.00  0.00     0.032 A 
ATOM     28  F   UNL d   1      11.859   8.398  -7.954  0.00  0.00    -0.202 F 
ATOM     29  C   UNL d   1       9.699   7.566 -10.797  0.00  0.00     0.001 A 
ENDBRANCH  20  21
ENDBRANCH   4  20
TORSDOF 4
