REMARK  6 active torsions:
REMARK  status: ('A' for Active; 'I' for Inactive)
REMARK    1  A    between atoms: N_3  and  C_4 
REMARK    2  A    between atoms: C_4  and  C_5 
REMARK    3  A    between atoms: C_5  and  C_6 
REMARK    4  A    between atoms: C_6  and  C_7 
REMARK    5  A    between atoms: C_7  and  N_8 
REMARK    6  A    between atoms: N_11  and  C_12 
ROOT
ATOM      1  N   UNL d   1       8.242   2.804 -13.937  0.00  0.00     0.141 N 
ATOM      2  C   UNL d   1       9.581   3.368 -13.676  0.00  0.00     0.274 C 
ATOM      3  C   UNL d   1       9.671   3.981 -12.277  0.00  0.00     0.137 C 
ATOM      4  N   UNL d   1       8.592   4.922 -12.075  0.00  0.00    -0.344 N 
ATOM      5  C   UNL d   1       7.240   4.475 -12.370  0.00  0.00     0.137 C 
ATOM      6  C   UNL d   1       7.227   3.867 -13.773  0.00  0.00     0.274 C 
ENDROOT
BRANCH   1   7
ATOM      7  C   UNL d   1       8.218   2.183 -15.246  0.00  0.00     0.251 C 
BRANCH   7   8
ATOM      8  C   UNL d   1       6.989   1.265 -15.410  0.00  0.00     0.037 C 
BRANCH   8   9
ATOM      9  C   UNL d   1       6.928   0.648 -16.807  0.00  0.00     0.029 C 
BRANCH   9  10
ATOM     10  C   UNL d   1       5.593  -0.066 -17.111  0.00  0.00     0.133 C 
BRANCH  10  11
ATOM     11  N   UNL d   1       5.567  -0.645 -18.454  0.00  0.00    -0.201 N 
ATOM     12  C   UNL d   1       5.747  -0.007 -19.623  0.00  0.00     0.352 A 
ATOM     13  O   UNL d   1       5.969   1.189 -19.816  0.00  0.00    -0.244 OA
ATOM     14  N   UNL d   1       5.657  -0.975 -20.526  0.00  0.00    -0.239 N 
ATOM     15  C   UNL d   1       5.377  -2.160 -19.865  0.00  0.00     0.199 A 
ATOM     16  C   UNL d   1       5.812  -0.863 -21.912  0.00  0.00     0.086 A 
ATOM     17  N   UNL d   1       5.318  -1.976 -18.590  0.00  0.00    -0.145 NA
ATOM     18  C   UNL d   1       5.226  -3.333 -20.710  0.00  0.00     0.176 A 
ATOM     19  F   UNL d   1       4.958  -4.530 -20.163  0.00  0.00    -0.201 F 
ATOM     20  C   UNL d   1       5.370  -3.232 -22.052  0.00  0.00     0.034 A 
ATOM     21  C   UNL d   1       5.674  -1.957 -22.685  0.00  0.00     0.022 A 
ENDBRANCH  10  11
ENDBRANCH   9  10
ENDBRANCH   8   9
ENDBRANCH   7   8
ENDBRANCH   1   7
BRANCH   4  22
ATOM     22  C   UNL d   1       8.863   6.209 -11.625  0.00  0.00     0.057 A 
ATOM     23  C   UNL d   1       9.492   6.435 -10.363  0.00  0.00     0.024 A 
ATOM     24  C   UNL d   1       9.778   7.783 -10.020  0.00  0.00     0.033 A 
ATOM     25  C   UNL d   1       9.865   5.547  -9.307  0.00  0.00     0.038 A 
ATOM     26  C   UNL d   1       9.433   8.830 -10.839  0.00  0.00     0.007 A 
ATOM     27  S   UNL d   1      10.405   7.962  -8.415  0.00  0.00    -0.058 SA
ATOM     28  C   UNL d   1       8.770   8.614 -12.052  0.00  0.00     0.002 A 
ATOM     29  C   UNL d   1       8.477   7.293 -12.430  0.00  0.00     0.017 A 
ATOM     30  C   UNL d   1      10.402   6.263  -8.271  0.00  0.00     0.170 A 
ATOM     31  F   UNL d   1      11.062   5.715  -7.249  0.00  0.00    -0.197 F 
ENDBRANCH   4  22
TORSDOF 6
