REMARK  5 active torsions:
REMARK  status: ('A' for Active; 'I' for Inactive)
REMARK    1  A    between atoms: C_2  and  C_3 
REMARK    2  A    between atoms: C_3  and  N_4 
REMARK    3  A    between atoms: N_4  and  C_5 
REMARK    4  A    between atoms: N_4  and  C_8 
REMARK    5  A    between atoms: C_5  and  C_6 
ROOT
ATOM      1  C   UNL d   1      10.741   7.624  -7.256  0.00  0.00     0.224 C 
ATOM      2  C   UNL d   1      10.348   9.111  -7.056  0.00  0.00     0.040 C 
ATOM      3  C   UNL d   1      11.267   9.903  -6.151  0.00  0.00     0.049 C 
ATOM      4  C   UNL d   1      11.605   9.103  -4.953  0.00  0.00     0.078 A 
ATOM      5  N   UNL d   1      12.149   9.585  -3.785  0.00  0.00    -0.153 NA
ATOM      6  N   UNL d   1      12.325   8.603  -2.864  0.00  0.00    -0.147 NA
ATOM      7  C   UNL d   1      11.877   7.513  -3.485  0.00  0.00     0.119 A 
ATOM      8  C   UNL d   1      11.421   7.775  -4.823  0.00  0.00     0.016 A 
ATOM      9  C   UNL d   1      10.796   6.900  -5.865  0.00  0.00     0.062 C 
ENDROOT
BRANCH   1  10
ATOM     10  N   UNL d   1       9.836   6.973  -8.226  0.00  0.00     0.135 N 
BRANCH  10  11
ATOM     11  C   UNL d   1       9.813   5.510  -8.175  0.00  0.00     0.250 C 
BRANCH  11  12
ATOM     12  C   UNL d   1       8.518   4.892  -8.719  0.00  0.00     0.035 C 
ATOM     13  C   UNL d   1       8.402   3.375  -8.434  0.00  0.00     0.002 C 
ENDBRANCH  11  12
ENDBRANCH  10  11
BRANCH  10  14
ATOM     14  C   UNL d   1      10.083   7.353  -9.622  0.00  0.00     0.250 C 
BRANCH  14  15
ATOM     15  C   UNL d   1       9.502   8.725  -9.990  0.00  0.00     0.035 C 
ATOM     16  C   UNL d   1       9.025   8.851 -11.435  0.00  0.00     0.002 C 
ENDBRANCH  14  15
ENDBRANCH  10  14
ENDBRANCH   1  10
TORSDOF 5
