REMARK  8 active torsions:
REMARK  status: ('A' for Active; 'I' for Inactive)
REMARK       I    between atoms: N_2  and  C_3 
REMARK    1  A    between atoms: C_3  and  C_5 
REMARK    2  A    between atoms: C_7  and  O_8 
REMARK    3  A    between atoms: O_8  and  C_9 
REMARK    4  A    between atoms: C_9  and  C_10 
REMARK    5  A    between atoms: C_10  and  C_11 
REMARK    6  A    between atoms: C_11  and  C_12 
REMARK    7  A    between atoms: C_12  and  N_13 
REMARK    8  A    between atoms: N_16  and  C_17 
ROOT
ATOM      1  N   UNL d   1       8.670   2.796 -14.036  0.00  0.00     0.141 N 
ATOM      2  C   UNL d   1       9.954   3.293 -13.497  0.00  0.00     0.274 C 
ATOM      3  C   UNL d   1       9.760   3.925 -12.142  0.00  0.00     0.137 C 
ATOM      4  N   UNL d   1       8.708   4.937 -12.154  0.00  0.00    -0.344 N 
ATOM      5  C   UNL d   1       7.481   4.576 -12.812  0.00  0.00     0.137 C 
ATOM      6  C   UNL d   1       7.778   3.961 -14.176  0.00  0.00     0.274 C 
ENDROOT
BRANCH   1   7
ATOM      7  C   UNL d   1       8.961   2.156 -15.304  0.00  0.00     0.251 C 
BRANCH   7   8
ATOM      8  C   UNL d   1       7.743   1.409 -15.912  0.00  0.00     0.038 C 
BRANCH   8   9
ATOM      9  C   UNL d   1       7.798   1.412 -17.433  0.00  0.00     0.035 C 
BRANCH   9  10
ATOM     10  C   UNL d   1       8.957   0.546 -17.988  0.00  0.00     0.149 C 
BRANCH  10  11
ATOM     11  O   UNL d   1       8.596  -0.837 -17.939  0.00  0.00    -0.331 OA
BRANCH  11  12
ATOM     12  C   UNL d   1       7.809  -1.368 -18.942  0.00  0.00     0.097 A 
ATOM     13  C   UNL d   1       7.382  -0.650 -20.085  0.00  0.00     0.048 A 
ATOM     14  C   UNL d   1       6.665  -1.332 -21.096  0.00  0.00     0.141 A 
ATOM     15  N   UNL d   1       6.382  -2.658 -21.018  0.00  0.00    -0.239 NA
ATOM     16  C   UNL d   1       6.755  -3.322 -19.906  0.00  0.00     0.101 A 
ATOM     17  C   UNL d   1       7.468  -2.731 -18.855  0.00  0.00     0.045 A 
BRANCH  14  18
ATOM     18  C   UNL d   1       6.264  -0.598 -22.341  0.00  0.00     0.293 C 
ATOM     19  N   UNL d   1       5.853   0.662 -22.145  0.00  0.00    -0.231 NA
ATOM     20  C   UNL d   1       5.370   1.535 -23.205  0.00  0.00     0.155 C 
ATOM     21  O   UNL d   1       6.295  -1.140 -23.447  0.00  0.00    -0.264 OA
ENDBRANCH  14  18
ENDBRANCH  11  12
ENDBRANCH  10  11
ENDBRANCH   9  10
ENDBRANCH   8   9
ENDBRANCH   7   8
ENDBRANCH   1   7
BRANCH   4  22
ATOM     22  C   UNL d   1       8.918   6.231 -11.655  0.00  0.00     0.057 A 
ATOM     23  C   UNL d   1       9.490   6.470 -10.364  0.00  0.00     0.024 A 
ATOM     24  C   UNL d   1       9.755   7.831 -10.006  0.00  0.00     0.033 A 
ATOM     25  C   UNL d   1       9.854   5.576  -9.311  0.00  0.00     0.038 A 
ATOM     26  C   UNL d   1       9.393   8.887 -10.805  0.00  0.00     0.007 A 
ATOM     27  S   UNL d   1      10.341   8.010  -8.381  0.00  0.00    -0.058 SA
ATOM     28  C   UNL d   1       8.757   8.647 -12.044  0.00  0.00     0.002 A 
ATOM     29  C   UNL d   1       8.509   7.329 -12.440  0.00  0.00     0.017 A 
ATOM     30  C   UNL d   1      10.344   6.300  -8.251  0.00  0.00     0.170 A 
ATOM     31  F   UNL d   1      11.001   5.757  -7.217  0.00  0.00    -0.197 F 
ENDBRANCH   4  22
TORSDOF 8
