REMARK  1 active torsions:
REMARK  status: ('A' for Active; 'I' for Inactive)
REMARK    1  A    between atoms: N_5  and  C_6 
ROOT
ATOM      1  C   UNL d   1       9.379   3.181 -13.891  0.00  0.00     0.246 C 
ATOM      2  C   UNL d   1       8.468   2.383 -14.856  0.00  0.00     0.065 C 
ATOM      3  C   UNL d   1       7.394   1.569 -14.263  0.00  0.00    -0.014 A 
ATOM      4  C   UNL d   1       7.495   0.171 -14.157  0.00  0.00    -0.004 A 
ATOM      5  C   UNL d   1       6.427  -0.555 -13.621  0.00  0.00    -0.000 A 
ATOM      6  C   UNL d   1       5.257   0.112 -13.204  0.00  0.00     0.001 A 
ATOM      7  C   UNL d   1       5.187   1.505 -13.242  0.00  0.00     0.006 A 
ATOM      8  C   UNL d   1       6.242   2.245 -13.798  0.00  0.00     0.025 A 
ATOM      9  S   UNL d   1       6.150   3.973 -13.939  0.00  0.00    -0.087 SA
ATOM     10  C   UNL d   1       7.322   4.423 -12.739  0.00  0.00     0.027 A 
ATOM     11  C   UNL d   1       6.826   5.180 -11.673  0.00  0.00     0.007 A 
ATOM     12  C   UNL d   1       7.670   5.554 -10.623  0.00  0.00     0.012 A 
ATOM     13  C   UNL d   1       8.996   5.151 -10.624  0.00  0.00     0.058 A 
ATOM     14 CL   UNL d   1       9.913   5.571  -9.232  0.00  0.00    -0.082 Cl
ATOM     15  C   UNL d   1       9.489   4.379 -11.697  0.00  0.00     0.009 A 
ATOM     16  C   UNL d   1       8.681   4.005 -12.788  0.00  0.00     0.016 A 
ENDROOT
BRANCH   1  17
ATOM     17  N   UNL d   1      10.414   3.952 -14.593  0.00  0.00     0.144 N 
ATOM     18  C   UNL d   1      11.404   3.092 -15.262  0.00  0.00     0.286 C 
ATOM     19  C   UNL d   1      12.472   3.899 -16.014  0.00  0.00     0.286 C 
ATOM     20  N   UNL d   1      11.867   4.794 -17.000  0.00  0.00     0.143 N 
ATOM     21  C   UNL d   1      12.877   5.545 -17.731  0.00  0.00     0.285 C 
ATOM     22  C   UNL d   1      10.926   5.686 -16.325  0.00  0.00     0.286 C 
ATOM     23  C   UNL d   1       9.851   4.896 -15.572  0.00  0.00     0.286 C 
ENDBRANCH   1  17
TORSDOF 1
