REMARK  7 active torsions:
REMARK  status: ('A' for Active; 'I' for Inactive)
REMARK    1  A    between atoms: C_2  and  C_3 
REMARK    2  A    between atoms: C_2  and  C_15 
REMARK    3  A    between atoms: C_3  and  O_4 
REMARK    4  A    between atoms: O_4  and  C_5 
REMARK    5  A    between atoms: C_15  and  N_16 
REMARK    6  A    between atoms: C_19  and  C_20 
REMARK    7  A    between atoms: C_20  and  C_21 
ROOT
ATOM      1  O   UNL d   1       8.254   6.073  -7.788  0.00  0.00    -0.219 OA
ATOM      2  C   UNL d   1       9.343   6.271  -8.678  0.00  0.00     0.215 C 
ENDROOT
BRANCH   2   3
ATOM      3  C   UNL d   1      10.093   7.538  -8.228  0.00  0.00     0.184 C 
BRANCH   3   4
ATOM      4  O   UNL d   1      10.800   7.239  -7.024  0.00  0.00    -0.328 OA
BRANCH   4   5
ATOM      5  C   UNL d   1      10.966   8.218  -6.070  0.00  0.00     0.094 A 
ATOM      6  C   UNL d   1      11.462   7.855  -4.791  0.00  0.00     0.022 A 
ATOM      7  C   UNL d   1      11.630   8.792  -3.750  0.00  0.00     0.002 A 
ATOM      8  C   UNL d   1      11.832   6.546  -4.487  0.00  0.00     0.002 A 
ATOM      9  C   UNL d   1      11.225  10.085  -3.940  0.00  0.00     0.000 A 
ATOM     10  C   UNL d   1      12.148   8.523  -2.475  0.00  0.00     0.000 A 
ATOM     11  C   UNL d   1      10.688  10.460  -5.169  0.00  0.00     0.002 A 
ATOM     12  C   UNL d   1      10.612   9.582  -6.262  0.00  0.00     0.024 A 
ATOM     13  C   UNL d   1      12.497   7.218  -2.197  0.00  0.00     0.000 A 
ATOM     14  C   UNL d   1      12.331   6.261  -3.211  0.00  0.00     0.000 A 
ENDBRANCH   4   5
ENDBRANCH   3   4
ENDBRANCH   2   3
BRANCH   2  15
ATOM     15  C   UNL d   1       8.754   6.511 -10.088  0.00  0.00     0.285 C 
BRANCH  15  16
ATOM     16  N   UNL d   1       9.367   5.785 -11.167  0.00  0.00     0.140 N 
ATOM     17  C   UNL d   1       8.988   4.395 -11.078  0.00  0.00     0.250 C 
ATOM     18  C   UNL d   1       9.640   3.597 -12.198  0.00  0.00     0.036 C 
ATOM     19  C   UNL d   1       9.302   4.061 -13.581  0.00  0.00     0.008 C 
ATOM     20  C   UNL d   1       9.549   5.551 -13.619  0.00  0.00     0.036 C 
ATOM     21  C   UNL d   1       8.905   6.300 -12.449  0.00  0.00     0.250 C 
BRANCH  19  22
ATOM     22  C   UNL d   1      10.185   3.310 -14.615  0.00  0.00     0.026 C 
BRANCH  22  23
ATOM     23  C   UNL d   1       9.372   2.359 -15.462  0.00  0.00    -0.022 A 
ATOM     24  C   UNL d   1       9.254   2.578 -16.851  0.00  0.00    -0.004 A 
ATOM     25  C   UNL d   1       8.493   1.694 -17.638  0.00  0.00    -0.000 A 
ATOM     26  C   UNL d   1       7.843   0.599 -17.035  0.00  0.00    -0.000 A 
ATOM     27  C   UNL d   1       7.949   0.388 -15.647  0.00  0.00    -0.000 A 
ATOM     28  C   UNL d   1       8.718   1.266 -14.861  0.00  0.00    -0.004 A 
ENDBRANCH  22  23
ENDBRANCH  19  22
ENDBRANCH  15  16
ENDBRANCH   2  15
TORSDOF 7
