REMARK  6 active torsions:
REMARK  status: ('A' for Active; 'I' for Inactive)
REMARK    1  A    between atoms: O_2  and  C_3 
REMARK    2  A    between atoms: C_7  and  C_8 
REMARK       I    between atoms: C_8  and  N_10 
REMARK    3  A    between atoms: N_10  and  C_11 
REMARK    4  A    between atoms: C_11  and  C_12 
REMARK    5  A    between atoms: C_12  and  N_13 
REMARK    6  A    between atoms: N_16  and  C_17 
ROOT
ATOM      1  C   UNL d   1       9.861   6.275 -10.449  0.00  0.00     0.277 C 
ENDROOT
BRANCH   1   2
ATOM      2  C   UNL d   1       8.484   6.071 -11.121  0.00  0.00     0.164 C 
BRANCH   2   3
ATOM      3  N   UNL d   1       8.431   4.878 -11.958  0.00  0.00    -0.232 NA
ATOM      4  C   UNL d   1       9.231   4.593 -12.998  0.00  0.00     0.275 C 
ATOM      5  O   UNL d   1      10.259   5.206 -13.278  0.00  0.00    -0.266 OA
BRANCH   4   6
ATOM      6  C   UNL d   1       8.820   3.406 -13.809  0.00  0.00     0.059 A 
ATOM      7  C   UNL d   1       7.455   3.098 -14.024  0.00  0.00     0.005 A 
ATOM      8  C   UNL d   1       7.106   1.975 -14.796  0.00  0.00     0.002 A 
ATOM      9  C   UNL d   1       8.109   1.188 -15.396  0.00  0.00     0.024 A 
ATOM     10  C   UNL d   1       9.472   1.520 -15.237  0.00  0.00     0.094 A 
ATOM     11  C   UNL d   1       9.814   2.619 -14.419  0.00  0.00     0.029 A 
BRANCH  10  12
ATOM     12  O   UNL d   1      10.412   0.746 -15.870  0.00  0.00    -0.328 OA
ATOM     13  C   UNL d   1      11.515   1.438 -16.450  0.00  0.00     0.181 C 
ENDBRANCH  10  12
ENDBRANCH   4   6
ENDBRANCH   2   3
ENDBRANCH   1   2
BRANCH   1  14
ATOM     14  N   UNL d   1       9.829   7.250  -9.366  0.00  0.00     0.143 N 
ATOM     15  C   UNL d   1      11.194   7.669  -9.039  0.00  0.00     0.274 C 
ATOM     16  C   UNL d   1      11.194   8.706  -7.902  0.00  0.00     0.137 C 
ATOM     17  N   UNL d   1      10.489   8.165  -6.754  0.00  0.00    -0.344 N 
ATOM     18  C   UNL d   1       9.161   7.634  -7.012  0.00  0.00     0.137 C 
ATOM     19  C   UNL d   1       9.217   6.635  -8.176  0.00  0.00     0.274 C 
BRANCH  17  20
ATOM     20  C   UNL d   1      11.064   8.157  -5.482  0.00  0.00     0.056 A 
ATOM     21  C   UNL d   1      11.464   9.373  -4.891  0.00  0.00     0.017 A 
ATOM     22  C   UNL d   1      12.041   9.379  -3.607  0.00  0.00     0.002 A 
ATOM     23  C   UNL d   1      12.249   8.174  -2.915  0.00  0.00     0.000 A 
ATOM     24  C   UNL d   1      11.860   6.956  -3.501  0.00  0.00     0.002 A 
ATOM     25  C   UNL d   1      11.264   6.947  -4.782  0.00  0.00     0.017 A 
ENDBRANCH  17  20
ENDBRANCH   1  14
TORSDOF 6
