REMARK  8 active torsions:
REMARK  status: ('A' for Active; 'I' for Inactive)
REMARK    1  A    between atoms: C_7  and  C_8 
REMARK    2  A    between atoms: C_8  and  C_9 
REMARK    3  A    between atoms: C_9  and  C_10 
REMARK    4  A    between atoms: C_10  and  N_11 
REMARK       I    between atoms: N_11  and  C_12 
REMARK       I    between atoms: N_14  and  C_15 
REMARK       I    between atoms: C_15  and  N_17 
REMARK    5  A    between atoms: N_17  and  C_18 
REMARK    6  A    between atoms: C_18  and  C_19 
REMARK    7  A    between atoms: C_19  and  C_21 
REMARK    8  A    between atoms: C_21  and  C_22 
ROOT
ATOM      1  N   UNL d   1       8.828   4.802 -12.436  0.00  0.00    -0.241 NA
ATOM      2  C   UNL d   1       8.881   5.998 -11.775  0.00  0.00     0.237 C 
ATOM      3  N   UNL d   1       7.785   6.816 -12.106  0.00  0.00    -0.060 NA
ATOM      4  N   UNL d   1       9.871   6.279 -10.966  0.00  0.00    -0.159 NA
ATOM      5  C   UNL d   1       9.871   7.493 -10.300  0.00  0.00     0.367 C 
ATOM      6  O   UNL d   1      10.193   8.576 -10.766  0.00  0.00    -0.243 OA
ATOM      7  N   UNL d   1       9.476   7.347  -9.033  0.00  0.00    -0.217 NA
ENDROOT
BRANCH   1   8
ATOM      8  C   UNL d   1       9.989   3.943 -12.678  0.00  0.00     0.129 C 
BRANCH   8   9
ATOM      9  C   UNL d   1       9.786   3.033 -13.895  0.00  0.00     0.032 C 
BRANCH   9  10
ATOM     10  C   UNL d   1      11.085   2.339 -14.333  0.00  0.00     0.036 C 
BRANCH  10  11
ATOM     11  C   UNL d   1      10.977   1.651 -15.653  0.00  0.00     0.023 A 
ATOM     12  C   UNL d   1      11.539   2.029 -16.850  0.00  0.00     0.063 A 
ATOM     13  C   UNL d   1      12.385   3.239 -17.107  0.00  0.00     0.052 C 
ATOM     14  N   UNL d   1      11.252   1.151 -17.901  0.00  0.00    -0.230 NA
ATOM     15  C   UNL d   1      10.497   0.127 -17.509  0.00  0.00     0.180 A 
ATOM     16  N   UNL d   1      10.080  -0.893 -18.342  0.00  0.00    -0.072 NA
ATOM     17  S   UNL d   1      10.072   0.167 -15.807  0.00  0.00    -0.057 SA
ENDBRANCH  10  11
ENDBRANCH   9  10
ENDBRANCH   8   9
ENDBRANCH   1   8
BRANCH   7  18
ATOM     18  C   UNL d   1       9.261   8.452  -8.101  0.00  0.00     0.131 C 
BRANCH  18  19
ATOM     19  C   UNL d   1       9.794   8.107  -6.716  0.00  0.00     0.025 C 
ATOM     20  C   UNL d   1       9.313   6.697  -6.248  0.00  0.00     0.002 C 
BRANCH  19  21
ATOM     21  C   UNL d   1      11.337   8.331  -6.694  0.00  0.00     0.002 C 
BRANCH  21  22
ATOM     22  C   UNL d   1      11.980   8.470  -5.292  0.00  0.00     0.000 C 
ATOM     23  C   UNL d   1      11.313   9.542  -4.421  0.00  0.00     0.000 C 
ATOM     24  C   UNL d   1      11.974   9.617  -3.046  0.00  0.00     0.000 C 
ATOM     25  C   UNL d   1      11.999   8.247  -2.345  0.00  0.00     0.000 C 
ATOM     26  C   UNL d   1      12.761   7.209  -3.189  0.00  0.00     0.000 C 
ATOM     27  C   UNL d   1      12.104   7.087  -4.567  0.00  0.00     0.000 C 
ENDBRANCH  21  22
ENDBRANCH  19  21
ENDBRANCH  18  19
ENDBRANCH   7  18
TORSDOF 8
