REMARK  2 active torsions:
REMARK  status: ('A' for Active; 'I' for Inactive)
REMARK    1  A    between atoms: N_2  and  C_4 
REMARK    2  A    between atoms: C_4  and  C_5 
ROOT
ATOM      1  C   UNL d   1       6.911   0.178 -15.282  0.00  0.00     0.149 C 
ATOM      2  C   UNL d   1       6.678   1.225 -14.191  0.00  0.00     0.039 C 
ATOM      3  C   UNL d   1       7.858   2.126 -14.321  0.00  0.00     0.057 C 
ATOM      4  C   UNL d   1       7.771   3.498 -13.647  0.00  0.00    -0.014 A 
ATOM      5  C   UNL d   1       6.553   4.042 -13.162  0.00  0.00    -0.004 A 
ATOM      6  C   UNL d   1       6.540   5.323 -12.568  0.00  0.00    -0.000 A 
ATOM      7  C   UNL d   1       7.732   6.065 -12.466  0.00  0.00     0.001 A 
ATOM      8  C   UNL d   1       8.945   5.520 -12.936  0.00  0.00     0.006 A 
ATOM      9  C   UNL d   1       8.956   4.240 -13.516  0.00  0.00     0.025 A 
ATOM     10  S   UNL d   1      10.484   3.535 -14.049  0.00  0.00    -0.087 SA
ATOM     11  C   UNL d   1      10.285   3.465 -15.803  0.00  0.00     0.028 A 
ATOM     12  C   UNL d   1      11.315   4.067 -16.555  0.00  0.00     0.009 A 
ATOM     13  C   UNL d   1      11.281   4.061 -17.957  0.00  0.00     0.030 A 
ATOM     14  C   UNL d   1      10.212   3.445 -18.631  0.00  0.00     0.140 A 
ATOM     15  F   UNL d   1      10.172   3.438 -19.983  0.00  0.00    -0.204 F 
ATOM     16  C   UNL d   1       9.184   2.836 -17.892  0.00  0.00     0.028 A 
ATOM     17  C   UNL d   1       9.196   2.828 -16.483  0.00  0.00     0.013 A 
ATOM     18  C   UNL d   1       7.970   2.188 -15.836  0.00  0.00     0.142 C 
ATOM     19  O   UNL d   1       7.730   0.844 -16.253  0.00  0.00    -0.352 OA
ENDROOT
BRANCH   1  20
ATOM     20  C   UNL d   1       5.625  -0.366 -15.940  0.00  0.00     0.280 C 
BRANCH  20  21
ATOM     21  N   UNL d   1       4.735  -1.174 -15.088  0.00  0.00     0.144 N 
ATOM     22  C   UNL d   1       4.101  -0.435 -14.000  0.00  0.00     0.286 C 
ATOM     23  C   UNL d   1       3.692  -1.791 -15.894  0.00  0.00     0.286 C 
ENDBRANCH  20  21
ENDBRANCH   1  20
TORSDOF 2
