REMARK  10 active torsions:
REMARK  status: ('A' for Active; 'I' for Inactive)
REMARK    1  A    between atoms: C_2  and  C_3 
REMARK    2  A    between atoms: C_3  and  N_4 
REMARK    3  A    between atoms: N_4  and  C_5 
REMARK    4  A    between atoms: N_4  and  C_24 
REMARK    5  A    between atoms: C_5  and  C_6 
REMARK    6  A    between atoms: C_6  and  C_7 
REMARK    7  A    between atoms: C_7  and  C_8 
REMARK    8  A    between atoms: C_8  and  N_9 
REMARK       I    between atoms: N_9  and  C_10 
REMARK    9  A    between atoms: C_10  and  C_12 
REMARK   10  A    between atoms: C_15  and  C_16 
ROOT
ATOM      1  C   UNL d   1       8.311   4.165 -12.623  0.00  0.00     0.029 C 
ENDROOT
BRANCH   1   2
ATOM      2  C   UNL d   1       7.833   3.758 -14.039  0.00  0.00     0.037 C 
BRANCH   2   3
ATOM      3  C   UNL d   1       7.967   2.219 -14.225  0.00  0.00     0.250 C 
BRANCH   3   4
ATOM      4  N   UNL d   1       7.845   1.770 -15.619  0.00  0.00     0.135 N 
BRANCH   4   5
ATOM      5  C   UNL d   1       9.182   1.740 -16.248  0.00  0.00     0.250 C 
BRANCH   5   6
ATOM      6  C   UNL d   1       9.818   3.137 -16.307  0.00  0.00     0.035 C 
ATOM      7  C   UNL d   1      11.211   3.192 -16.906  0.00  0.00     0.002 C 
ENDBRANCH   5   6
ENDBRANCH   4   5
BRANCH   4   8
ATOM      8  C   UNL d   1       7.165   0.457 -15.811  0.00  0.00     0.224 C 
ATOM      9  C   UNL d   1       6.799   0.252 -17.319  0.00  0.00     0.062 C 
ATOM     10  C   UNL d   1       5.778  -0.857 -17.519  0.00  0.00     0.016 A 
ATOM     11  C   UNL d   1       5.051  -1.420 -16.504  0.00  0.00     0.078 A 
ATOM     12  C   UNL d   1       5.298  -1.551 -18.669  0.00  0.00     0.119 A 
ATOM     13  C   UNL d   1       5.150  -1.039 -15.084  0.00  0.00     0.049 C 
ATOM     14  N   UNL d   1       4.255  -2.411 -17.048  0.00  0.00    -0.153 NA
ATOM     15  C   UNL d   1       5.907   0.282 -14.912  0.00  0.00     0.040 C 
ATOM     16  N   UNL d   1       4.391  -2.489 -18.387  0.00  0.00    -0.147 NA
ENDBRANCH   4   8
ENDBRANCH   3   4
ENDBRANCH   2   3
ENDBRANCH   1   2
BRANCH   1  17
ATOM     17  C   UNL d   1       8.545   5.682 -12.530  0.00  0.00     0.129 C 
BRANCH  17  18
ATOM     18  N   UNL d   1       9.101   6.038 -11.236  0.00  0.00    -0.234 NA
ATOM     19  C   UNL d   1       9.467   7.279 -10.884  0.00  0.00     0.275 C 
ATOM     20  O   UNL d   1       9.435   8.233 -11.664  0.00  0.00    -0.266 OA
BRANCH  19  21
ATOM     21  C   UNL d   1       9.938   7.425  -9.467  0.00  0.00     0.058 A 
ATOM     22  C   UNL d   1      11.004   8.296  -9.162  0.00  0.00     0.005 A 
ATOM     23  C   UNL d   1      11.441   8.454  -7.829  0.00  0.00     0.000 A 
ATOM     24  C   UNL d   1      10.815   7.761  -6.769  0.00  0.00     0.000 A 
ATOM     25  C   UNL d   1       9.729   6.912  -7.078  0.00  0.00     0.000 A 
ATOM     26  C   UNL d   1       9.294   6.745  -8.409  0.00  0.00     0.005 A 
BRANCH  24  27
ATOM     27  C   UNL d   1      11.282   7.918  -5.377  0.00  0.00     0.000 A 
ATOM     28  C   UNL d   1      11.576   9.194  -4.846  0.00  0.00     0.000 A 
ATOM     29  C   UNL d   1      12.023   9.335  -3.517  0.00  0.00     0.000 A 
ATOM     30  C   UNL d   1      12.195   8.205  -2.699  0.00  0.00     0.000 A 
ATOM     31  C   UNL d   1      11.909   6.928  -3.212  0.00  0.00     0.000 A 
ATOM     32  C   UNL d   1      11.454   6.787  -4.537  0.00  0.00     0.000 A 
ENDBRANCH  24  27
ENDBRANCH  19  21
ENDBRANCH  17  18
ENDBRANCH   1  17
TORSDOF 10
