REMARK  4 active torsions:
REMARK  status: ('A' for Active; 'I' for Inactive)
REMARK    1  A    between atoms: C_8  and  N_9 
REMARK    2  A    between atoms: N_9  and  C_10 
REMARK    3  A    between atoms: C_10  and  C_11 
REMARK    4  A    between atoms: C_11  and  N_12 
ROOT
ATOM      1 CL   UNL d   1       4.705   3.175 -12.813  0.00  0.00    -0.082 Cl
ATOM      2  C   UNL d   1       6.293   2.966 -13.373  0.00  0.00     0.058 A 
ATOM      3  C   UNL d   1       6.669   1.833 -14.118  0.00  0.00     0.013 A 
ATOM      4  C   UNL d   1       8.017   1.665 -14.487  0.00  0.00     0.020 A 
ATOM      5  C   UNL d   1       8.976   2.624 -14.092  0.00  0.00     0.086 A 
ATOM      6  C   UNL d   1       8.585   3.741 -13.298  0.00  0.00     0.054 A 
ATOM      7  C   UNL d   1       7.230   3.913 -12.968  0.00  0.00     0.016 A 
ATOM      8  C   UNL d   1       9.535   4.739 -12.720  0.00  0.00     0.160 C 
ATOM      9  N   UNL d   1      10.573   5.184 -13.359  0.00  0.00    -0.224 NA
ATOM     10  C   UNL d   1      11.016   4.789 -14.627  0.00  0.00     0.119 A 
ATOM     11  C   UNL d   1      11.704   5.760 -15.371  0.00  0.00     0.024 A 
ATOM     12  C   UNL d   1      12.275   5.430 -16.606  0.00  0.00     0.022 A 
ATOM     13  C   UNL d   1      12.149   4.106 -17.057  0.00  0.00     0.101 A 
ATOM     14  N   UNL d   1      11.507   3.150 -16.361  0.00  0.00    -0.224 NA
ATOM     15  C   UNL d   1      10.952   3.484 -15.183  0.00  0.00     0.180 A 
ATOM     16  N   UNL d   1      10.281   2.449 -14.552  0.00  0.00    -0.225 NA
ENDROOT
BRANCH   8  17
ATOM     17  N   UNL d   1       9.223   5.163 -11.423  0.00  0.00    -0.251 NA
BRANCH  17  18
ATOM     18  C   UNL d   1      10.072   5.963 -10.549  0.00  0.00     0.163 C 
BRANCH  18  19
ATOM     19  C   UNL d   1       9.295   7.029  -9.801  0.00  0.00     0.276 C 
BRANCH  19  20
ATOM     20  N   UNL d   1      10.083   7.571  -8.699  0.00  0.00     0.139 N 
ATOM     21  C   UNL d   1      10.239   6.612  -7.611  0.00  0.00     0.250 C 
ATOM     22  C   UNL d   1      10.649   7.469  -6.421  0.00  0.00     0.037 C 
ATOM     23  C   UNL d   1      10.060   8.838  -6.733  0.00  0.00     0.037 C 
ATOM     24  C   UNL d   1       9.346   8.654  -8.069  0.00  0.00     0.250 C 
ENDBRANCH  19  20
ENDBRANCH  18  19
ENDBRANCH  17  18
ENDBRANCH   8  17
TORSDOF 4
