REMARK  7 active torsions:
REMARK  status: ('A' for Active; 'I' for Inactive)
REMARK    1  A    between atoms: C_5  and  C_6 
REMARK    2  A    between atoms: C_8  and  C_9 
REMARK       I    between atoms: C_9  and  N_11 
REMARK    3  A    between atoms: N_11  and  C_12 
REMARK    4  A    between atoms: C_12  and  C_13 
REMARK    5  A    between atoms: C_13  and  C_14 
REMARK    6  A    between atoms: C_14  and  C_15 
REMARK    7  A    between atoms: C_15  and  N_16 
ROOT
ATOM      1  C   UNL d   1       9.809   7.215  -9.949  0.00  0.00     0.294 C 
ATOM      2  O   UNL d   1       9.863   7.913 -10.964  0.00  0.00    -0.264 OA
ATOM      3  N   UNL d   1       9.206   6.015  -9.905  0.00  0.00    -0.233 NA
ENDROOT
BRANCH   1   4
ATOM      4  C   UNL d   1      10.366   7.720  -8.685  0.00  0.00     0.162 A 
ATOM      5  C   UNL d   1      10.467   7.046  -7.500  0.00  0.00     0.047 A 
ATOM      6  C   UNL d   1      11.069   8.018  -6.641  0.00  0.00     0.111 A 
ATOM      7  N   UNL d   1      11.284   9.182  -7.259  0.00  0.00    -0.147 NA
ATOM      8  N   UNL d   1      10.866   8.979  -8.521  0.00  0.00    -0.143 NA
BRANCH   6   9
ATOM      9  C   UNL d   1      11.458   7.850  -5.247  0.00  0.00     0.049 A 
ATOM     10  C   UNL d   1      11.452   6.708  -4.491  0.00  0.00     0.008 A 
ATOM     11  C   UNL d   1      11.899   6.903  -3.154  0.00  0.00     0.003 A 
ATOM     12  C   UNL d   1      12.260   8.203  -2.904  0.00  0.00     0.008 A 
ATOM     13  C   UNL d   1      12.764   8.786  -1.637  0.00  0.00     0.038 C 
ATOM     14  S   UNL d   1      12.049   9.196  -4.314  0.00  0.00    -0.090 SA
ENDBRANCH   6   9
ENDBRANCH   1   4
BRANCH   3  15
ATOM     15  C   UNL d   1       8.404   5.457 -10.984  0.00  0.00     0.129 C 
BRANCH  15  16
ATOM     16  C   UNL d   1       9.282   4.892 -12.108  0.00  0.00     0.029 C 
BRANCH  16  17
ATOM     17  C   UNL d   1       8.508   4.667 -13.411  0.00  0.00     0.037 C 
BRANCH  17  18
ATOM     18  C   UNL d   1       9.402   4.048 -14.503  0.00  0.00     0.251 C 
BRANCH  18  19
ATOM     19  N   UNL d   1       9.518   2.591 -14.461  0.00  0.00     0.142 N 
ATOM     20  C   UNL d   1      10.563   2.115 -15.363  0.00  0.00     0.282 C 
ATOM     21  C   UNL d   1      10.689   0.580 -15.345  0.00  0.00     0.178 C 
ATOM     22  O   UNL d   1       9.438  -0.015 -15.664  0.00  0.00    -0.350 OA
ATOM     23  C   UNL d   1       8.402   0.390 -14.776  0.00  0.00     0.178 C 
ATOM     24  C   UNL d   1       8.263   1.920 -14.798  0.00  0.00     0.282 C 
ENDBRANCH  18  19
ENDBRANCH  17  18
ENDBRANCH  16  17
ENDBRANCH  15  16
ENDBRANCH   3  15
TORSDOF 7
