REMARK  7 active torsions:
REMARK  status: ('A' for Active; 'I' for Inactive)
REMARK    1  A    between atoms: C_2  and  C_3 
REMARK    2  A    between atoms: C_3  and  C_4 
REMARK    3  A    between atoms: C_4  and  N_5 
REMARK    4  A    between atoms: N_5  and  C_6 
REMARK    5  A    between atoms: C_6  and  C_7 
REMARK    6  A    between atoms: C_7  and  S_8 
REMARK    7  A    between atoms: S_8  and  P_9 
ROOT
ATOM      1  C   UNL d   1      10.778   8.713  -8.643  0.00  0.00     0.302 C 
ENDROOT
BRANCH   1   2
ATOM      2  N   UNL d   1      11.845   8.337  -7.733  0.00  0.00     0.340 N 
BRANCH   2   3
ATOM      3  C   UNL d   1      11.940   9.270  -6.621  0.00  0.00     0.292 C 
BRANCH   3   4
ATOM      4  C   UNL d   1      10.892   8.947  -5.541  0.00  0.00     0.079 C 
BRANCH   4   5
ATOM      5  C   UNL d   1      11.127   9.721  -4.241  0.00  0.00     0.341 C 
ATOM      6  N   UNL d   1      12.301   9.205  -3.560  0.00  0.00     0.618 N 
ENDBRANCH   4   5
ENDBRANCH   3   4
ENDBRANCH   2   3
ENDBRANCH   1   2
BRANCH   1   7
ATOM      7  C   UNL d   1      10.692   7.681  -9.771  0.00  0.00     0.109 C 
BRANCH   7   8
ATOM      8  S   UNL d   1       9.756   8.370 -11.158  0.00  0.00    -0.015 SA
BRANCH   8   9
ATOM      9  P   UNL d   1       8.708   6.662 -11.872  0.00  0.00     0.328 P 
ATOM     10  O   UNL d   1       9.474   5.787 -12.802  0.00  0.00    -0.631 OA
ATOM     11  O   UNL d   1       8.184   5.986 -10.499  0.00  0.00    -0.631 OA
ATOM     12  O   UNL d   1       7.349   7.316 -12.443  0.00  0.00    -0.631 OA
ENDBRANCH   8   9
ENDBRANCH   7   8
ENDBRANCH   1   7
TORSDOF 7
