REMARK  7 active torsions:
REMARK  status: ('A' for Active; 'I' for Inactive)
REMARK    1  A    between atoms: C_2  and  N_3 
REMARK    2  A    between atoms: N_3  and  C_4 
REMARK    3  A    between atoms: N_3  and  C_6 
REMARK    4  A    between atoms: C_6  and  C_7 
REMARK    5  A    between atoms: C_7  and  C_8 
REMARK    6  A    between atoms: C_8  and  C_9 
REMARK    7  A    between atoms: C_13  and  C_14 
ROOT
ATOM      1  C   UNL d   1      11.050   3.470 -16.119  0.00  0.00     0.153 A 
ATOM      2  C   UNL d   1      12.230   2.626 -15.648  0.00  0.00     0.038 C 
ATOM      3  O   UNL d   1      10.020   2.582 -16.550  0.00  0.00    -0.326 OA
ATOM      4  C   UNL d   1       8.940   2.756 -15.726  0.00  0.00     0.119 A 
ATOM      5  C   UNL d   1       9.061   3.688 -14.768  0.00  0.00     0.061 A 
ATOM      6  C   UNL d   1      10.418   4.185 -14.934  0.00  0.00     0.200 A 
ATOM      7  O   UNL d   1      11.011   5.055 -14.287  0.00  0.00    -0.289 OA
ENDROOT
BRANCH   1   8
ATOM      8  C   UNL d   1      11.454   4.429 -17.259  0.00  0.00     0.037 C 
BRANCH   8   9
ATOM      9  C   UNL d   1      10.327   5.374 -17.712  0.00  0.00     0.038 C 
BRANCH   9  10
ATOM     10  C   UNL d   1      10.771   6.267 -18.879  0.00  0.00     0.250 C 
BRANCH  10  11
ATOM     11  N   UNL d   1       9.712   7.138 -19.388  0.00  0.00     0.137 N 
BRANCH  11  12
ATOM     12  C   UNL d   1      10.282   8.158 -20.283  0.00  0.00     0.250 C 
ATOM     13  C   UNL d   1      10.939   7.593 -21.560  0.00  0.00     0.037 C 
ENDBRANCH  11  12
BRANCH  11  14
ATOM     14  C   UNL d   1       8.618   6.369 -19.991  0.00  0.00     0.250 C 
ATOM     15  C   UNL d   1       7.413   7.240 -20.348  0.00  0.00     0.037 C 
ENDBRANCH  11  14
ENDBRANCH  10  11
ENDBRANCH   9  10
ENDBRANCH   8   9
ENDBRANCH   1   8
BRANCH   5  16
ATOM     16  C   UNL d   1       8.016   4.106 -13.796  0.00  0.00     0.005 A 
ATOM     17  C   UNL d   1       6.736   3.497 -13.818  0.00  0.00     0.000 A 
ATOM     18  C   UNL d   1       5.719   3.937 -12.943  0.00  0.00     0.000 A 
ATOM     19  C   UNL d   1       5.976   4.983 -12.043  0.00  0.00     0.000 A 
ATOM     20  C   UNL d   1       7.243   5.589 -12.006  0.00  0.00     0.000 A 
ATOM     21  C   UNL d   1       8.258   5.155 -12.878  0.00  0.00     0.000 A 
ENDBRANCH   5  16
TORSDOF 7
