REMARK  7 active torsions:
REMARK  status: ('A' for Active; 'I' for Inactive)
REMARK    1  A    between atoms: S_2  and  C_5 
REMARK    2  A    between atoms: C_8  and  C_9 
REMARK       I    between atoms: C_9  and  N_11 
REMARK    3  A    between atoms: N_11  and  C_12 
REMARK    4  A    between atoms: C_15  and  C_16 
REMARK    5  A    between atoms: C_16  and  C_17 
REMARK    6  A    between atoms: C_17  and  N_18 
REMARK    7  A    between atoms: C_21  and  C_22 
ROOT
ATOM      1  C   UNL d   1       9.439   6.561  -9.990  0.00  0.00     0.107 C 
ATOM      2  C   UNL d   1       9.987   6.865 -11.343  0.00  0.00     0.024 C 
ATOM      3  C   UNL d   1       9.097   6.543 -12.514  0.00  0.00     0.002 C 
ATOM      4  C   UNL d   1       8.604   5.099 -12.476  0.00  0.00     0.002 C 
ATOM      5  C   UNL d   1       7.959   4.836 -11.118  0.00  0.00     0.002 C 
ATOM      6  C   UNL d   1       8.938   5.099  -9.959  0.00  0.00     0.024 C 
ENDROOT
BRANCH   4   7
ATOM      7  C   UNL d   1       7.620   4.855 -13.630  0.00  0.00     0.035 C 
BRANCH   7   8
ATOM      8  C   UNL d   1       7.354   3.358 -13.924  0.00  0.00     0.250 C 
BRANCH   8   9
ATOM      9  N   UNL d   1       8.396   2.619 -14.665  0.00  0.00     0.137 N 
ATOM     10  C   UNL d   1       7.747   1.688 -15.589  0.00  0.00     0.251 C 
ATOM     11  C   UNL d   1       8.783   0.842 -16.354  0.00  0.00     0.040 C 
ATOM     12  C   UNL d   1       9.800   1.728 -17.104  0.00  0.00     0.028 C 
ATOM     13  C   UNL d   1      10.400   2.719 -16.098  0.00  0.00     0.040 C 
ATOM     14  C   UNL d   1       9.305   3.492 -15.403  0.00  0.00     0.251 C 
BRANCH  12  15
ATOM     15  C   UNL d   1      10.884   0.945 -17.784  0.00  0.00     0.004 A 
ATOM     16  C   UNL d   1      12.025   1.450 -18.493  0.00  0.00     0.021 A 
ATOM     17  C   UNL d   1      12.760   0.313 -18.911  0.00  0.00     0.100 A 
ATOM     18  C   UNL d   1      12.561   2.719 -18.837  0.00  0.00     0.002 A 
ATOM     19  O   UNL d   1      12.133  -0.828 -18.481  0.00  0.00    -0.305 OA
ATOM     20  C   UNL d   1      13.956   0.391 -19.642  0.00  0.00     0.025 A 
ATOM     21  C   UNL d   1      11.006  -0.425 -17.818  0.00  0.00     0.118 A 
ATOM     22  C   UNL d   1      14.455   1.661 -19.980  0.00  0.00     0.002 A 
ATOM     23  C   UNL d   1      13.766   2.821 -19.573  0.00  0.00     0.000 A 
ENDBRANCH  12  15
ENDBRANCH   8   9
ENDBRANCH   7   8
ENDBRANCH   4   7
BRANCH   1  24
ATOM     24  N   UNL d   1      10.482   6.774  -9.011  0.00  0.00    -0.236 NA
ATOM     25  C   UNL d   1      10.606   7.952  -8.367  0.00  0.00     0.275 C 
ATOM     26  O   UNL d   1      10.358   9.050  -8.861  0.00  0.00    -0.266 OA
BRANCH  25  27
ATOM     27  C   UNL d   1      10.997   7.829  -6.928  0.00  0.00     0.058 A 
ATOM     28  C   UNL d   1      11.192   8.979  -6.136  0.00  0.00     0.005 A 
ATOM     29  C   UNL d   1      11.479   8.897  -4.761  0.00  0.00     0.011 A 
ATOM     30  C   UNL d   1      11.560   7.621  -4.163  0.00  0.00     0.084 A 
ATOM     31  C   UNL d   1      11.368   6.494  -4.929  0.00  0.00     0.011 A 
ATOM     32  C   UNL d   1      11.080   6.562  -6.301  0.00  0.00     0.005 A 
BRANCH  30  33
ATOM     33  S   UNL d   1      11.952   7.312  -2.436  0.00  0.00     0.191 S 
ATOM     34  C   UNL d   1      12.611   8.998  -1.907  0.00  0.00     0.145 C 
ATOM     35  O   UNL d   1      13.043   6.364  -2.472  0.00  0.00    -0.222 OA
ATOM     36  O   UNL d   1      10.778   6.961  -1.637  0.00  0.00    -0.222 OA
ENDBRANCH  30  33
ENDBRANCH  25  27
ENDBRANCH   1  24
TORSDOF 7
