REMARK  7 active torsions:
REMARK  status: ('A' for Active; 'I' for Inactive)
REMARK       I    between atoms: N_2  and  C_4 
REMARK       I    between atoms: C_4  and  N_6 
REMARK    1  A    between atoms: N_6  and  C_7 
REMARK    2  A    between atoms: C_10  and  C_11 
REMARK    3  A    between atoms: C_11  and  C_12 
REMARK    4  A    between atoms: C_12  and  N_13 
REMARK    5  A    between atoms: N_13  and  C_14 
REMARK    6  A    between atoms: C_14  and  C_15 
REMARK    7  A    between atoms: C_17  and  C_18 
ROOT
ATOM      1  N   UNL d   1       9.077   5.973 -10.694  0.00  0.00     0.339 N 
ENDROOT
BRANCH   1   2
ATOM      2  C   UNL d   1       9.426   5.171 -11.850  0.00  0.00     0.290 C 
BRANCH   2   3
ATOM      3  C   UNL d   1       8.316   5.273 -12.893  0.00  0.00     0.038 C 
BRANCH   3   4
ATOM      4  C   UNL d   1       8.539   4.333 -14.082  0.00  0.00     0.002 C 
ATOM      5  C   UNL d   1       9.877   4.544 -14.818  0.00  0.00     0.002 C 
ATOM      6  C   UNL d   1       9.987   3.640 -16.040  0.00  0.00     0.025 C 
ATOM      7  C   UNL d   1       9.757   2.149 -15.676  0.00  0.00     0.108 C 
ATOM      8  C   UNL d   1       8.439   1.920 -14.897  0.00  0.00     0.025 C 
ATOM      9  C   UNL d   1       8.326   2.865 -13.696  0.00  0.00     0.002 C 
BRANCH   7  10
ATOM     10  N   UNL d   1       9.838   1.280 -16.847  0.00  0.00    -0.221 NA
ATOM     11  C   UNL d   1       9.027   1.292 -17.920  0.00  0.00     0.342 C 
ATOM     12  N   UNL d   1       9.312   0.344 -18.849  0.00  0.00    -0.297 N 
ATOM     13  O   UNL d   1       8.107   2.095 -18.057  0.00  0.00    -0.245 OA
ATOM     14  C   UNL d   1      10.376  -0.657 -18.719  0.00  0.00     0.130 C 
ATOM     15  C   UNL d   1       8.499   0.298 -20.065  0.00  0.00     0.130 C 
ENDBRANCH   7  10
ENDBRANCH   3   4
ENDBRANCH   2   3
ENDBRANCH   1   2
BRANCH   1  16
ATOM     16  C   UNL d   1      10.253   6.061  -9.843  0.00  0.00     0.290 C 
BRANCH  16  17
ATOM     17  C   UNL d   1       9.865   6.816  -8.603  0.00  0.00     0.041 A 
ATOM     18  C   UNL d   1      10.789   6.731  -7.385  0.00  0.00     0.024 A 
ATOM     19  C   UNL d   1       9.454   6.027  -7.391  0.00  0.00     0.007 A 
BRANCH  18  20
ATOM     20  C   UNL d   1      11.035   7.933  -6.530  0.00  0.00    -0.022 C 
ATOM     21  C   UNL d   1      11.367   7.834  -5.156  0.00  0.00    -0.004 A 
ATOM     22  C   UNL d   1      11.514   9.014  -4.378  0.00  0.00    -0.000 A 
ATOM     23  C   UNL d   1      11.544   6.598  -4.501  0.00  0.00    -0.000 A 
ATOM     24  C   UNL d   1      11.286  10.252  -4.978  0.00  0.00    -0.000 C 
ATOM     25  C   UNL d   1      11.864   8.972  -3.016  0.00  0.00    -0.000 A 
ATOM     26  C   UNL d   1      11.117  10.333  -6.362  0.00  0.00    -0.000 C 
ATOM     27  C   UNL d   1      10.953   9.189  -7.140  0.00  0.00    -0.004 C 
ATOM     28  C   UNL d   1      12.035   7.731  -2.389  0.00  0.00    -0.000 A 
ATOM     29  C   UNL d   1      11.878   6.547  -3.130  0.00  0.00    -0.000 A 
ENDBRANCH  18  20
ENDBRANCH  16  17
ENDBRANCH   1  16
TORSDOF 7
