REMARK  6 active torsions:
REMARK  status: ('A' for Active; 'I' for Inactive)
REMARK    1  A    between atoms: C_6  and  N_7 
REMARK    2  A    between atoms: N_10  and  C_11 
REMARK    3  A    between atoms: C_11  and  C_12 
REMARK    4  A    between atoms: C_12  and  C_13 
REMARK    5  A    between atoms: C_16  and  N_17 
REMARK       I    between atoms: N_17  and  C_18 
REMARK    6  A    between atoms: C_18  and  C_20 
ROOT
ATOM      1  C   UNL d   1       8.750   5.489 -12.059  0.00  0.00     0.035 C 
ENDROOT
BRANCH   1   2
ATOM      2  C   UNL d   1       8.521   4.005 -12.415  0.00  0.00     0.250 C 
BRANCH   2   3
ATOM      3  N   UNL d   1       8.576   3.760 -13.848  0.00  0.00     0.141 N 
ATOM      4  C   UNL d   1       8.091   2.400 -14.149  0.00  0.00     0.274 C 
ATOM      5  C   UNL d   1       8.126   2.121 -15.660  0.00  0.00     0.137 C 
ATOM      6  N   UNL d   1       9.476   2.364 -16.181  0.00  0.00    -0.344 N 
ATOM      7  C   UNL d   1      10.045   3.656 -15.799  0.00  0.00     0.137 C 
ATOM      8  C   UNL d   1       9.975   3.839 -14.284  0.00  0.00     0.274 C 
BRANCH   6   9
ATOM      9  C   UNL d   1      10.201   1.436 -16.941  0.00  0.00     0.056 A 
ATOM     10  C   UNL d   1       9.894   0.052 -16.916  0.00  0.00     0.017 A 
ATOM     11  C   UNL d   1      10.599  -0.865 -17.711  0.00  0.00     0.001 A 
ATOM     12  C   UNL d   1      11.659  -0.427 -18.530  0.00  0.00    -0.004 A 
ATOM     13  C   UNL d   1      11.998   0.937 -18.558  0.00  0.00    -0.020 A 
ATOM     14  C   UNL d   1      13.129   1.435 -19.430  0.00  0.00     0.031 C 
ATOM     15  C   UNL d   1      11.276   1.859 -17.781  0.00  0.00     0.013 A 
ENDBRANCH   6   9
ENDBRANCH   2   3
ENDBRANCH   1   2
BRANCH   1  16
ATOM     16  C   UNL d   1       9.356   5.668 -10.659  0.00  0.00     0.002 C 
ATOM     17  C   UNL d   1       8.343   5.321  -9.559  0.00  0.00     0.002 C 
ATOM     18  C   UNL d   1       8.917   5.581  -8.166  0.00  0.00     0.024 C 
ATOM     19  C   UNL d   1       9.428   7.025  -7.996  0.00  0.00     0.107 C 
ATOM     20  C   UNL d   1      10.450   7.356  -9.103  0.00  0.00     0.024 C 
ATOM     21  C   UNL d   1       9.866   7.104 -10.483  0.00  0.00     0.002 C 
BRANCH  19  22
ATOM     22  N   UNL d   1      10.024   7.167  -6.673  0.00  0.00    -0.236 NA
ATOM     23  C   UNL d   1      10.570   8.283  -6.173  0.00  0.00     0.281 C 
ATOM     24  O   UNL d   1      10.545   9.374  -6.740  0.00  0.00    -0.265 OA
BRANCH  23  25
ATOM     25  C   UNL d   1      11.215   8.120  -4.861  0.00  0.00     0.087 A 
ATOM     26  S   UNL d   1      11.575   9.582  -3.975  0.00  0.00    -0.082 SA
ATOM     27  C   UNL d   1      12.266   8.656  -2.671  0.00  0.00     0.036 A 
ATOM     28  C   UNL d   1      12.225   7.313  -2.924  0.00  0.00     0.008 A 
ATOM     29  C   UNL d   1      11.629   7.007  -4.183  0.00  0.00     0.012 A 
ENDBRANCH  23  25
ENDBRANCH  19  22
ENDBRANCH   1  16
TORSDOF 6
