REMARK  5 active torsions:
REMARK  status: ('A' for Active; 'I' for Inactive)
REMARK    1  A    between atoms: C_2  and  C_4 
REMARK    2  A    between atoms: C_11  and  C_12 
REMARK    3  A    between atoms: C_12  and  N_13 
REMARK    4  A    between atoms: C_16  and  C_17 
REMARK    5  A    between atoms: C_17  and  C_19 
ROOT
ATOM      1  N   UNL d   1       9.261   5.590 -11.681  0.00  0.00     0.137 N 
ATOM      2  C   UNL d   1       9.390   5.115 -10.309  0.00  0.00     0.251 C 
ATOM      3  C   UNL d   1      10.283   6.059  -9.499  0.00  0.00     0.043 C 
ATOM      4  C   UNL d   1       9.672   7.490  -9.453  0.00  0.00     0.066 C 
ATOM      5  C   UNL d   1       9.411   7.935 -10.919  0.00  0.00     0.043 C 
ATOM      6  C   UNL d   1       8.586   6.885 -11.697  0.00  0.00     0.251 C 
ENDROOT
BRANCH   1   7
ATOM      7  C   UNL d   1       8.536   4.593 -12.454  0.00  0.00     0.251 C 
BRANCH   7   8
ATOM      8  C   UNL d   1       9.547   3.771 -13.276  0.00  0.00     0.045 C 
ATOM      9  C   UNL d   1       8.799   2.938 -14.312  0.00  0.00     0.029 C 
ATOM     10  C   UNL d   1       9.717   2.263 -15.313  0.00  0.00    -0.019 A 
ATOM     11  C   UNL d   1      11.031   2.731 -15.564  0.00  0.00     0.031 A 
ATOM     12  C   UNL d   1       9.223   1.146 -16.012  0.00  0.00    -0.001 A 
ATOM     13  C   UNL d   1      11.838   2.048 -16.498  0.00  0.00     0.003 A 
ATOM     14  C   UNL d   1      11.568   3.918 -14.855  0.00  0.00     0.173 C 
ATOM     15  C   UNL d   1      11.346   0.920 -17.180  0.00  0.00     0.003 A 
ATOM     16  C   UNL d   1      10.028   0.466 -16.953  0.00  0.00     0.034 A 
ATOM     17  C   UNL d   1      10.603   4.670 -13.953  0.00  0.00     0.071 C 
ATOM     18  O   UNL d   1      12.718   4.342 -14.975  0.00  0.00    -0.291 OA
BRANCH  16  19
ATOM     19  C   UNL d   1       9.525  -0.726 -17.666  0.00  0.00     0.173 C 
ATOM     20  C   UNL d   1       8.017  -0.848 -17.858  0.00  0.00     0.077 C 
ATOM     21  O   UNL d   1      10.264  -1.608 -18.131  0.00  0.00    -0.291 OA
ENDBRANCH  16  19
ENDBRANCH   7   8
ENDBRANCH   1   7
BRANCH   4  22
ATOM     22  C   UNL d   1      10.589   8.498  -8.717  0.00  0.00     0.173 C 
ATOM     23  O   UNL d   1      11.078   9.445  -9.341  0.00  0.00    -0.291 OA
BRANCH  22  24
ATOM     24  C   UNL d   1      10.851   8.297  -7.258  0.00  0.00     0.035 A 
ATOM     25  C   UNL d   1      10.488   7.116  -6.550  0.00  0.00     0.005 A 
ATOM     26  C   UNL d   1      10.915   6.959  -5.221  0.00  0.00     0.030 A 
ATOM     27  C   UNL d   1      11.563   8.000  -4.517  0.00  0.00     0.140 A 
ATOM     28  C   UNL d   1      11.836   9.213  -5.194  0.00  0.00     0.030 A 
ATOM     29  F   UNL d   1      11.873   7.864  -3.200  0.00  0.00    -0.204 F 
ATOM     30  C   UNL d   1      11.516   9.356  -6.567  0.00  0.00     0.005 A 
ENDBRANCH  22  24
ENDBRANCH   4  22
TORSDOF 5
