REMARK  7 active torsions:
REMARK  status: ('A' for Active; 'I' for Inactive)
REMARK    1  A    between atoms: S_2  and  C_4 
REMARK    2  A    between atoms: S_2  and  C_23 
REMARK    3  A    between atoms: C_4  and  C_5 
REMARK    4  A    between atoms: N_8  and  C_9 
REMARK    5  A    between atoms: C_9  and  C_10 
REMARK    6  A    between atoms: C_10  and  C_11 
REMARK    7  A    between atoms: C_11  and  C_12 
ROOT
ATOM      1  C   UNL d   1       9.458   7.024  -9.665  0.00  0.00     0.052 C 
ATOM      2  C   UNL d   1      10.427   6.861 -10.800  0.00  0.00     0.038 C 
ATOM      3  C   UNL d   1       9.857   5.713 -11.630  0.00  0.00     0.250 C 
ATOM      4  N   UNL d   1       8.436   5.774 -11.394  0.00  0.00     0.137 N 
ATOM      5  C   UNL d   1       8.386   5.964  -9.950  0.00  0.00     0.251 C 
ENDROOT
BRANCH   4   6
ATOM      6  C   UNL d   1       7.705   4.576 -11.803  0.00  0.00     0.251 C 
BRANCH   6   7
ATOM      7  C   UNL d   1       7.801   4.325 -13.320  0.00  0.00     0.042 C 
BRANCH   7   8
ATOM      8  C   UNL d   1       8.997   3.418 -13.726  0.00  0.00     0.050 C 
BRANCH   8   9
ATOM      9  C   UNL d   1       9.482   3.723 -15.110  0.00  0.00     0.088 A 
ATOM     10  C   UNL d   1       9.214   3.080 -16.329  0.00  0.00     0.041 A 
ATOM     11  C   UNL d   1       9.883   3.745 -17.354  0.00  0.00     0.129 A 
ATOM     12  C   UNL d   1       8.409   1.960 -16.617  0.00  0.00     0.006 A 
ATOM     13  O   UNL d   1      10.551   4.789 -16.734  0.00  0.00    -0.211 OA
ATOM     14  C   UNL d   1       9.807   3.339 -18.696  0.00  0.00     0.057 A 
ATOM     15  N   UNL d   1      10.289   4.759 -15.335  0.00  0.00    -0.131 NA
ATOM     16  C   UNL d   1       9.008   2.212 -18.988  0.00  0.00     0.142 A 
ATOM     17  F   UNL d   1       8.895   1.783 -20.266  0.00  0.00    -0.204 F 
ATOM     18  C   UNL d   1       8.314   1.532 -17.960  0.00  0.00     0.030 A 
ENDBRANCH   8   9
ENDBRANCH   7   8
ENDBRANCH   6   7
ENDBRANCH   4   6
BRANCH   1  19
ATOM     19  C   UNL d   1      10.079   6.880  -8.284  0.00  0.00     0.129 C 
BRANCH  19  20
ATOM     20  S   UNL d   1      11.257   8.250  -7.883  0.00  0.00     0.190 S 
ATOM     21  O   UNL d   1      12.581   7.989  -8.463  0.00  0.00    -0.222 OA
ATOM     22  O   UNL d   1      10.604   9.518  -8.187  0.00  0.00    -0.222 OA
BRANCH  20  23
ATOM     23  C   UNL d   1      11.444   8.145  -6.126  0.00  0.00     0.084 A 
ATOM     24  C   UNL d   1      11.619   9.320  -5.364  0.00  0.00     0.013 A 
ATOM     25  C   UNL d   1      11.812   9.205  -3.968  0.00  0.00     0.030 A 
ATOM     26  C   UNL d   1      11.861   7.937  -3.364  0.00  0.00     0.140 A 
ATOM     27  C   UNL d   1      11.670   6.777  -4.140  0.00  0.00     0.030 A 
ATOM     28  F   UNL d   1      12.017   7.819  -2.026  0.00  0.00    -0.204 F 
ATOM     29  C   UNL d   1      11.467   6.879  -5.526  0.00  0.00     0.013 A 
ENDBRANCH  20  23
ENDBRANCH  19  20
ENDBRANCH   1  19
TORSDOF 7
