REMARK  8 active torsions:
REMARK  status: ('A' for Active; 'I' for Inactive)
REMARK    1  A    between atoms: C_3  and  S_4 
REMARK    2  A    between atoms: S_4  and  C_5 
REMARK    3  A    between atoms: C_5  and  C_6 
REMARK    4  A    between atoms: C_6  and  C_7 
REMARK    5  A    between atoms: C_7  and  N_8 
REMARK    6  A    between atoms: N_13  and  C_14 
REMARK    7  A    between atoms: C_17  and  C_18 
REMARK    8  A    between atoms: C_28  and  C_29 
ROOT
ATOM      1  N   UNL d   1      11.802   0.977 -18.566  0.00  0.00     0.139 N 
ATOM      2  C   UNL d   1      11.834  -0.486 -18.579  0.00  0.00     0.252 C 
ATOM      3  C   UNL d   1      10.543  -0.887 -17.844  0.00  0.00     0.058 C 
ATOM      4  C   UNL d   1       9.305  -0.988 -18.750  0.00  0.00     0.028 C 
ATOM      5  C   UNL d   1       8.210  -0.343 -17.906  0.00  0.00     0.102 C 
ATOM      6  N   UNL d   1       8.870   0.715 -17.163  0.00  0.00    -0.348 N 
ATOM      7  C   UNL d   1      10.236   0.290 -16.901  0.00  0.00     0.117 C 
ATOM      8  C   UNL d   1      11.261   1.349 -17.272  0.00  0.00     0.272 C 
ENDROOT
BRANCH   1   9
ATOM      9  C   UNL d   1      13.102   1.600 -18.846  0.00  0.00     0.251 C 
BRANCH   9  10
ATOM     10  C   UNL d   1      13.063   3.143 -18.861  0.00  0.00     0.047 C 
BRANCH  10  11
ATOM     11  C   UNL d   1      13.012   3.822 -17.470  0.00  0.00     0.067 C 
BRANCH  11  12
ATOM     12  S   UNL d   1      12.953   5.633 -17.610  0.00  0.00    -0.075 SA
BRANCH  12  13
ATOM     13  C   UNL d   1      11.322   5.811 -18.283  0.00  0.00     0.193 A 
ATOM     14  N   UNL d   1      11.033   6.708 -19.231  0.00  0.00    -0.289 N 
ATOM     15  C   UNL d   1      11.957   7.677 -19.804  0.00  0.00     0.134 C 
ATOM     16  C   UNL d   1       9.698   6.487 -19.460  0.00  0.00     0.169 A 
ATOM     17  N   UNL d   1       9.226   5.507 -18.679  0.00  0.00    -0.128 NA
ATOM     18  N   UNL d   1      10.271   5.059 -17.913  0.00  0.00    -0.122 NA
BRANCH  16  19
ATOM     19  C   UNL d   1       8.827   7.209 -20.394  0.00  0.00     0.059 A 
ATOM     20  C   UNL d   1       7.495   7.506 -20.055  0.00  0.00     0.125 A 
ATOM     21  N   UNL d   1       6.652   8.219 -20.847  0.00  0.00    -0.146 NA
ATOM     22  N   UNL d   1       7.117   8.702 -22.009  0.00  0.00    -0.146 NA
ATOM     23  C   UNL d   1       8.375   8.431 -22.411  0.00  0.00     0.122 A 
ATOM     24  C   UNL d   1       9.288   7.663 -21.650  0.00  0.00     0.027 A 
ENDBRANCH  16  19
ENDBRANCH  12  13
ENDBRANCH  11  12
ENDBRANCH  10  11
ENDBRANCH   9  10
ENDBRANCH   1   9
BRANCH   6  25
ATOM     25  C   UNL d   1       8.183   1.379 -16.120  0.00  0.00     0.056 A 
ATOM     26  C   UNL d   1       8.744   2.511 -15.476  0.00  0.00     0.017 A 
ATOM     27  C   UNL d   1       8.060   3.154 -14.421  0.00  0.00     0.005 A 
ATOM     28  C   UNL d   1       6.814   2.675 -13.987  0.00  0.00     0.072 A 
ATOM     29  C   UNL d   1       6.264   1.552 -14.621  0.00  0.00     0.005 A 
ATOM     30  C   UNL d   1       6.907   0.925 -15.690  0.00  0.00     0.017 A 
BRANCH  28  31
ATOM     31  C   UNL d   1       6.078   3.358 -12.848  0.00  0.00     0.419 C 
ATOM     32  F   UNL d   1       5.461   2.421 -12.117  0.00  0.00    -0.166 F 
ATOM     33  F   UNL d   1       6.913   4.014 -12.053  0.00  0.00    -0.166 F 
ATOM     34  F   UNL d   1       5.175   4.203 -13.342  0.00  0.00    -0.166 F 
ENDBRANCH  28  31
ENDBRANCH   6  25
TORSDOF 8
