REMARK  7 active torsions:
REMARK  status: ('A' for Active; 'I' for Inactive)
REMARK    1  A    between atoms: C_2  and  C_3 
REMARK    2  A    between atoms: C_3  and  N_4 
REMARK    3  A    between atoms: N_4  and  C_5 
REMARK    4  A    between atoms: N_4  and  C_23 
REMARK    5  A    between atoms: C_5  and  C_6 
REMARK    6  A    between atoms: C_6  and  N_7 
REMARK    7  A    between atoms: N_10  and  C_11 
ROOT
ATOM      1  C   UNL d   1       9.591   4.185 -14.307  0.00  0.00     0.286 C 
ENDROOT
BRANCH   1   2
ATOM      2  C   UNL d   1       9.609   4.580 -12.820  0.00  0.00     0.285 C 
BRANCH   2   3
ATOM      3  N   UNL d   1       8.843   5.773 -12.444  0.00  0.00     0.137 N 
BRANCH   3   4
ATOM      4  C   UNL d   1       7.468   5.790 -12.951  0.00  0.00     0.250 C 
BRANCH   4   5
ATOM      5  C   UNL d   1       6.492   4.777 -12.345  0.00  0.00     0.035 C 
ATOM      6  C   UNL d   1       5.368   4.393 -13.298  0.00  0.00     0.002 C 
ENDBRANCH   4   5
ENDBRANCH   3   4
BRANCH   3   7
ATOM      7  C   UNL d   1       8.915   6.119 -11.010  0.00  0.00     0.224 C 
ATOM      8  C   UNL d   1      10.160   6.941 -10.602  0.00  0.00     0.059 C 
ATOM      9  C   UNL d   1      10.248   7.229  -9.104  0.00  0.00    -0.022 A 
ATOM     10  C   UNL d   1       9.489   6.488  -8.168  0.00  0.00    -0.026 A 
ATOM     11  C   UNL d   1      11.137   8.225  -8.645  0.00  0.00     0.023 A 
ATOM     12  C   UNL d   1       8.533   5.400  -8.619  0.00  0.00     0.028 C 
ATOM     13  C   UNL d   1       9.591   6.777  -6.796  0.00  0.00    -0.003 A 
ATOM     14  C   UNL d   1       8.762   4.926 -10.037  0.00  0.00     0.038 C 
ATOM     15  C   UNL d   1      10.479   7.762  -6.338  0.00  0.00     0.027 A 
ATOM     16  C   UNL d   1      11.253   8.483  -7.264  0.00  0.00     0.131 A 
ATOM     17  O   UNL d   1      12.121   9.428  -6.807  0.00  0.00    -0.190 OA
ENDBRANCH   3   7
ENDBRANCH   2   3
ENDBRANCH   1   2
BRANCH   1  18
ATOM     18  N   UNL d   1      10.879   4.188 -14.943  0.00  0.00     0.143 N 
ATOM     19  C   UNL d   1      10.819   3.375 -16.146  0.00  0.00     0.274 C 
ATOM     20  C   UNL d   1      12.155   3.314 -16.850  0.00  0.00     0.137 C 
ATOM     21  N   UNL d   1      12.668   4.655 -17.126  0.00  0.00    -0.344 N 
ATOM     22  C   UNL d   1      12.663   5.578 -15.997  0.00  0.00     0.137 C 
ATOM     23  C   UNL d   1      11.286   5.543 -15.321  0.00  0.00     0.274 C 
BRANCH  21  24
ATOM     24  C   UNL d   1      13.104   5.051 -18.417  0.00  0.00     0.058 A 
ATOM     25  C   UNL d   1      13.902   4.217 -19.253  0.00  0.00     0.033 A 
ATOM     26  C   UNL d   1      14.279   4.652 -20.558  0.00  0.00     0.083 A 
ATOM     27  C   UNL d   1      14.384   2.943 -18.838  0.00  0.00     0.004 A 
ATOM     28  C   UNL d   1      13.878   5.934 -20.987  0.00  0.00     0.019 A 
ATOM     29  N   UNL d   1      15.024   3.885 -21.393  0.00  0.00    -0.244 NA
ATOM     30  C   UNL d   1      13.109   6.774 -20.163  0.00  0.00     0.003 A 
ATOM     31  C   UNL d   1      12.720   6.332 -18.887  0.00  0.00     0.017 A 
ATOM     32  C   UNL d   1      15.413   2.657 -20.997  0.00  0.00     0.099 A 
ATOM     33  C   UNL d   1      15.106   2.144 -19.726  0.00  0.00     0.021 A 
ENDBRANCH  21  24
ENDBRANCH   1  18
TORSDOF 7
