REMARK  7 active torsions:
REMARK  status: ('A' for Active; 'I' for Inactive)
REMARK    1  A    between atoms: C_2  and  C_3 
REMARK    2  A    between atoms: N_14  and  C_15 
REMARK    3  A    between atoms: C_15  and  C_16 
REMARK    4  A    between atoms: C_16  and  C_17 
REMARK    5  A    between atoms: C_17  and  S_18 
REMARK    6  A    between atoms: S_18  and  C_19 
REMARK    7  A    between atoms: C_22  and  C_23 
ROOT
ATOM      1  C   UNL d   1       8.986   5.764 -11.448  0.00  0.00     0.159 A 
ATOM      2  N   UNL d   1       9.577   5.222 -12.526  0.00  0.00    -0.224 NA
ATOM      3  C   UNL d   1       8.592   4.396 -13.044  0.00  0.00     0.102 A 
ATOM      4  C   UNL d   1       8.557   3.543 -14.173  0.00  0.00    -0.004 A 
ATOM      5  C   UNL d   1       7.385   2.787 -14.441  0.00  0.00    -0.022 A 
ATOM      6  C   UNL d   1       6.262   2.880 -13.587  0.00  0.00    -0.002 A 
ATOM      7  C   UNL d   1       6.278   3.733 -12.468  0.00  0.00     0.026 A 
ATOM      8  C   UNL d   1       7.446   4.476 -12.227  0.00  0.00     0.119 A 
ATOM      9  O   UNL d   1       7.705   5.358 -11.200  0.00  0.00    -0.292 OA
ATOM     10  C   UNL d   1       7.320   1.857 -15.641  0.00  0.00     0.061 C 
ATOM     11  C   UNL d   1       8.371   0.739 -15.614  0.00  0.00     0.255 C 
ATOM     12  N   UNL d   1       9.688   1.152 -16.104  0.00  0.00     0.138 N 
ATOM     13  C   UNL d   1      10.390   2.052 -15.180  0.00  0.00     0.255 C 
ATOM     14  C   UNL d   1       9.766   3.459 -15.089  0.00  0.00     0.063 C 
ENDROOT
BRANCH  12  15
ATOM     15  C   UNL d   1      10.494  -0.053 -16.352  0.00  0.00     0.251 C 
BRANCH  15  16
ATOM     16  C   UNL d   1      11.440   0.132 -17.539  0.00  0.00     0.047 C 
BRANCH  16  17
ATOM     17  C   UNL d   1      10.672   0.433 -18.849  0.00  0.00     0.067 C 
BRANCH  17  18
ATOM     18  S   UNL d   1      11.793   0.797 -20.241  0.00  0.00    -0.075 SA
BRANCH  18  19
ATOM     19  C   UNL d   1      12.793   2.057 -19.514  0.00  0.00     0.193 A 
ATOM     20  N   UNL d   1      12.313   3.220 -19.023  0.00  0.00    -0.287 N 
ATOM     21  C   UNL d   1      13.425   3.803 -18.526  0.00  0.00     0.191 A 
ATOM     22  C   UNL d   1      10.943   3.716 -19.026  0.00  0.00     0.134 C 
ATOM     23  N   UNL d   1      14.530   3.083 -18.752  0.00  0.00    -0.126 NA
ATOM     24  N   UNL d   1      14.117   1.945 -19.399  0.00  0.00    -0.122 NA
BRANCH  21  25
ATOM     25  C   UNL d   1      13.477   5.089 -17.825  0.00  0.00     0.151 A 
ATOM     26  C   UNL d   1      14.523   5.876 -17.408  0.00  0.00     0.087 A 
ATOM     27  N   UNL d   1      14.004   7.023 -16.823  0.00  0.00    -0.221 NA
ATOM     28  C   UNL d   1      15.997   5.658 -17.528  0.00  0.00     0.054 C 
ATOM     29  C   UNL d   1      12.685   6.877 -16.915  0.00  0.00     0.225 A 
ATOM     30  O   UNL d   1      12.304   5.718 -17.508  0.00  0.00    -0.282 OA
ENDBRANCH  21  25
ENDBRANCH  18  19
ENDBRANCH  17  18
ENDBRANCH  16  17
ENDBRANCH  15  16
ENDBRANCH  12  15
BRANCH   1  31
ATOM     31  C   UNL d   1       9.618   6.712 -10.483  0.00  0.00     0.072 C 
ATOM     32  C   UNL d   1       9.697   6.146  -9.059  0.00  0.00     0.009 C 
ENDBRANCH   1  31
TORSDOF 7
