REMARK  7 active torsions:
REMARK  status: ('A' for Active; 'I' for Inactive)
REMARK    1  A    between atoms: O_2  and  C_3 
REMARK    2  A    between atoms: C_6  and  N_7 
REMARK    3  A    between atoms: N_10  and  C_11 
REMARK    4  A    between atoms: C_11  and  C_12 
REMARK    5  A    between atoms: C_12  and  N_13 
REMARK       I    between atoms: N_13  and  C_14 
REMARK    6  A    between atoms: C_14  and  C_16 
REMARK    7  A    between atoms: C_26  and  O_27 
ROOT
ATOM      1  C   UNL d   1       8.843   5.742 -12.166  0.00  0.00     0.164 C 
ENDROOT
BRANCH   1   2
ATOM      2  C   UNL d   1       9.144   5.191 -10.759  0.00  0.00     0.277 C 
BRANCH   2   3
ATOM      3  N   UNL d   1       9.073   6.259  -9.782  0.00  0.00     0.143 N 
ATOM      4  C   UNL d   1      10.314   7.048  -9.793  0.00  0.00     0.274 C 
ATOM      5  C   UNL d   1      10.235   8.227  -8.811  0.00  0.00     0.137 C 
ATOM      6  N   UNL d   1       9.913   7.732  -7.469  0.00  0.00    -0.344 N 
ATOM      7  C   UNL d   1       8.735   6.873  -7.410  0.00  0.00     0.137 C 
ATOM      8  C   UNL d   1       8.853   5.728  -8.436  0.00  0.00     0.274 C 
BRANCH   6   9
ATOM      9  C   UNL d   1      10.699   8.013  -6.355  0.00  0.00     0.056 A 
ATOM     10  C   UNL d   1      11.499   9.188  -6.265  0.00  0.00     0.019 A 
ATOM     11  C   UNL d   1      12.268   9.429  -5.114  0.00  0.00     0.026 A 
ATOM     12  C   UNL d   1      12.239   8.554  -4.010  0.00  0.00     0.094 A 
ATOM     13  C   UNL d   1      11.473   7.364  -4.112  0.00  0.00     0.026 A 
ATOM     14  C   UNL d   1      10.726   7.112  -5.263  0.00  0.00     0.019 A 
BRANCH  12  15
ATOM     15  O   UNL d   1      12.978   8.874  -2.894  0.00  0.00    -0.328 OA
ATOM     16  C   UNL d   1      12.686   8.172  -1.688  0.00  0.00     0.181 C 
ENDBRANCH  12  15
ENDBRANCH   6   9
ENDBRANCH   2   3
ENDBRANCH   1   2
BRANCH   1  17
ATOM     17  N   UNL d   1       8.861   4.673 -13.158  0.00  0.00    -0.232 NA
ATOM     18  C   UNL d   1       9.964   4.209 -13.766  0.00  0.00     0.277 C 
ATOM     19  O   UNL d   1      11.067   4.739 -13.614  0.00  0.00    -0.266 OA
BRANCH  18  20
ATOM     20  C   UNL d   1       9.764   3.026 -14.691  0.00  0.00     0.080 A 
ATOM     21  C   UNL d   1      10.787   2.569 -15.571  0.00  0.00     0.099 A 
ATOM     22  C   UNL d   1      10.557   1.455 -16.416  0.00  0.00     0.023 A 
ATOM     23  C   UNL d   1       9.307   0.782 -16.396  0.00  0.00     0.008 A 
ATOM     24  C   UNL d   1      11.564   1.009 -17.303  0.00  0.00     0.002 A 
ATOM     25  C   UNL d   1       8.301   1.223 -15.510  0.00  0.00     0.035 A 
ATOM     26  C   UNL d   1       9.089  -0.316 -17.256  0.00  0.00     0.001 A 
ATOM     27  C   UNL d   1       8.536   2.317 -14.668  0.00  0.00     0.013 A 
ATOM     28 BR   UNL d   1       6.592   0.387 -15.411  0.00  0.00    -0.049 Br
ATOM     29  C   UNL d   1      10.098  -0.745 -18.140  0.00  0.00     0.000 A 
ATOM     30  C   UNL d   1      11.336  -0.080 -18.164  0.00  0.00     0.000 A 
BRANCH  21  31
ATOM     31  O   UNL d   1      12.016   3.187 -15.605  0.00  0.00    -0.328 OA
ATOM     32  C   UNL d   1      12.107   4.234 -16.555  0.00  0.00     0.181 C 
ENDBRANCH  21  31
ENDBRANCH  18  20
ENDBRANCH   1  17
TORSDOF 7
