REMARK  7 active torsions:
REMARK  status: ('A' for Active; 'I' for Inactive)
REMARK    1  A    between atoms: C_5  and  C_6 
REMARK    2  A    between atoms: N_11  and  C_12 
REMARK    3  A    between atoms: C_12  and  C_13 
REMARK    4  A    between atoms: C_13  and  C_14 
REMARK    5  A    between atoms: C_14  and  C_15 
REMARK    6  A    between atoms: C_15  and  N_16 
REMARK    7  A    between atoms: N_19  and  C_20 
ROOT
ATOM      1  C   UNL d   1      14.271   5.160 -18.525  0.00  0.00     0.027 C 
ENDROOT
BRANCH   1   2
ATOM      2  C   UNL d   1      15.082   6.066 -17.574  0.00  0.00     0.112 C 
BRANCH   2   3
ATOM      3  N   UNL d   1      15.986   6.970 -18.296  0.00  0.00    -0.270 N 
ATOM      4  C   UNL d   1      15.577   7.882 -19.203  0.00  0.00     0.240 A 
ATOM      5  C   UNL d   1      16.754   8.594 -19.738  0.00  0.00     0.092 A 
ATOM      6  O   UNL d   1      14.417   8.111 -19.538  0.00  0.00    -0.272 OA
ATOM      7  C   UNL d   1      17.916   8.045 -18.968  0.00  0.00     0.099 A 
ATOM      8  C   UNL d   1      17.514   9.503 -18.799  0.00  0.00     0.024 A 
ATOM      9  C   UNL d   1      17.306   7.047 -18.050  0.00  0.00     0.243 A 
ATOM     10  O   UNL d   1      17.920   6.390 -17.206  0.00  0.00    -0.272 OA
BRANCH   7  11
ATOM     11  C   UNL d   1      19.186   7.681 -19.670  0.00  0.00    -0.014 A 
ATOM     12  C   UNL d   1      19.195   6.698 -20.683  0.00  0.00    -0.004 A 
ATOM     13  C   UNL d   1      20.397   6.356 -21.332  0.00  0.00    -0.005 A 
ATOM     14  C   UNL d   1      21.599   7.000 -20.978  0.00  0.00    -0.022 A 
ATOM     15  C   UNL d   1      22.890   6.622 -21.672  0.00  0.00     0.031 C 
ATOM     16  C   UNL d   1      21.594   7.982 -19.968  0.00  0.00    -0.005 A 
ATOM     17  C   UNL d   1      20.393   8.316 -19.314  0.00  0.00    -0.004 A 
ENDBRANCH   7  11
ENDBRANCH   2   3
ENDBRANCH   1   2
BRANCH   1  18
ATOM     18  C   UNL d   1      13.373   4.126 -17.830  0.00  0.00     0.037 C 
BRANCH  18  19
ATOM     19  C   UNL d   1      12.664   4.659 -16.570  0.00  0.00     0.251 C 
BRANCH  19  20
ATOM     20  N   UNL d   1      11.809   3.650 -15.959  0.00  0.00     0.141 N 
ATOM     21  C   UNL d   1      11.526   4.041 -14.573  0.00  0.00     0.274 C 
ATOM     22  C   UNL d   1      10.631   2.989 -13.887  0.00  0.00     0.137 C 
ATOM     23  N   UNL d   1       9.432   2.773 -14.681  0.00  0.00    -0.344 N 
ATOM     24  C   UNL d   1       9.642   2.481 -16.084  0.00  0.00     0.137 C 
ATOM     25  C   UNL d   1      10.548   3.556 -16.703  0.00  0.00     0.274 C 
BRANCH  23  26
ATOM     26  C   UNL d   1       8.143   2.821 -14.134  0.00  0.00     0.057 A 
ATOM     27  C   UNL d   1       7.261   1.712 -14.270  0.00  0.00     0.022 A 
ATOM     28  C   UNL d   1       5.972   1.828 -13.659  0.00  0.00     0.031 A 
ATOM     29  C   UNL d   1       7.459   0.412 -14.878  0.00  0.00     0.009 A 
ATOM     30  C   UNL d   1       5.572   2.999 -12.994  0.00  0.00     0.007 A 
ATOM     31  S   UNL d   1       5.054   0.347 -13.863  0.00  0.00    -0.086 SA
ATOM     32  C   UNL d   1       6.458   4.083 -12.884  0.00  0.00     0.002 A 
ATOM     33  C   UNL d   1       7.745   3.986 -13.442  0.00  0.00     0.017 A 
ATOM     34  C   UNL d   1       6.347  -0.380 -14.760  0.00  0.00     0.035 A 
ENDBRANCH  23  26
ENDBRANCH  19  20
ENDBRANCH  18  19
ENDBRANCH   1  18
TORSDOF 7
