REMARK  8 active torsions:
REMARK  status: ('A' for Active; 'I' for Inactive)
REMARK    1  A    between atoms: N_12  and  C_13 
REMARK    2  A    between atoms: C_13  and  C_14 
REMARK    3  A    between atoms: C_14  and  C_15 
REMARK    4  A    between atoms: C_15  and  C_16 
REMARK    5  A    between atoms: C_16  and  C_17 
REMARK    6  A    between atoms: C_17  and  C_18 
REMARK    7  A    between atoms: C_18  and  N_19 
REMARK    8  A    between atoms: N_22  and  C_23 
ROOT
ATOM      1  C   UNL d   1       9.761   5.356 -11.467  0.00  0.00     0.035 C 
ENDROOT
BRANCH   1   2
ATOM      2  C   UNL d   1       9.091   6.246 -10.425  0.00  0.00     0.002 C 
BRANCH   2   3
ATOM      3  C   UNL d   1      10.091   6.914  -9.470  0.00  0.00     0.002 C 
BRANCH   3   4
ATOM      4  C   UNL d   1       9.427   7.994  -8.589  0.00  0.00     0.025 C 
BRANCH   4   5
ATOM      5  C   UNL d   1      10.431   8.966  -7.944  0.00  0.00     0.122 C 
BRANCH   5   6
ATOM      6  N   UNL d   1      10.823   8.630  -6.577  0.00  0.00    -0.221 N 
ATOM      7  C   UNL d   1      11.337   9.570  -5.680  0.00  0.00     0.271 A 
ATOM      8  O   UNL d   1      11.458  10.781  -5.912  0.00  0.00    -0.266 OA
ATOM      9  C   UNL d   1      11.720   8.861  -4.417  0.00  0.00     0.069 A 
ATOM     10  C   UNL d   1      11.546   7.483  -4.458  0.00  0.00     0.108 A 
ATOM     11  C   UNL d   1      12.168   9.457  -3.227  0.00  0.00     0.005 A 
ATOM     12  C   UNL d   1      11.789   6.652  -3.369  0.00  0.00     0.013 A 
ATOM     13  S   UNL d   1      10.863   7.029  -5.995  0.00  0.00     0.270 S 
ATOM     14  C   UNL d   1      12.262   7.235  -2.186  0.00  0.00     0.001 A 
ATOM     15  C   UNL d   1      12.472   8.634  -2.120  0.00  0.00     0.000 A 
ATOM     16  O   UNL d   1      11.851   6.256  -6.763  0.00  0.00    -0.200 OA
ATOM     17  O   UNL d   1       9.483   6.593  -5.802  0.00  0.00    -0.200 OA
ENDBRANCH   5   6
ENDBRANCH   4   5
ENDBRANCH   3   4
ENDBRANCH   2   3
ENDBRANCH   1   2
BRANCH   1  18
ATOM     18  C   UNL d   1       8.829   4.982 -12.619  0.00  0.00     0.250 C 
BRANCH  18  19
ATOM     19  N   UNL d   1       9.568   4.312 -13.691  0.00  0.00     0.141 N 
ATOM     20  C   UNL d   1       9.685   2.880 -13.380  0.00  0.00     0.274 C 
ATOM     21  C   UNL d   1      10.414   2.107 -14.500  0.00  0.00     0.137 C 
ATOM     22  N   UNL d   1       9.745   2.343 -15.768  0.00  0.00    -0.344 N 
ATOM     23  C   UNL d   1       9.507   3.733 -16.107  0.00  0.00     0.137 C 
ATOM     24  C   UNL d   1       8.802   4.434 -14.932  0.00  0.00     0.274 C 
BRANCH  22  25
ATOM     25  C   UNL d   1       9.380   1.304 -16.628  0.00  0.00     0.056 A 
ATOM     26  C   UNL d   1      10.264   0.798 -17.620  0.00  0.00     0.015 A 
ATOM     27  C   UNL d   1       9.838  -0.266 -18.461  0.00  0.00     0.001 A 
ATOM     28  C   UNL d   1      11.562   1.330 -17.796  0.00  0.00     0.001 A 
ATOM     29  C   UNL d   1       8.546  -0.810 -18.327  0.00  0.00     0.000 A 
ATOM     30  C   UNL d   1      10.701  -0.782 -19.445  0.00  0.00     0.000 A 
ATOM     31  C   UNL d   1       7.673  -0.296 -17.354  0.00  0.00     0.002 A 
ATOM     32  C   UNL d   1       8.086   0.749 -16.512  0.00  0.00     0.017 A 
ATOM     33  C   UNL d   1      11.996  -0.255 -19.605  0.00  0.00     0.000 A 
ATOM     34  C   UNL d   1      12.423   0.810 -18.785  0.00  0.00     0.000 A 
ENDBRANCH  22  25
ENDBRANCH  18  19
ENDBRANCH   1  18
TORSDOF 8
