REMARK  7 active torsions:
REMARK  status: ('A' for Active; 'I' for Inactive)
REMARK    1  A    between atoms: S_2  and  N_4 
REMARK    2  A    between atoms: S_2  and  C_24 
REMARK    3  A    between atoms: N_4  and  C_5 
REMARK    4  A    between atoms: C_5  and  C_6 
REMARK    5  A    between atoms: C_6  and  C_7 
REMARK    6  A    between atoms: C_7  and  N_8 
REMARK    7  A    between atoms: C_11  and  C_12 
ROOT
ATOM      1  N   UNL d   1       9.778   5.653  -9.633  0.00  0.00     0.142 N 
ATOM      2  C   UNL d   1       9.925   7.034 -10.125  0.00  0.00     0.276 C 
ATOM      3  C   UNL d   1      10.494   7.957  -9.100  0.00  0.00     0.005 C 
ATOM      4  C   UNL d   1      10.547   7.638  -7.805  0.00  0.00    -0.021 C 
ATOM      5  C   UNL d   1      10.053   6.311  -7.316  0.00  0.00     0.061 C 
ATOM      6  C   UNL d   1       9.127   5.662  -8.328  0.00  0.00     0.255 C 
ENDROOT
BRANCH   1   7
ATOM      7  C   UNL d   1       8.952   4.903 -10.553  0.00  0.00     0.253 C 
BRANCH   7   8
ATOM      8  C   UNL d   1       9.776   4.437 -11.761  0.00  0.00     0.062 C 
BRANCH   8   9
ATOM      9  C   UNL d   1       8.940   3.871 -12.881  0.00  0.00     0.141 C 
BRANCH   9  10
ATOM     10  N   UNL d   1       9.736   2.910 -13.667  0.00  0.00    -0.185 NA
BRANCH  10  11
ATOM     11  S   UNL d   1       9.642   2.881 -15.392  0.00  0.00     0.281 S 
ATOM     12  O   UNL d   1       9.438   4.272 -15.826  0.00  0.00    -0.199 OA
ATOM     13  O   UNL d   1      10.793   2.110 -15.894  0.00  0.00    -0.199 OA
BRANCH  11  14
ATOM     14  C   UNL d   1       8.159   1.894 -15.706  0.00  0.00     0.106 A 
ATOM     15  C   UNL d   1       7.263   1.543 -14.670  0.00  0.00     0.024 A 
ATOM     16  C   UNL d   1       6.149   0.729 -14.933  0.00  0.00     0.059 A 
ATOM     17  C   UNL d   1       5.918   0.241 -16.233  0.00  0.00     0.011 A 
ATOM     18 CL   UNL d   1       5.065   0.370 -13.643  0.00  0.00    -0.082 Cl
ATOM     19  C   UNL d   1       6.819   0.579 -17.267  0.00  0.00     0.002 A 
ATOM     20  C   UNL d   1       7.940   1.404 -17.011  0.00  0.00     0.013 A 
ENDBRANCH  11  14
ENDBRANCH  10  11
ENDBRANCH   9  10
ENDBRANCH   8   9
ENDBRANCH   7   8
ENDBRANCH   1   7
BRANCH   4  21
ATOM     21  C   UNL d   1      11.077   8.546  -6.822  0.00  0.00     0.017 A 
ATOM     22  C   UNL d   1      11.413   8.277  -5.445  0.00  0.00     0.020 A 
ATOM     23  C   UNL d   1      11.933   9.495  -4.945  0.00  0.00     0.082 A 
ATOM     24  C   UNL d   1      11.429   7.153  -4.546  0.00  0.00     0.013 A 
ATOM     25  N   UNL d   1      11.894  10.421  -5.962  0.00  0.00    -0.244 NA
ATOM     26  C   UNL d   1      12.461   9.593  -3.641  0.00  0.00     0.020 A 
ATOM     27  C   UNL d   1      11.457   9.822  -7.130  0.00  0.00     0.099 A 
ATOM     28  C   UNL d   1      12.416   8.548  -2.781  0.00  0.00     0.013 A 
ATOM     29  C   UNL d   1      11.947   7.339  -3.212  0.00  0.00     0.058 A 
ATOM     30 CL   UNL d   1      12.152   6.181  -2.042  0.00  0.00    -0.082 Cl
ENDBRANCH   4  21
TORSDOF 7
