REMARK  6 active torsions:
REMARK  status: ('A' for Active; 'I' for Inactive)
REMARK    1  A    between atoms: C_2  and  C_3 
REMARK    2  A    between atoms: C_8  and  C_9 
REMARK    3  A    between atoms: C_12  and  C_13 
REMARK       I    between atoms: C_13  and  N_15 
REMARK    4  A    between atoms: N_15  and  C_16 
REMARK    5  A    between atoms: N_19  and  C_20 
REMARK    6  A    between atoms: C_20  and  C_21 
ROOT
ATOM      1  C   UNL d   1       9.059   6.679 -11.533  0.00  0.00     0.275 C 
ATOM      2  O   UNL d   1       9.395   7.433 -12.437  0.00  0.00    -0.266 OA
ATOM      3  N   UNL d   1       8.310   5.586 -11.712  0.00  0.00    -0.234 NA
ENDROOT
BRANCH   1   4
ATOM      4  C   UNL d   1       9.592   6.894 -10.145  0.00  0.00     0.058 A 
ATOM      5  C   UNL d   1       9.008   6.269  -9.028  0.00  0.00     0.005 A 
ATOM      6  C   UNL d   1       9.451   6.565  -7.728  0.00  0.00     0.000 A 
ATOM      7  C   UNL d   1      10.517   7.459  -7.513  0.00  0.00     0.000 A 
ATOM      8  C   UNL d   1      11.122   8.067  -8.639  0.00  0.00     0.000 A 
ATOM      9  C   UNL d   1      10.642   7.812  -9.940  0.00  0.00     0.005 A 
BRANCH   7  10
ATOM     10  C   UNL d   1      10.979   7.727  -6.121  0.00  0.00     0.003 A 
ATOM     11  C   UNL d   1      11.271   9.007  -5.586  0.00  0.00     0.042 A 
ATOM     12  C   UNL d   1      11.746   9.169  -4.256  0.00  0.00     0.003 A 
ATOM     13  C   UNL d   1      11.938   8.043  -3.444  0.00  0.00     0.000 A 
ATOM     14  C   UNL d   1      11.655   6.778  -3.964  0.00  0.00     0.000 A 
ATOM     15  C   UNL d   1      11.198   6.639  -5.279  0.00  0.00     0.000 A 
BRANCH  11  16
ATOM     16  C   UNL d   1      11.090  10.192  -6.411  0.00  0.00     0.234 C 
ATOM     17  O   UNL d   1      11.856  11.148  -6.422  0.00  0.00    -0.283 OA
ENDBRANCH  11  16
ENDBRANCH   7  10
ENDBRANCH   1   4
BRANCH   3  18
ATOM     18  C   UNL d   1       7.864   5.024 -12.984  0.00  0.00     0.142 C 
ATOM     19  C   UNL d   1       8.595   3.705 -13.269  0.00  0.00     0.275 C 
ATOM     20  N   UNL d   1       7.621   2.922 -14.029  0.00  0.00     0.143 N 
ATOM     21  C   UNL d   1       6.347   3.166 -13.332  0.00  0.00     0.253 C 
ATOM     22  C   UNL d   1       6.381   4.646 -12.962  0.00  0.00     0.062 C 
BRANCH  20  23
ATOM     23  C   UNL d   1       8.010   1.508 -14.104  0.00  0.00     0.277 C 
BRANCH  23  24
ATOM     24  C   UNL d   1       7.779   0.894 -15.450  0.00  0.00     0.011 A 
ATOM     25  C   UNL d   1       6.476   0.532 -15.851  0.00  0.00    -0.002 A 
ATOM     26  C   UNL d   1       6.277  -0.056 -17.111  0.00  0.00    -0.000 A 
ATOM     27  C   UNL d   1       7.379  -0.289 -17.958  0.00  0.00    -0.000 A 
ATOM     28  C   UNL d   1       8.683   0.058 -17.546  0.00  0.00    -0.000 A 
ATOM     29  C   UNL d   1       8.882   0.649 -16.286  0.00  0.00    -0.002 A 
ENDBRANCH  23  24
ENDBRANCH  20  23
ENDBRANCH   3  18
TORSDOF 6
