REMARK  4 active torsions:
REMARK  status: ('A' for Active; 'I' for Inactive)
REMARK    1  A    between atoms: C_6  and  N_7 
REMARK    2  A    between atoms: N_10  and  C_11 
REMARK    3  A    between atoms: C_11  and  C_12 
REMARK    4  A    between atoms: C_12  and  N_13 
ROOT
ATOM      1  N   UNL d   1       7.793   4.503 -13.211  0.00  0.00    -0.280 N 
ATOM      2  C   UNL d   1       6.494   4.887 -12.677  0.00  0.00     0.135 A 
ATOM      3  C   UNL d   1       6.760   6.236 -12.018  0.00  0.00     0.131 A 
ATOM      4  N   UNL d   1       8.157   6.465 -12.328  0.00  0.00    -0.298 N 
ATOM      5  C   UNL d   1       8.720   5.459 -12.986  0.00  0.00     0.328 A 
ATOM      6  O   UNL d   1       9.905   5.445 -13.342  0.00  0.00    -0.247 OA
ENDROOT
BRANCH   4   7
ATOM      7  C   UNL d   1       8.854   7.671 -11.882  0.00  0.00     0.141 C 
BRANCH   7   8
ATOM      8  C   UNL d   1       9.414   7.385 -10.491  0.00  0.00     0.274 C 
BRANCH   8   9
ATOM      9  N   UNL d   1       9.889   8.589  -9.790  0.00  0.00     0.139 N 
ATOM     10  C   UNL d   1      11.257   8.941 -10.127  0.00  0.00     0.250 C 
ATOM     11  C   UNL d   1      12.296   7.906  -9.683  0.00  0.00     0.035 C 
ATOM     12  C   UNL d   1      12.552   8.017  -8.176  0.00  0.00     0.002 C 
ATOM     13  C   UNL d   1      11.573   7.325  -7.220  0.00  0.00     0.002 C 
ATOM     14  C   UNL d   1      10.110   7.273  -7.657  0.00  0.00     0.035 C 
ATOM     15  C   UNL d   1       9.627   8.565  -8.347  0.00  0.00     0.250 C 
ENDBRANCH   8   9
ENDBRANCH   7   8
ENDBRANCH   4   7
BRANCH   1  16
ATOM     16  C   UNL d   1       8.002   3.273 -13.947  0.00  0.00     0.064 A 
ATOM     17  C   UNL d   1       6.902   2.614 -14.537  0.00  0.00     0.017 A 
ATOM     18  C   UNL d   1       7.091   1.425 -15.277  0.00  0.00     0.001 A 
ATOM     19  C   UNL d   1       8.380   0.871 -15.412  0.00  0.00    -0.004 A 
ATOM     20  C   UNL d   1       9.478   1.520 -14.800  0.00  0.00    -0.020 A 
ATOM     21  C   UNL d   1      10.874   0.955 -14.894  0.00  0.00     0.031 C 
ATOM     22  C   UNL d   1       9.277   2.696 -14.064  0.00  0.00     0.013 A 
ENDBRANCH   1  16
TORSDOF 4
