REMARK  4 active torsions:
REMARK  status: ('A' for Active; 'I' for Inactive)
REMARK    1  A    between atoms: O_2  and  C_3 
REMARK    2  A    between atoms: C_8  and  N_9 
REMARK    3  A    between atoms: N_9  and  C_10 
REMARK    4  A    between atoms: C_12  and  N_13 
ROOT
ATOM      1  C   UNL d   1       8.147   4.101 -13.462  0.00  0.00     0.182 A 
ATOM      2  N   UNL d   1       9.345   4.354 -14.036  0.00  0.00    -0.042 NA
ATOM      3  C   UNL d   1       9.787   3.510 -14.973  0.00  0.00     0.729 A 
ATOM      4  N   UNL d   1       9.139   2.421 -15.394  0.00  0.00    -0.061 NA
ATOM      5  C   UNL d   1       7.947   2.133 -14.836  0.00  0.00     0.103 A 
ATOM      6  C   UNL d   1       7.248   0.975 -15.223  0.00  0.00     0.020 A 
ATOM      7  C   UNL d   1       6.018   0.638 -14.630  0.00  0.00     0.002 A 
ATOM      8  C   UNL d   1       5.467   1.473 -13.635  0.00  0.00     0.000 A 
ATOM      9  C   UNL d   1       6.128   2.659 -13.262  0.00  0.00     0.005 A 
ATOM     10  C   UNL d   1       7.373   2.985 -13.856  0.00  0.00     0.055 A 
ENDROOT
BRANCH   1  11
ATOM     11  N   UNL d   1       7.719   4.959 -12.441  0.00  0.00    -0.224 NA
BRANCH  11  12
ATOM     12  C   UNL d   1       8.461   5.988 -11.856  0.00  0.00     0.105 A 
ATOM     13  C   UNL d   1       9.189   5.775 -10.664  0.00  0.00     0.112 A 
ATOM     14  C   UNL d   1       9.880   6.868 -10.082  0.00  0.00     0.026 A 
ATOM     15  C   UNL d   1       9.859   8.139 -10.686  0.00  0.00     0.002 A 
ATOM     16  C   UNL d   1       9.114   8.336 -11.869  0.00  0.00     0.002 A 
ATOM     17  C   UNL d   1       8.404   7.262 -12.431  0.00  0.00     0.021 A 
BRANCH  13  18
ATOM     18  O   UNL d   1       9.168   4.508 -10.137  0.00  0.00    -0.327 OA
ATOM     19  C   UNL d   1       9.466   4.364  -8.764  0.00  0.00     0.181 C 
ENDBRANCH  13  18
ENDBRANCH  11  12
ENDBRANCH   1  11
BRANCH   3  20
ATOM     20  N   UNL d   1      11.008   3.802 -15.586  0.00  0.00    -0.178 N 
ATOM     21  C   UNL d   1      11.714   2.874 -16.475  0.00  0.00     0.158 C 
ATOM     22  C   UNL d   1      12.050   3.558 -17.810  0.00  0.00     0.315 C 
ATOM     23  N   UNL d   1      12.848   4.759 -17.582  0.00  0.00     0.343 N 
ATOM     24  C   UNL d   1      12.064   5.692 -16.778  0.00  0.00     0.315 C 
ATOM     25  C   UNL d   1      11.722   5.071 -15.411  0.00  0.00     0.158 C 
ENDBRANCH   3  20
TORSDOF 4
