REMARK  7 active torsions:
REMARK  status: ('A' for Active; 'I' for Inactive)
REMARK       I    between atoms: C_2  and  N_3 
REMARK    1  A    between atoms: C_2  and  C_20 
REMARK    2  A    between atoms: N_3  and  C_4 
REMARK    3  A    between atoms: C_4  and  C_5 
REMARK    4  A    between atoms: C_5  and  C_6 
REMARK    5  A    between atoms: C_6  and  C_7 
REMARK    6  A    between atoms: C_7  and  N_8 
REMARK    7  A    between atoms: N_11  and  C_12 
ROOT
ATOM      1  C   UNL d   1       7.319   4.680 -11.846  0.00  0.00     0.029 C 
ENDROOT
BRANCH   1   2
ATOM      2  C   UNL d   1       7.351   4.809 -13.367  0.00  0.00     0.129 C 
BRANCH   2   3
ATOM      3  N   UNL d   1       8.293   3.910 -14.022  0.00  0.00    -0.233 NA
ATOM      4  C   UNL d   1       9.594   4.146 -14.254  0.00  0.00     0.293 C 
ATOM      5  O   UNL d   1      10.200   5.139 -13.834  0.00  0.00    -0.264 OA
BRANCH   4   6
ATOM      6  C   UNL d   1      10.238   3.216 -15.244  0.00  0.00     0.139 A 
ATOM      7  N   UNL d   1      11.407   3.638 -15.780  0.00  0.00    -0.239 NA
ATOM      8  C   UNL d   1      12.028   2.871 -16.693  0.00  0.00     0.099 A 
ATOM      9  C   UNL d   1      11.528   1.627 -17.114  0.00  0.00     0.019 A 
ATOM     10  C   UNL d   1      10.318   1.172 -16.541  0.00  0.00     0.003 A 
ATOM     11  C   UNL d   1      12.210   0.838 -18.058  0.00  0.00     0.002 A 
ATOM     12  C   UNL d   1       9.659   1.970 -15.593  0.00  0.00     0.024 A 
ATOM     13  C   UNL d   1       9.784  -0.069 -16.926  0.00  0.00     0.000 A 
ATOM     14  C   UNL d   1      10.463  -0.861 -17.871  0.00  0.00     0.000 A 
ATOM     15  C   UNL d   1      11.677  -0.412 -18.433  0.00  0.00     0.000 A 
ENDBRANCH   4   6
ENDBRANCH   2   3
ENDBRANCH   1   2
BRANCH   1  16
ATOM     16  C   UNL d   1       8.431   5.500 -11.181  0.00  0.00     0.037 C 
BRANCH  16  17
ATOM     17  C   UNL d   1       8.284   5.537  -9.677  0.00  0.00     0.251 C 
BRANCH  17  18
ATOM     18  N   UNL d   1       9.516   6.027  -9.063  0.00  0.00     0.141 N 
ATOM     19  C   UNL d   1       9.506   5.606  -7.672  0.00  0.00     0.274 C 
ATOM     20  C   UNL d   1      10.813   6.011  -6.971  0.00  0.00     0.137 C 
ATOM     21  N   UNL d   1      11.006   7.452  -7.056  0.00  0.00    -0.344 N 
ATOM     22  C   UNL d   1      10.880   7.976  -8.425  0.00  0.00     0.137 C 
ATOM     23  C   UNL d   1       9.563   7.488  -9.067  0.00  0.00     0.274 C 
BRANCH  21  24
ATOM     24  C   UNL d   1      11.177   8.223  -5.905  0.00  0.00     0.056 A 
ATOM     25  C   UNL d   1      10.823   9.589  -5.902  0.00  0.00     0.017 A 
ATOM     26  C   UNL d   1      11.036  10.388  -4.766  0.00  0.00     0.002 A 
ATOM     27  C   UNL d   1      11.576   9.830  -3.596  0.00  0.00     0.000 A 
ATOM     28  C   UNL d   1      11.932   8.478  -3.562  0.00  0.00     0.002 A 
ATOM     29  C   UNL d   1      11.724   7.678  -4.705  0.00  0.00     0.017 A 
ENDBRANCH  21  24
ENDBRANCH  17  18
ENDBRANCH  16  17
ENDBRANCH   1  16
TORSDOF 7
