REMARK  6 active torsions:
REMARK  status: ('A' for Active; 'I' for Inactive)
REMARK    1  A    between atoms: N_2  and  C_4 
REMARK    2  A    between atoms: C_7  and  C_8 
REMARK    3  A    between atoms: C_8  and  C_9 
REMARK    4  A    between atoms: C_9  and  N_10 
REMARK    5  A    between atoms: N_13  and  C_14 
REMARK    6  A    between atoms: C_23  and  N_24 
ROOT
ATOM      1  C   UNL d   1       8.323   6.191 -11.177  0.00  0.00     0.062 C 
ENDROOT
BRANCH   1   2
ATOM      2  C   UNL d   1       8.300   5.114 -12.251  0.00  0.00    -0.018 A 
ATOM      3  C   UNL d   1       7.078   4.571 -12.665  0.00  0.00    -0.002 A 
ATOM      4  C   UNL d   1       7.056   3.576 -13.653  0.00  0.00     0.025 A 
ATOM      5  C   UNL d   1       8.245   3.095 -14.244  0.00  0.00     0.148 A 
ATOM      6  C   UNL d   1       9.498   3.620 -13.797  0.00  0.00     0.148 A 
ATOM      7  C   UNL d   1       9.489   4.630 -12.822  0.00  0.00     0.021 A 
BRANCH   5   8
ATOM      8  N   UNL d   1       8.123   2.101 -15.320  0.00  0.00    -0.112 N 
ATOM      9  O   UNL d   1       7.181   1.311 -15.264  0.00  0.00    -0.532 OA
ATOM     10  O   UNL d   1       8.911   2.155 -16.247  0.00  0.00    -0.532 OA
ENDBRANCH   5   8
BRANCH   6  11
ATOM     11  N   UNL d   1      10.818   3.151 -14.264  0.00  0.00    -0.112 N 
ATOM     12  O   UNL d   1      11.751   3.958 -14.229  0.00  0.00    -0.532 OA
ATOM     13  O   UNL d   1      10.948   1.988 -14.590  0.00  0.00    -0.532 OA
ENDBRANCH   6  11
ENDBRANCH   1   2
BRANCH   1  14
ATOM     14  C   UNL d   1       9.688   6.334 -10.473  0.00  0.00     0.255 C 
BRANCH  14  15
ATOM     15  N   UNL d   1       9.685   7.277  -9.361  0.00  0.00     0.141 N 
ATOM     16  C   UNL d   1      11.053   7.728  -9.088  0.00  0.00     0.274 C 
ATOM     17  C   UNL d   1      11.069   8.738  -7.926  0.00  0.00     0.137 C 
ATOM     18  N   UNL d   1      10.409   8.175  -6.761  0.00  0.00    -0.344 N 
ATOM     19  C   UNL d   1       9.098   7.585  -6.982  0.00  0.00     0.137 C 
ATOM     20  C   UNL d   1       9.145   6.609  -8.169  0.00  0.00     0.274 C 
BRANCH  18  21
ATOM     21  C   UNL d   1      11.063   8.101  -5.519  0.00  0.00     0.056 A 
ATOM     22  C   UNL d   1      11.152   6.872  -4.836  0.00  0.00     0.017 A 
ATOM     23  C   UNL d   1      11.800   6.801  -3.582  0.00  0.00     0.002 A 
ATOM     24  C   UNL d   1      12.341   7.961  -3.005  0.00  0.00     0.000 A 
ATOM     25  C   UNL d   1      12.259   9.184  -3.691  0.00  0.00     0.002 A 
ATOM     26  C   UNL d   1      11.630   9.256  -4.951  0.00  0.00     0.017 A 
ENDBRANCH  18  21
ENDBRANCH  14  15
ENDBRANCH   1  14
TORSDOF 6
