REMARK  8 active torsions:
REMARK  status: ('A' for Active; 'I' for Inactive)
REMARK    1  A    between atoms: C_4  and  O_5 
REMARK    2  A    between atoms: O_5  and  C_6 
REMARK    3  A    between atoms: C_6  and  C_7 
REMARK    4  A    between atoms: C_7  and  C_8 
REMARK    5  A    between atoms: C_8  and  N_9 
REMARK    6  A    between atoms: C_12  and  C_13 
REMARK    7  A    between atoms: C_27  and  C_28 
REMARK    8  A    between atoms: C_28  and  N_29 
ROOT
ATOM      1  C   UNL d   1       9.354   5.421 -13.609  0.00  0.00     0.253 C 
ENDROOT
BRANCH   1   2
ATOM      2  C   UNL d   1       9.066   4.978 -12.174  0.00  0.00     0.068 C 
BRANCH   2   3
ATOM      3  C   UNL d   1       9.573   6.054 -11.206  0.00  0.00     0.151 C 
BRANCH   3   4
ATOM      4  O   UNL d   1       9.271   5.616  -9.898  0.00  0.00    -0.331 OA
BRANCH   4   5
ATOM      5  C   UNL d   1       9.721   6.401  -8.865  0.00  0.00     0.094 A 
ATOM      6  C   UNL d   1      10.740   7.375  -8.951  0.00  0.00     0.020 A 
ATOM      7  C   UNL d   1      11.151   8.062  -7.798  0.00  0.00    -0.022 A 
ATOM      8  C   UNL d   1      12.226   9.089  -7.896  0.00  0.00     0.031 C 
ATOM      9  C   UNL d   1      10.545   7.834  -6.550  0.00  0.00     0.007 A 
ATOM     10  C   UNL d   1       9.511   6.879  -6.475  0.00  0.00    -0.001 A 
ATOM     11  C   UNL d   1       9.109   6.169  -7.618  0.00  0.00     0.024 A 
BRANCH   9  12
ATOM     12  C   UNL d   1      10.990   8.622  -5.329  0.00  0.00     0.276 C 
BRANCH  12  13
ATOM     13  N   UNL d   1      11.222   7.803  -4.161  0.00  0.00     0.141 N 
ATOM     14  C   UNL d   1      12.211   6.775  -4.225  0.00  0.00     0.251 C 
ATOM     15  C   UNL d   1      12.441   6.341  -2.808  0.00  0.00     0.037 C 
ATOM     16  C   UNL d   1      11.978   7.509  -1.991  0.00  0.00     0.037 C 
ATOM     17  C   UNL d   1      11.577   8.582  -2.991  0.00  0.00     0.251 C 
ENDBRANCH  12  13
ENDBRANCH   9  12
ENDBRANCH   4   5
ENDBRANCH   3   4
ENDBRANCH   2   3
ENDBRANCH   1   2
BRANCH   1  18
ATOM     18  N   UNL d   1       9.784   4.343 -14.499  0.00  0.00     0.137 N 
ATOM     19  C   UNL d   1       9.704   4.757 -15.909  0.00  0.00     0.251 C 
ATOM     20  C   UNL d   1      10.053   3.577 -16.842  0.00  0.00     0.041 C 
ATOM     21  C   UNL d   1      11.457   3.034 -16.548  0.00  0.00     0.047 C 
ATOM     22  C   UNL d   1      11.608   2.795 -15.040  0.00  0.00     0.041 C 
ATOM     23  C   UNL d   1      11.178   3.996 -14.210  0.00  0.00     0.251 C 
BRANCH  21  24
ATOM     24  C   UNL d   1      11.777   1.799 -17.343  0.00  0.00     0.087 A 
ATOM     25  C   UNL d   1      12.750   1.562 -18.368  0.00  0.00     0.041 A 
ATOM     26  C   UNL d   1      12.646   0.228 -18.784  0.00  0.00     0.129 A 
ATOM     27  C   UNL d   1      13.725   2.397 -18.938  0.00  0.00     0.006 A 
ATOM     28  O   UNL d   1      11.626  -0.320 -18.044  0.00  0.00    -0.211 OA
ATOM     29  C   UNL d   1      13.484  -0.334 -19.761  0.00  0.00     0.057 A 
ATOM     30  N   UNL d   1      11.106   0.660 -17.149  0.00  0.00    -0.131 NA
ATOM     31  C   UNL d   1      14.450   0.500 -20.347  0.00  0.00     0.142 A 
ATOM     32  F   UNL d   1      15.286   0.001 -21.296  0.00  0.00    -0.204 F 
ATOM     33  C   UNL d   1      14.576   1.859 -19.948  0.00  0.00     0.030 A 
ENDBRANCH  21  24
ENDBRANCH   1  18
TORSDOF 8
