REMARK  2 active torsions:
REMARK  status: ('A' for Active; 'I' for Inactive)
REMARK    1  A    between atoms: C_5  and  C_6 
REMARK    2  A    between atoms: C_6  and  N_7 
ROOT
ATOM      1  N   UNL d   1       9.092   2.050 -15.884  0.00  0.00     0.137 N 
ATOM      2  C   UNL d   1      10.276   1.454 -15.266  0.00  0.00     0.220 C 
ATOM      3  C   UNL d   1      10.744   2.511 -14.240  0.00  0.00     0.035 C 
ATOM      4  C   UNL d   1      10.331   3.820 -14.909  0.00  0.00     0.035 C 
ATOM      5  C   UNL d   1       9.723   3.320 -16.227  0.00  0.00     0.220 C 
ATOM      6  C   UNL d   1      10.827   2.795 -17.156  0.00  0.00     0.035 C 
ATOM      7  C   UNL d   1      11.218   1.476 -16.480  0.00  0.00     0.035 C 
ENDROOT
BRANCH   1   8
ATOM      8  C   UNL d   1       7.915   2.122 -15.015  0.00  0.00     0.278 C 
BRANCH   8   9
ATOM      9  C   UNL d   1       6.986   0.939 -15.201  0.00  0.00     0.030 A 
ATOM     10  C   UNL d   1       6.292   0.771 -16.416  0.00  0.00     0.097 A 
ATOM     11  N   UNL d   1       5.419  -0.232 -16.643  0.00  0.00    -0.243 NA
ATOM     12  C   UNL d   1       5.213  -1.124 -15.652  0.00  0.00     0.099 A 
ATOM     13  C   UNL d   1       5.858  -1.046 -14.402  0.00  0.00     0.020 A 
ATOM     14  C   UNL d   1       6.770   0.002 -14.174  0.00  0.00     0.001 A 
ENDBRANCH   8   9
ENDBRANCH   1   8
TORSDOF 2
