REMARK  6 active torsions:
REMARK  status: ('A' for Active; 'I' for Inactive)
REMARK    1  A    between atoms: C_5  and  S_6 
REMARK    2  A    between atoms: S_6  and  C_7 
REMARK    3  A    between atoms: C_12  and  N_13 
REMARK    4  A    between atoms: N_16  and  C_17 
REMARK    5  A    between atoms: C_17  and  C_18 
REMARK    6  A    between atoms: C_18  and  C_19 
ROOT
ATOM      1  N   UNL d   1       8.140   4.811 -12.325  0.00  0.00    -0.344 N 
ATOM      2  C   UNL d   1       9.242   3.885 -12.494  0.00  0.00     0.137 C 
ATOM      3  C   UNL d   1       9.092   3.134 -13.830  0.00  0.00     0.274 C 
ATOM      4  N   UNL d   1       7.767   2.511 -13.956  0.00  0.00     0.141 N 
ATOM      5  C   UNL d   1       6.691   3.498 -13.800  0.00  0.00     0.274 C 
ATOM      6  C   UNL d   1       6.792   4.270 -12.467  0.00  0.00     0.137 C 
ENDROOT
BRANCH   1   7
ATOM      7  C   UNL d   1       8.375   6.144 -11.970  0.00  0.00     0.062 A 
ATOM      8  C   UNL d   1       9.259   6.560 -10.931  0.00  0.00     0.045 A 
ATOM      9  C   UNL d   1       9.524   7.959 -10.764  0.00  0.00     0.008 A 
ATOM     10  C   UNL d   1       8.898   8.915 -11.568  0.00  0.00     0.001 A 
ATOM     11  C   UNL d   1       7.954   8.465 -12.448  0.00  0.00     0.002 A 
ATOM     12  C   UNL d   1       7.692   7.124 -12.682  0.00  0.00     0.017 A 
BRANCH   8  13
ATOM     13  S   UNL d   1       9.849   5.381  -9.774  0.00  0.00    -0.086 SA
BRANCH  13  14
ATOM     14  C   UNL d   1      10.232   6.424  -8.412  0.00  0.00     0.025 A 
ATOM     15  C   UNL d   1      11.406   7.202  -8.406  0.00  0.00     0.006 A 
ATOM     16  C   UNL d   1      11.751   7.983  -7.287  0.00  0.00    -0.004 A 
ATOM     17  C   UNL d   1      10.906   7.982  -6.165  0.00  0.00    -0.022 A 
ATOM     18  C   UNL d   1      11.267   8.817  -4.960  0.00  0.00     0.031 C 
ATOM     19  C   UNL d   1       9.731   7.199  -6.185  0.00  0.00    -0.008 A 
ATOM     20  C   UNL d   1       9.373   6.441  -7.311  0.00  0.00    -0.016 A 
ATOM     21  C   UNL d   1       8.113   5.614  -7.378  0.00  0.00     0.032 C 
ENDBRANCH  13  14
ENDBRANCH   8  13
ENDBRANCH   1   7
BRANCH   4  22
ATOM     22  C   UNL d   1       7.669   1.732 -15.174  0.00  0.00     0.255 C 
BRANCH  22  23
ATOM     23  C   UNL d   1       6.909   0.403 -14.959  0.00  0.00     0.068 C 
BRANCH  23  24
ATOM     24  C   UNL d   1       6.438  -0.210 -16.285  0.00  0.00     0.050 A 
ATOM     25  C   UNL d   1       7.414  -0.314 -17.397  0.00  0.00     0.259 A 
ATOM     26  N   UNL d   1       6.926  -0.771 -18.582  0.00  0.00    -0.283 N 
ATOM     27  O   UNL d   1       8.608  -0.028 -17.281  0.00  0.00    -0.267 OA
ATOM     28  C   UNL d   1       5.587  -1.198 -18.701  0.00  0.00     0.153 A 
ATOM     29  C   UNL d   1       7.809  -0.894 -19.760  0.00  0.00     0.111 C 
ATOM     30  N   UNL d   1       4.752  -1.164 -17.716  0.00  0.00    -0.234 NA
ATOM     31  C   UNL d   1       5.170  -1.661 -20.100  0.00  0.00     0.208 C 
ATOM     32  C   UNL d   1       5.165  -0.659 -16.481  0.00  0.00     0.061 A 
ATOM     33  C   UNL d   1       4.091  -0.633 -15.405  0.00  0.00     0.052 C 
ATOM     34  C   UNL d   1       5.720  -0.768 -21.232  0.00  0.00     0.043 C 
ATOM     35  O   UNL d   1       5.578  -3.001 -20.307  0.00  0.00    -0.215 OA
ATOM     36  C   UNL d   1       7.164  -0.283 -21.011  0.00  0.00     0.028 C 
ENDBRANCH  23  24
ENDBRANCH  22  23
ENDBRANCH   4  22
TORSDOF 6
