REMARK  6 active torsions:
REMARK  status: ('A' for Active; 'I' for Inactive)
REMARK    1  A    between atoms: C_2  and  C_3 
REMARK    2  A    between atoms: N_12  and  C_13 
REMARK    3  A    between atoms: C_13  and  C_14 
REMARK    4  A    between atoms: C_14  and  C_16 
REMARK    5  A    between atoms: C_16  and  N_17 
REMARK    6  A    between atoms: N_20  and  C_21 
ROOT
ATOM      1  C   UNL d   1      10.690   3.322 -17.422  0.00  0.00     0.066 A 
ATOM      2  C   UNL d   1      10.352   1.952 -17.585  0.00  0.00     0.018 A 
ATOM      3  C   UNL d   1      10.455   1.319 -18.831  0.00  0.00     0.002 A 
ATOM      4  C   UNL d   1      10.915   2.037 -19.952  0.00  0.00     0.001 A 
ATOM      5  C   UNL d   1      11.265   3.394 -19.812  0.00  0.00     0.012 A 
ATOM      6  C   UNL d   1      11.154   4.044 -18.572  0.00  0.00     0.084 A 
ATOM      7  C   UNL d   1      11.553   5.445 -18.496  0.00  0.00     0.102 C 
ATOM      8  N   UNL d   1      11.867   6.558 -18.440  0.00  0.00    -0.191 NA
ENDROOT
BRANCH   1   9
ATOM      9  N   UNL d   1      10.537   3.900 -16.177  0.00  0.00    -0.344 N 
ATOM     10  C   UNL d   1      11.179   3.368 -14.974  0.00  0.00     0.137 C 
ATOM     11  C   UNL d   1      10.144   3.241 -13.839  0.00  0.00     0.274 C 
ATOM     12  N   UNL d   1       9.491   4.524 -13.558  0.00  0.00     0.144 N 
ATOM     13  C   UNL d   1       8.830   4.926 -14.784  0.00  0.00     0.274 C 
ATOM     14  C   UNL d   1       9.775   5.126 -15.975  0.00  0.00     0.137 C 
BRANCH  12  15
ATOM     15  C   UNL d   1       8.464   4.380 -12.511  0.00  0.00     0.285 C 
BRANCH  15  16
ATOM     16  C   UNL d   1       8.456   5.535 -11.494  0.00  0.00     0.208 C 
ATOM     17  O   UNL d   1       7.152   5.611 -11.033  0.00  0.00    -0.219 OA
BRANCH  16  18
ATOM     18  C   UNL d   1       9.308   5.258 -10.262  0.00  0.00     0.148 C 
BRANCH  18  19
ATOM     19  N   UNL d   1       9.588   6.430  -9.424  0.00  0.00    -0.247 N 
ATOM     20  C   UNL d   1      10.234   7.594  -9.772  0.00  0.00     0.348 A 
ATOM     21  N   UNL d   1      10.314   8.346  -8.673  0.00  0.00    -0.209 NA
ATOM     22  O   UNL d   1      10.656   7.984 -10.821  0.00  0.00    -0.245 OA
ATOM     23  C   UNL d   1       9.644   7.756  -7.551  0.00  0.00     0.179 A 
ATOM     24  C   UNL d   1       8.427   8.555  -7.199  0.00  0.00     0.039 C 
ATOM     25  C   UNL d   1       9.135   6.465  -8.181  0.00  0.00     0.265 A 
ATOM     26  O   UNL d   1       8.343   5.665  -7.633  0.00  0.00    -0.269 OA
BRANCH  23  27
ATOM     27  C   UNL d   1      10.572   7.598  -6.356  0.00  0.00     0.006 A 
ATOM     28  C   UNL d   1      10.713   8.636  -5.400  0.00  0.00    -0.002 A 
ATOM     29  C   UNL d   1      11.526   8.458  -4.268  0.00  0.00    -0.000 A 
ATOM     30  C   UNL d   1      12.166   7.218  -4.085  0.00  0.00    -0.000 A 
ATOM     31  C   UNL d   1      12.024   6.212  -5.040  0.00  0.00    -0.000 A 
ATOM     32  C   UNL d   1      11.281   6.396  -6.198  0.00  0.00    -0.002 A 
ENDBRANCH  23  27
ENDBRANCH  18  19
ENDBRANCH  16  18
ENDBRANCH  15  16
ENDBRANCH  12  15
ENDBRANCH   1   9
TORSDOF 6
