REMARK  5 active torsions:
REMARK  status: ('A' for Active; 'I' for Inactive)
REMARK    1  A    between atoms: C_2  and  C_4 
REMARK    2  A    between atoms: C_4  and  S_5 
REMARK    3  A    between atoms: S_5  and  N_8 
REMARK    4  A    between atoms: C_12  and  C_13 
REMARK    5  A    between atoms: C_20  and  N_21 
ROOT
ATOM      1  N   UNL d   1      10.439  -0.090 -19.359  0.00  0.00    -0.218 N 
ATOM      2  C   UNL d   1       9.405  -0.993 -19.555  0.00  0.00     0.093 A 
ATOM      3  C   UNL d   1       8.516  -0.907 -18.517  0.00  0.00     0.023 A 
ATOM      4  C   UNL d   1       9.001   0.136 -17.648  0.00  0.00     0.037 A 
ATOM      5  C   UNL d   1       8.579   0.746 -16.441  0.00  0.00     0.006 A 
ATOM      6  C   UNL d   1       9.393   1.745 -15.881  0.00  0.00     0.037 A 
ATOM      7  C   UNL d   1      10.599   2.160 -16.512  0.00  0.00     0.142 A 
ATOM      8  N   UNL d   1      11.018   1.583 -17.661  0.00  0.00    -0.211 NA
ATOM      9  C   UNL d   1      10.225   0.618 -18.193  0.00  0.00     0.158 A 
ENDROOT
BRANCH   1  10
ATOM     10  S   UNL d   1      11.745   0.093 -20.433  0.00  0.00     0.252 S 
ATOM     11  O   UNL d   1      11.919   1.544 -20.613  0.00  0.00    -0.204 OA
ATOM     12  O   UNL d   1      11.415  -0.772 -21.570  0.00  0.00    -0.204 OA
BRANCH  10  13
ATOM     13  C   UNL d   1      13.134  -0.619 -19.427  0.00  0.00     0.145 C 
BRANCH  13  14
ATOM     14  C   UNL d   1      14.439  -0.857 -20.226  0.00  0.00     0.018 C 
ATOM     15  C   UNL d   1      14.994   0.444 -20.832  0.00  0.00     0.001 C 
ATOM     16  C   UNL d   1      14.311  -1.962 -21.287  0.00  0.00     0.001 C 
ENDBRANCH  13  14
ENDBRANCH  10  13
ENDBRANCH   1  10
BRANCH   5  17
ATOM     17  C   UNL d   1       7.327   0.364 -15.758  0.00  0.00     0.000 A 
ATOM     18  C   UNL d   1       6.177  -0.007 -16.489  0.00  0.00     0.000 A 
ATOM     19  C   UNL d   1       5.005  -0.424 -15.830  0.00  0.00     0.000 A 
ATOM     20  C   UNL d   1       4.944  -0.411 -14.428  0.00  0.00     0.000 A 
ATOM     21  C   UNL d   1       6.067  -0.013 -13.680  0.00  0.00     0.000 A 
ATOM     22  C   UNL d   1       7.251   0.363 -14.343  0.00  0.00     0.000 A 
ENDBRANCH   5  17
BRANCH   7  23
ATOM     23  N   UNL d   1      11.398   3.185 -15.984  0.00  0.00    -0.330 N 
ATOM     24  C   UNL d   1      12.750   3.485 -16.484  0.00  0.00     0.138 C 
ATOM     25  C   UNL d   1      12.879   4.976 -16.831  0.00  0.00     0.274 C 
ATOM     26  N   UNL d   1      12.548   5.799 -15.666  0.00  0.00     0.143 N 
ATOM     27  C   UNL d   1      11.161   5.524 -15.293  0.00  0.00     0.274 C 
ATOM     28  C   UNL d   1      12.673   7.202 -16.012  0.00  0.00     0.286 C 
ATOM     29  C   UNL d   1      10.971   4.061 -14.890  0.00  0.00     0.138 C 
ENDBRANCH   7  23
TORSDOF 5
