REMARK  1 active torsions:
REMARK  status: ('A' for Active; 'I' for Inactive)
REMARK    1  A    between atoms: O_2  and  C_3 
ROOT
ATOM      1  C   UNL d   1       7.028   0.692 -19.460  0.00  0.00     0.096 A 
ATOM      2  C   UNL d   1       5.967   0.673 -18.524  0.00  0.00     0.024 A 
ATOM      3  C   UNL d   1       6.241   0.623 -17.146  0.00  0.00     0.000 A 
ATOM      4  C   UNL d   1       7.568   0.604 -16.674  0.00  0.00     0.005 A 
ATOM      5  C   UNL d   1       8.639   0.636 -17.597  0.00  0.00     0.092 A 
ATOM      6  C   UNL d   1       8.354   0.668 -18.984  0.00  0.00     0.048 A 
ATOM      7  O   UNL d   1       9.924   0.618 -17.100  0.00  0.00    -0.329 OA
ATOM      8  C   UNL d   1      10.966   1.197 -17.878  0.00  0.00     0.184 C 
ATOM      9  C   UNL d   1      11.972   1.860 -16.913  0.00  0.00     0.283 C 
ATOM     10  N   UNL d   1      11.639   3.232 -16.503  0.00  0.00     0.142 N 
ATOM     11  C   UNL d   1      11.884   4.180 -17.584  0.00  0.00     0.285 C 
ATOM     12  C   UNL d   1      10.278   3.412 -15.992  0.00  0.00     0.255 C 
ATOM     13  C   UNL d   1      10.025   2.655 -14.675  0.00  0.00     0.061 C 
ATOM     14  C   UNL d   1       8.586   2.820 -14.204  0.00  0.00    -0.024 A 
ATOM     15  C   UNL d   1       8.262   4.007 -13.511  0.00  0.00    -0.004 A 
ATOM     16  C   UNL d   1       6.953   4.242 -13.053  0.00  0.00    -0.000 A 
ATOM     17  C   UNL d   1       5.950   3.287 -13.283  0.00  0.00    -0.000 A 
ATOM     18  C   UNL d   1       6.258   2.099 -13.973  0.00  0.00    -0.004 A 
ATOM     19  C   UNL d   1       7.569   1.850 -14.441  0.00  0.00    -0.022 A 
ATOM     20  C   UNL d   1       7.819   0.530 -15.171  0.00  0.00     0.054 C 
ENDROOT
BRANCH   1  21
ATOM     21  O   UNL d   1       6.854   0.733 -20.827  0.00  0.00    -0.328 OA
ATOM     22  C   UNL d   1       5.526   0.730 -21.332  0.00  0.00     0.181 C 
ENDBRANCH   1  21
TORSDOF 1
