REMARK  6 active torsions:
REMARK  status: ('A' for Active; 'I' for Inactive)
REMARK    1  A    between atoms: O_2  and  N_3 
REMARK    2  A    between atoms: C_4  and  C_5 
REMARK    3  A    between atoms: C_4  and  C_19 
REMARK    4  A    between atoms: C_5  and  C_6 
REMARK    5  A    between atoms: C_6  and  N_7 
REMARK    6  A    between atoms: N_10  and  C_11 
ROOT
ATOM      1  C   UNL d   1       7.495   0.015 -15.425  0.00  0.00     0.084 C 
ENDROOT
BRANCH   1   2
ATOM      2  C   UNL d   1       6.049  -0.345 -15.717  0.00  0.00     0.088 C 
ATOM      3  N   UNL d   1       5.193  -0.152 -14.795  0.00  0.00    -0.136 NA
BRANCH   3   4
ATOM      4  O   UNL d   1       3.905  -0.494 -15.212  0.00  0.00    -0.234 OA
ATOM      5  C   UNL d   1       3.063  -0.494 -14.092  0.00  0.00     0.211 C 
ENDBRANCH   3   4
BRANCH   2   6
ATOM      6  C   UNL d   1       5.778  -0.992 -17.040  0.00  0.00     0.026 A 
ATOM      7  C   UNL d   1       6.102  -0.385 -18.286  0.00  0.00     0.060 A 
ATOM      8  C   UNL d   1       5.850  -1.060 -19.491  0.00  0.00     0.023 A 
ATOM      9 CL   UNL d   1       6.806   1.189 -18.440  0.00  0.00    -0.082 Cl
ATOM     10  C   UNL d   1       5.257  -2.331 -19.495  0.00  0.00     0.059 A 
ATOM     11  C   UNL d   1       4.918  -2.944 -18.278  0.00  0.00     0.011 A 
ATOM     12 CL   UNL d   1       4.941  -3.124 -20.993  0.00  0.00    -0.082 Cl
ATOM     13  C   UNL d   1       5.179  -2.280 -17.063  0.00  0.00     0.003 A 
ENDBRANCH   2   6
ENDBRANCH   1   2
BRANCH   1  14
ATOM     14  C   UNL d   1       7.680   1.529 -15.200  0.00  0.00     0.257 C 
BRANCH  14  15
ATOM     15  N   UNL d   1       9.092   1.871 -15.037  0.00  0.00     0.141 N 
ATOM     16  C   UNL d   1       9.165   3.220 -14.480  0.00  0.00     0.274 C 
ATOM     17  C   UNL d   1      10.627   3.617 -14.233  0.00  0.00     0.138 C 
ATOM     18  N   UNL d   1      11.400   3.500 -15.469  0.00  0.00    -0.330 N 
ATOM     19  C   UNL d   1      11.272   2.216 -16.149  0.00  0.00     0.138 C 
ATOM     20  C   UNL d   1       9.785   1.865 -16.331  0.00  0.00     0.274 C 
BRANCH  18  21
ATOM     21  C   UNL d   1      12.187   4.552 -15.984  0.00  0.00     0.140 A 
ATOM     22  N   UNL d   1      11.887   5.806 -15.580  0.00  0.00    -0.227 NA
ATOM     23  C   UNL d   1      12.617   6.845 -16.043  0.00  0.00     0.101 A 
ATOM     24  C   UNL d   1      13.692   6.686 -16.930  0.00  0.00     0.021 A 
ATOM     25  C   UNL d   1      14.020   5.391 -17.357  0.00  0.00     0.005 A 
ATOM     26  C   UNL d   1      13.256   4.304 -16.874  0.00  0.00     0.037 A 
ENDBRANCH  18  21
ENDBRANCH  14  15
ENDBRANCH   1  14
TORSDOF 6
