REMARK  2 active torsions:
REMARK  status: ('A' for Active; 'I' for Inactive)
REMARK    1  A    between atoms: O_2  and  C_3 
REMARK    2  A    between atoms: C_3  and  C_5 
ROOT
ATOM      1  C   UNL d   1      11.177   8.375  -6.157  0.00  0.00     0.063 A 
ATOM      2  C   UNL d   1       9.937   7.748  -6.418  0.00  0.00     0.007 A 
ATOM      3  C   UNL d   1       9.356   7.814  -7.700  0.00  0.00     0.028 A 
ATOM      4  C   UNL d   1      10.026   8.479  -8.742  0.00  0.00     0.131 A 
ATOM      5  O   UNL d   1       9.459   8.583  -9.985  0.00  0.00    -0.190 OA
ATOM      6  C   UNL d   1      11.279   9.063  -8.504  0.00  0.00     0.028 A 
ATOM      7  C   UNL d   1      11.839   9.041  -7.209  0.00  0.00     0.007 A 
ENDROOT
BRANCH   1   8
ATOM      8  C   UNL d   1      11.792   8.340  -4.802  0.00  0.00     0.296 C 
ATOM      9  O   UNL d   1      12.556   9.208  -4.366  0.00  0.00    -0.259 OA
BRANCH   8  10
ATOM     10  O   UNL d   1      11.470   7.214  -4.141  0.00  0.00    -0.296 OA
ATOM     11  C   UNL d   1      11.938   6.984  -2.824  0.00  0.00     0.185 C 
ENDBRANCH   8  10
ENDBRANCH   1   8
TORSDOF 2
