REMARK  7 active torsions:
REMARK  status: ('A' for Active; 'I' for Inactive)
REMARK    1  A    between atoms: C_2  and  C_3 
REMARK    2  A    between atoms: C_3  and  N_4 
REMARK    3  A    between atoms: N_4  and  C_5 
REMARK    4  A    between atoms: N_4  and  C_24 
REMARK    5  A    between atoms: C_5  and  C_6 
REMARK    6  A    between atoms: C_6  and  N_7 
REMARK    7  A    between atoms: N_10  and  C_11 
ROOT
ATOM      1  N   UNL d   1      10.297   5.955  -9.633  0.00  0.00     0.143 N 
ATOM      2  C   UNL d   1       9.793   5.613  -8.316  0.00  0.00     0.274 C 
ATOM      3  C   UNL d   1      10.810   5.966  -7.239  0.00  0.00     0.137 C 
ATOM      4  N   UNL d   1      11.280   7.330  -7.362  0.00  0.00    -0.344 N 
ATOM      5  C   UNL d   1      11.717   7.763  -8.685  0.00  0.00     0.137 C 
ATOM      6  C   UNL d   1      10.657   7.374  -9.738  0.00  0.00     0.274 C 
ENDROOT
BRANCH   1   7
ATOM      7  C   UNL d   1       9.412   5.417 -10.631  0.00  0.00     0.286 C 
BRANCH   7   8
ATOM      8  C   UNL d   1       9.798   5.722 -12.105  0.00  0.00     0.285 C 
BRANCH   8   9
ATOM      9  N   UNL d   1       9.670   4.685 -13.131  0.00  0.00     0.137 N 
BRANCH   9  10
ATOM     10  C   UNL d   1       9.851   5.191 -14.499  0.00  0.00     0.250 C 
BRANCH  10  11
ATOM     11  C   UNL d   1      11.158   5.937 -14.840  0.00  0.00     0.035 C 
ATOM     12  C   UNL d   1      11.484   6.096 -16.323  0.00  0.00     0.002 C 
ENDBRANCH  10  11
ENDBRANCH   9  10
BRANCH   9  13
ATOM     13  C   UNL d   1       8.428   3.969 -12.980  0.00  0.00     0.224 C 
ATOM     14  C   UNL d   1       8.193   2.911 -14.068  0.00  0.00     0.059 C 
ATOM     15  C   UNL d   1       6.880   2.213 -13.927  0.00  0.00    -0.022 A 
ATOM     16  C   UNL d   1       5.873   2.746 -13.092  0.00  0.00    -0.026 A 
ATOM     17  C   UNL d   1       6.709   0.970 -14.568  0.00  0.00     0.023 A 
ATOM     18  C   UNL d   1       6.024   3.999 -12.256  0.00  0.00     0.028 C 
ATOM     19  C   UNL d   1       4.763   1.969 -12.880  0.00  0.00    -0.003 A 
ATOM     20  C   UNL d   1       7.169   4.848 -12.761  0.00  0.00     0.038 C 
ATOM     21  C   UNL d   1       4.548   0.759 -13.559  0.00  0.00     0.027 A 
ATOM     22  C   UNL d   1       5.541   0.234 -14.366  0.00  0.00     0.131 A 
ATOM     23  O   UNL d   1       5.334  -0.968 -14.982  0.00  0.00    -0.190 OA
ENDBRANCH   9  13
ENDBRANCH   8   9
ENDBRANCH   7   8
ENDBRANCH   1   7
BRANCH   4  24
ATOM     24  C   UNL d   1      11.211   8.194  -6.270  0.00  0.00     0.059 A 
ATOM     25  C   UNL d   1      11.543   7.869  -4.918  0.00  0.00     0.035 A 
ATOM     26  C   UNL d   1      11.528   8.867  -3.921  0.00  0.00     0.108 A 
ATOM     27  C   UNL d   1      12.036   6.613  -4.527  0.00  0.00     0.003 A 
ATOM     28  N   UNL d   1      11.129  10.104  -4.199  0.00  0.00    -0.242 NA
ATOM     29  C   UNL d   1      11.989   8.611  -2.611  0.00  0.00     0.148 A 
ATOM     30  C   UNL d   1      10.727  10.371  -5.434  0.00  0.00     0.101 A 
ATOM     31  C   UNL d   1      10.746   9.491  -6.513  0.00  0.00     0.038 A 
ATOM     32  O   UNL d   1      12.129   9.601  -1.685  0.00  0.00    -0.189 OA
ATOM     33  C   UNL d   1      12.418   7.349  -2.240  0.00  0.00     0.029 A 
ATOM     34  C   UNL d   1      12.443   6.372  -3.219  0.00  0.00     0.002 A 
ENDBRANCH   4  24
TORSDOF 7
