REMARK  5 active torsions:
REMARK  status: ('A' for Active; 'I' for Inactive)
REMARK    1  A    between atoms: N_2  and  C_4 
REMARK    2  A    between atoms: C_4  and  C_5 
REMARK    3  A    between atoms: C_5  and  S_6 
REMARK    4  A    between atoms: S_6  and  C_7 
REMARK    5  A    between atoms: C_11  and  C_12 
ROOT
ATOM      1  C   UNL d   1       7.087   4.276 -12.790  0.00  0.00     0.106 A 
ATOM      2  C   UNL d   1       8.058   3.953 -13.756  0.00  0.00     0.025 A 
ATOM      3  C   UNL d   1       9.383   4.348 -13.503  0.00  0.00     0.003 A 
ATOM      4  C   UNL d   1       9.653   5.081 -12.338  0.00  0.00     0.015 A 
ATOM      5  C   UNL d   1       8.609   5.348 -11.436  0.00  0.00     0.059 A 
ATOM      6  N   UNL d   1       7.338   4.944 -11.651  0.00  0.00    -0.244 NA
ENDROOT
BRANCH   1   7
ATOM      7  S   UNL d   1       5.416   3.789 -12.990  0.00  0.00    -0.093 SA
BRANCH   7   8
ATOM      8  C   UNL d   1       5.397   1.982 -13.063  0.00  0.00     0.099 C 
BRANCH   8   9
ATOM      9  C   UNL d   1       6.264   1.400 -14.210  0.00  0.00     0.262 C 
BRANCH   9  10
ATOM     10  N   UNL d   1       6.174  -0.052 -14.389  0.00  0.00     0.142 N 
ATOM     11  C   UNL d   1       6.661  -0.740 -13.204  0.00  0.00     0.285 C 
ATOM     12  C   UNL d   1       4.852  -0.515 -14.770  0.00  0.00     0.285 C 
ENDBRANCH   9  10
ENDBRANCH   8   9
ENDBRANCH   7   8
ENDBRANCH   1   7
BRANCH   5  13
ATOM     13  C   UNL d   1       8.842   6.141 -10.156  0.00  0.00     0.040 C 
ATOM     14  C   UNL d   1       9.685   5.352  -9.150  0.00  0.00     0.006 C 
ATOM     15  C   UNL d   1       9.990   6.182  -7.892  0.00  0.00     0.000 C 
ATOM     16  C   UNL d   1      10.690   7.505  -8.242  0.00  0.00     0.000 C 
ATOM     17  C   UNL d   1       9.847   8.329  -9.223  0.00  0.00     0.000 C 
ATOM     18  C   UNL d   1       9.507   7.513 -10.480  0.00  0.00     0.006 C 
ENDBRANCH   5  13
TORSDOF 5
