REMARK  8 active torsions:
REMARK  status: ('A' for Active; 'I' for Inactive)
REMARK    1  A    between atoms: C_3  and  S_4 
REMARK    2  A    between atoms: S_4  and  N_7 
REMARK    3  A    between atoms: N_7  and  C_8 
REMARK    4  A    between atoms: C_8  and  C_9 
REMARK    5  A    between atoms: C_9  and  C_10 
REMARK    6  A    between atoms: C_10  and  C_11 
REMARK    7  A    between atoms: C_11  and  N_12 
REMARK    8  A    between atoms: N_15  and  C_16 
ROOT
ATOM      1  C   UNL d   1       9.550   4.085 -12.630  0.00  0.00     0.029 C 
ENDROOT
BRANCH   1   2
ATOM      2  C   UNL d   1       9.110   4.200 -14.095  0.00  0.00     0.139 C 
BRANCH   2   3
ATOM      3  N   UNL d   1       9.786   3.193 -14.915  0.00  0.00    -0.184 NA
BRANCH   3   4
ATOM      4  S   UNL d   1      11.422   3.376 -15.438  0.00  0.00     0.287 S 
ATOM      5  O   UNL d   1      11.825   2.114 -16.080  0.00  0.00    -0.198 OA
ATOM      6  O   UNL d   1      12.218   3.968 -14.346  0.00  0.00    -0.198 OA
BRANCH   4   7
ATOM      7  C   UNL d   1      11.389   4.603 -16.718  0.00  0.00     0.130 A 
ATOM      8  C   UNL d   1      12.489   5.207 -17.283  0.00  0.00    -0.003 A 
ATOM      9  C   UNL d   1      13.912   4.886 -16.924  0.00  0.00     0.032 C 
ATOM     10  C   UNL d   1      12.083   6.189 -18.269  0.00  0.00     0.005 A 
ATOM     11  C   UNL d   1      10.661   6.274 -18.408  0.00  0.00     0.030 A 
ATOM     12  C   UNL d   1      12.851   7.043 -19.097  0.00  0.00     0.030 A 
ATOM     13  S   UNL d   1       9.858   5.148 -17.342  0.00  0.00    -0.074 SA
ATOM     14  C   UNL d   1      10.049   7.164 -19.306  0.00  0.00     0.009 A 
ATOM     15  C   UNL d   1      10.845   7.993 -20.111  0.00  0.00     0.030 A 
ATOM     16  C   UNL d   1      12.246   7.931 -20.006  0.00  0.00     0.140 A 
ATOM     17  F   UNL d   1      13.021   8.723 -20.785  0.00  0.00    -0.204 F 
ENDBRANCH   4   7
ENDBRANCH   3   4
ENDBRANCH   2   3
ENDBRANCH   1   2
BRANCH   1  18
ATOM     18  C   UNL d   1       8.835   5.099 -11.745  0.00  0.00     0.037 C 
BRANCH  18  19
ATOM     19  C   UNL d   1       9.228   4.891 -10.268  0.00  0.00     0.251 C 
BRANCH  19  20
ATOM     20  N   UNL d   1       9.066   6.107  -9.475  0.00  0.00     0.141 N 
ATOM     21  C   UNL d   1      10.110   7.100  -9.791  0.00  0.00     0.274 C 
ATOM     22  C   UNL d   1       9.895   8.382  -8.975  0.00  0.00     0.138 C 
ATOM     23  N   UNL d   1       9.851   8.052  -7.558  0.00  0.00    -0.328 N 
ATOM     24  C   UNL d   1       8.867   7.035  -7.192  0.00  0.00     0.138 C 
ATOM     25  C   UNL d   1       9.116   5.775  -8.044  0.00  0.00     0.274 C 
BRANCH  23  26
ATOM     26  C   UNL d   1      10.647   8.722  -6.651  0.00  0.00     0.169 A 
ATOM     27  C   UNL d   1      11.191   8.221  -5.434  0.00  0.00     0.061 A 
ATOM     28  C   UNL d   1      11.946   9.239  -4.846  0.00  0.00     0.128 A 
ATOM     29  C   UNL d   1      11.136   6.956  -4.805  0.00  0.00     0.005 A 
ATOM     30  O   UNL d   1      11.860  10.320  -5.710  0.00  0.00    -0.210 OA
ATOM     31  C   UNL d   1      12.628   9.080  -3.634  0.00  0.00     0.027 A 
ATOM     32  N   UNL d   1      11.064   9.983  -6.832  0.00  0.00    -0.109 NA
ATOM     33  C   UNL d   1      12.532   7.837  -2.973  0.00  0.00     0.002 A 
ATOM     34  C   UNL d   1      11.785   6.790  -3.562  0.00  0.00     0.000 A 
ENDBRANCH  23  26
ENDBRANCH  19  20
ENDBRANCH  18  19
ENDBRANCH   1  18
TORSDOF 8
