REMARK  6 active torsions:
REMARK  status: ('A' for Active; 'I' for Inactive)
REMARK       I    between atoms: C_2  and  N_3 
REMARK    1  A    between atoms: C_2  and  C_30 
REMARK    2  A    between atoms: N_3  and  C_4 
REMARK    3  A    between atoms: C_10  and  C_11 
REMARK    4  A    between atoms: C_11  and  C_12 
REMARK    5  A    between atoms: C_12  and  N_13 
REMARK    6  A    between atoms: N_16  and  C_17 
ROOT
ATOM      1  C   UNL d   1       8.807   5.293 -12.199  0.00  0.00     0.062 C 
ENDROOT
BRANCH   1   2
ATOM      2  C   UNL d   1       9.284   4.265 -13.198  0.00  0.00    -0.020 A 
ATOM      3  C   UNL d   1      10.664   4.061 -13.416  0.00  0.00    -0.005 A 
ATOM      4  C   UNL d   1      11.113   3.116 -14.366  0.00  0.00    -0.005 A 
ATOM      5  C   UNL d   1      10.146   2.379 -15.062  0.00  0.00    -0.024 A 
ATOM      6  C   UNL d   1      10.394   1.307 -16.083  0.00  0.00     0.028 C 
ATOM      7  C   UNL d   1       8.788   2.574 -14.839  0.00  0.00    -0.004 A 
ATOM      8  C   UNL d   1       8.980   0.991 -16.621  0.00  0.00     0.034 C 
ATOM      9  C   UNL d   1       7.949   1.639 -15.660  0.00  0.00     0.129 C 
ATOM     10  C   UNL d   1       8.332   3.547 -13.932  0.00  0.00    -0.007 A 
BRANCH   9  11
ATOM     11  N   UNL d   1       7.277   0.606 -14.870  0.00  0.00    -0.235 NA
ATOM     12  C   UNL d   1       6.177   0.797 -14.127  0.00  0.00     0.251 C 
ATOM     13  O   UNL d   1       5.776   1.895 -13.755  0.00  0.00    -0.271 OA
BRANCH  12  14
ATOM     14  C   UNL d   1       5.404  -0.430 -13.849  0.00  0.00     0.081 A 
ATOM     15  C   UNL d   1       3.901  -0.228 -13.648  0.00  0.00     0.010 A 
ATOM     16  C   UNL d   1       4.417  -0.834 -14.928  0.00  0.00     0.010 A 
ENDBRANCH  12  14
ENDBRANCH   9  11
ENDBRANCH   1   2
BRANCH   1  17
ATOM     17  C   UNL d   1       9.202   4.949 -10.745  0.00  0.00     0.255 C 
BRANCH  17  18
ATOM     18  N   UNL d   1       9.024   6.077  -9.838  0.00  0.00     0.141 N 
ATOM     19  C   UNL d   1       9.918   7.207 -10.149  0.00  0.00     0.274 C 
ATOM     20  C   UNL d   1       9.671   8.391  -9.186  0.00  0.00     0.138 C 
ATOM     21  N   UNL d   1       9.784   7.925  -7.800  0.00  0.00    -0.329 N 
ATOM     22  C   UNL d   1       8.891   6.812  -7.476  0.00  0.00     0.138 C 
ATOM     23  C   UNL d   1       9.237   5.653  -8.451  0.00  0.00     0.274 C 
BRANCH  21  24
ATOM     24  C   UNL d   1      10.644   8.551  -6.882  0.00  0.00     0.148 A 
ATOM     25  C   UNL d   1      11.124   8.012  -5.632  0.00  0.00     0.042 A 
ATOM     26  C   UNL d   1      11.947   8.956  -4.968  0.00  0.00     0.050 A 
ATOM     27  C   UNL d   1      10.969   6.770  -4.947  0.00  0.00     0.004 A 
ATOM     28  S   UNL d   1      12.011  10.351  -5.973  0.00  0.00     0.015 SA
ATOM     29  C   UNL d   1      12.618   8.742  -3.740  0.00  0.00     0.008 A 
ATOM     30  N   UNL d   1      11.081   9.740  -7.202  0.00  0.00    -0.192 NA
ATOM     31  C   UNL d   1      12.404   7.510  -3.084  0.00  0.00     0.001 A 
ATOM     32  C   UNL d   1      11.579   6.563  -3.701  0.00  0.00     0.000 A 
ENDBRANCH  21  24
ENDBRANCH  17  18
ENDBRANCH   1  17
TORSDOF 6
