REMARK  5 active torsions:
REMARK  status: ('A' for Active; 'I' for Inactive)
REMARK    1  A    between atoms: C_5  and  O_6 
REMARK    2  A    between atoms: O_6  and  C_7 
REMARK    3  A    between atoms: C_7  and  C_8 
REMARK    4  A    between atoms: C_8  and  N_9 
REMARK       I    between atoms: N_12  and  C_13 
REMARK    5  A    between atoms: C_13  and  C_15 
ROOT
ATOM      1  N   UNL d   1       9.105   5.197 -10.901  0.00  0.00     0.144 N 
ATOM      2  C   UNL d   1       9.381   6.598 -11.241  0.00  0.00     0.274 C 
ATOM      3  C   UNL d   1      10.425   7.209 -10.288  0.00  0.00     0.140 C 
ATOM      4  N   UNL d   1      10.031   7.042  -8.889  0.00  0.00    -0.311 N 
ATOM      5  C   UNL d   1       9.948   8.090  -8.045  0.00  0.00     0.275 C 
ATOM      6  O   UNL d   1       9.577   9.188  -8.437  0.00  0.00    -0.266 OA
ATOM      7  C   UNL d   1       9.660   5.675  -8.539  0.00  0.00     0.140 C 
ATOM      8  C   UNL d   1       8.604   5.159  -9.528  0.00  0.00     0.274 C 
ENDROOT
BRANCH   5   9
ATOM      9  C   UNL d   1      10.522   7.948  -6.682  0.00  0.00     0.137 A 
ATOM     10  N   UNL d   1      10.712   9.096  -5.922  0.00  0.00    -0.241 NA
ATOM     11  C   UNL d   1      11.291   8.802  -4.702  0.00  0.00     0.082 A 
ATOM     12  C   UNL d   1      11.462   7.388  -4.697  0.00  0.00     0.019 A 
ATOM     13  C   UNL d   1      11.644   9.588  -3.589  0.00  0.00     0.019 A 
ATOM     14  C   UNL d   1      11.012   6.885  -5.957  0.00  0.00     0.025 A 
ATOM     15  C   UNL d   1      12.015   6.798  -3.536  0.00  0.00     0.002 A 
ATOM     16  C   UNL d   1      12.360   7.581  -2.420  0.00  0.00     0.000 A 
ATOM     17  C   UNL d   1      12.190   8.975  -2.447  0.00  0.00     0.002 A 
ENDBRANCH   5   9
BRANCH   1  18
ATOM     18  C   UNL d   1       8.095   4.652 -11.814  0.00  0.00     0.283 C 
BRANCH  18  19
ATOM     19  C   UNL d   1       8.756   3.910 -12.987  0.00  0.00     0.184 C 
BRANCH  19  20
ATOM     20  O   UNL d   1       9.550   4.791 -13.780  0.00  0.00    -0.329 OA
BRANCH  20  21
ATOM     21  C   UNL d   1      10.398   4.247 -14.723  0.00  0.00     0.094 A 
ATOM     22  C   UNL d   1      11.183   5.155 -15.463  0.00  0.00     0.024 A 
ATOM     23  C   UNL d   1      12.078   4.704 -16.450  0.00  0.00    -0.002 A 
ATOM     24  C   UNL d   1      12.204   3.325 -16.706  0.00  0.00    -0.022 A 
ATOM     25  C   UNL d   1      13.164   2.840 -17.771  0.00  0.00     0.031 C 
ATOM     26  C   UNL d   1      11.430   2.405 -15.971  0.00  0.00    -0.002 A 
ATOM     27  C   UNL d   1      10.529   2.860 -14.988  0.00  0.00     0.024 A 
ENDBRANCH  20  21
ENDBRANCH  19  20
ENDBRANCH  18  19
ENDBRANCH   1  18
TORSDOF 5
