REMARK  9 active torsions:
REMARK  status: ('A' for Active; 'I' for Inactive)
REMARK    1  A    between atoms: O_2  and  C_3 
REMARK    2  A    between atoms: C_8  and  N_9 
REMARK    3  A    between atoms: N_12  and  C_13 
REMARK    4  A    between atoms: C_13  and  C_14 
REMARK    5  A    between atoms: C_14  and  C_15 
REMARK    6  A    between atoms: C_15  and  C_16 
REMARK    7  A    between atoms: C_16  and  C_17 
REMARK    8  A    between atoms: C_17  and  C_18 
REMARK    9  A    between atoms: C_18  and  N_19 
ROOT
ATOM      1  C   UNL d   1      12.044   1.567 -18.585  0.00  0.00     0.035 C 
ENDROOT
BRANCH   1   2
ATOM      2  C   UNL d   1      11.884   0.918 -17.200  0.00  0.00     0.250 C 
BRANCH   2   3
ATOM      3  N   UNL d   1      10.495   0.797 -16.781  0.00  0.00     0.141 N 
ATOM      4  C   UNL d   1      10.470   0.577 -15.321  0.00  0.00     0.274 C 
ATOM      5  C   UNL d   1       9.077   0.437 -14.868  0.00  0.00     0.137 C 
ATOM      6  N   UNL d   1       8.186   1.504 -15.250  0.00  0.00    -0.343 N 
ATOM      7  C   UNL d   1       8.249   1.854 -16.643  0.00  0.00     0.137 C 
ATOM      8  C   UNL d   1       9.714   2.013 -17.067  0.00  0.00     0.274 C 
BRANCH   6   9
ATOM      9  C   UNL d   1       7.409   2.261 -14.333  0.00  0.00     0.079 A 
ATOM     10  C   UNL d   1       6.219   1.755 -13.770  0.00  0.00     0.110 A 
ATOM     11  C   UNL d   1       5.462   2.598 -12.898  0.00  0.00     0.026 A 
ATOM     12  C   UNL d   1       5.923   3.895 -12.588  0.00  0.00     0.002 A 
ATOM     13  C   UNL d   1       7.112   4.379 -13.158  0.00  0.00     0.002 A 
ATOM     14  C   UNL d   1       7.853   3.560 -14.038  0.00  0.00     0.019 A 
BRANCH  10  15
ATOM     15  O   UNL d   1       5.702   0.507 -14.069  0.00  0.00    -0.327 OA
ATOM     16  C   UNL d   1       6.419  -0.657 -13.572  0.00  0.00     0.181 C 
ENDBRANCH  10  15
ENDBRANCH   6   9
ENDBRANCH   2   3
ENDBRANCH   1   2
BRANCH   1  17
ATOM     17  C   UNL d   1      13.497   1.874 -18.929  0.00  0.00     0.002 C 
BRANCH  17  18
ATOM     18  C   UNL d   1      13.581   2.726 -20.202  0.00  0.00     0.002 C 
BRANCH  18  19
ATOM     19  C   UNL d   1      15.030   3.030 -20.581  0.00  0.00     0.025 C 
BRANCH  19  20
ATOM     20  C   UNL d   1      15.157   4.152 -21.626  0.00  0.00     0.112 C 
BRANCH  20  21
ATOM     21  N   UNL d   1      14.983   5.481 -21.031  0.00  0.00    -0.271 N 
ATOM     22  C   UNL d   1      13.911   6.269 -21.227  0.00  0.00     0.239 A 
ATOM     23  C   UNL d   1      14.053   7.585 -20.472  0.00  0.00     0.088 A 
ATOM     24  O   UNL d   1      12.926   5.997 -21.913  0.00  0.00    -0.272 OA
ATOM     25  C   UNL d   1      15.424   7.453 -19.794  0.00  0.00     0.088 A 
ATOM     26  C   UNL d   1      14.237   8.834 -21.371  0.00  0.00     0.009 C 
ATOM     27  C   UNL d   1      15.901   6.073 -20.249  0.00  0.00     0.239 A 
ATOM     28  C   UNL d   1      16.222   8.634 -20.394  0.00  0.00     0.009 C 
ATOM     29  O   UNL d   1      16.983   5.602 -19.911  0.00  0.00    -0.272 OA
ATOM     30  C   UNL d   1      15.694   8.739 -21.825  0.00  0.00     0.001 C 
ATOM     31  C   UNL d   1      15.676   9.940 -19.785  0.00  0.00     0.001 C 
ATOM     32  C   UNL d   1      14.298  10.078 -20.464  0.00  0.00     0.001 C 
ENDBRANCH  20  21
ENDBRANCH  19  20
ENDBRANCH  18  19
ENDBRANCH  17  18
ENDBRANCH   1  17
TORSDOF 9
