REMARK  4 active torsions:
REMARK  status: ('A' for Active; 'I' for Inactive)
REMARK    1  A    between atoms: C_8  and  C_9 
REMARK    2  A    between atoms: C_9  and  C_10 
REMARK    3  A    between atoms: N_13  and  C_14 
REMARK    4  A    between atoms: C_14  and  C_15 
ROOT
ATOM      1  C   UNL d   1      10.187   3.448 -15.781  0.00  0.00     0.008 C 
ATOM      2  C   UNL d   1       9.547   4.831 -15.621  0.00  0.00     0.036 C 
ATOM      3  C   UNL d   1       8.639   4.903 -14.382  0.00  0.00     0.250 C 
ATOM      4  N   UNL d   1       9.385   4.607 -13.157  0.00  0.00     0.140 N 
ATOM      5  C   UNL d   1       9.846   3.218 -13.271  0.00  0.00     0.250 C 
ATOM      6  C   UNL d   1      10.837   3.055 -14.445  0.00  0.00     0.036 C 
ENDROOT
BRANCH   4   7
ATOM      7  C   UNL d   1       8.506   4.800 -11.986  0.00  0.00     0.283 C 
BRANCH   7   8
ATOM      8  C   UNL d   1       9.249   5.145 -10.657  0.00  0.00     0.185 C 
ATOM      9  O   UNL d   1       9.827   6.429 -10.811  0.00  0.00    -0.327 OA
ATOM     10  C   UNL d   1      10.285   7.035  -9.658  0.00  0.00     0.116 A 
ATOM     11  C   UNL d   1       9.894   6.621  -8.387  0.00  0.00     0.114 A 
ATOM     12  C   UNL d   1      11.172   8.104  -9.851  0.00  0.00     0.028 A 
ATOM     13  O   UNL d   1       8.979   5.578  -8.217  0.00  0.00    -0.326 OA
ATOM     14  C   UNL d   1      10.460   7.306  -7.287  0.00  0.00     0.029 A 
ATOM     15  C   UNL d   1       8.314   5.245  -9.448  0.00  0.00     0.181 C 
ATOM     16  C   UNL d   1      11.345   8.377  -7.510  0.00  0.00     0.083 A 
ATOM     17  C   UNL d   1      10.277   7.144  -5.797  0.00  0.00     0.120 A 
ATOM     18  C   UNL d   1      11.738   8.805  -8.770  0.00  0.00     0.021 A 
ATOM     19  N   UNL d   1      11.753   8.942  -6.310  0.00  0.00    -0.212 NA
ATOM     20  C   UNL d   1      11.189   8.264  -5.306  0.00  0.00     0.260 A 
ATOM     21  O   UNL d   1      11.411   8.493  -4.117  0.00  0.00    -0.270 OA
ENDBRANCH   7   8
ENDBRANCH   4   7
BRANCH   1  22
ATOM     22  C   UNL d   1      11.206   3.442 -16.947  0.00  0.00     0.026 C 
BRANCH  22  23
ATOM     23  C   UNL d   1      10.576   3.047 -18.268  0.00  0.00    -0.021 A 
ATOM     24  C   UNL d   1       9.844   3.994 -19.017  0.00  0.00    -0.004 A 
ATOM     25  C   UNL d   1       9.269   3.634 -20.250  0.00  0.00    -0.003 A 
ATOM     26  C   UNL d   1       9.427   2.320 -20.736  0.00  0.00    -0.004 A 
ATOM     27  C   UNL d   1       8.873   1.917 -22.087  0.00  0.00     0.038 C 
ATOM     28  C   UNL d   1      10.144   1.364 -19.981  0.00  0.00     0.080 A 
ATOM     29  C   UNL d   1       8.518   0.418 -22.126  0.00  0.00     0.095 C 
ATOM     30  C   UNL d   1       9.614  -0.463 -21.505  0.00  0.00     0.256 C 
ATOM     31  O   UNL d   1       9.819  -1.596 -21.933  0.00  0.00    -0.270 OA
ATOM     32  N   UNL d   1      10.305   0.044 -20.471  0.00  0.00    -0.212 NA
ATOM     33  C   UNL d   1      10.721   1.728 -18.748  0.00  0.00     0.015 A 
ENDBRANCH  22  23
ENDBRANCH   1  22
TORSDOF 4
