REMARK  9 active torsions:
REMARK  status: ('A' for Active; 'I' for Inactive)
REMARK    1  A    between atoms: O_2  and  C_3 
REMARK    2  A    between atoms: C_9  and  C_10 
REMARK    3  A    between atoms: C_12  and  C_13 
REMARK    4  A    between atoms: C_13  and  N_14 
REMARK    5  A    between atoms: N_14  and  C_15 
REMARK    6  A    between atoms: C_15  and  C_16 
REMARK    7  A    between atoms: C_16  and  C_17 
REMARK    8  A    between atoms: N_20  and  C_21 
REMARK    9  A    between atoms: C_21  and  C_22 
ROOT
ATOM      1  C   UNL d   1       7.187   5.516 -11.888  0.00  0.00     0.338 C 
ENDROOT
BRANCH   1   2
ATOM      2  C   UNL d   1       7.527   4.505 -12.938  0.00  0.00     0.122 A 
ATOM      3  N   UNL d   1       8.786   4.420 -13.515  0.00  0.00    -0.222 NA
ATOM      4  C   UNL d   1       8.721   3.402 -14.368  0.00  0.00     0.184 A 
ATOM      5  O   UNL d   1       7.481   2.824 -14.396  0.00  0.00    -0.286 OA
ATOM      6  C   UNL d   1       6.737   3.542 -13.499  0.00  0.00     0.141 A 
BRANCH   4   7
ATOM      7  C   UNL d   1       9.758   2.845 -15.242  0.00  0.00     0.064 A 
ATOM      8  C   UNL d   1      10.904   3.596 -15.626  0.00  0.00     0.098 A 
ATOM      9  C   UNL d   1      11.854   2.988 -16.495  0.00  0.00     0.025 A 
ATOM     10  C   UNL d   1      11.661   1.679 -16.970  0.00  0.00     0.009 A 
ATOM     11  C   UNL d   1      10.516   0.954 -16.599  0.00  0.00     0.035 A 
ATOM     12 BR   UNL d   1      10.212  -0.802 -17.271  0.00  0.00    -0.049 Br
ATOM     13  C   UNL d   1       9.575   1.537 -15.735  0.00  0.00     0.012 A 
BRANCH   8  14
ATOM     14  O   UNL d   1      11.051   4.883 -15.145  0.00  0.00    -0.328 OA
ATOM     15  C   UNL d   1      12.089   5.698 -15.671  0.00  0.00     0.181 C 
ENDBRANCH   8  14
ENDBRANCH   4   7
ENDBRANCH   1   2
BRANCH   1  16
ATOM     16  N   UNL d   1       8.220   5.984 -10.995  0.00  0.00     0.346 N 
BRANCH  16  17
ATOM     17  C   UNL d   1       8.518   4.989  -9.967  0.00  0.00     0.291 C 
BRANCH  17  18
ATOM     18  C   UNL d   1       8.642   5.732  -8.644  0.00  0.00     0.040 C 
BRANCH  18  19
ATOM     19  C   UNL d   1      10.040   6.292  -8.360  0.00  0.00     0.037 C 
ATOM     20  C   UNL d   1      10.038   7.052  -7.036  0.00  0.00     0.251 C 
ATOM     21  N   UNL d   1      11.132   8.003  -7.230  0.00  0.00     0.141 N 
ATOM     22  C   UNL d   1      10.900   8.532  -8.568  0.00  0.00     0.251 C 
ATOM     23  C   UNL d   1      10.609   7.298  -9.390  0.00  0.00     0.037 C 
BRANCH  21  24
ATOM     24  C   UNL d   1      11.153   9.062  -6.234  0.00  0.00     0.277 C 
BRANCH  24  25
ATOM     25  C   UNL d   1      11.553   8.613  -4.833  0.00  0.00     0.011 A 
ATOM     26  C   UNL d   1      11.560   9.554  -3.776  0.00  0.00    -0.002 A 
ATOM     27  C   UNL d   1      11.938   9.173  -2.484  0.00  0.00    -0.000 A 
ATOM     28  C   UNL d   1      12.262   7.829  -2.219  0.00  0.00    -0.000 A 
ATOM     29  C   UNL d   1      12.247   6.878  -3.258  0.00  0.00    -0.000 A 
ATOM     30  C   UNL d   1      11.934   7.266  -4.554  0.00  0.00    -0.002 A 
ENDBRANCH  24  25
ENDBRANCH  21  24
ENDBRANCH  18  19
ENDBRANCH  17  18
ENDBRANCH  16  17
ENDBRANCH   1  16
TORSDOF 9
