REMARK  4 active torsions:
REMARK  status: ('A' for Active; 'I' for Inactive)
REMARK    1  A    between atoms: C_6  and  N_7 
REMARK    2  A    between atoms: N_10  and  C_11 
REMARK    3  A    between atoms: C_11  and  C_12 
REMARK    4  A    between atoms: C_12  and  C_13 
ROOT
ATOM      1  N   UNL d   1       7.798   4.628 -12.680  0.00  0.00    -0.344 N 
ATOM      2  C   UNL d   1       7.255   4.407 -11.351  0.00  0.00     0.137 C 
ATOM      3  C   UNL d   1       8.309   4.789 -10.277  0.00  0.00     0.274 C 
ATOM      4  N   UNL d   1       8.777   6.166 -10.463  0.00  0.00     0.141 N 
ATOM      5  C   UNL d   1       9.357   6.321 -11.791  0.00  0.00     0.274 C 
ATOM      6  C   UNL d   1       8.308   5.972 -12.890  0.00  0.00     0.137 C 
ENDROOT
BRANCH   4   7
ATOM      7  C   UNL d   1       9.745   6.564  -9.445  0.00  0.00     0.255 C 
BRANCH   7   8
ATOM      8  C   UNL d   1       9.033   7.025  -8.169  0.00  0.00     0.062 C 
BRANCH   8   9
ATOM      9  C   UNL d   1       9.981   7.651  -7.168  0.00  0.00    -0.018 A 
ATOM     10  C   UNL d   1      10.312   6.963  -5.988  0.00  0.00     0.017 A 
ATOM     11  C   UNL d   1      11.183   7.549  -5.053  0.00  0.00     0.106 A 
ATOM     12  C   UNL d   1      11.717   8.836  -5.278  0.00  0.00     0.112 A 
ATOM     13  N   UNL d   1      11.552   6.844  -3.897  0.00  0.00    -0.208 NA
ATOM     14  C   UNL d   1      11.398   9.522  -6.464  0.00  0.00     0.025 A 
ATOM     15  O   UNL d   1      12.594   9.391  -4.373  0.00  0.00    -0.319 OA
ATOM     16  C   UNL d   1      10.525   8.933  -7.404  0.00  0.00    -0.002 A 
ATOM     17  C   UNL d   1      12.519   8.928  -3.019  0.00  0.00     0.238 C 
ATOM     18  C   UNL d   1      12.259   7.413  -2.918  0.00  0.00     0.286 C 
ATOM     19  O   UNL d   1      12.657   6.758  -1.970  0.00  0.00    -0.267 OA
ENDBRANCH   8   9
ENDBRANCH   7   8
ENDBRANCH   4   7
BRANCH   1  20
ATOM     20  C   UNL d   1       7.862   3.591 -13.662  0.00  0.00     0.058 A 
ATOM     21  C   UNL d   1       9.036   3.284 -14.419  0.00  0.00     0.033 A 
ATOM     22  C   UNL d   1      10.270   3.953 -14.222  0.00  0.00     0.004 A 
ATOM     23  C   UNL d   1       9.014   2.243 -15.398  0.00  0.00     0.082 A 
ATOM     24  C   UNL d   1      11.362   3.658 -15.025  0.00  0.00     0.015 A 
ATOM     25  C   UNL d   1      11.227   2.644 -15.976  0.00  0.00     0.059 A 
ATOM     26  C   UNL d   1      12.410   2.283 -16.837  0.00  0.00     0.052 C 
ATOM     27  N   UNL d   1      10.095   1.934 -16.161  0.00  0.00    -0.250 NA
ATOM     28  C   UNL d   1       7.827   1.509 -15.588  0.00  0.00     0.019 A 
ATOM     29  C   UNL d   1       6.675   1.783 -14.831  0.00  0.00     0.003 A 
ATOM     30  C   UNL d   1       6.689   2.828 -13.880  0.00  0.00     0.017 A 
ENDBRANCH   1  20
TORSDOF 4
