REMARK  7 active torsions:
REMARK  status: ('A' for Active; 'I' for Inactive)
REMARK    1  A    between atoms: C_6  and  C_7 
REMARK    2  A    between atoms: C_10  and  S_11 
REMARK    3  A    between atoms: S_11  and  C_12 
REMARK    4  A    between atoms: C_12  and  C_13 
REMARK    5  A    between atoms: C_13  and  C_14 
REMARK    6  A    between atoms: C_14  and  N_15 
REMARK    7  A    between atoms: N_20  and  C_21 
ROOT
ATOM      1  N   UNL d   1      11.145   2.329 -16.566  0.00  0.00     0.139 N 
ATOM      2  C   UNL d   1      10.979   0.933 -16.191  0.00  0.00     0.252 C 
ATOM      3  C   UNL d   1       9.788   0.930 -15.232  0.00  0.00     0.058 C 
ATOM      4  C   UNL d   1       8.422   0.862 -15.910  0.00  0.00     0.028 C 
ATOM      5  C   UNL d   1       7.580   1.823 -15.063  0.00  0.00     0.102 C 
ATOM      6  N   UNL d   1       8.497   2.888 -14.650  0.00  0.00    -0.344 N 
ATOM      7  C   UNL d   1       9.827   2.302 -14.559  0.00  0.00     0.117 C 
ATOM      8  C   UNL d   1      10.907   3.087 -15.310  0.00  0.00     0.272 C 
ENDROOT
BRANCH   1   9
ATOM      9  C   UNL d   1      12.446   2.620 -17.154  0.00  0.00     0.251 C 
BRANCH   9  10
ATOM     10  C   UNL d   1      12.618   4.090 -17.590  0.00  0.00     0.047 C 
BRANCH  10  11
ATOM     11  C   UNL d   1      14.083   4.509 -17.758  0.00  0.00     0.067 C 
BRANCH  11  12
ATOM     12  S   UNL d   1      14.228   6.293 -18.076  0.00  0.00    -0.075 SA
BRANCH  12  13
ATOM     13  C   UNL d   1      15.975   6.508 -17.894  0.00  0.00     0.193 A 
ATOM     14  N   UNL d   1      16.686   5.980 -16.897  0.00  0.00    -0.122 NA
ATOM     15  N   UNL d   1      17.976   6.408 -17.098  0.00  0.00    -0.126 NA
ATOM     16  C   UNL d   1      17.947   7.161 -18.201  0.00  0.00     0.191 A 
ATOM     17  N   UNL d   1      16.710   7.263 -18.735  0.00  0.00    -0.287 N 
ATOM     18  C   UNL d   1      16.291   7.980 -19.932  0.00  0.00     0.134 C 
BRANCH  16  19
ATOM     19  C   UNL d   1      19.158   7.751 -18.748  0.00  0.00     0.151 A 
ATOM     20  C   UNL d   1      19.576   9.055 -18.904  0.00  0.00     0.087 A 
ATOM     21  C   UNL d   1      18.895  10.335 -18.536  0.00  0.00     0.054 C 
ATOM     22  N   UNL d   1      20.841   9.035 -19.470  0.00  0.00    -0.221 NA
ATOM     23  C   UNL d   1      21.122   7.744 -19.631  0.00  0.00     0.225 A 
ATOM     24  O   UNL d   1      20.148   6.913 -19.186  0.00  0.00    -0.282 OA
ENDBRANCH  16  19
ENDBRANCH  12  13
ENDBRANCH  11  12
ENDBRANCH  10  11
ENDBRANCH   9  10
ENDBRANCH   1   9
BRANCH   6  25
ATOM     25  C   UNL d   1       8.079   3.811 -13.649  0.00  0.00     0.112 A 
ATOM     26  C   UNL d   1       9.011   4.752 -13.099  0.00  0.00     0.158 A 
ATOM     27  C   UNL d   1       8.621   5.648 -12.084  0.00  0.00     0.031 A 
ATOM     28  F   UNL d   1      10.306   4.828 -13.534  0.00  0.00    -0.203 F 
ATOM     29  C   UNL d   1       7.314   5.633 -11.593  0.00  0.00     0.005 A 
ATOM     30  C   UNL d   1       6.375   4.736 -12.118  0.00  0.00     0.031 A 
ATOM     31  C   UNL d   1       6.750   3.847 -13.146  0.00  0.00     0.158 A 
ATOM     32  F   UNL d   1       5.789   3.014 -13.607  0.00  0.00    -0.203 F 
ENDBRANCH   6  25
TORSDOF 7
