REMARK  4 active torsions:
REMARK  status: ('A' for Active; 'I' for Inactive)
REMARK    1  A    between atoms: C_5  and  N_6 
REMARK    2  A    between atoms: N_9  and  C_10 
REMARK    3  A    between atoms: C_10  and  C_11 
REMARK    4  A    between atoms: C_11  and  C_12 
ROOT
ATOM      1  N   UNL d   1      11.184   7.278  -7.898  0.00  0.00    -0.344 N 
ATOM      2  C   UNL d   1      10.389   6.069  -8.053  0.00  0.00     0.137 C 
ATOM      3  C   UNL d   1       9.302   6.294  -9.100  0.00  0.00     0.274 C 
ATOM      4  N   UNL d   1       9.908   6.697 -10.377  0.00  0.00     0.141 N 
ATOM      5  C   UNL d   1      10.570   7.996 -10.180  0.00  0.00     0.274 C 
ATOM      6  C   UNL d   1      11.692   7.870  -9.134  0.00  0.00     0.137 C 
ENDROOT
BRANCH   4   7
ATOM      7  C   UNL d   1       8.924   6.825 -11.451  0.00  0.00     0.253 C 
BRANCH   7   8
ATOM      8  C   UNL d   1       8.026   5.572 -11.618  0.00  0.00     0.062 C 
BRANCH   8   9
ATOM      9  C   UNL d   1       7.688   5.242 -13.075  0.00  0.00     0.109 A 
ATOM     10  N   UNL d   1       6.571   4.281 -13.161  0.00  0.00    -0.313 N 
ATOM     11  C   UNL d   1       6.903   3.096 -13.702  0.00  0.00     0.257 A 
ATOM     12  C   UNL d   1       5.219   4.659 -12.813  0.00  0.00     0.129 C 
ATOM     13  C   UNL d   1       8.334   3.195 -14.052  0.00  0.00     0.054 A 
ATOM     14  O   UNL d   1       6.186   2.117 -13.903  0.00  0.00    -0.267 OA
ATOM     15  C   UNL d   1       8.803   4.452 -13.719  0.00  0.00     0.003 A 
ATOM     16  C   UNL d   1       9.155   2.229 -14.661  0.00  0.00     0.004 A 
ATOM     17  C   UNL d   1      10.139   4.811 -13.953  0.00  0.00    -0.002 A 
ATOM     18  C   UNL d   1      10.991   3.862 -14.555  0.00  0.00    -0.000 A 
ATOM     19  C   UNL d   1      10.503   2.580 -14.913  0.00  0.00     0.000 A 
ENDBRANCH   8   9
ENDBRANCH   7   8
ENDBRANCH   4   7
BRANCH   1  20
ATOM     20  C   UNL d   1      11.303   7.897  -6.654  0.00  0.00     0.056 A 
ATOM     21  C   UNL d   1      11.296   9.309  -6.534  0.00  0.00     0.017 A 
ATOM     22  C   UNL d   1      11.455   9.920  -5.281  0.00  0.00    -0.003 A 
ATOM     23  C   UNL d   1      11.662   9.141  -4.124  0.00  0.00    -0.026 A 
ATOM     24  C   UNL d   1      11.876   9.813  -2.786  0.00  0.00     0.031 C 
ATOM     25  C   UNL d   1      11.656   7.728  -4.223  0.00  0.00    -0.024 A 
ATOM     26  C   UNL d   1      11.430   7.119  -5.470  0.00  0.00     0.012 A 
ATOM     27  C   UNL d   1      11.855   6.869  -2.981  0.00  0.00     0.031 C 
ENDBRANCH   1  20
TORSDOF 4
