REMARK  6 active torsions:
REMARK  status: ('A' for Active; 'I' for Inactive)
REMARK    1  A    between atoms: C_2  and  C_3 
REMARK    2  A    between atoms: C_3  and  N_4 
REMARK    3  A    between atoms: C_8  and  C_9 
REMARK    4  A    between atoms: C_13  and  O_14 
REMARK    5  A    between atoms: O_14  and  C_15 
REMARK    6  A    between atoms: C_15  and  C_16 
ROOT
ATOM      1  C   UNL d   1       7.516   4.657 -12.441  0.00  0.00    -0.019 A 
ATOM      2  C   UNL d   1       6.154   4.300 -12.440  0.00  0.00    -0.004 A 
ATOM      3  C   UNL d   1       5.702   3.228 -13.237  0.00  0.00     0.002 A 
ATOM      4  C   UNL d   1       6.607   2.510 -14.045  0.00  0.00     0.024 A 
ATOM      5  C   UNL d   1       7.978   2.865 -14.055  0.00  0.00     0.094 A 
ATOM      6  C   UNL d   1       8.419   3.927 -13.244  0.00  0.00     0.020 A 
ENDROOT
BRANCH   1   7
ATOM      7  C   UNL d   1       8.017   5.804 -11.573  0.00  0.00     0.056 C 
ATOM      8  C   UNL d   1       8.936   6.747 -12.372  0.00  0.00     0.008 C 
ATOM      9  C   UNL d   1       9.505   7.823 -11.457  0.00  0.00     0.036 C 
ATOM     10  C   UNL d   1      10.178   7.188 -10.225  0.00  0.00     0.250 C 
ATOM     11  N   UNL d   1       9.223   6.371  -9.479  0.00  0.00     0.137 N 
ATOM     12  C   UNL d   1       8.727   5.272 -10.310  0.00  0.00     0.255 C 
BRANCH  11  13
ATOM     13  C   UNL d   1       9.807   5.831  -8.251  0.00  0.00     0.250 C 
BRANCH  13  14
ATOM     14  C   UNL d   1      10.137   6.919  -7.208  0.00  0.00     0.035 C 
ATOM     15  C   UNL d   1       8.923   7.771  -6.816  0.00  0.00     0.002 C 
ENDBRANCH  13  14
ENDBRANCH  11  13
ENDBRANCH   1   7
BRANCH   5  16
ATOM     16  O   UNL d   1       8.946   2.236 -14.807  0.00  0.00    -0.322 OA
BRANCH  16  17
ATOM     17  C   UNL d   1       8.582   1.087 -15.554  0.00  0.00     0.252 C 
BRANCH  17  18
ATOM     18  C   UNL d   1       9.805   0.598 -16.337  0.00  0.00     0.425 C 
ATOM     19  F   UNL d   1      10.165   1.507 -17.244  0.00  0.00    -0.168 F 
ATOM     20  F   UNL d   1      10.819   0.377 -15.504  0.00  0.00    -0.168 F 
ATOM     21  F   UNL d   1       9.505  -0.541 -16.962  0.00  0.00    -0.168 F 
ENDBRANCH  17  18
ENDBRANCH  16  17
ENDBRANCH   5  16
TORSDOF 6
