REMARK  4 active torsions:
REMARK  status: ('A' for Active; 'I' for Inactive)
REMARK    1  A    between atoms: N_5  and  C_6 
REMARK    2  A    between atoms: C_11  and  C_12 
REMARK    3  A    between atoms: C_12  and  O_13 
REMARK    4  A    between atoms: O_13  and  C_14 
ROOT
ATOM      1  C   UNL d   1      10.998   7.930  -7.462  0.00  0.00     0.744 A 
ATOM      2  N   UNL d   1      12.192   8.292  -7.932  0.00  0.00     0.134 NA
ATOM      3  C   UNL d   1      12.272   8.027  -9.229  0.00  0.00     0.785 A 
ATOM      4  N   UNL d   1      13.525   7.925  -9.741  0.00  0.00     0.063 N 
ATOM      5  N   UNL d   1      11.325   7.582 -10.036  0.00  0.00    -0.039 NA
ATOM      6  C   UNL d   1      10.188   7.290  -9.413  0.00  0.00     0.206 A 
ATOM      7  N   UNL d   1       9.962   7.396  -8.101  0.00  0.00    -0.043 NA
ENDROOT
BRANCH   6   8
ATOM      8  C   UNL d   1       9.064   6.753 -10.297  0.00  0.00     0.215 C 
BRANCH   8   9
ATOM      9  O   UNL d   1       9.468   5.775 -11.259  0.00  0.00    -0.322 OA
BRANCH   9  10
ATOM     10  C   UNL d   1       8.500   5.126 -12.013  0.00  0.00     0.105 A 
ATOM     11  C   UNL d   1       8.916   4.338 -13.120  0.00  0.00     0.080 A 
ATOM     12  C   UNL d   1       7.983   3.591 -13.871  0.00  0.00     0.013 A 
ATOM     13 CL   UNL d   1      10.573   4.283 -13.611  0.00  0.00    -0.080 Cl
ATOM     14  C   UNL d   1       6.614   3.625 -13.546  0.00  0.00     0.001 A 
ATOM     15  C   UNL d   1       6.182   4.415 -12.467  0.00  0.00     0.002 A 
ATOM     16  C   UNL d   1       7.110   5.167 -11.720  0.00  0.00     0.025 A 
ENDBRANCH   9  10
ENDBRANCH   8   9
ENDBRANCH   6   8
BRANCH   1  17
ATOM     17  N   UNL d   1      10.845   8.097  -6.107  0.00  0.00    -0.178 N 
ATOM     18  C   UNL d   1      10.911   9.417  -5.540  0.00  0.00     0.155 C 
ATOM     19  C   UNL d   1      11.888   9.415  -4.348  0.00  0.00     0.275 C 
ATOM     20  N   UNL d   1      11.505   8.385  -3.384  0.00  0.00     0.143 N 
ATOM     21  C   UNL d   1      12.401   8.416  -2.255  0.00  0.00     0.286 C 
ATOM     22  C   UNL d   1      11.533   7.056  -4.021  0.00  0.00     0.275 C 
ATOM     23  C   UNL d   1      10.561   6.991  -5.226  0.00  0.00     0.155 C 
ENDBRANCH   1  17
TORSDOF 4
