REMARK  4 active torsions:
REMARK  status: ('A' for Active; 'I' for Inactive)
REMARK    1  A    between atoms: C_5  and  N_6 
REMARK    2  A    between atoms: N_9  and  C_10 
REMARK    3  A    between atoms: C_10  and  C_11 
REMARK    4  A    between atoms: C_13  and  C_14 
ROOT
ATOM      1  N   UNL d   1      10.643   6.880  -8.579  0.00  0.00    -0.344 N 
ATOM      2  C   UNL d   1      11.011   7.422  -9.881  0.00  0.00     0.137 C 
ATOM      3  C   UNL d   1       9.790   7.427 -10.816  0.00  0.00     0.274 C 
ATOM      4  N   UNL d   1       9.215   6.080 -10.928  0.00  0.00     0.141 N 
ATOM      5  C   UNL d   1       8.769   5.659  -9.591  0.00  0.00     0.274 C 
ATOM      6  C   UNL d   1       9.958   5.592  -8.620  0.00  0.00     0.137 C 
ENDROOT
BRANCH   4   7
ATOM      7  C   UNL d   1       8.067   6.117 -11.833  0.00  0.00     0.251 C 
BRANCH   7   8
ATOM      8  C   UNL d   1       7.703   4.725 -12.319  0.00  0.00     0.038 A 
ATOM      9  C   UNL d   1       7.703   4.400 -13.796  0.00  0.00     0.024 A 
ATOM     10  C   UNL d   1       6.391   4.500 -13.048  0.00  0.00     0.007 A 
BRANCH   9  11
ATOM     11  C   UNL d   1       8.248   3.098 -14.286  0.00  0.00    -0.022 A 
ATOM     12  C   UNL d   1       9.642   2.887 -14.362  0.00  0.00    -0.004 A 
ATOM     13  C   UNL d   1      10.149   1.647 -14.801  0.00  0.00    -0.000 A 
ATOM     14  C   UNL d   1       9.263   0.608 -15.147  0.00  0.00    -0.000 A 
ATOM     15  C   UNL d   1       7.871   0.820 -15.094  0.00  0.00    -0.000 A 
ATOM     16  C   UNL d   1       7.369   2.065 -14.674  0.00  0.00    -0.004 A 
ENDBRANCH   9  11
ENDBRANCH   7   8
ENDBRANCH   4   7
BRANCH   1  17
ATOM     17  C   UNL d   1      10.914   7.539  -7.364  0.00  0.00     0.056 A 
ATOM     18  C   UNL d   1      10.914   8.952  -7.273  0.00  0.00     0.018 A 
ATOM     19  C   UNL d   1      11.187   9.591  -6.044  0.00  0.00     0.013 A 
ATOM     20  C   UNL d   1      11.466   8.824  -4.896  0.00  0.00     0.058 A 
ATOM     21 CL   UNL d   1      11.830   9.581  -3.392  0.00  0.00    -0.082 Cl
ATOM     22  C   UNL d   1      11.459   7.423  -4.976  0.00  0.00     0.013 A 
ATOM     23  C   UNL d   1      11.199   6.787  -6.202  0.00  0.00     0.018 A 
ENDBRANCH   1  17
TORSDOF 4
