REMARK  8 active torsions:
REMARK  status: ('A' for Active; 'I' for Inactive)
REMARK    1  A    between atoms: O_2  and  C_3 
REMARK    2  A    between atoms: C_7  and  C_8 
REMARK       I    between atoms: C_8  and  N_10 
REMARK    3  A    between atoms: N_10  and  C_11 
REMARK    4  A    between atoms: C_11  and  C_12 
REMARK    5  A    between atoms: C_12  and  N_13 
REMARK    6  A    between atoms: N_16  and  C_17 
REMARK    7  A    between atoms: C_17  and  C_18 
REMARK    8  A    between atoms: C_23  and  O_24 
ROOT
ATOM      1  N   UNL d   1       8.945   6.013  -9.960  0.00  0.00     0.143 N 
ATOM      2  C   UNL d   1       9.499   6.876 -11.004  0.00  0.00     0.286 C 
ATOM      3  C   UNL d   1       8.939   6.536 -12.401  0.00  0.00     0.286 C 
ATOM      4  N   UNL d   1       9.222   5.156 -12.779  0.00  0.00     0.146 N 
ATOM      5  C   UNL d   1       8.658   4.294 -11.745  0.00  0.00     0.286 C 
ATOM      6  C   UNL d   1       9.189   4.624 -10.325  0.00  0.00     0.286 C 
ENDROOT
BRANCH   1   7
ATOM      7  C   UNL d   1       9.482   6.304  -8.639  0.00  0.00     0.277 C 
BRANCH   7   8
ATOM      8  C   UNL d   1       9.060   7.652  -8.039  0.00  0.00     0.164 C 
BRANCH   8   9
ATOM      9  N   UNL d   1       9.728   7.862  -6.776  0.00  0.00    -0.232 NA
ATOM     10  C   UNL d   1      10.686   8.766  -6.563  0.00  0.00     0.275 C 
ATOM     11  O   UNL d   1      11.089   9.581  -7.396  0.00  0.00    -0.266 OA
BRANCH  10  12
ATOM     12  C   UNL d   1      11.232   8.759  -5.185  0.00  0.00     0.059 A 
ATOM     13  C   UNL d   1      11.251   9.950  -4.439  0.00  0.00     0.005 A 
ATOM     14  C   UNL d   1      11.827   9.958  -3.162  0.00  0.00     0.002 A 
ATOM     15  C   UNL d   1      12.389   8.791  -2.622  0.00  0.00     0.024 A 
ATOM     16  C   UNL d   1      12.339   7.586  -3.363  0.00  0.00     0.094 A 
ATOM     17  C   UNL d   1      11.792   7.583  -4.650  0.00  0.00     0.029 A 
BRANCH  16  18
ATOM     18  O   UNL d   1      12.851   6.401  -2.930  0.00  0.00    -0.328 OA
ATOM     19  C   UNL d   1      12.672   6.113  -1.594  0.00  0.00     0.181 C 
ENDBRANCH  16  18
ENDBRANCH  10  12
ENDBRANCH   8   9
ENDBRANCH   7   8
ENDBRANCH   1   7
BRANCH   4  20
ATOM     20  C   UNL d   1       8.671   4.822 -14.093  0.00  0.00     0.279 C 
BRANCH  20  21
ATOM     21  C   UNL d   1       9.103   3.452 -14.609  0.00  0.00     0.033 A 
ATOM     22  C   UNL d   1       8.219   2.345 -14.565  0.00  0.00     0.092 A 
ATOM     23  C   UNL d   1       8.665   1.083 -15.042  0.00  0.00     0.024 A 
ATOM     24  C   UNL d   1       9.968   0.933 -15.557  0.00  0.00     0.002 A 
ATOM     25  C   UNL d   1      10.840   2.035 -15.602  0.00  0.00    -0.000 A 
ATOM     26  C   UNL d   1      10.408   3.288 -15.125  0.00  0.00    -0.000 A 
BRANCH  22  27
ATOM     27  O   UNL d   1       6.957   2.560 -14.052  0.00  0.00    -0.328 OA
ATOM     28  C   UNL d   1       6.080   1.455 -13.915  0.00  0.00     0.181 C 
ENDBRANCH  22  27
ENDBRANCH  20  21
ENDBRANCH   4  20
TORSDOF 8
