REMARK  10 active torsions:
REMARK  status: ('A' for Active; 'I' for Inactive)
REMARK    1  A    between atoms: O_2  and  C_3 
REMARK    2  A    between atoms: C_8  and  N_9 
REMARK    3  A    between atoms: N_12  and  C_13 
REMARK    4  A    between atoms: C_13  and  C_14 
REMARK    5  A    between atoms: C_14  and  C_15 
REMARK    6  A    between atoms: C_15  and  C_16 
REMARK    7  A    between atoms: C_16  and  N_17 
REMARK       I    between atoms: N_17  and  C_18 
REMARK    8  A    between atoms: C_18  and  C_20 
REMARK    9  A    between atoms: C_23  and  C_24 
REMARK   10  A    between atoms: C_25  and  C_26 
ROOT
ATOM      1  C   UNL d   1      10.465   1.087 -18.230  0.00  0.00     0.129 C 
ENDROOT
BRANCH   1   2
ATOM      2  C   UNL d   1      11.040   2.153 -19.188  0.00  0.00     0.029 C 
BRANCH   2   3
ATOM      3  C   UNL d   1      12.360   2.777 -18.701  0.00  0.00     0.037 C 
BRANCH   3   4
ATOM      4  C   UNL d   1      12.890   3.870 -19.645  0.00  0.00     0.251 C 
BRANCH   4   5
ATOM      5  N   UNL d   1      14.285   4.205 -19.358  0.00  0.00     0.141 N 
ATOM      6  C   UNL d   1      14.810   5.031 -20.456  0.00  0.00     0.274 C 
ATOM      7  C   UNL d   1      16.299   5.360 -20.226  0.00  0.00     0.137 C 
ATOM      8  N   UNL d   1      16.497   5.974 -18.917  0.00  0.00    -0.343 N 
ATOM      9  C   UNL d   1      15.868   5.304 -17.787  0.00  0.00     0.137 C 
ATOM     10  C   UNL d   1      14.398   4.970 -18.106  0.00  0.00     0.274 C 
BRANCH   8  11
ATOM     11  C   UNL d   1      17.112   7.228 -18.767  0.00  0.00     0.079 A 
ATOM     12  C   UNL d   1      16.707   8.348 -19.538  0.00  0.00     0.110 A 
ATOM     13  C   UNL d   1      17.374   9.585 -19.351  0.00  0.00     0.026 A 
ATOM     14  C   UNL d   1      18.412   9.712 -18.408  0.00  0.00     0.002 A 
ATOM     15  C   UNL d   1      18.800   8.603 -17.642  0.00  0.00     0.002 A 
ATOM     16  C   UNL d   1      18.152   7.365 -17.819  0.00  0.00     0.019 A 
BRANCH  12  17
ATOM     17  O   UNL d   1      15.660   8.181 -20.423  0.00  0.00    -0.327 OA
ATOM     18  C   UNL d   1      15.216   9.298 -21.177  0.00  0.00     0.181 C 
ENDBRANCH  12  17
ENDBRANCH   8  11
ENDBRANCH   4   5
ENDBRANCH   3   4
ENDBRANCH   2   3
ENDBRANCH   1   2
BRANCH   1  19
ATOM     19  N   UNL d   1      10.242   1.638 -16.898  0.00  0.00    -0.234 NA
ATOM     20  C   UNL d   1       9.156   2.332 -16.535  0.00  0.00     0.275 C 
ATOM     21  O   UNL d   1       8.130   2.393 -17.213  0.00  0.00    -0.266 OA
BRANCH  20  22
ATOM     22  C   UNL d   1       9.268   3.057 -15.225  0.00  0.00     0.058 A 
ATOM     23  C   UNL d   1       8.120   3.247 -14.428  0.00  0.00     0.005 A 
ATOM     24  C   UNL d   1       8.196   3.987 -13.231  0.00  0.00     0.008 A 
ATOM     25  C   UNL d   1       9.425   4.537 -12.819  0.00  0.00     0.042 A 
ATOM     26  C   UNL d   1      10.575   4.353 -13.614  0.00  0.00     0.008 A 
ATOM     27  C   UNL d   1      10.496   3.626 -14.816  0.00  0.00     0.005 A 
BRANCH  25  28
ATOM     28  C   UNL d   1       9.500   5.292 -11.578  0.00  0.00    -0.059 C 
ATOM     29  C   UNL d   1       9.611   5.938 -10.546  0.00  0.00    -0.059 C 
BRANCH  29  30
ATOM     30  C   UNL d   1       9.779   6.727  -9.337  0.00  0.00     0.042 A 
ATOM     31  C   UNL d   1      10.641   7.845  -9.335  0.00  0.00     0.008 A 
ATOM     32  C   UNL d   1      10.783   8.627  -8.171  0.00  0.00     0.001 A 
ATOM     33  C   UNL d   1      10.068   8.292  -7.005  0.00  0.00     0.000 A 
ATOM     34  C   UNL d   1       9.215   7.170  -7.004  0.00  0.00     0.001 A 
ATOM     35  C   UNL d   1       9.070   6.389  -8.166  0.00  0.00     0.008 A 
ENDBRANCH  29  30
ENDBRANCH  25  28
ENDBRANCH  20  22
ENDBRANCH   1  19
TORSDOF 10
