REMARK  5 active torsions:
REMARK  status: ('A' for Active; 'I' for Inactive)
REMARK    1  A    between atoms: C_5  and  C_6 
REMARK    2  A    between atoms: N_12  and  C_13 
REMARK    3  A    between atoms: C_13  and  C_14 
REMARK    4  A    between atoms: C_14  and  N_15 
REMARK    5  A    between atoms: N_18  and  C_19 
ROOT
ATOM      1  C   UNL d   1       9.851   1.964 -15.983  0.00  0.00     0.083 A 
ATOM      2  C   UNL d   1       8.528   1.838 -15.603  0.00  0.00     0.040 A 
ATOM      3  C   UNL d   1       8.324   2.818 -14.593  0.00  0.00     0.110 A 
ATOM      4  N   UNL d   1       7.180   3.195 -13.864  0.00  0.00    -0.191 NA
ATOM      5  C   UNL d   1       7.210   4.192 -12.931  0.00  0.00     0.352 A 
ATOM      6  O   UNL d   1       6.181   4.436 -12.303  0.00  0.00    -0.244 OA
ATOM      7  N   UNL d   1       8.405   4.866 -12.735  0.00  0.00    -0.244 N 
ATOM      8  C   UNL d   1       9.570   4.583 -13.404  0.00  0.00     0.283 A 
ATOM      9  O   UNL d   1      10.649   5.156 -13.249  0.00  0.00    -0.265 OA
ATOM     10  C   UNL d   1       9.458   3.493 -14.372  0.00  0.00     0.155 A 
ATOM     11  N   UNL d   1      10.414   2.980 -15.213  0.00  0.00    -0.239 NA
ENDROOT
BRANCH   7  12
ATOM     12  C   UNL d   1       8.472   5.912 -11.686  0.00  0.00     0.149 C 
BRANCH  12  13
ATOM     13  C   UNL d   1       8.915   5.318 -10.335  0.00  0.00     0.275 C 
BRANCH  13  14
ATOM     14  N   UNL d   1       9.068   6.381  -9.347  0.00  0.00     0.143 N 
ATOM     15  C   UNL d   1       8.666   5.907  -8.019  0.00  0.00     0.274 C 
ATOM     16  C   UNL d   1       8.792   7.024  -6.966  0.00  0.00     0.137 C 
ATOM     17  N   UNL d   1      10.130   7.597  -6.961  0.00  0.00    -0.344 N 
ATOM     18  C   UNL d   1      10.599   8.015  -8.269  0.00  0.00     0.137 C 
ATOM     19  C   UNL d   1      10.448   6.868  -9.291  0.00  0.00     0.274 C 
BRANCH  17  20
ATOM     20  C   UNL d   1      10.889   7.761  -5.777  0.00  0.00     0.067 A 
ATOM     21  C   UNL d   1      11.505   8.981  -5.402  0.00  0.00     0.073 A 
ATOM     22  C   UNL d   1      12.275   9.075  -4.234  0.00  0.00     0.013 A 
ATOM     23 CL   UNL d   1      11.360  10.403  -6.340  0.00  0.00    -0.081 Cl
ATOM     24  C   UNL d   1      12.457   7.963  -3.401  0.00  0.00     0.001 A 
ATOM     25  C   UNL d   1      11.857   6.753  -3.757  0.00  0.00     0.002 A 
ATOM     26  C   UNL d   1      11.080   6.660  -4.928  0.00  0.00     0.018 A 
ENDBRANCH  17  20
ENDBRANCH  13  14
ENDBRANCH  12  13
ENDBRANCH   7  12
BRANCH   1  27
ATOM     27  C   UNL d   1      10.657   1.262 -16.980  0.00  0.00     0.018 A 
ATOM     28  C   UNL d   1      11.876   1.802 -17.455  0.00  0.00     0.001 A 
ATOM     29  C   UNL d   1      12.645   1.120 -18.415  0.00  0.00    -0.004 A 
ATOM     30  C   UNL d   1      12.213  -0.122 -18.914  0.00  0.00    -0.022 A 
ATOM     31  C   UNL d   1      13.055  -0.857 -19.936  0.00  0.00     0.031 C 
ATOM     32  C   UNL d   1      10.996  -0.668 -18.455  0.00  0.00    -0.004 A 
ATOM     33  C   UNL d   1      10.225   0.021 -17.497  0.00  0.00     0.001 A 
ENDBRANCH   1  27
TORSDOF 5
