REMARK  3 active torsions:
REMARK  status: ('A' for Active; 'I' for Inactive)
REMARK    1  A    between atoms: C_2  and  C_4 
REMARK    2  A    between atoms: C_2  and  C_12 
REMARK    3  A    between atoms: C_4  and  C_6 
ROOT
ATOM      1  C   UNL d   1       9.996   3.995 -16.188  0.00  0.00     0.012 C 
ATOM      2  C   UNL d   1       9.829   2.565 -15.591  0.00  0.00     0.076 C 
ATOM      3  C   UNL d   1      10.848   2.367 -14.440  0.00  0.00     0.012 C 
ENDROOT
BRANCH   2   4
ATOM      4  C   UNL d   1       8.361   2.421 -15.062  0.00  0.00     0.177 C 
ATOM      5  O   UNL d   1       7.646   1.546 -15.540  0.00  0.00    -0.291 OA
BRANCH   4   6
ATOM      6  C   UNL d   1       7.806   3.345 -14.016  0.00  0.00     0.054 A 
ATOM      7  C   UNL d   1       6.456   3.186 -13.611  0.00  0.00     0.102 A 
ATOM      8  N   UNL d   1       5.832   3.969 -12.704  0.00  0.00    -0.242 NA
ATOM      9  C   UNL d   1       6.538   4.968 -12.137  0.00  0.00     0.099 A 
ATOM     10  C   UNL d   1       7.887   5.218 -12.466  0.00  0.00     0.021 A 
ATOM     11  C   UNL d   1       8.530   4.405 -13.409  0.00  0.00     0.006 A 
ENDBRANCH   4   6
ENDBRANCH   2   4
BRANCH   2  12
ATOM     12  C   UNL d   1      10.172   1.472 -16.642  0.00  0.00     0.003 A 
ATOM     13  C   UNL d   1       9.952   0.095 -16.368  0.00  0.00     0.095 A 
ATOM     14  N   UNL d   1      10.243  -0.904 -17.224  0.00  0.00    -0.243 NA
ATOM     15  C   UNL d   1      10.775  -0.589 -18.419  0.00  0.00     0.099 A 
ATOM     16  C   UNL d   1      11.065   0.734 -18.795  0.00  0.00     0.020 A 
ATOM     17  C   UNL d   1      10.761   1.772 -17.892  0.00  0.00    -0.001 A 
ENDBRANCH   2  12
TORSDOF 3
