REMARK  5 active torsions:
REMARK  status: ('A' for Active; 'I' for Inactive)
REMARK    1  A    between atoms: C_2  and  C_3 
REMARK    2  A    between atoms: C_2  and  C_17 
REMARK    3  A    between atoms: C_3  and  C_4 
REMARK    4  A    between atoms: C_4  and  C_5 
REMARK    5  A    between atoms: C_5  and  N_6 
ROOT
ATOM      1  C   UNL d   1       9.104   6.547 -10.770  0.00  0.00     0.251 C 
ENDROOT
BRANCH   1   2
ATOM      2  C   UNL d   1       8.933   5.936  -9.346  0.00  0.00     0.043 C 
BRANCH   2   3
ATOM      3  C   UNL d   1      10.176   6.107  -8.471  0.00  0.00     0.071 C 
BRANCH   3   4
ATOM      4  C   UNL d   1      10.462   7.551  -8.045  0.00  0.00     0.173 C 
ATOM      5  O   UNL d   1      10.308   8.461  -8.856  0.00  0.00    -0.291 OA
BRANCH   4   6
ATOM      6  C   UNL d   1      10.938   7.799  -6.662  0.00  0.00     0.035 A 
ATOM      7  C   UNL d   1      11.291   6.755  -5.776  0.00  0.00     0.004 A 
ATOM      8  C   UNL d   1      11.727   7.029  -4.467  0.00  0.00     0.011 A 
ATOM      9  C   UNL d   1      11.855   8.364  -4.041  0.00  0.00     0.058 A 
ATOM     10  C   UNL d   1      11.536   9.413  -4.924  0.00  0.00     0.011 A 
ATOM     11 CL   UNL d   1      12.412   8.708  -2.445  0.00  0.00    -0.082 Cl
ATOM     12  C   UNL d   1      11.081   9.134  -6.227  0.00  0.00     0.004 A 
ENDBRANCH   4   6
ENDBRANCH   3   4
ENDBRANCH   2   3
ENDBRANCH   1   2
BRANCH   1  13
ATOM     13  N   UNL d   1       8.492   5.783 -11.861  0.00  0.00     0.141 N 
ATOM     14  C   UNL d   1       9.199   4.517 -11.969  0.00  0.00     0.276 C 
ATOM     15  C   UNL d   1       9.054   3.800 -13.285  0.00  0.00     0.007 A 
ATOM     16  C   UNL d   1       7.803   3.306 -13.720  0.00  0.00    -0.024 A 
ATOM     17  C   UNL d   1      10.226   3.579 -14.042  0.00  0.00    -0.003 A 
ATOM     18  C   UNL d   1       6.521   3.527 -12.921  0.00  0.00     0.028 C 
ATOM     19  C   UNL d   1       7.750   2.582 -14.933  0.00  0.00    -0.004 A 
ATOM     20  C   UNL d   1       6.245   4.999 -12.669  0.00  0.00     0.040 C 
ATOM     21  C   UNL d   1       7.085   5.592 -11.543  0.00  0.00     0.251 C 
ATOM     22  C   UNL d   1       8.915   2.397 -15.710  0.00  0.00    -0.000 A 
ATOM     23  C   UNL d   1      10.155   2.884 -15.260  0.00  0.00    -0.000 A 
ENDBRANCH   1  13
TORSDOF 5
