REMARK  6 active torsions:
REMARK  status: ('A' for Active; 'I' for Inactive)
REMARK    1  A    between atoms: N_3  and  C_4 
REMARK    2  A    between atoms: C_4  and  C_5 
REMARK    3  A    between atoms: C_5  and  N_6 
REMARK    4  A    between atoms: N_17  and  C_18 
REMARK    5  A    between atoms: C_18  and  C_19 
REMARK    6  A    between atoms: C_23  and  C_24 
ROOT
ATOM      1  O   UNL d   1       8.687   4.791  -9.639  0.00  0.00    -0.247 OA
ATOM      2  C   UNL d   1       8.702   5.761 -10.398  0.00  0.00     0.324 A 
ATOM      3  N   UNL d   1       9.507   6.826 -10.288  0.00  0.00    -0.299 N 
ATOM      4  C   UNL d   1       9.337   7.803 -11.353  0.00  0.00     0.130 A 
ATOM      5  C   UNL d   1       8.240   7.165 -12.206  0.00  0.00     0.130 A 
ATOM      6  N   UNL d   1       7.946   5.925 -11.495  0.00  0.00    -0.297 N 
ENDROOT
BRANCH   3   7
ATOM      7  C   UNL d   1      10.484   7.036  -9.223  0.00  0.00     0.141 C 
BRANCH   7   8
ATOM      8  C   UNL d   1       9.907   7.961  -8.141  0.00  0.00     0.275 C 
BRANCH   8   9
ATOM      9  N   UNL d   1      10.832   8.067  -7.021  0.00  0.00     0.148 N 
ATOM     10  C   UNL d   1      10.819   6.888  -6.140  0.00  0.00     0.277 C 
ATOM     11  C   UNL d   1      11.358   7.438  -4.849  0.00  0.00     0.009 A 
ATOM     12  C   UNL d   1      11.212   8.809  -4.851  0.00  0.00     0.009 A 
ATOM     13  C   UNL d   1      11.889   6.758  -3.746  0.00  0.00    -0.003 A 
ATOM     14  C   UNL d   1      10.557   9.212  -6.144  0.00  0.00     0.277 C 
ATOM     15  C   UNL d   1      11.595   9.589  -3.748  0.00  0.00    -0.003 A 
ATOM     16  C   UNL d   1      12.156   8.928  -2.634  0.00  0.00    -0.000 A 
ATOM     17  C   UNL d   1      12.291   7.519  -2.628  0.00  0.00    -0.000 A 
ENDBRANCH   8   9
ENDBRANCH   7   8
ENDBRANCH   3   7
BRANCH   6  18
ATOM     18  C   UNL d   1       6.992   4.955 -12.029  0.00  0.00     0.133 C 
BRANCH  18  19
ATOM     19  C   UNL d   1       7.561   4.061 -13.121  0.00  0.00     0.000 A 
ATOM     20  C   UNL d   1       8.906   4.177 -13.542  0.00  0.00     0.002 A 
ATOM     21  C   UNL d   1       9.424   3.348 -14.553  0.00  0.00     0.071 A 
ATOM     22  C   UNL d   1       8.588   2.376 -15.148  0.00  0.00     0.004 A 
ATOM     23  C   UNL d   1       7.250   2.236 -14.720  0.00  0.00    -0.000 A 
ATOM     24  C   UNL d   1       6.738   3.080 -13.712  0.00  0.00    -0.002 A 
BRANCH  21  25
ATOM     25  C   UNL d   1      10.864   3.539 -15.009  0.00  0.00     0.419 C 
ATOM     26  F   UNL d   1      11.610   4.114 -14.062  0.00  0.00    -0.166 F 
ATOM     27  F   UNL d   1      11.420   2.370 -15.324  0.00  0.00    -0.166 F 
ATOM     28  F   UNL d   1      10.876   4.328 -16.083  0.00  0.00    -0.166 F 
ENDBRANCH  21  25
ENDBRANCH  18  19
ENDBRANCH   6  18
TORSDOF 6
