REMARK  6 active torsions:
REMARK  status: ('A' for Active; 'I' for Inactive)
REMARK       I    between atoms: C_2  and  N_3 
REMARK    1  A    between atoms: C_2  and  C_27 
REMARK    2  A    between atoms: N_3  and  C_4 
REMARK    3  A    between atoms: C_7  and  C_8 
REMARK    4  A    between atoms: C_8  and  C_9 
REMARK    5  A    between atoms: C_9  and  N_10 
REMARK    6  A    between atoms: N_13  and  C_14 
ROOT
ATOM      1  C   UNL d   1       9.309   6.612  -9.568  0.00  0.00     0.106 C 
ATOM      2  C   UNL d   1       9.783   7.393 -10.830  0.00  0.00     0.024 C 
ATOM      3  C   UNL d   1       9.128   6.895 -12.117  0.00  0.00     0.002 C 
ATOM      4  C   UNL d   1       9.397   5.414 -12.339  0.00  0.00     0.002 C 
ATOM      5  C   UNL d   1       8.959   4.622 -11.107  0.00  0.00     0.002 C 
ATOM      6  C   UNL d   1       9.531   5.123  -9.770  0.00  0.00     0.024 C 
ENDROOT
BRANCH   4   7
ATOM      7  C   UNL d   1       8.726   4.897 -13.623  0.00  0.00     0.035 C 
BRANCH   7   8
ATOM      8  C   UNL d   1       9.321   3.569 -14.104  0.00  0.00     0.250 C 
BRANCH   8   9
ATOM      9  N   UNL d   1       8.689   3.164 -15.353  0.00  0.00     0.141 N 
ATOM     10  C   UNL d   1       7.475   2.381 -15.096  0.00  0.00     0.274 C 
ATOM     11  C   UNL d   1       6.765   1.951 -16.401  0.00  0.00     0.137 C 
ATOM     12  N   UNL d   1       7.703   1.306 -17.289  0.00  0.00    -0.343 N 
ATOM     13  C   UNL d   1       8.960   2.003 -17.518  0.00  0.00     0.137 C 
ATOM     14  C   UNL d   1       9.612   2.376 -16.171  0.00  0.00     0.274 C 
BRANCH  12  15
ATOM     15  C   UNL d   1       7.428   0.020 -17.840  0.00  0.00     0.081 A 
ATOM     16  C   UNL d   1       6.117  -0.418 -18.124  0.00  0.00     0.135 A 
ATOM     17  C   UNL d   1       5.864  -1.682 -18.644  0.00  0.00     0.121 A 
ATOM     18  O   UNL d   1       4.928   0.235 -18.000  0.00  0.00    -0.298 OA
ATOM     19  C   UNL d   1       6.902  -2.576 -18.925  0.00  0.00     0.026 A 
ATOM     20  O   UNL d   1       4.532  -1.854 -18.832  0.00  0.00    -0.299 OA
ATOM     21  C   UNL d   1       8.209  -2.143 -18.660  0.00  0.00     0.004 A 
ATOM     22  C   UNL d   1       8.478  -0.869 -18.115  0.00  0.00     0.019 A 
ATOM     23  C   UNL d   1       3.926  -0.661 -18.414  0.00  0.00     0.304 A 
ENDBRANCH  12  15
ENDBRANCH   8   9
ENDBRANCH   7   8
ENDBRANCH   4   7
BRANCH   1  24
ATOM     24  N   UNL d   1      10.051   7.003  -8.372  0.00  0.00    -0.240 NA
ATOM     25  C   UNL d   1      10.194   8.261  -7.938  0.00  0.00     0.254 C 
ATOM     26  O   UNL d   1       9.662   9.191  -8.503  0.00  0.00    -0.271 OA
BRANCH  25  27
ATOM     27  C   UNL d   1      11.043   8.526  -6.706  0.00  0.00     0.115 C 
ATOM     28  C   UNL d   1      11.045   7.305  -5.792  0.00  0.00     0.040 C 
ATOM     29  C   UNL d   1      11.534   7.656  -4.423  0.00  0.00     0.001 A 
ATOM     30  C   UNL d   1      11.652   9.006  -4.014  0.00  0.00     0.090 A 
ATOM     31  C   UNL d   1      11.889   6.621  -3.550  0.00  0.00    -0.002 A 
ATOM     32  O   UNL d   1      11.291  10.057  -4.810  0.00  0.00    -0.331 OA
ATOM     33  C   UNL d   1      12.164   9.293  -2.747  0.00  0.00     0.024 A 
ATOM     34  C   UNL d   1      10.510   9.742  -5.939  0.00  0.00     0.159 C 
ATOM     35  C   UNL d   1      12.537   8.256  -1.878  0.00  0.00     0.002 A 
ATOM     36  C   UNL d   1      12.383   6.914  -2.277  0.00  0.00    -0.000 A 
ENDBRANCH  25  27
ENDBRANCH   1  24
TORSDOF 6
