REMARK  9 active torsions:
REMARK  status: ('A' for Active; 'I' for Inactive)
REMARK    1  A    between atoms: C_2  and  C_3 
REMARK    2  A    between atoms: C_3  and  C_4 
REMARK    3  A    between atoms: N_6  and  C_7 
REMARK    4  A    between atoms: C_7  and  C_8 
REMARK    5  A    between atoms: C_15  and  C_16 
REMARK    6  A    between atoms: C_16  and  N_17 
REMARK       I    between atoms: N_17  and  C_18 
REMARK    7  A    between atoms: C_18  and  C_20 
REMARK    8  A    between atoms: C_24  and  N_25 
REMARK    9  A    between atoms: C_28  and  O_29 
ROOT
ATOM      1  C   UNL d   1      10.606   8.415 -10.192  0.00  0.00     0.037 C 
ATOM      2  C   UNL d   1      10.293   8.430  -8.709  0.00  0.00     0.251 C 
ATOM      3  N   UNL d   1      10.333   7.030  -8.329  0.00  0.00     0.141 N 
ATOM      4  C   UNL d   1       9.532   6.401  -9.386  0.00  0.00     0.253 C 
ATOM      5  C   UNL d   1      10.066   7.065 -10.680  0.00  0.00     0.060 C 
ENDROOT
BRANCH   5   6
ATOM      6  C   UNL d   1       9.068   7.312 -11.817  0.00  0.00     0.131 C 
BRANCH   6   7
ATOM      7  N   UNL d   1       8.556   6.044 -12.251  0.00  0.00    -0.234 NA
ATOM      8  C   UNL d   1       9.190   5.257 -13.137  0.00  0.00     0.277 C 
ATOM      9  O   UNL d   1      10.277   5.553 -13.642  0.00  0.00    -0.266 OA
BRANCH   8  10
ATOM     10  C   UNL d   1       8.464   4.011 -13.544  0.00  0.00     0.081 A 
ATOM     11  C   UNL d   1       9.096   2.981 -14.305  0.00  0.00     0.100 A 
ATOM     12  C   UNL d   1       8.344   1.818 -14.658  0.00  0.00     0.044 A 
ATOM     13  C   UNL d   1       6.990   1.688 -14.275  0.00  0.00     0.089 A 
ATOM     14  C   UNL d   1       6.374   2.733 -13.531  0.00  0.00     0.075 A 
ATOM     15  C   UNL d   1       7.109   3.866 -13.192  0.00  0.00     0.020 A 
ATOM     16 CL   UNL d   1       4.828   2.658 -12.820  0.00  0.00    -0.081 Cl
BRANCH  11  17
ATOM     17  O   UNL d   1      10.413   3.159 -14.669  0.00  0.00    -0.328 OA
ATOM     18  C   UNL d   1      11.110   2.126 -15.337  0.00  0.00     0.181 C 
ENDBRANCH  11  17
BRANCH  13  19
ATOM     19  N   UNL d   1       6.312   0.488 -14.567  0.00  0.00    -0.268 NA
ATOM     20  C   UNL d   1       5.998  -0.442 -13.484  0.00  0.00     0.152 C 
ENDBRANCH  13  19
ENDBRANCH   8  10
ENDBRANCH   6   7
ENDBRANCH   5   6
BRANCH   1  21
ATOM     21  C   UNL d   1      12.093   8.784 -10.398  0.00  0.00     0.002 C 
BRANCH  21  22
ATOM     22  C   UNL d   1      13.062   7.692  -9.891  0.00  0.00     0.000 C 
ATOM     23  C   UNL d   1      14.549   7.968 -10.079  0.00  0.00     0.000 C 
ENDBRANCH  21  22
ENDBRANCH   1  21
BRANCH   3  24
ATOM     24  C   UNL d   1       9.784   6.799  -6.991  0.00  0.00     0.277 C 
BRANCH  24  25
ATOM     25  C   UNL d   1      10.514   7.527  -5.843  0.00  0.00     0.011 A 
ATOM     26  C   UNL d   1      10.407   8.924  -5.683  0.00  0.00    -0.002 A 
ATOM     27  C   UNL d   1      11.114   9.596  -4.662  0.00  0.00    -0.000 A 
ATOM     28  C   UNL d   1      11.867   8.861  -3.711  0.00  0.00    -0.000 A 
ATOM     29  C   UNL d   1      11.914   7.461  -3.817  0.00  0.00    -0.000 A 
ATOM     30  C   UNL d   1      11.265   6.790  -4.895  0.00  0.00    -0.002 A 
ENDBRANCH  24  25
ENDBRANCH   3  24
TORSDOF 9
