REMARK  6 active torsions:
REMARK  status: ('A' for Active; 'I' for Inactive)
REMARK    1  A    between atoms: C_2  and  C_3 
REMARK    2  A    between atoms: C_3  and  N_4 
REMARK    3  A    between atoms: N_7  and  C_8 
REMARK    4  A    between atoms: C_11  and  O_12 
REMARK    5  A    between atoms: O_12  and  S_13 
REMARK    6  A    between atoms: S_13  and  C_16 
ROOT
ATOM      1  C   UNL d   1      10.165   6.587  -8.842  0.00  0.00     0.056 A 
ATOM      2  C   UNL d   1       9.327   5.541  -8.393  0.00  0.00     0.019 A 
ATOM      3  C   UNL d   1       8.571   4.798  -9.304  0.00  0.00     0.027 A 
ATOM      4  C   UNL d   1       8.613   5.108 -10.672  0.00  0.00     0.114 A 
ATOM      5  C   UNL d   1       9.473   6.126 -11.125  0.00  0.00     0.027 A 
ATOM      6  C   UNL d   1      10.234   6.859 -10.221  0.00  0.00     0.019 A 
ENDROOT
BRANCH   1   7
ATOM      7  N   UNL d   1      10.942   7.324  -7.951  0.00  0.00    -0.344 N 
ATOM      8  C   UNL d   1      11.487   6.727  -6.752  0.00  0.00     0.137 C 
ATOM      9  C   UNL d   1      11.084   7.557  -5.538  0.00  0.00     0.274 C 
ATOM     10  N   UNL d   1      11.550   8.951  -5.695  0.00  0.00     0.141 N 
ATOM     11  C   UNL d   1      10.855   9.517  -6.872  0.00  0.00     0.274 C 
ATOM     12  C   UNL d   1      11.226   8.737  -8.149  0.00  0.00     0.137 C 
BRANCH  10  13
ATOM     13  C   UNL d   1      11.229   9.746  -4.516  0.00  0.00     0.250 C 
BRANCH  13  14
ATOM     14  C   UNL d   1      12.290   9.662  -3.395  0.00  0.00     0.035 C 
ATOM     15  C   UNL d   1      12.414   8.327  -2.645  0.00  0.00     0.002 C 
ENDBRANCH  13  14
ENDBRANCH  10  13
ENDBRANCH   1   7
BRANCH   4  16
ATOM     16  O   UNL d   1       7.801   4.387 -11.513  0.00  0.00    -0.224 OA
BRANCH  16  17
ATOM     17  S   UNL d   1       7.191   5.173 -12.864  0.00  0.00     0.374 S 
ATOM     18  O   UNL d   1       6.533   6.415 -12.447  0.00  0.00    -0.189 OA
ATOM     19  O   UNL d   1       8.264   5.183 -13.883  0.00  0.00    -0.189 OA
BRANCH  17  20
ATOM     20  C   UNL d   1       5.896   3.973 -13.393  0.00  0.00     0.524 C 
ATOM     21  F   UNL d   1       4.815   4.661 -13.756  0.00  0.00    -0.155 F 
ATOM     22  F   UNL d   1       6.353   3.263 -14.421  0.00  0.00    -0.155 F 
ATOM     23  F   UNL d   1       5.592   3.173 -12.372  0.00  0.00    -0.155 F 
ENDBRANCH  17  20
ENDBRANCH  16  17
ENDBRANCH   4  16
TORSDOF 6
