REMARK  4 active torsions:
REMARK  status: ('A' for Active; 'I' for Inactive)
REMARK    1  A    between atoms: C_6  and  N_7 
REMARK    2  A    between atoms: N_10  and  C_11 
REMARK    3  A    between atoms: C_11  and  C_12 
REMARK    4  A    between atoms: C_12  and  N_13 
ROOT
ATOM      1  N   UNL d   1      10.129   6.431  -8.738  0.00  0.00    -0.280 N 
ATOM      2  C   UNL d   1      10.009   4.979  -8.610  0.00  0.00     0.135 A 
ATOM      3  C   UNL d   1       9.410   4.506  -9.910  0.00  0.00     0.131 A 
ATOM      4  N   UNL d   1       9.190   5.764 -10.586  0.00  0.00    -0.298 N 
ATOM      5  C   UNL d   1       9.645   6.822  -9.921  0.00  0.00     0.328 A 
ATOM      6  O   UNL d   1       9.630   7.973 -10.373  0.00  0.00    -0.247 OA
ENDROOT
BRANCH   4   7
ATOM      7  C   UNL d   1       8.696   5.877 -11.940  0.00  0.00     0.141 C 
BRANCH   7   8
ATOM      8  C   UNL d   1       7.725   4.747 -12.271  0.00  0.00     0.275 C 
BRANCH   8   9
ATOM      9  N   UNL d   1       7.477   4.712 -13.691  0.00  0.00     0.148 N 
ATOM     10  C   UNL d   1       6.412   3.713 -13.933  0.00  0.00     0.277 C 
ATOM     11  C   UNL d   1       7.152   2.438 -14.211  0.00  0.00     0.009 A 
ATOM     12  C   UNL d   1       8.476   2.728 -14.486  0.00  0.00     0.009 A 
ATOM     13  C   UNL d   1       6.678   1.116 -14.210  0.00  0.00    -0.003 A 
ATOM     14  C   UNL d   1       8.670   4.209 -14.421  0.00  0.00     0.277 C 
ATOM     15  C   UNL d   1       9.422   1.736 -14.761  0.00  0.00    -0.003 A 
ATOM     16  C   UNL d   1       8.973   0.389 -14.745  0.00  0.00    -0.000 A 
ATOM     17  C   UNL d   1       7.614   0.092 -14.472  0.00  0.00    -0.000 A 
ENDBRANCH   8   9
ENDBRANCH   7   8
ENDBRANCH   4   7
BRANCH   1  18
ATOM     18  C   UNL d   1      10.666   7.248  -7.686  0.00  0.00     0.066 A 
ATOM     19  C   UNL d   1      10.770   6.739  -6.367  0.00  0.00     0.037 A 
ATOM     20  C   UNL d   1      11.316   7.474  -5.299  0.00  0.00     0.089 A 
ATOM     21  N   UNL d   1      11.540   7.038  -3.994  0.00  0.00    -0.243 NA
ATOM     22  C   UNL d   1      11.664   8.821  -5.557  0.00  0.00     0.048 A 
ATOM     23  C   UNL d   1      11.971   8.069  -3.254  0.00  0.00     0.089 A 
ATOM     24  C   UNL d   1      12.181   7.997  -1.806  0.00  0.00     0.059 C 
ATOM     25  S   UNL d   1      12.192   9.580  -4.080  0.00  0.00    -0.071 SA
ATOM     26  C   UNL d   1      11.593   9.357  -6.850  0.00  0.00     0.009 A 
ATOM     27  C   UNL d   1      11.152   8.555  -7.913  0.00  0.00     0.018 A 
ENDBRANCH   1  18
TORSDOF 4
