REMARK  6 active torsions:
REMARK  status: ('A' for Active; 'I' for Inactive)
REMARK       I    between atoms: C_2  and  N_3 
REMARK    1  A    between atoms: C_2  and  C_27 
REMARK    2  A    between atoms: N_3  and  C_4 
REMARK    3  A    between atoms: C_7  and  C_8 
REMARK    4  A    between atoms: C_8  and  C_9 
REMARK    5  A    between atoms: C_9  and  N_10 
REMARK    6  A    between atoms: C_13  and  C_14 
ROOT
ATOM      1  C   UNL d   1       7.793   2.056 -15.562  0.00  0.00     0.035 C 
ENDROOT
BRANCH   1   2
ATOM      2  C   UNL d   1       8.158   2.883 -14.322  0.00  0.00     0.002 C 
ATOM      3  C   UNL d   1       9.216   3.948 -14.665  0.00  0.00     0.002 C 
ATOM      4  C   UNL d   1       9.591   4.785 -13.433  0.00  0.00     0.024 C 
ATOM      5  C   UNL d   1       8.352   5.424 -12.765  0.00  0.00     0.107 C 
ATOM      6  C   UNL d   1       7.260   4.381 -12.451  0.00  0.00     0.024 C 
ATOM      7  C   UNL d   1       6.908   3.540 -13.681  0.00  0.00     0.002 C 
BRANCH   5   8
ATOM      8  N   UNL d   1       8.732   6.196 -11.578  0.00  0.00    -0.236 NA
ATOM      9  C   UNL d   1       9.272   5.699 -10.454  0.00  0.00     0.275 C 
ATOM     10  O   UNL d   1       9.459   4.511 -10.229  0.00  0.00    -0.266 OA
BRANCH   9  11
ATOM     11  C   UNL d   1       9.696   6.702  -9.434  0.00  0.00     0.058 A 
ATOM     12  C   UNL d   1      10.330   7.903  -9.824  0.00  0.00     0.006 A 
ATOM     13  C   UNL d   1      10.764   8.807  -8.836  0.00  0.00     0.012 A 
ATOM     14  C   UNL d   1      10.563   8.511  -7.472  0.00  0.00     0.058 A 
ATOM     15  C   UNL d   1       9.936   7.304  -7.088  0.00  0.00     0.012 A 
ATOM     16 CL   UNL d   1      11.090   9.622  -6.259  0.00  0.00    -0.082 Cl
ATOM     17  C   UNL d   1       9.514   6.403  -8.079  0.00  0.00     0.006 A 
ENDBRANCH   9  11
ENDBRANCH   5   8
ENDBRANCH   1   2
BRANCH   1  18
ATOM     18  C   UNL d   1       6.767   0.952 -15.272  0.00  0.00     0.250 C 
BRANCH  18  19
ATOM     19  N   UNL d   1       6.537   0.116 -16.437  0.00  0.00     0.137 N 
ATOM     20  C   UNL d   1       5.738  -1.041 -16.028  0.00  0.00     0.251 C 
ATOM     21  C   UNL d   1       5.588  -2.026 -17.206  0.00  0.00     0.040 C 
ATOM     22  C   UNL d   1       4.959  -1.343 -18.431  0.00  0.00     0.028 C 
ATOM     23  C   UNL d   1       5.716  -0.034 -18.720  0.00  0.00     0.040 C 
ATOM     24  C   UNL d   1       5.832   0.845 -17.489  0.00  0.00     0.251 C 
BRANCH  22  25
ATOM     25  C   UNL d   1       4.915  -2.296 -19.639  0.00  0.00     0.002 A 
ATOM     26  C   UNL d   1       3.892  -3.265 -19.739  0.00  0.00     0.115 A 
ATOM     27  C   UNL d   1       3.824  -4.139 -20.811  0.00  0.00     0.119 A 
ATOM     28  O   UNL d   1       2.866  -3.516 -18.886  0.00  0.00    -0.300 OA
ATOM     29  C   UNL d   1       4.770  -4.106 -21.851  0.00  0.00     0.026 A 
ATOM     30  O   UNL d   1       2.753  -4.960 -20.655  0.00  0.00    -0.300 OA
ATOM     31  C   UNL d   1       5.801  -3.151 -21.770  0.00  0.00     0.002 A 
ATOM     32  C   UNL d   1       5.878  -2.258 -20.669  0.00  0.00    -0.002 A 
ATOM     33  C   UNL d   1       2.146  -4.589 -19.443  0.00  0.00     0.304 A 
ENDBRANCH  22  25
ENDBRANCH  18  19
ENDBRANCH   1  18
TORSDOF 6
