REMARK  12 active torsions:
REMARK  status: ('A' for Active; 'I' for Inactive)
REMARK    1  A    between atoms: O_2  and  C_3 
REMARK    2  A    between atoms: C_5  and  C_6 
REMARK    3  A    between atoms: C_6  and  C_7 
REMARK    4  A    between atoms: C_7  and  N_8 
REMARK    5  A    between atoms: N_8  and  C_9 
REMARK    6  A    between atoms: C_9  and  C_10 
REMARK    7  A    between atoms: C_10  and  C_12 
REMARK    8  A    between atoms: C_26  and  O_27 
REMARK    9  A    between atoms: O_27  and  C_28 
REMARK   10  A    between atoms: C_28  and  C_29 
REMARK   11  A    between atoms: C_29  and  C_30 
REMARK   12  A    between atoms: C_30  and  C_31 
ROOT
ATOM      1  C   UNL d   1       9.436   7.435 -10.265  0.00  0.00     0.116 A 
ATOM      2  C   UNL d   1       9.414   6.650 -11.428  0.00  0.00     0.022 A 
ATOM      3  C   UNL d   1       9.583   5.261 -11.332  0.00  0.00    -0.018 A 
ATOM      4  C   UNL d   1       9.761   4.666 -10.077  0.00  0.00    -0.002 A 
ATOM      5  C   UNL d   1       9.744   5.437  -8.918  0.00  0.00     0.026 A 
ATOM      6  C   UNL d   1       9.583   6.843  -8.992  0.00  0.00     0.116 A 
ENDROOT
BRANCH   3   7
ATOM      7  C   UNL d   1       9.637   4.408 -12.564  0.00  0.00     0.052 C 
BRANCH   7   8
ATOM      8  C   UNL d   1       8.235   4.093 -13.051  0.00  0.00     0.125 C 
BRANCH   8   9
ATOM      9  N   UNL d   1       8.274   2.954 -13.948  0.00  0.00    -0.292 NA
BRANCH   9  10
ATOM     10  C   UNL d   1       9.157   3.035 -15.099  0.00  0.00     0.157 C 
BRANCH  10  11
ATOM     11  C   UNL d   1       9.351   1.658 -15.785  0.00  0.00     0.198 C 
ATOM     12  O   UNL d   1      10.460   1.797 -16.657  0.00  0.00    -0.216 OA
BRANCH  11  13
ATOM     13  C   UNL d   1       8.089   1.122 -16.477  0.00  0.00     0.011 A 
ATOM     14  C   UNL d   1       6.986   0.620 -15.736  0.00  0.00     0.018 A 
ATOM     15  C   UNL d   1       5.838   0.139 -16.403  0.00  0.00     0.110 A 
ATOM     16  C   UNL d   1       6.908   0.551 -14.269  0.00  0.00     0.006 A 
ATOM     17  C   UNL d   1       5.785   0.122 -17.809  0.00  0.00     0.149 A 
ATOM     18  N   UNL d   1       4.740  -0.339 -15.635  0.00  0.00    -0.206 NA
ATOM     19  C   UNL d   1       6.879   0.599 -18.552  0.00  0.00     0.029 A 
ATOM     20  O   UNL d   1       4.686  -0.358 -18.462  0.00  0.00    -0.189 OA
ATOM     21  C   UNL d   1       8.020   1.098 -17.893  0.00  0.00     0.001 A 
ATOM     22  C   UNL d   1       4.656  -0.351 -14.290  0.00  0.00     0.279 A 
ATOM     23  O   UNL d   1       3.668  -0.782 -13.709  0.00  0.00    -0.265 OA
ATOM     24  C   UNL d   1       5.829   0.157 -13.594  0.00  0.00     0.063 A 
ENDBRANCH  11  13
ENDBRANCH  10  11
ENDBRANCH   9  10
ENDBRANCH   8   9
ENDBRANCH   7   8
ENDBRANCH   3   7
BRANCH   1  25
ATOM     25  O   UNL d   1       9.262   8.781 -10.382  0.00  0.00    -0.326 OA
ATOM     26  C   UNL d   1      10.255   9.561  -9.792  0.00  0.00     0.181 C 
ENDBRANCH   1  25
BRANCH   6  27
ATOM     27  O   UNL d   1       9.492   7.646  -7.878  0.00  0.00    -0.329 OA
BRANCH  27  28
ATOM     28  C   UNL d   1       9.855   7.122  -6.619  0.00  0.00     0.149 C 
BRANCH  28  29
ATOM     29  C   UNL d   1      11.338   6.732  -6.630  0.00  0.00     0.037 C 
BRANCH  29  30
ATOM     30  C   UNL d   1      11.808   6.162  -5.304  0.00  0.00     0.029 C 
BRANCH  30  31
ATOM     31  C   UNL d   1      11.976   7.181  -4.214  0.00  0.00    -0.022 A 
ATOM     32  C   UNL d   1      11.659   6.848  -2.890  0.00  0.00    -0.004 A 
ATOM     33  C   UNL d   1      11.842   7.835  -1.922  0.00  0.00    -0.000 A 
ATOM     34  C   UNL d   1      12.307   9.108  -2.192  0.00  0.00    -0.000 A 
ATOM     35  C   UNL d   1      12.644   9.413  -3.500  0.00  0.00    -0.000 A 
ATOM     36  C   UNL d   1      12.450   8.475  -4.495  0.00  0.00    -0.004 A 
ENDBRANCH  30  31
ENDBRANCH  29  30
ENDBRANCH  28  29
ENDBRANCH  27  28
ENDBRANCH   6  27
TORSDOF 12
