REMARK  4 active torsions:
REMARK  status: ('A' for Active; 'I' for Inactive)
REMARK    1  A    between atoms: C_2  and  C_3 
REMARK       I    between atoms: C_2  and  N_18 
REMARK    2  A    between atoms: C_3  and  N_4 
REMARK    3  A    between atoms: N_7  and  C_8 
REMARK    4  A    between atoms: C_8  and  C_9 
ROOT
ATOM      1  N   UNL d   1       9.912   2.377 -15.075  0.00  0.00     0.151 N 
ATOM      2  C   UNL d   1       8.609   2.082 -14.519  0.00  0.00     0.286 C 
ATOM      3  C   UNL d   1       7.923   3.340 -13.957  0.00  0.00     0.286 C 
ATOM      4  N   UNL d   1       8.722   4.002 -12.932  0.00  0.00     0.146 N 
ATOM      5  C   UNL d   1      10.027   4.313 -13.517  0.00  0.00     0.286 C 
ATOM      6  C   UNL d   1      10.720   3.055 -14.070  0.00  0.00     0.286 C 
ENDROOT
BRANCH   1   7
ATOM      7  C   UNL d   1      10.579   1.184 -15.649  0.00  0.00     0.337 C 
BRANCH   7   8
ATOM      8  C   UNL d   1      10.306   0.949 -17.146  0.00  0.00     0.272 C 
ATOM      9  O   UNL d   1       9.165   0.764 -17.507  0.00  0.00    -0.270 OA
ATOM     10  N   UNL d   1      11.364   0.924 -17.993  0.00  0.00    -0.296 N 
ATOM     11  C   UNL d   1      12.268   2.063 -18.147  0.00  0.00     0.068 A 
ATOM     12  C   UNL d   1      11.430  -0.255 -18.897  0.00  0.00     0.121 C 
ATOM     13  C   UNL d   1      13.410   2.025 -19.004  0.00  0.00     0.041 A 
ATOM     14  C   UNL d   1      11.984   3.297 -17.500  0.00  0.00     0.018 A 
ATOM     15  S   UNL d   1      13.806   0.587 -19.952  0.00  0.00    -0.110 SA
ATOM     16  C   UNL d   1      14.230   3.163 -19.175  0.00  0.00     0.008 A 
ATOM     17  C   UNL d   1      12.859  -0.727 -19.171  0.00  0.00     0.087 C 
ATOM     18  C   UNL d   1      13.967   4.346 -18.472  0.00  0.00     0.001 A 
ATOM     19  C   UNL d   1      12.845   4.396 -17.632  0.00  0.00     0.002 A 
ENDBRANCH   7   8
ENDBRANCH   1   7
BRANCH   4  20
ATOM     20  C   UNL d   1       8.049   5.178 -12.399  0.00  0.00     0.277 C 
BRANCH  20  21
ATOM     21  C   UNL d   1       8.735   5.759 -11.163  0.00  0.00     0.011 A 
ATOM     22  C   UNL d   1       8.612   5.101  -9.921  0.00  0.00    -0.002 A 
ATOM     23  C   UNL d   1       9.224   5.637  -8.770  0.00  0.00     0.011 A 
ATOM     24  C   UNL d   1       9.961   6.825  -8.855  0.00  0.00     0.058 A 
ATOM     25  C   UNL d   1      10.091   7.496 -10.095  0.00  0.00     0.011 A 
ATOM     26 CL   UNL d   1      10.711   7.480  -7.437  0.00  0.00    -0.082 Cl
ATOM     27  C   UNL d   1       9.465   6.963 -11.239  0.00  0.00    -0.002 A 
ENDBRANCH  20  21
ENDBRANCH   4  20
TORSDOF 4
