REMARK  10 active torsions:
REMARK  status: ('A' for Active; 'I' for Inactive)
REMARK    1  A    between atoms: C_2  and  C_4 
REMARK    2  A    between atoms: C_9  and  O_10 
REMARK    3  A    between atoms: O_10  and  C_11 
REMARK    4  A    between atoms: C_11  and  C_12 
REMARK    5  A    between atoms: C_12  and  N_13 
REMARK    6  A    between atoms: C_16  and  N_17 
REMARK    7  A    between atoms: N_17  and  C_18 
REMARK    8  A    between atoms: N_17  and  S_22 
REMARK    9  A    between atoms: C_18  and  C_19 
REMARK   10  A    between atoms: S_22  and  C_25 
ROOT
ATOM      1  N   UNL d   1      10.277   5.019 -14.125  0.00  0.00     0.140 N 
ATOM      2  C   UNL d   1       9.266   4.137 -14.710  0.00  0.00     0.252 C 
ATOM      3  C   UNL d   1       9.424   4.098 -16.229  0.00  0.00     0.058 C 
ATOM      4  C   UNL d   1      10.820   3.595 -16.587  0.00  0.00     0.096 C 
ATOM      5  C   UNL d   1      11.872   4.432 -15.835  0.00  0.00     0.058 C 
ATOM      6  C   UNL d   1      11.618   4.477 -14.346  0.00  0.00     0.252 C 
ENDROOT
BRANCH   4   7
ATOM      7  N   UNL d   1      11.094   3.548 -18.069  0.00  0.00    -0.276 N 
BRANCH   7   8
ATOM      8  C   UNL d   1      12.018   2.485 -18.520  0.00  0.00     0.113 C 
BRANCH   8   9
ATOM      9  C   UNL d   1      11.712   1.091 -18.006  0.00  0.00     0.023 A 
ATOM     10  C   UNL d   1      10.754   0.187 -18.750  0.00  0.00     0.002 A 
ATOM     11  C   UNL d   1      12.235  -0.131 -18.719  0.00  0.00     0.002 A 
ENDBRANCH   8   9
ENDBRANCH   7   8
BRANCH   7  12
ATOM     12  S   UNL d   1      10.989   4.970 -19.105  0.00  0.00     0.267 S 
ATOM     13  O   UNL d   1      11.255   4.567 -20.499  0.00  0.00    -0.200 OA
ATOM     14  O   UNL d   1       9.805   5.769 -18.793  0.00  0.00    -0.200 OA
BRANCH  12  15
ATOM     15  C   UNL d   1      12.392   6.035 -18.672  0.00  0.00     0.143 A 
ATOM     16  C   UNL d   1      12.476   7.384 -18.850  0.00  0.00     0.110 A 
ATOM     17  N   UNL d   1      13.666   7.734 -18.214  0.00  0.00    -0.247 N 
ATOM     18  N   UNL d   1      14.306   6.689 -17.662  0.00  0.00    -0.167 NA
ATOM     19  C   UNL d   1      14.290   9.036 -18.133  0.00  0.00     0.154 C 
ATOM     20  C   UNL d   1      13.573   5.647 -17.983  0.00  0.00     0.135 A 
ENDBRANCH  12  15
ENDBRANCH   7  12
ENDBRANCH   4   7
BRANCH   1  21
ATOM     21  C   UNL d   1      10.065   5.115 -12.704  0.00  0.00     0.283 C 
BRANCH  21  22
ATOM     22  C   UNL d   1       8.932   6.096 -12.339  0.00  0.00     0.184 C 
BRANCH  22  23
ATOM     23  O   UNL d   1       8.838   6.182 -10.916  0.00  0.00    -0.329 OA
BRANCH  23  24
ATOM     24  C   UNL d   1       9.738   6.953 -10.199  0.00  0.00     0.090 A 
ATOM     25  C   UNL d   1      10.053   6.603  -8.860  0.00  0.00    -0.000 A 
ATOM     26  C   UNL d   1      10.941   7.397  -8.106  0.00  0.00    -0.002 A 
ATOM     27  C   UNL d   1      11.572   8.505  -8.684  0.00  0.00    -0.000 A 
ATOM     28  C   UNL d   1      11.286   8.845 -10.014  0.00  0.00     0.002 A 
ATOM     29  C   UNL d   1      10.341   8.105 -10.748  0.00  0.00     0.024 A 
BRANCH  25  30
ATOM     30  C   UNL d   1       9.452   5.395  -8.166  0.00  0.00     0.024 C 
ATOM     31  C   UNL d   1       9.592   4.065  -8.925  0.00  0.00     0.005 C 
ATOM     32  C   UNL d   1       8.007   5.674  -7.849  0.00  0.00     0.005 C 
ENDBRANCH  25  30
ENDBRANCH  23  24
ENDBRANCH  22  23
ENDBRANCH  21  22
ENDBRANCH   1  21
TORSDOF 10
