REMARK  9 active torsions:
REMARK  status: ('A' for Active; 'I' for Inactive)
REMARK    1  A    between atoms: C_2  and  N_3 
REMARK    2  A    between atoms: N_3  and  C_4 
REMARK    3  A    between atoms: N_3  and  C_17 
REMARK    4  A    between atoms: C_4  and  C_5 
REMARK    5  A    between atoms: C_5  and  C_6 
REMARK    6  A    between atoms: C_10  and  O_11 
REMARK    7  A    between atoms: O_11  and  C_12 
REMARK    8  A    between atoms: C_17  and  C_18 
REMARK    9  A    between atoms: C_18  and  N_19 
ROOT
ATOM      1  C   UNL d   1       8.676   4.794 -13.133  0.00  0.00     0.255 C 
ENDROOT
BRANCH   1   2
ATOM      2  N   UNL d   1       8.838   6.081 -12.454  0.00  0.00     0.139 N 
BRANCH   2   3
ATOM      3  C   UNL d   1       7.630   6.909 -12.582  0.00  0.00     0.250 C 
ATOM      4  C   UNL d   1       6.333   6.296 -12.017  0.00  0.00     0.037 C 
ENDBRANCH   2   3
BRANCH   2   5
ATOM      5  C   UNL d   1       9.277   5.964 -11.060  0.00  0.00     0.285 C 
BRANCH   5   6
ATOM      6  C   UNL d   1       9.813   7.270 -10.443  0.00  0.00     0.285 C 
BRANCH   6   7
ATOM      7  N   UNL d   1      10.256   7.124  -9.058  0.00  0.00     0.139 N 
ATOM      8  C   UNL d   1      11.211   8.171  -8.700  0.00  0.00     0.250 C 
ATOM      9  C   UNL d   1      11.719   8.010  -7.260  0.00  0.00     0.035 C 
ATOM     10  C   UNL d   1      10.549   8.029  -6.264  0.00  0.00     0.004 C 
ATOM     11  C   UNL d   1       9.497   6.996  -6.694  0.00  0.00     0.035 C 
ATOM     12  C   UNL d   1       9.099   7.191  -8.158  0.00  0.00     0.250 C 
ENDBRANCH   6   7
ENDBRANCH   5   6
ENDBRANCH   2   5
ENDBRANCH   1   2
BRANCH   1  13
ATOM     13  C   UNL d   1       9.930   3.894 -13.160  0.00  0.00     0.062 C 
BRANCH  13  14
ATOM     14  C   UNL d   1       9.862   2.815 -14.220  0.00  0.00    -0.018 A 
ATOM     15  C   UNL d   1       8.700   2.022 -14.331  0.00  0.00     0.020 A 
ATOM     16  C   UNL d   1       8.557   1.042 -15.321  0.00  0.00     0.102 A 
ATOM     17  C   UNL d   1       9.642   0.826 -16.205  0.00  0.00     0.025 A 
ATOM     18  C   UNL d   1      10.820   1.601 -16.104  0.00  0.00     0.002 A 
ATOM     19  C   UNL d   1      10.931   2.601 -15.123  0.00  0.00    -0.004 A 
BRANCH  16  20
ATOM     20  O   UNL d   1       7.382   0.326 -15.470  0.00  0.00    -0.254 OA
BRANCH  20  21
ATOM     21  C   UNL d   1       6.359   0.477 -14.575  0.00  0.00     0.530 C 
ATOM     22  F   UNL d   1       6.009   1.778 -14.436  0.00  0.00    -0.144 F 
ATOM     23  F   UNL d   1       5.258  -0.176 -15.014  0.00  0.00    -0.144 F 
ATOM     24  F   UNL d   1       6.670  -0.018 -13.352  0.00  0.00    -0.144 F 
ENDBRANCH  20  21
ENDBRANCH  16  20
ENDBRANCH  13  14
ENDBRANCH   1  13
TORSDOF 9
