REMARK  14 active torsions:
REMARK  status: ('A' for Active; 'I' for Inactive)
REMARK    1  A    between atoms: C_9  and  C_10 
REMARK    2  A    between atoms: C_10  and  C_12 
REMARK    3  A    between atoms: C_12  and  N_13 
REMARK    4  A    between atoms: N_13  and  C_14 
REMARK    5  A    between atoms: C_14  and  C_15 
REMARK    6  A    between atoms: C_15  and  C_16 
REMARK    7  A    between atoms: C_16  and  S_17 
REMARK    8  A    between atoms: S_17  and  C_18 
REMARK    9  A    between atoms: C_18  and  C_19 
REMARK   10  A    between atoms: C_19  and  C_20 
REMARK   11  A    between atoms: C_20  and  O_21 
REMARK   12  A    between atoms: O_21  and  C_22 
REMARK   13  A    between atoms: C_22  and  C_23 
REMARK   14  A    between atoms: C_23  and  C_24 
ROOT
ATOM      1  C   UNL d   1       8.918   4.802 -14.713  0.00  0.00     0.121 C 
ENDROOT
BRANCH   1   2
ATOM      2  N   UNL d   1       9.936   4.818 -15.757  0.00  0.00    -0.292 NA
BRANCH   2   3
ATOM      3  C   UNL d   1      10.907   3.733 -15.719  0.00  0.00     0.157 C 
BRANCH   3   4
ATOM      4  C   UNL d   1      11.740   3.684 -17.012  0.00  0.00     0.199 C 
ATOM      5  O   UNL d   1      12.656   2.618 -16.897  0.00  0.00    -0.216 OA
BRANCH   4   6
ATOM      6  C   UNL d   1      12.416   5.017 -17.317  0.00  0.00     0.018 A 
ATOM      7  C   UNL d   1      13.623   5.383 -16.675  0.00  0.00     0.001 A 
ATOM      8  C   UNL d   1      14.224   6.636 -16.920  0.00  0.00     0.029 A 
ATOM      9  C   UNL d   1      13.630   7.565 -17.802  0.00  0.00     0.149 A 
ATOM     10  C   UNL d   1      12.434   7.194 -18.447  0.00  0.00     0.116 A 
ATOM     11  O   UNL d   1      14.198   8.792 -17.999  0.00  0.00    -0.189 OA
ATOM     12  N   UNL d   1      11.696   7.982 -19.356  0.00  0.00    -0.200 NA
ATOM     13  C   UNL d   1      11.841   5.954 -18.205  0.00  0.00     0.052 A 
ATOM     14  C   UNL d   1      10.520   7.420 -19.828  0.00  0.00     0.311 A 
ATOM     15  O   UNL d   1       9.703   7.919 -20.599  0.00  0.00    -0.258 OA
ATOM     16  S   UNL d   1      10.341   5.781 -19.093  0.00  0.00    -0.024 SA
ENDBRANCH   4   6
ENDBRANCH   3   4
ENDBRANCH   2   3
ENDBRANCH   1   2
BRANCH   1  17
ATOM     17  C   UNL d   1       9.469   5.060 -13.303  0.00  0.00     0.037 C 
BRANCH  17  18
ATOM     18  C   UNL d   1       8.360   5.022 -12.241  0.00  0.00     0.060 C 
BRANCH  18  19
ATOM     19  S   UNL d   1       9.049   4.843 -10.570  0.00  0.00    -0.140 SA
BRANCH  19  20
ATOM     20  C   UNL d   1       9.532   6.545 -10.208  0.00  0.00     0.060 C 
BRANCH  20  21
ATOM     21  C   UNL d   1      10.131   6.670  -8.803  0.00  0.00     0.044 C 
BRANCH  21  22
ATOM     22  C   UNL d   1      10.427   8.132  -8.454  0.00  0.00     0.143 C 
BRANCH  22  23
ATOM     23  O   UNL d   1      11.438   8.194  -7.465  0.00  0.00    -0.354 OA
BRANCH  23  24
ATOM     24  C   UNL d   1      11.718   9.498  -6.971  0.00  0.00     0.147 C 
BRANCH  24  25
ATOM     25  C   UNL d   1      11.014   9.802  -5.640  0.00  0.00     0.058 C 
BRANCH  25  26
ATOM     26  C   UNL d   1      11.465   8.952  -4.458  0.00  0.00    -0.020 A 
ATOM     27  C   UNL d   1      11.858   9.569  -3.245  0.00  0.00    -0.004 A 
ATOM     28  C   UNL d   1      12.275   8.782  -2.150  0.00  0.00    -0.000 A 
ATOM     29  C   UNL d   1      12.276   7.379  -2.257  0.00  0.00    -0.000 A 
ATOM     30  C   UNL d   1      11.870   6.769  -3.452  0.00  0.00    -0.000 A 
ATOM     31  C   UNL d   1      11.455   7.548  -4.549  0.00  0.00    -0.004 A 
ENDBRANCH  25  26
ENDBRANCH  24  25
ENDBRANCH  23  24
ENDBRANCH  22  23
ENDBRANCH  21  22
ENDBRANCH  20  21
ENDBRANCH  19  20
ENDBRANCH  18  19
ENDBRANCH  17  18
ENDBRANCH   1  17
TORSDOF 14
