REMARK  6 active torsions:
REMARK  status: ('A' for Active; 'I' for Inactive)
REMARK    1  A    between atoms: C_6  and  C_7 
REMARK    2  A    between atoms: C_10  and  S_11 
REMARK    3  A    between atoms: S_11  and  C_12 
REMARK    4  A    between atoms: C_12  and  C_13 
REMARK    5  A    between atoms: C_13  and  C_14 
REMARK    6  A    between atoms: C_14  and  N_15 
ROOT
ATOM      1  S   UNL d   1      10.801  -0.279 -18.219  0.00  0.00    -0.075 SA
ENDROOT
BRANCH   1   2
ATOM      2  C   UNL d   1       9.338   0.499 -17.614  0.00  0.00     0.193 A 
ATOM      3  N   UNL d   1       8.444   1.076 -18.413  0.00  0.00    -0.122 NA
ATOM      4  N   UNL d   1       7.455   1.543 -17.583  0.00  0.00    -0.128 NA
ATOM      5  C   UNL d   1       7.827   1.182 -16.351  0.00  0.00     0.167 A 
ATOM      6  N   UNL d   1       9.001   0.531 -16.308  0.00  0.00    -0.289 N 
ATOM      7  C   UNL d   1       9.675  -0.024 -15.140  0.00  0.00     0.134 C 
BRANCH   5   8
ATOM      8  C   UNL d   1       7.034   1.466 -15.172  0.00  0.00     0.037 A 
ATOM      9  C   UNL d   1       7.263   2.620 -14.388  0.00  0.00     0.021 A 
ATOM     10  C   UNL d   1       8.336   3.508 -14.646  0.00  0.00     0.003 A 
ATOM     11  C   UNL d   1       6.420   2.912 -13.265  0.00  0.00     0.081 A 
ATOM     12  C   UNL d   1       8.500   4.652 -13.848  0.00  0.00     0.015 A 
ATOM     13  C   UNL d   1       7.605   4.857 -12.783  0.00  0.00     0.059 A 
ATOM     14  C   UNL d   1       7.755   6.053 -11.868  0.00  0.00     0.052 C 
ATOM     15  N   UNL d   1       6.583   4.020 -12.518  0.00  0.00    -0.250 NA
ATOM     16  C   UNL d   1       5.445   1.969 -12.911  0.00  0.00     0.019 A 
ATOM     17  C   UNL d   1       5.245   0.791 -13.653  0.00  0.00     0.002 A 
ATOM     18  C   UNL d   1       6.024   0.559 -14.806  0.00  0.00     0.003 A 
ENDBRANCH   5   8
ENDBRANCH   1   2
BRANCH   1  19
ATOM     19  C   UNL d   1      12.079   0.887 -17.633  0.00  0.00     0.067 C 
BRANCH  19  20
ATOM     20  C   UNL d   1      11.976   2.288 -18.242  0.00  0.00     0.047 C 
BRANCH  20  21
ATOM     21  C   UNL d   1      13.028   3.187 -17.581  0.00  0.00     0.251 C 
BRANCH  21  22
ATOM     22  N   UNL d   1      13.515   4.184 -18.525  0.00  0.00     0.138 N 
ATOM     23  C   UNL d   1      14.888   4.554 -18.184  0.00  0.00     0.255 C 
ATOM     24  C   UNL d   1      15.592   5.307 -19.321  0.00  0.00     0.062 C 
ATOM     25  C   UNL d   1      15.279   6.789 -19.355  0.00  0.00    -0.017 A 
ATOM     26  C   UNL d   1      13.956   7.230 -19.573  0.00  0.00    -0.024 A 
ATOM     27  C   UNL d   1      16.310   7.739 -19.169  0.00  0.00     0.044 A 
ATOM     28  C   UNL d   1      12.815   6.244 -19.766  0.00  0.00     0.061 C 
ATOM     29  C   UNL d   1      13.685   8.612 -19.611  0.00  0.00    -0.003 A 
ATOM     30  C   UNL d   1      12.588   5.317 -18.558  0.00  0.00     0.255 C 
ATOM     31  C   UNL d   1      14.715   9.552 -19.426  0.00  0.00     0.019 A 
ATOM     32  C   UNL d   1      16.047   9.140 -19.209  0.00  0.00     0.087 A 
ATOM     33  N   UNL d   1      17.147   9.970 -19.018  0.00  0.00    -0.243 NA
ATOM     34  C   UNL d   1      18.252   9.243 -18.832  0.00  0.00     0.089 A 
ATOM     35  C   UNL d   1      19.581   9.879 -18.616  0.00  0.00     0.059 C 
ATOM     36  S   UNL d   1      18.037   7.491 -18.865  0.00  0.00    -0.071 SA
ENDBRANCH  21  22
ENDBRANCH  20  21
ENDBRANCH  19  20
ENDBRANCH   1  19
TORSDOF 6
