REMARK  5 active torsions:
REMARK  status: ('A' for Active; 'I' for Inactive)
REMARK    1  A    between atoms: C_5  and  C_6 
REMARK    2  A    between atoms: C_6  and  N_7 
REMARK    3  A    between atoms: N_7  and  C_8 
REMARK    4  A    between atoms: C_8  and  C_9 
REMARK       I    between atoms: N_13  and  C_14 
REMARK    5  A    between atoms: C_14  and  C_16 
ROOT
ATOM      1  C   UNL d   1       8.823   5.486 -10.319  0.00  0.00     0.172 C 
ATOM      2  F   UNL d   1       9.636   4.434 -10.536  0.00  0.00    -0.238 F 
ATOM      3  C   UNL d   1       8.688   5.651  -8.804  0.00  0.00     0.059 C 
ATOM      4  C   UNL d   1       9.977   6.119  -8.128  0.00  0.00     0.107 C 
ATOM      5  N   UNL d   1      10.510   7.336  -8.776  0.00  0.00    -0.316 N 
ATOM      6  C   UNL d   1      10.882   8.454  -8.142  0.00  0.00     0.263 C 
ATOM      7  O   UNL d   1      11.064   9.509  -8.777  0.00  0.00    -0.267 OA
ATOM      8  C   UNL d   1      10.710   7.191 -10.232  0.00  0.00     0.107 C 
ATOM      9  C   UNL d   1       9.427   6.760 -10.945  0.00  0.00     0.059 C 
ENDROOT
BRANCH   1  10
ATOM     10  C   UNL d   1       7.470   5.133 -10.941  0.00  0.00     0.323 C 
BRANCH  10  11
ATOM     11  N   UNL d   1       7.594   4.849 -12.357  0.00  0.00     0.348 N 
BRANCH  11  12
ATOM     12  C   UNL d   1       6.280   4.486 -12.855  0.00  0.00     0.336 C 
BRANCH  12  13
ATOM     13  C   UNL d   1       6.258   3.078 -13.398  0.00  0.00     0.095 A 
ATOM     14  C   UNL d   1       7.135   2.688 -14.430  0.00  0.00     0.017 A 
ATOM     15  C   UNL d   1       7.075   1.364 -14.901  0.00  0.00    -0.002 A 
ATOM     16  C   UNL d   1       6.155   0.479 -14.302  0.00  0.00    -0.003 A 
ATOM     17  C   UNL d   1       6.027  -0.957 -14.752  0.00  0.00     0.033 C 
ATOM     18  C   UNL d   1       5.350   0.961 -13.258  0.00  0.00     0.094 A 
ATOM     19  N   UNL d   1       5.387   2.232 -12.811  0.00  0.00    -0.247 NA
ENDBRANCH  12  13
ENDBRANCH  11  12
ENDBRANCH  10  11
ENDBRANCH   1  10
BRANCH   6  20
ATOM     20  C   UNL d   1      11.111   8.461  -6.666  0.00  0.00     0.086 A 
ATOM     21  S   UNL d   1      11.130  10.030  -5.879  0.00  0.00    -0.081 SA
ATOM     22  C   UNL d   1      11.465   9.336  -4.321  0.00  0.00     0.042 A 
ATOM     23  C   UNL d   1      11.571   7.971  -4.440  0.00  0.00     0.042 A 
ATOM     24  C   UNL d   1      11.403   7.472  -5.761  0.00  0.00     0.018 A 
ATOM     25 BR   UNL d   1      11.893   6.832  -2.953  0.00  0.00    -0.049 Br
ENDBRANCH   6  20
TORSDOF 5
