REMARK  6 active torsions:
REMARK  status: ('A' for Active; 'I' for Inactive)
REMARK    1  A    between atoms: C_2  and  C_3 
REMARK    2  A    between atoms: C_3  and  N_4 
REMARK    3  A    between atoms: N_4  and  C_5 
REMARK    4  A    between atoms: C_12  and  O_13 
REMARK    5  A    between atoms: O_13  and  S_14 
REMARK    6  A    between atoms: S_14  and  C_17 
ROOT
ATOM      1  C   UNL d   1       6.647   4.705 -12.952  0.00  0.00     0.261 C 
ATOM      2  C   UNL d   1       5.909   3.913 -11.870  0.00  0.00     0.041 C 
ATOM      3  C   UNL d   1       5.107   2.763 -12.464  0.00  0.00     0.028 C 
ATOM      4  C   UNL d   1       5.848   1.960 -13.516  0.00  0.00    -0.024 A 
ATOM      5  C   UNL d   1       5.372   0.678 -13.854  0.00  0.00    -0.004 A 
ATOM      6  C   UNL d   1       6.009  -0.089 -14.842  0.00  0.00     0.002 A 
ATOM      7  C   UNL d   1       7.156   0.415 -15.483  0.00  0.00     0.025 A 
ATOM      8  C   UNL d   1       7.672   1.677 -15.133  0.00  0.00     0.109 A 
ATOM      9  C   UNL d   1       7.009   2.469 -14.165  0.00  0.00    -0.000 A 
ATOM     10  C   UNL d   1       7.597   3.817 -13.779  0.00  0.00     0.064 C 
ENDROOT
BRANCH   8  11
ATOM     11  O   UNL d   1       8.804   2.129 -15.754  0.00  0.00    -0.225 OA
BRANCH  11  12
ATOM     12  S   UNL d   1      10.284   1.621 -15.106  0.00  0.00     0.374 S 
ATOM     13  O   UNL d   1      10.670   2.576 -14.051  0.00  0.00    -0.189 OA
ATOM     14  O   UNL d   1      10.207   0.174 -14.840  0.00  0.00    -0.189 OA
BRANCH  12  15
ATOM     15  C   UNL d   1      11.350   1.897 -16.588  0.00  0.00     0.524 C 
ATOM     16  F   UNL d   1      12.327   2.746 -16.271  0.00  0.00    -0.155 F 
ATOM     17  F   UNL d   1      11.861   0.730 -16.977  0.00  0.00    -0.155 F 
ATOM     18  F   UNL d   1      10.616   2.414 -17.576  0.00  0.00    -0.155 F 
ENDBRANCH  12  15
ENDBRANCH  11  12
ENDBRANCH   8  11
BRANCH   1  19
ATOM     19  N   UNL d   1       7.367   5.871 -12.433  0.00  0.00     0.337 N 
BRANCH  19  20
ATOM     20  C   UNL d   1       8.220   5.562 -11.294  0.00  0.00     0.290 C 
BRANCH  20  21
ATOM     21  C   UNL d   1       9.198   6.702 -11.042  0.00  0.00     0.038 C 
ATOM     22  C   UNL d   1       9.903   6.536  -9.694  0.00  0.00     0.002 C 
ENDBRANCH  20  21
ENDBRANCH  19  20
ENDBRANCH   1  19
TORSDOF 6
