REMARK  4 active torsions:
REMARK  status: ('A' for Active; 'I' for Inactive)
REMARK    1  A    between atoms: C_2  and  C_3 
REMARK    2  A    between atoms: C_8  and  C_9 
REMARK    3  A    between atoms: C_9  and  N_10 
REMARK    4  A    between atoms: N_13  and  C_14 
ROOT
ATOM      1  N   UNL d   1       8.883   6.000 -11.335  0.00  0.00     0.146 N 
ATOM      2  C   UNL d   1       8.457   5.561  -9.999  0.00  0.00     0.275 C 
ATOM      3  C   UNL d   1       9.633   5.532  -9.016  0.00  0.00     0.137 C 
ATOM      4  N   UNL d   1      10.264   6.850  -8.973  0.00  0.00    -0.344 N 
ATOM      5  C   UNL d   1      10.637   7.395 -10.269  0.00  0.00     0.137 C 
ATOM      6  C   UNL d   1       9.435   7.360 -11.232  0.00  0.00     0.275 C 
ENDROOT
BRANCH   1   7
ATOM      7  C   UNL d   1       7.710   6.033 -12.210  0.00  0.00     0.280 C 
BRANCH   7   8
ATOM      8  C   UNL d   1       7.098   4.748 -12.668  0.00  0.00     0.050 A 
ATOM      9  C   UNL d   1       7.593   3.828 -13.551  0.00  0.00     0.082 A 
ATOM     10  C   UNL d   1       8.785   3.735 -14.318  0.00  0.00     0.019 A 
ATOM     11  N   UNL d   1       6.641   2.785 -13.641  0.00  0.00    -0.227 N 
ATOM     12  C   UNL d   1       8.974   2.638 -15.126  0.00  0.00     0.003 A 
ATOM     13  C   UNL d   1       7.999   1.611 -15.186  0.00  0.00     0.023 A 
ATOM     14  C   UNL d   1       6.840   1.684 -14.441  0.00  0.00     0.125 A 
ATOM     15  N   UNL d   1       5.554   3.061 -12.839  0.00  0.00    -0.164 NA
ATOM     16  C   UNL d   1       5.856   4.202 -12.269  0.00  0.00     0.120 A 
BRANCH  14  17
ATOM     17  C   UNL d   1       5.876   0.546 -14.506  0.00  0.00     0.253 C 
ATOM     18  O   UNL d   1       4.962   0.323 -13.710  0.00  0.00    -0.281 OA
ENDBRANCH  14  17
ENDBRANCH   7   8
ENDBRANCH   1   7
BRANCH   4  19
ATOM     19  C   UNL d   1      10.574   7.512  -7.776  0.00  0.00     0.056 A 
ATOM     20  C   UNL d   1      10.812   6.774  -6.596  0.00  0.00     0.018 A 
ATOM     21  C   UNL d   1      11.076   7.417  -5.374  0.00  0.00     0.013 A 
ATOM     22  C   UNL d   1      11.153   8.818  -5.322  0.00  0.00     0.058 A 
ATOM     23  C   UNL d   1      10.952   9.572  -6.490  0.00  0.00     0.013 A 
ATOM     24 CL   UNL d   1      11.477   9.593  -3.824  0.00  0.00    -0.082 Cl
ATOM     25  C   UNL d   1      10.656   8.925  -7.711  0.00  0.00     0.018 A 
ENDBRANCH   4  19
TORSDOF 4
