REMARK  3 active torsions:
REMARK  status: ('A' for Active; 'I' for Inactive)
REMARK    1  A    between atoms: N_4  and  C_5 
REMARK    2  A    between atoms: C_13  and  C_14 
REMARK    3  A    between atoms: N_18  and  C_19 
ROOT
ATOM      1  C   UNL d   1       9.717   3.951 -14.339  0.00  0.00     0.095 A 
ATOM      2  C   UNL d   1       8.863   2.856 -14.637  0.00  0.00     0.166 A 
ATOM      3  F   UNL d   1       7.684   2.690 -13.992  0.00  0.00    -0.202 F 
ATOM      4  C   UNL d   1       9.206   1.930 -15.624  0.00  0.00     0.103 A 
ATOM      5  N   UNL d   1       8.309   0.868 -15.785  0.00  0.00    -0.098 NA
ATOM      6  C   UNL d   1      10.389   2.092 -16.399  0.00  0.00     0.072 A 
ATOM      7  C   UNL d   1      10.775   1.100 -17.473  0.00  0.00     0.205 C 
ATOM      8  O   UNL d   1      10.028   0.177 -17.808  0.00  0.00    -0.286 OA
ATOM      9  C   UNL d   1      12.110   1.266 -18.109  0.00  0.00     0.120 C 
ATOM     10  C   UNL d   1      12.798   2.390 -17.812  0.00  0.00     0.085 C 
ATOM     11  N   UNL d   1      12.369   3.393 -16.960  0.00  0.00    -0.326 N 
ATOM     12  C   UNL d   1      11.226   3.221 -16.143  0.00  0.00     0.093 A 
ATOM     13  C   UNL d   1      10.891   4.122 -15.094  0.00  0.00     0.168 A 
ATOM     14  F   UNL d   1      11.694   5.176 -14.782  0.00  0.00    -0.202 F 
ENDROOT
BRANCH   1  15
ATOM     15  N   UNL d   1       9.458   4.897 -13.336  0.00  0.00    -0.245 NA
ATOM     16  C   UNL d   1       9.385   4.320 -12.003  0.00  0.00     0.113 C 
ATOM     17  C   UNL d   1       9.094   5.382 -10.925  0.00  0.00     0.273 C 
ATOM     18  C   UNL d   1       8.982   4.774  -9.516  0.00  0.00     0.040 C 
ATOM     19  N   UNL d   1       7.809   5.990 -11.257  0.00  0.00     0.338 N 
ATOM     20  C   UNL d   1       7.916   6.683 -12.538  0.00  0.00     0.273 C 
ATOM     21  C   UNL d   1       8.211   5.595 -13.603  0.00  0.00     0.113 C 
ATOM     22  C   UNL d   1       6.603   7.463 -12.802  0.00  0.00     0.040 C 
ENDBRANCH   1  15
BRANCH  11  23
ATOM     23  C   UNL d   1      12.936   4.736 -17.097  0.00  0.00     0.086 A 
ATOM     24  C   UNL d   1      13.176   5.319 -18.479  0.00  0.00     0.025 A 
ATOM     25  C   UNL d   1      12.089   5.890 -17.603  0.00  0.00     0.025 A 
ENDBRANCH  11  23
BRANCH   9  26
ATOM     26  C   UNL d   1      12.700   0.281 -19.023  0.00  0.00     0.215 C 
ATOM     27  O   UNL d   1      12.213  -0.811 -19.313  0.00  0.00    -0.644 OA
ATOM     28  O   UNL d   1      13.907   0.646 -19.544  0.00  0.00    -0.644 OA
ENDBRANCH   9  26
TORSDOF 3
