REMARK  9 active torsions:
REMARK  status: ('A' for Active; 'I' for Inactive)
REMARK    1  A    between atoms: O_2  and  C_3 
REMARK    2  A    between atoms: C_6  and  S_7 
REMARK    3  A    between atoms: S_7  and  N_10 
REMARK    4  A    between atoms: N_10  and  C_11 
REMARK    5  A    between atoms: C_14  and  N_15 
REMARK    6  A    between atoms: N_18  and  C_19 
REMARK    7  A    between atoms: C_24  and  O_25 
REMARK    8  A    between atoms: O_25  and  C_26 
REMARK    9  A    between atoms: C_34  and  O_35 
ROOT
ATOM      1  C   UNL d   1      13.700   7.210 -18.568  0.00  0.00     0.116 C 
ATOM      2  C   UNL d   1      13.359   7.542 -17.117  0.00  0.00     0.027 C 
ATOM      3  C   UNL d   1      12.859   6.297 -16.384  0.00  0.00     0.035 C 
ATOM      4  C   UNL d   1      11.616   5.678 -17.087  0.00  0.00     0.220 C 
ATOM      5  C   UNL d   1      11.983   5.367 -18.566  0.00  0.00     0.035 C 
ATOM      6  C   UNL d   1      12.499   6.599 -19.293  0.00  0.00     0.027 C 
ENDROOT
BRANCH   4   7
ATOM      7  N   UNL d   1      11.146   4.470 -16.383  0.00  0.00     0.139 N 
ATOM      8  C   UNL d   1       9.980   3.881 -17.069  0.00  0.00     0.274 C 
ATOM      9  C   UNL d   1       9.510   2.593 -16.388  0.00  0.00     0.137 C 
ATOM     10  N   UNL d   1       9.228   2.875 -14.996  0.00  0.00    -0.343 N 
ATOM     11  C   UNL d   1      10.264   3.557 -14.256  0.00  0.00     0.137 C 
ATOM     12  C   UNL d   1      10.704   4.811 -15.018  0.00  0.00     0.274 C 
BRANCH  10  13
ATOM     13  C   UNL d   1       7.949   2.562 -14.438  0.00  0.00     0.079 A 
ATOM     14  C   UNL d   1       7.262   3.517 -13.602  0.00  0.00     0.109 A 
ATOM     15  C   UNL d   1       6.020   3.067 -13.048  0.00  0.00     0.026 A 
ATOM     16  C   UNL d   1       5.489   1.833 -13.301  0.00  0.00     0.002 A 
ATOM     17  C   UNL d   1       6.156   0.913 -14.148  0.00  0.00     0.002 A 
ATOM     18  C   UNL d   1       7.393   1.315 -14.713  0.00  0.00     0.019 A 
BRANCH  14  19
ATOM     19  O   UNL d   1       7.827   4.765 -13.450  0.00  0.00    -0.332 OA
BRANCH  19  20
ATOM     20  C   UNL d   1       7.737   5.445 -12.182  0.00  0.00     0.122 C 
ATOM     21  C   UNL d   1       6.317   6.030 -11.996  0.00  0.00     0.033 C 
ATOM     22  C   UNL d   1       8.753   6.631 -12.175  0.00  0.00     0.033 C 
ENDBRANCH  19  20
ENDBRANCH  14  19
ENDBRANCH  10  13
ENDBRANCH   4   7
BRANCH   1  23
ATOM     23  N   UNL d   1      14.082   8.416 -19.278  0.00  0.00    -0.187 NA
BRANCH  23  24
ATOM     24  S   UNL d   1      15.201   8.359 -20.582  0.00  0.00     0.281 S 
ATOM     25  O   UNL d   1      14.868   9.431 -21.499  0.00  0.00    -0.199 OA
ATOM     26  O   UNL d   1      15.259   6.942 -21.048  0.00  0.00    -0.199 OA
BRANCH  24  27
ATOM     27  C   UNL d   1      16.750   8.727 -19.777  0.00  0.00     0.107 A 
ATOM     28  C   UNL d   1      16.767   9.671 -18.736  0.00  0.00     0.015 A 
ATOM     29  C   UNL d   1      17.979   9.985 -18.101  0.00  0.00     0.027 A 
ATOM     30  C   UNL d   1      19.178   9.343 -18.496  0.00  0.00     0.116 A 
ATOM     31  C   UNL d   1      19.155   8.380 -19.533  0.00  0.00     0.117 A 
ATOM     32  C   UNL d   1      17.928   8.079 -20.178  0.00  0.00     0.039 A 
BRANCH  30  33
ATOM     33  O   UNL d   1      20.398   9.601 -17.911  0.00  0.00    -0.326 OA
ATOM     34  C   UNL d   1      20.490  10.625 -16.938  0.00  0.00     0.181 C 
ENDBRANCH  30  33
BRANCH  31  35
ATOM     35  O   UNL d   1      20.355   7.782 -19.859  0.00  0.00    -0.326 OA
ATOM     36  C   UNL d   1      20.358   6.781 -20.868  0.00  0.00     0.181 C 
ENDBRANCH  31  35
ENDBRANCH  24  27
ENDBRANCH  23  24
ENDBRANCH   1  23
TORSDOF 9
