REMARK  4 active torsions:
REMARK  status: ('A' for Active; 'I' for Inactive)
REMARK    1  A    between atoms: C_5  and  N_6 
REMARK    2  A    between atoms: N_9  and  C_10 
REMARK    3  A    between atoms: C_10  and  C_11 
REMARK    4  A    between atoms: C_13  and  C_14 
ROOT
ATOM      1  N   UNL d   1       9.067   3.974 -13.508  0.00  0.00    -0.344 N 
ATOM      2  C   UNL d   1       8.953   5.323 -13.997  0.00  0.00     0.137 C 
ATOM      3  C   UNL d   1       8.546   6.278 -12.847  0.00  0.00     0.274 C 
ATOM      4  N   UNL d   1       9.484   6.155 -11.730  0.00  0.00     0.141 N 
ATOM      5  C   UNL d   1       9.425   4.783 -11.216  0.00  0.00     0.274 C 
ATOM      6  C   UNL d   1       9.871   3.801 -12.316  0.00  0.00     0.137 C 
ENDROOT
BRANCH   4   7
ATOM      7  C   UNL d   1       9.139   7.113 -10.688  0.00  0.00     0.251 C 
BRANCH   7   8
ATOM      8  C   UNL d   1      10.292   7.339  -9.724  0.00  0.00     0.038 A 
ATOM      9  C   UNL d   1      10.260   8.503  -8.747  0.00  0.00     0.024 A 
ATOM     10  C   UNL d   1      11.259   8.495  -9.880  0.00  0.00     0.007 A 
BRANCH   9  11
ATOM     11  C   UNL d   1      10.701   8.338  -7.325  0.00  0.00    -0.022 A 
ATOM     12  C   UNL d   1      10.473   7.124  -6.642  0.00  0.00    -0.004 A 
ATOM     13  C   UNL d   1      10.942   6.943  -5.331  0.00  0.00    -0.000 A 
ATOM     14  C   UNL d   1      11.623   7.982  -4.674  0.00  0.00    -0.000 A 
ATOM     15  C   UNL d   1      11.833   9.205  -5.337  0.00  0.00    -0.000 A 
ATOM     16  C   UNL d   1      11.373   9.384  -6.656  0.00  0.00    -0.004 A 
ENDBRANCH   9  11
ENDBRANCH   7   8
ENDBRANCH   4   7
BRANCH   1  17
ATOM     17  C   UNL d   1       8.338   2.919 -14.074  0.00  0.00     0.067 A 
ATOM     18  C   UNL d   1       9.016   1.963 -14.862  0.00  0.00     0.019 A 
ATOM     19  C   UNL d   1       8.314   0.893 -15.456  0.00  0.00     0.013 A 
ATOM     20  C   UNL d   1       6.924   0.774 -15.246  0.00  0.00     0.059 A 
ATOM     21 CL   UNL d   1       5.998  -0.467 -15.987  0.00  0.00    -0.082 Cl
ATOM     22  C   UNL d   1       6.260   1.696 -14.427  0.00  0.00     0.024 A 
ATOM     23  C   UNL d   1       6.939   2.788 -13.873  0.00  0.00     0.074 A 
ATOM     24 CL   UNL d   1       6.031   3.883 -12.893  0.00  0.00    -0.081 Cl
ENDBRANCH   1  17
TORSDOF 4
