REMARK  3 active torsions:
REMARK  status: ('A' for Active; 'I' for Inactive)
REMARK    1  A    between atoms: C_5  and  C_6 
REMARK    2  A    between atoms: C_6  and  C_7 
REMARK    3  A    between atoms: C_7  and  N_8 
ROOT
ATOM      1  N   UNL d   1       9.609   7.023  -9.441  0.00  0.00     0.138 N 
ATOM      2  C   UNL d   1      10.131   7.731 -10.613  0.00  0.00     0.253 C 
ATOM      3  C   UNL d   1       9.175   7.692 -11.830  0.00  0.00     0.063 C 
ATOM      4  C   UNL d   1       8.685   6.241 -12.117  0.00  0.00     0.103 C 
ATOM      5  C   UNL d   1       7.525   6.223 -13.116  0.00  0.00     0.033 C 
ATOM      6  C   UNL d   1       7.126   4.787 -13.519  0.00  0.00     0.031 C 
ATOM      7  C   UNL d   1       8.352   3.934 -13.762  0.00  0.00     0.000 A 
ATOM      8  C   UNL d   1       8.235   2.666 -14.339  0.00  0.00    -0.002 A 
ATOM      9  C   UNL d   1       9.371   1.861 -14.524  0.00  0.00    -0.000 A 
ATOM     10  C   UNL d   1      10.633   2.376 -14.172  0.00  0.00     0.002 A 
ATOM     11  C   UNL d   1      10.759   3.664 -13.655  0.00  0.00     0.024 A 
ATOM     12  C   UNL d   1       9.620   4.421 -13.383  0.00  0.00     0.090 A 
ATOM     13  O   UNL d   1       9.825   5.605 -12.689  0.00  0.00    -0.336 OA
ATOM     14  C   UNL d   1       8.274   5.532 -10.798  0.00  0.00     0.063 C 
ATOM     15  C   UNL d   1       9.356   5.619  -9.746  0.00  0.00     0.253 C 
ENDROOT
BRANCH   1  16
ATOM     16  C   UNL d   1      10.614   7.140  -8.405  0.00  0.00     0.255 C 
BRANCH  16  17
ATOM     17  C   UNL d   1       9.990   6.856  -7.033  0.00  0.00     0.064 C 
BRANCH  17  18
ATOM     18  C   UNL d   1      10.805   7.465  -5.911  0.00  0.00     0.007 A 
ATOM     19  C   UNL d   1      11.375   6.674  -4.899  0.00  0.00     0.000 A 
ATOM     20  C   UNL d   1      12.098   7.244  -3.845  0.00  0.00     0.029 A 
ATOM     21  C   UNL d   1      12.269   8.632  -3.801  0.00  0.00     0.142 A 
ATOM     22  F   UNL d   1      12.987   9.164  -2.786  0.00  0.00    -0.204 F 
ATOM     23  C   UNL d   1      11.715   9.441  -4.817  0.00  0.00     0.059 A 
ATOM     24  C   UNL d   1      10.974   8.862  -5.858  0.00  0.00     0.138 A 
ATOM     25  F   UNL d   1      10.422   9.661  -6.804  0.00  0.00    -0.204 F 
ENDBRANCH  17  18
ENDBRANCH  16  17
ENDBRANCH   1  16
TORSDOF 3
