REMARK  1 active torsions:
REMARK  status: ('A' for Active; 'I' for Inactive)
REMARK    1  A    between atoms: N_2  and  C_4 
ROOT
ATOM      1  C   UNL d   1       9.720   8.589  -7.029  0.00  0.00     0.129 C 
ATOM      2  N   UNL d   1      11.071   9.112  -6.825  0.00  0.00    -0.309 N 
ATOM      3  C   UNL d   1      12.029   8.779  -7.876  0.00  0.00     0.129 C 
ENDROOT
BRANCH   2   4
ATOM      4  C   UNL d   1      11.427   9.848  -5.757  0.00  0.00     0.313 C 
ATOM      5  O   UNL d   1      10.663  10.184  -4.849  0.00  0.00    -0.262 OA
ENDBRANCH   2   4
TORSDOF 1
