REMARK  7 active torsions:
REMARK  status: ('A' for Active; 'I' for Inactive)
REMARK       I    between atoms: C_2  and  N_3 
REMARK    1  A    between atoms: C_2  and  C_24 
REMARK    2  A    between atoms: N_3  and  C_4 
REMARK    3  A    between atoms: C_4  and  C_5 
REMARK    4  A    between atoms: C_5  and  C_6 
REMARK    5  A    between atoms: C_6  and  C_7 
REMARK    6  A    between atoms: C_7  and  N_8 
REMARK    7  A    between atoms: N_11  and  C_12 
ROOT
ATOM      1  N   UNL d   1       9.264   3.968 -13.350  0.00  0.00     0.141 N 
ATOM      2  C   UNL d   1       8.028   4.271 -14.087  0.00  0.00     0.274 C 
ATOM      3  C   UNL d   1       7.158   3.013 -14.222  0.00  0.00     0.137 C 
ATOM      4  N   UNL d   1       7.920   1.941 -14.838  0.00  0.00    -0.344 N 
ATOM      5  C   UNL d   1       9.219   1.663 -14.257  0.00  0.00     0.137 C 
ATOM      6  C   UNL d   1      10.031   2.962 -14.111  0.00  0.00     0.274 C 
ENDROOT
BRANCH   1   7
ATOM      7  C   UNL d   1      10.071   5.177 -13.227  0.00  0.00     0.251 C 
BRANCH   7   8
ATOM      8  C   UNL d   1       9.462   6.230 -12.265  0.00  0.00     0.037 C 
BRANCH   8   9
ATOM      9  C   UNL d   1      10.011   6.101 -10.839  0.00  0.00     0.029 C 
BRANCH   9  10
ATOM     10  C   UNL d   1       9.258   6.970  -9.835  0.00  0.00     0.129 C 
BRANCH  10  11
ATOM     11  N   UNL d   1       9.978   7.076  -8.570  0.00  0.00    -0.234 NA
ATOM     12  C   UNL d   1      10.572   8.190  -8.129  0.00  0.00     0.281 C 
ATOM     13  O   UNL d   1      10.742   9.189  -8.826  0.00  0.00    -0.265 OA
BRANCH  12  14
ATOM     14  C   UNL d   1      10.964   8.170  -6.709  0.00  0.00     0.087 A 
ATOM     15  S   UNL d   1      11.145   9.724  -5.934  0.00  0.00    -0.082 SA
ATOM     16  C   UNL d   1      11.573   8.957  -4.414  0.00  0.00     0.030 A 
ATOM     17  C   UNL d   1      11.598   7.534  -4.554  0.00  0.00     0.007 A 
ATOM     18  C   UNL d   1      11.878   9.581  -3.191  0.00  0.00     0.006 A 
ATOM     19  C   UNL d   1      11.248   7.104  -5.886  0.00  0.00     0.012 A 
ATOM     20  C   UNL d   1      11.968   6.787  -3.412  0.00  0.00     0.001 A 
ATOM     21  C   UNL d   1      12.294   7.405  -2.196  0.00  0.00     0.000 A 
ATOM     22  C   UNL d   1      12.258   8.801  -2.088  0.00  0.00     0.001 A 
ENDBRANCH  12  14
ENDBRANCH  10  11
ENDBRANCH   9  10
ENDBRANCH   8   9
ENDBRANCH   7   8
ENDBRANCH   1   7
BRANCH   4  23
ATOM     23  C   UNL d   1       7.433   1.223 -15.936  0.00  0.00     0.056 A 
ATOM     24  C   UNL d   1       6.272   0.407 -15.848  0.00  0.00     0.015 A 
ATOM     25  C   UNL d   1       5.806  -0.267 -17.011  0.00  0.00     0.001 A 
ATOM     26  C   UNL d   1       5.568   0.238 -14.630  0.00  0.00     0.001 A 
ATOM     27  C   UNL d   1       6.497  -0.139 -18.231  0.00  0.00     0.000 A 
ATOM     28  C   UNL d   1       4.652  -1.073 -16.945  0.00  0.00     0.000 A 
ATOM     29  C   UNL d   1       7.653   0.655 -18.306  0.00  0.00     0.002 A 
ATOM     30  C   UNL d   1       8.120   1.330 -17.165  0.00  0.00     0.017 A 
ATOM     31  C   UNL d   1       3.951  -1.213 -15.734  0.00  0.00     0.000 A 
ATOM     32  C   UNL d   1       4.409  -0.557 -14.577  0.00  0.00     0.000 A 
ENDBRANCH   4  23
TORSDOF 7
