REMARK  3 active torsions:
REMARK  status: ('A' for Active; 'I' for Inactive)
REMARK    1  A    between atoms: C_11  and  C_12 
REMARK    2  A    between atoms: N_15  and  C_16 
REMARK    3  A    between atoms: C_16  and  C_17 
ROOT
ATOM      1  O   UNL d   1      10.233   4.427 -13.076  0.00  0.00    -0.291 OA
ATOM      2  C   UNL d   1       9.059   4.122 -13.306  0.00  0.00     0.172 C 
ATOM      3  C   UNL d   1       8.693   2.941 -14.088  0.00  0.00     0.031 A 
ATOM      4  C   UNL d   1       9.751   2.140 -14.608  0.00  0.00     0.003 A 
ATOM      5  C   UNL d   1       9.487   0.985 -15.347  0.00  0.00     0.000 A 
ATOM      6  C   UNL d   1       8.153   0.610 -15.588  0.00  0.00    -0.000 A 
ATOM      7  C   UNL d   1       7.079   1.380 -15.081  0.00  0.00    -0.004 A 
ATOM      8  C   UNL d   1       7.343   2.543 -14.325  0.00  0.00    -0.019 A 
ATOM      9  C   UNL d   1       6.176   3.350 -13.742  0.00  0.00     0.027 C 
ATOM     10  C   UNL d   1       6.595   4.210 -12.549  0.00  0.00     0.012 C 
ATOM     11  C   UNL d   1       7.905   5.004 -12.796  0.00  0.00     0.062 C 
ENDROOT
BRANCH  11  12
ATOM     12  C   UNL d   1       8.305   5.878 -11.588  0.00  0.00     0.011 C 
ATOM     13  C   UNL d   1       8.812   5.034 -10.387  0.00  0.00     0.036 C 
ATOM     14  C   UNL d   1       9.355   5.927  -9.295  0.00  0.00     0.250 C 
ATOM     15  N   UNL d   1      10.378   6.842  -9.808  0.00  0.00     0.137 N 
ATOM     16  C   UNL d   1       9.841   7.769 -10.801  0.00  0.00     0.250 C 
ATOM     17  C   UNL d   1       9.282   7.008 -12.000  0.00  0.00     0.036 C 
BRANCH  15  18
ATOM     18  C   UNL d   1      11.026   7.572  -8.725  0.00  0.00     0.250 C 
BRANCH  18  19
ATOM     19  C   UNL d   1      10.028   8.301  -7.834  0.00  0.00     0.033 A 
ATOM     20  C   UNL d   1       9.391   7.578  -6.667  0.00  0.00     0.002 A 
ATOM     21  C   UNL d   1      10.389   8.682  -6.423  0.00  0.00     0.002 A 
ENDBRANCH  18  19
ENDBRANCH  15  18
ENDBRANCH  11  12
TORSDOF 3
