REMARK  10 active torsions:
REMARK  status: ('A' for Active; 'I' for Inactive)
REMARK    1  A    between atoms: S_2  and  C_3 
REMARK    2  A    between atoms: C_8  and  C_9 
REMARK    3  A    between atoms: C_11  and  C_12 
REMARK    4  A    between atoms: C_12  and  N_13 
REMARK    5  A    between atoms: N_13  and  C_14 
REMARK    6  A    between atoms: C_14  and  C_15 
REMARK    7  A    between atoms: C_15  and  C_16 
REMARK    8  A    between atoms: C_16  and  C_17 
REMARK    9  A    between atoms: C_17  and  O_18 
REMARK   10  A    between atoms: O_18  and  C_19 
ROOT
ATOM      1  C   UNL d   1      10.192   7.037 -10.892  0.00  0.00     0.041 C 
ENDROOT
BRANCH   1   2
ATOM      2  C   UNL d   1       9.146   5.934 -10.981  0.00  0.00     0.290 C 
BRANCH   2   3
ATOM      3  N   UNL d   1       9.422   5.079 -12.119  0.00  0.00     0.339 N 
BRANCH   3   4
ATOM      4  C   UNL d   1       8.287   4.186 -12.233  0.00  0.00     0.290 C 
BRANCH   4   5
ATOM      5  C   UNL d   1       7.182   4.823 -13.056  0.00  0.00     0.041 A 
ATOM      6  C   UNL d   1       6.260   3.938 -13.870  0.00  0.00     0.025 A 
ATOM      7  C   UNL d   1       5.743   4.621 -12.621  0.00  0.00     0.007 A 
BRANCH   6   8
ATOM      8  C   UNL d   1       6.446   2.449 -13.921  0.00  0.00    -0.017 A 
ATOM      9  C   UNL d   1       7.560   1.819 -14.540  0.00  0.00     0.021 A 
ATOM     10  C   UNL d   1       7.705   0.423 -14.470  0.00  0.00     0.006 A 
ATOM     11  C   UNL d   1       6.729  -0.356 -13.829  0.00  0.00     0.001 A 
ATOM     12  C   UNL d   1       5.610   0.263 -13.260  0.00  0.00    -0.000 A 
ATOM     13  C   UNL d   1       5.471   1.648 -13.305  0.00  0.00    -0.004 A 
BRANCH   9  14
ATOM     14  S   UNL d   1       8.881   2.740 -15.296  0.00  0.00    -0.113 SA
ATOM     15  C   UNL d   1      10.403   2.201 -14.439  0.00  0.00     0.074 C 
ENDBRANCH   9  14
ENDBRANCH   6   8
ENDBRANCH   4   5
ENDBRANCH   3   4
ENDBRANCH   2   3
ENDBRANCH   1   2
BRANCH   1  16
ATOM     16  C   UNL d   1       9.944   7.917  -9.686  0.00  0.00     0.035 C 
BRANCH  16  17
ATOM     17  C   UNL d   1      11.109   8.897  -9.485  0.00  0.00     0.149 C 
BRANCH  17  18
ATOM     18  O   UNL d   1      11.079   9.526  -8.217  0.00  0.00    -0.331 OA
BRANCH  18  19
ATOM     19  C   UNL d   1      11.312   8.786  -7.090  0.00  0.00     0.096 A 
ATOM     20  C   UNL d   1      11.424   9.503  -5.886  0.00  0.00     0.043 A 
ATOM     21  C   UNL d   1      11.625   8.790  -4.695  0.00  0.00     0.087 A 
ATOM     22  C   UNL d   1      11.618   7.376  -4.698  0.00  0.00     0.018 A 
ATOM     23  N   UNL d   1      11.910   9.462  -3.487  0.00  0.00    -0.208 NA
ATOM     24  C   UNL d   1      11.464   6.676  -5.887  0.00  0.00     0.004 A 
ATOM     25  C   UNL d   1      11.893   6.703  -3.435  0.00  0.00     0.006 C 
ATOM     26  C   UNL d   1      11.377   7.367  -7.102  0.00  0.00     0.024 A 
ATOM     27  C   UNL d   1      12.148   7.386  -2.321  0.00  0.00     0.063 C 
ATOM     28  C   UNL d   1      12.087   8.851  -2.291  0.00  0.00     0.279 C 
ATOM     29  O   UNL d   1      12.188   9.499  -1.280  0.00  0.00    -0.265 OA
ENDBRANCH  18  19
ENDBRANCH  17  18
ENDBRANCH  16  17
ENDBRANCH   1  16
TORSDOF 10
