REMARK  8 active torsions:
REMARK  status: ('A' for Active; 'I' for Inactive)
REMARK    1  A    between atoms: C_2  and  C_3 
REMARK       I    between atoms: C_2  and  N_23 
REMARK    2  A    between atoms: C_3  and  N_4 
REMARK    3  A    between atoms: N_7  and  C_8 
REMARK    4  A    between atoms: C_8  and  C_9 
REMARK    5  A    between atoms: C_9  and  C_10 
REMARK    6  A    between atoms: C_10  and  C_11 
REMARK    7  A    between atoms: N_23  and  C_24 
REMARK    8  A    between atoms: N_23  and  C_30 
ROOT
ATOM      1  N   UNL d   1       9.086   4.971 -13.567  0.00  0.00     0.151 N 
ATOM      2  C   UNL d   1       8.964   6.335 -13.041  0.00  0.00     0.286 C 
ATOM      3  C   UNL d   1       8.647   6.399 -11.540  0.00  0.00     0.285 C 
ATOM      4  N   UNL d   1       9.579   5.592 -10.758  0.00  0.00     0.141 N 
ATOM      5  C   UNL d   1       9.550   4.247 -11.309  0.00  0.00     0.285 C 
ATOM      6  C   UNL d   1      10.035   4.222 -12.760  0.00  0.00     0.286 C 
ENDROOT
BRANCH   1   7
ATOM      7  C   UNL d   1       9.439   4.989 -14.976  0.00  0.00     0.337 C 
BRANCH   7   8
ATOM      8  C   UNL d   1       9.461   3.614 -15.676  0.00  0.00     0.271 C 
ATOM      9  O   UNL d   1       8.557   2.832 -15.355  0.00  0.00    -0.270 OA
ATOM     10  N   UNL d   1      10.392   3.300 -16.610  0.00  0.00    -0.299 N 
BRANCH  10  11
ATOM     11  C   UNL d   1      11.445   4.206 -16.983  0.00  0.00     0.062 A 
ATOM     12  C   UNL d   1      11.164   5.521 -17.456  0.00  0.00     0.017 A 
ATOM     13  C   UNL d   1      12.208   6.436 -17.679  0.00  0.00     0.002 A 
ATOM     14  C   UNL d   1      13.554   6.024 -17.563  0.00  0.00     0.000 A 
ATOM     15  C   UNL d   1      13.840   4.703 -17.190  0.00  0.00     0.002 A 
ATOM     16  C   UNL d   1      12.795   3.799 -16.895  0.00  0.00     0.017 A 
ENDBRANCH  10  11
BRANCH  10  17
ATOM     17  C   UNL d   1      10.364   1.987 -17.315  0.00  0.00     0.088 C 
ATOM     18  C   UNL d   1      10.468   0.744 -16.385  0.00  0.00     0.023 C 
ATOM     19  C   UNL d   1      10.459  -0.563 -17.202  0.00  0.00     0.002 C 
ATOM     20  C   UNL d   1       9.235  -0.645 -18.129  0.00  0.00     0.000 C 
ATOM     21  C   UNL d   1       9.160   0.570 -19.066  0.00  0.00     0.002 C 
ATOM     22  C   UNL d   1       9.150   1.883 -18.272  0.00  0.00     0.023 C 
ENDBRANCH  10  17
ENDBRANCH   7   8
ENDBRANCH   1   7
BRANCH   4  23
ATOM     23  C   UNL d   1       9.262   5.615  -9.337  0.00  0.00     0.251 C 
BRANCH  23  24
ATOM     24  C   UNL d   1       9.909   6.781  -8.582  0.00  0.00     0.040 C 
BRANCH  24  25
ATOM     25  C   UNL d   1       9.800   6.622  -7.054  0.00  0.00     0.030 C 
BRANCH  25  26
ATOM     26  C   UNL d   1      10.383   7.776  -6.279  0.00  0.00    -0.002 A 
ATOM     27  C   UNL d   1      11.125   7.735  -5.035  0.00  0.00     0.017 A 
ATOM     28  C   UNL d   1      11.454   9.072  -4.663  0.00  0.00     0.081 A 
ATOM     29  C   UNL d   1      11.543   6.711  -4.153  0.00  0.00     0.031 A 
ATOM     30  N   UNL d   1      10.931   9.867  -5.655  0.00  0.00    -0.244 NA
ATOM     31  C   UNL d   1      12.142   9.368  -3.476  0.00  0.00     0.021 A 
ATOM     32  C   UNL d   1      10.283   9.102  -6.613  0.00  0.00     0.095 A 
ATOM     33  C   UNL d   1      12.554   8.332  -2.629  0.00  0.00     0.031 A 
ATOM     34  C   UNL d   1      12.257   7.003  -2.969  0.00  0.00     0.140 A 
ATOM     35  F   UNL d   1      12.656   6.000  -2.151  0.00  0.00    -0.204 F 
ENDBRANCH  25  26
ENDBRANCH  24  25
ENDBRANCH  23  24
ENDBRANCH   4  23
TORSDOF 8
