REMARK  0 active torsions:
REMARK  status: ('A' for Active; 'I' for Inactive)
ROOT
ATOM      1  C   UNL d   1       4.255  -1.659 -15.429  0.00  0.00     0.285 C 
ATOM      2  N   UNL d   1       5.455  -0.996 -14.947  0.00  0.00     0.140 N 
ATOM      3  C   UNL d   1       6.240  -0.564 -16.098  0.00  0.00     0.255 C 
ATOM      4  C   UNL d   1       7.538   0.121 -15.645  0.00  0.00     0.057 C 
ATOM      5  C   UNL d   1       7.259   1.300 -14.707  0.00  0.00    -0.040 C 
ATOM      6  C   UNL d   1       7.944   2.474 -14.742  0.00  0.00    -0.008 C 
ATOM      7  C   UNL d   1       7.658   3.573 -13.791  0.00  0.00    -0.001 A 
ATOM      8  C   UNL d   1       6.359   4.112 -13.705  0.00  0.00    -0.000 A 
ATOM      9  C   UNL d   1       6.060   5.137 -12.796  0.00  0.00    -0.000 A 
ATOM     10  C   UNL d   1       7.057   5.604 -11.928  0.00  0.00    -0.000 A 
ATOM     11  C   UNL d   1       8.354   5.074 -11.994  0.00  0.00    -0.000 A 
ATOM     12  C   UNL d   1       8.663   4.078 -12.937  0.00  0.00    -0.000 A 
ATOM     13  C   UNL d   1      10.054   3.627 -13.005  0.00  0.00    -0.000 C 
ATOM     14  C   UNL d   1      10.753   3.177 -14.065  0.00  0.00    -0.000 C 
ATOM     15  C   UNL d   1      10.296   3.050 -15.455  0.00  0.00    -0.000 A 
ATOM     16  C   UNL d   1      11.234   3.286 -16.481  0.00  0.00    -0.000 A 
ATOM     17  C   UNL d   1      10.840   3.294 -17.833  0.00  0.00    -0.000 A 
ATOM     18  C   UNL d   1       9.498   3.048 -18.169  0.00  0.00    -0.000 A 
ATOM     19  C   UNL d   1       8.566   2.782 -17.150  0.00  0.00    -0.000 A 
ATOM     20  C   UNL d   1       8.950   2.768 -15.791  0.00  0.00    -0.001 A 
ATOM     21  C   UNL d   1       6.250   0.899 -13.621  0.00  0.00     0.057 C 
ATOM     22  C   UNL d   1       5.038   0.168 -14.193  0.00  0.00     0.255 C 
ENDROOT
TORSDOF 0
