REMARK  9 active torsions:
REMARK  status: ('A' for Active; 'I' for Inactive)
REMARK    1  A    between atoms: O_2  and  C_3 
REMARK    2  A    between atoms: C_7  and  C_8 
REMARK    3  A    between atoms: C_8  and  C_9 
REMARK    4  A    between atoms: C_9  and  C_10 
REMARK    5  A    between atoms: C_15  and  O_16 
REMARK    6  A    between atoms: O_16  and  C_17 
REMARK    7  A    between atoms: C_17  and  C_18 
REMARK    8  A    between atoms: C_18  and  N_19 
REMARK    9  A    between atoms: N_22  and  C_23 
ROOT
ATOM      1  C   UNL d   1      11.553   0.567 -17.816  0.00  0.00     0.001 A 
ATOM      2  C   UNL d   1      11.924  -0.640 -18.454  0.00  0.00    -0.002 A 
ATOM      3  C   UNL d   1      12.972  -0.660 -19.388  0.00  0.00    -0.000 A 
ATOM      4  C   UNL d   1      13.634   0.540 -19.711  0.00  0.00     0.002 A 
ATOM      5  C   UNL d   1      13.241   1.752 -19.113  0.00  0.00     0.024 A 
ATOM      6  C   UNL d   1      12.211   1.776 -18.136  0.00  0.00     0.090 A 
ENDROOT
BRANCH   6   7
ATOM      7  O   UNL d   1      11.807   2.913 -17.463  0.00  0.00    -0.329 OA
BRANCH   7   8
ATOM      8  C   UNL d   1      12.396   4.159 -17.803  0.00  0.00     0.184 C 
BRANCH   8   9
ATOM      9  C   UNL d   1      13.844   4.241 -17.265  0.00  0.00     0.283 C 
BRANCH   9  10
ATOM     10  N   UNL d   1      14.609   5.310 -17.904  0.00  0.00     0.144 N 
ATOM     11  C   UNL d   1      15.858   5.470 -17.160  0.00  0.00     0.275 C 
ATOM     12  C   UNL d   1      16.700   6.612 -17.761  0.00  0.00     0.155 C 
ATOM     13  N   UNL d   1      16.974   6.352 -19.173  0.00  0.00    -0.179 N 
ATOM     14  C   UNL d   1      15.764   6.085 -19.947  0.00  0.00     0.155 C 
ATOM     15  C   UNL d   1      14.957   4.960 -19.289  0.00  0.00     0.275 C 
BRANCH  13  16
ATOM     16  C   UNL d   1      18.243   6.392 -19.739  0.00  0.00     0.727 A 
ATOM     17  N   UNL d   1      19.203   7.023 -19.055  0.00  0.00    -0.060 NA
ATOM     18  C   UNL d   1      20.433   7.061 -19.610  0.00  0.00     0.120 A 
ATOM     19  C   UNL d   1      20.706   6.446 -20.840  0.00  0.00     0.043 A 
ATOM     20  C   UNL d   1      19.630   5.787 -21.461  0.00  0.00     0.120 A 
ATOM     21  N   UNL d   1      18.403   5.761 -20.903  0.00  0.00    -0.060 NA
ENDBRANCH  13  16
ENDBRANCH   9  10
ENDBRANCH   8   9
ENDBRANCH   7   8
ENDBRANCH   6   7
BRANCH   1  22
ATOM     22  C   UNL d   1      10.435   0.547 -16.784  0.00  0.00     0.033 C 
BRANCH  22  23
ATOM     23  C   UNL d   1       9.152   1.214 -17.309  0.00  0.00     0.031 C 
BRANCH  23  24
ATOM     24  C   UNL d   1       7.924   0.812 -16.515  0.00  0.00    -0.020 A 
ATOM     25  C   UNL d   1       7.836   1.092 -15.136  0.00  0.00    -0.004 A 
ATOM     26  C   UNL d   1       6.703   0.681 -14.410  0.00  0.00     0.002 A 
ATOM     27  C   UNL d   1       5.659  -0.012 -15.052  0.00  0.00     0.024 A 
ATOM     28  C   UNL d   1       5.737  -0.294 -16.437  0.00  0.00     0.094 A 
ATOM     29  C   UNL d   1       6.872   0.126 -17.157  0.00  0.00     0.020 A 
BRANCH  28  30
ATOM     30  O   UNL d   1       4.766  -0.963 -17.146  0.00  0.00    -0.328 OA
ATOM     31  C   UNL d   1       3.707  -1.569 -16.418  0.00  0.00     0.181 C 
ENDBRANCH  28  30
ENDBRANCH  23  24
ENDBRANCH  22  23
ENDBRANCH   1  22
TORSDOF 9
