REMARK  7 active torsions:
REMARK  status: ('A' for Active; 'I' for Inactive)
REMARK    1  A    between atoms: C_4  and  C_5 
REMARK    2  A    between atoms: C_5  and  C_6 
REMARK    3  A    between atoms: C_11  and  O_12 
REMARK    4  A    between atoms: O_12  and  C_13 
REMARK    5  A    between atoms: C_13  and  C_14 
REMARK    6  A    between atoms: C_14  and  C_15 
REMARK    7  A    between atoms: C_15  and  N_16 
ROOT
ATOM      1  C   UNL d   1       8.245   5.947 -12.437  0.00  0.00     0.004 A 
ATOM      2  C   UNL d   1       6.878   5.785 -12.101  0.00  0.00    -0.002 A 
ATOM      3  C   UNL d   1       6.176   4.634 -12.502  0.00  0.00    -0.000 A 
ATOM      4  C   UNL d   1       6.841   3.670 -13.287  0.00  0.00     0.002 A 
ATOM      5  C   UNL d   1       8.185   3.848 -13.675  0.00  0.00     0.024 A 
ATOM      6  C   UNL d   1       8.923   4.975 -13.215  0.00  0.00     0.090 A 
ENDROOT
BRANCH   6   7
ATOM      7  O   UNL d   1      10.270   5.159 -13.435  0.00  0.00    -0.331 OA
BRANCH   7   8
ATOM      8  C   UNL d   1      11.036   4.106 -14.015  0.00  0.00     0.151 C 
BRANCH   8   9
ATOM      9  C   UNL d   1      10.978   4.241 -15.560  0.00  0.00     0.068 C 
BRANCH   9  10
ATOM     10  C   UNL d   1      11.571   3.036 -16.311  0.00  0.00     0.253 C 
BRANCH  10  11
ATOM     11  N   UNL d   1      10.619   1.925 -16.401  0.00  0.00     0.137 N 
ATOM     12  C   UNL d   1      10.448   1.220 -15.137  0.00  0.00     0.250 C 
ATOM     13  C   UNL d   1       9.751  -0.055 -15.555  0.00  0.00     0.037 C 
ATOM     14  C   UNL d   1      10.150  -0.308 -17.012  0.00  0.00     0.037 C 
ATOM     15  C   UNL d   1      11.066   0.887 -17.340  0.00  0.00     0.250 C 
ENDBRANCH  10  11
ENDBRANCH   9  10
ENDBRANCH   8   9
ENDBRANCH   7   8
ENDBRANCH   6   7
BRANCH   1  16
ATOM     16  C   UNL d   1       9.016   7.157 -11.907  0.00  0.00     0.055 C 
BRANCH  16  17
ATOM     17  C   UNL d   1       9.576   6.962 -10.497  0.00  0.00    -0.018 A 
ATOM     18  C   UNL d   1      10.593   7.826 -10.032  0.00  0.00    -0.004 A 
ATOM     19  C   UNL d   1      11.077   7.708  -8.713  0.00  0.00    -0.000 A 
ATOM     20  C   UNL d   1      10.554   6.728  -7.850  0.00  0.00    -0.000 A 
ATOM     21  C   UNL d   1       9.545   5.860  -8.313  0.00  0.00    -0.000 A 
ATOM     22  C   UNL d   1       9.068   5.967  -9.622  0.00  0.00    -0.004 A 
ENDBRANCH  16  17
ENDBRANCH   1  16
TORSDOF 7
