REMARK  5 active torsions:
REMARK  status: ('A' for Active; 'I' for Inactive)
REMARK    1  A    between atoms: C_2  and  C_4 
REMARK    2  A    between atoms: C_13  and  C_14 
REMARK    3  A    between atoms: C_14  and  C_15 
REMARK    4  A    between atoms: C_15  and  N_16 
REMARK    5  A    between atoms: C_19  and  C_20 
ROOT
ATOM      1  N   UNL d   1       9.246   5.573  -9.801  0.00  0.00     0.142 N 
ATOM      2  C   UNL d   1       9.572   6.925 -10.288  0.00  0.00     0.276 C 
ATOM      3  C   UNL d   1      10.247   7.794  -9.242  0.00  0.00     0.005 C 
ATOM      4  C   UNL d   1      10.246   7.496  -7.929  0.00  0.00    -0.021 C 
ATOM      5  C   UNL d   1       9.512   6.259  -7.469  0.00  0.00     0.061 C 
ATOM      6  C   UNL d   1       8.569   5.687  -8.520  0.00  0.00     0.255 C 
ENDROOT
BRANCH   1   7
ATOM      7  C   UNL d   1       8.341   4.922 -10.734  0.00  0.00     0.254 C 
BRANCH   7   8
ATOM      8  C   UNL d   1       9.107   4.479 -11.984  0.00  0.00     0.070 C 
BRANCH   8   9
ATOM      9  C   UNL d   1       8.198   4.173 -13.183  0.00  0.00     0.139 C 
ATOM     10  C   UNL d   1       8.893   3.237 -14.165  0.00  0.00     0.001 A 
ATOM     11  C   UNL d   1      10.255   3.408 -14.497  0.00  0.00    -0.002 A 
ATOM     12  C   UNL d   1       8.160   2.184 -14.745  0.00  0.00    -0.021 A 
ATOM     13  C   UNL d   1      10.882   2.517 -15.386  0.00  0.00     0.005 A 
ATOM     14  C   UNL d   1      10.158   1.454 -15.968  0.00  0.00     0.059 A 
ATOM     15  C   UNL d   1       8.785   1.306 -15.645  0.00  0.00     0.000 A 
ATOM     16  C   UNL d   1       6.700   1.979 -14.383  0.00  0.00     0.058 C 
ATOM     17  C   UNL d   1       6.088   3.228 -13.732  0.00  0.00     0.147 C 
ATOM     18  O   UNL d   1       6.955   3.658 -12.700  0.00  0.00    -0.352 OA
BRANCH  14  19
ATOM     19  C   UNL d   1      10.822   0.528 -16.940  0.00  0.00     0.297 C 
ATOM     20  N   UNL d   1      10.256  -0.671 -17.075  0.00  0.00    -0.102 N 
ATOM     21  O   UNL d   1      11.854   0.832 -17.536  0.00  0.00    -0.264 OA
ENDBRANCH  14  19
ENDBRANCH   8   9
ENDBRANCH   7   8
ENDBRANCH   1   7
BRANCH   4  22
ATOM     22  C   UNL d   1      10.947   8.341  -6.943  0.00  0.00     0.016 A 
ATOM     23  C   UNL d   1      11.286   7.989  -5.591  0.00  0.00     0.019 A 
ATOM     24  C   UNL d   1      11.962   9.118  -5.031  0.00  0.00     0.084 A 
ATOM     25  C   UNL d   1      11.122   6.863  -4.746  0.00  0.00     0.004 A 
ATOM     26  N   UNL d   1      12.039  10.061  -6.039  0.00  0.00    -0.244 NA
ATOM     27  C   UNL d   1      12.437   9.122  -3.709  0.00  0.00     0.049 A 
ATOM     28  C   UNL d   1      11.460   9.577  -7.200  0.00  0.00     0.099 A 
ATOM     29  C   UNL d   1      12.245   7.988  -2.899  0.00  0.00     0.142 A 
ATOM     30  F   UNL d   1      12.663   7.992  -1.615  0.00  0.00    -0.204 F 
ATOM     31  C   UNL d   1      11.593   6.855  -3.419  0.00  0.00     0.030 A 
ENDBRANCH   4  22
TORSDOF 5
