REMARK  7 active torsions:
REMARK  status: ('A' for Active; 'I' for Inactive)
REMARK    1  A    between atoms: C_3  and  C_4 
REMARK    2  A    between atoms: N_19  and  C_20 
REMARK    3  A    between atoms: C_20  and  C_21 
REMARK    4  A    between atoms: C_21  and  C_22 
REMARK    5  A    between atoms: C_22  and  C_23 
REMARK    6  A    between atoms: C_23  and  N_24 
REMARK    7  A    between atoms: C_28  and  C_29 
ROOT
ATOM      1  O   UNL d   1      12.636   5.715 -15.229  0.00  0.00    -0.267 OA
ATOM      2  C   UNL d   1      11.864   5.191 -16.023  0.00  0.00     0.266 A 
ATOM      3  C   UNL d   1      11.982   5.381 -17.469  0.00  0.00     0.072 A 
ATOM      4  C   UNL d   1      11.077   4.801 -18.305  0.00  0.00     0.073 A 
ATOM      5  C   UNL d   1      11.186   4.981 -19.757  0.00  0.00     0.018 A 
ATOM      6  C   UNL d   1      10.318   4.400 -20.595  0.00  0.00     0.003 A 
ATOM      7  C   UNL d   1       9.261   3.576 -20.056  0.00  0.00     0.019 A 
ATOM      8  C   UNL d   1       9.155   3.394 -18.725  0.00  0.00     0.085 A 
ATOM      9  N   UNL d   1      10.035   3.986 -17.829  0.00  0.00    -0.259 N 
ATOM     10  C   UNL d   1       9.892   3.748 -16.448  0.00  0.00     0.338 A 
ATOM     11  O   UNL d   1       8.988   3.025 -16.020  0.00  0.00    -0.246 OA
ATOM     12  N   UNL d   1      10.816   4.355 -15.585  0.00  0.00    -0.249 N 
ENDROOT
BRANCH  12  13
ATOM     13  C   UNL d   1      10.650   4.155 -14.152  0.00  0.00     0.114 C 
BRANCH  13  14
ATOM     14  C   UNL d   1       9.798   5.240 -13.471  0.00  0.00     0.027 C 
BRANCH  14  15
ATOM     15  C   UNL d   1       9.589   4.961 -11.977  0.00  0.00     0.037 C 
BRANCH  15  16
ATOM     16  C   UNL d   1       9.925   6.167 -11.070  0.00  0.00     0.250 C 
BRANCH  16  17
ATOM     17  N   UNL d   1       9.846   5.841  -9.663  0.00  0.00     0.137 N 
ATOM     18  C   UNL d   1      10.391   6.968  -8.896  0.00  0.00     0.255 C 
ATOM     19  C   UNL d   1      10.353   6.727  -7.366  0.00  0.00     0.057 C 
ATOM     20  C   UNL d   1       8.907   6.433  -6.954  0.00  0.00     0.009 C 
ATOM     21  C   UNL d   1       8.330   5.343  -7.851  0.00  0.00     0.036 C 
ATOM     22  C   UNL d   1       8.451   5.636  -9.311  0.00  0.00     0.250 C 
BRANCH  19  23
ATOM     23  C   UNL d   1      10.926   7.849  -6.570  0.00  0.00     0.000 A 
ATOM     24  C   UNL d   1      11.376   7.797  -5.203  0.00  0.00     0.015 A 
ATOM     25  C   UNL d   1      11.812   9.100  -4.822  0.00  0.00     0.081 A 
ATOM     26  C   UNL d   1      11.458   6.783  -4.226  0.00  0.00     0.001 A 
ATOM     27  N   UNL d   1      11.645   9.888  -5.944  0.00  0.00    -0.244 NA
ATOM     28  C   UNL d   1      12.289   9.364  -3.523  0.00  0.00     0.019 A 
ATOM     29  C   UNL d   1      11.111   9.145  -6.983  0.00  0.00     0.095 A 
ATOM     30  C   UNL d   1      12.357   8.329  -2.576  0.00  0.00     0.002 A 
ATOM     31  C   UNL d   1      11.930   7.036  -2.922  0.00  0.00     0.000 A 
ENDBRANCH  19  23
ENDBRANCH  16  17
ENDBRANCH  15  16
ENDBRANCH  14  15
ENDBRANCH  13  14
ENDBRANCH  12  13
BRANCH   3  32
ATOM     32  C   UNL d   1      13.070   6.259 -17.956  0.00  0.00     0.006 A 
ATOM     33  C   UNL d   1      12.777   7.526 -18.506  0.00  0.00     0.003 A 
ATOM     34  C   UNL d   1      13.823   8.350 -18.966  0.00  0.00     0.030 A 
ATOM     35  C   UNL d   1      15.159   7.920 -18.860  0.00  0.00     0.140 A 
ATOM     36  C   UNL d   1      15.453   6.665 -18.294  0.00  0.00     0.030 A 
ATOM     37  F   UNL d   1      16.161   8.715 -19.302  0.00  0.00    -0.204 F 
ATOM     38  C   UNL d   1      14.412   5.834 -17.840  0.00  0.00     0.003 A 
ENDBRANCH   3  32
TORSDOF 7
