REMARK  8 active torsions:
REMARK  status: ('A' for Active; 'I' for Inactive)
REMARK    1  A    between atoms: O_2  and  C_3 
REMARK    2  A    between atoms: C_9  and  C_10 
REMARK       I    between atoms: C_10  and  N_12 
REMARK    3  A    between atoms: N_12  and  C_13 
REMARK    4  A    between atoms: C_13  and  C_14 
REMARK    5  A    between atoms: C_14  and  C_15 
REMARK    6  A    between atoms: C_15  and  C_16 
REMARK    7  A    between atoms: C_16  and  N_17 
REMARK    8  A    between atoms: N_20  and  C_21 
ROOT
ATOM      1  C   UNL d   1       8.154   6.385 -11.871  0.00  0.00     0.037 C 
ENDROOT
BRANCH   1   2
ATOM      2  C   UNL d   1       8.231   5.420 -13.065  0.00  0.00     0.029 C 
BRANCH   2   3
ATOM      3  C   UNL d   1       8.733   4.020 -12.664  0.00  0.00     0.129 C 
BRANCH   3   4
ATOM      4  N   UNL d   1       8.853   3.154 -13.822  0.00  0.00    -0.233 NA
ATOM      5  C   UNL d   1       9.932   3.096 -14.610  0.00  0.00     0.298 C 
ATOM      6  O   UNL d   1      10.925   3.812 -14.462  0.00  0.00    -0.263 OA
BRANCH   5   7
ATOM      7  C   UNL d   1       9.827   2.134 -15.717  0.00  0.00     0.157 A 
ATOM      8  C   UNL d   1       8.988   1.059 -15.912  0.00  0.00     0.032 A 
ATOM      9  C   UNL d   1       9.364   0.480 -17.166  0.00  0.00     0.027 A 
ATOM     10  C   UNL d   1       8.938  -0.597 -17.974  0.00  0.00     0.002 A 
ATOM     11  C   UNL d   1      10.455   1.249 -17.647  0.00  0.00     0.122 A 
ATOM     12  C   UNL d   1       9.571  -0.873 -19.207  0.00  0.00     0.002 A 
ATOM     13  C   UNL d   1      10.648  -0.079 -19.655  0.00  0.00     0.026 A 
ATOM     14  C   UNL d   1      11.120   0.979 -18.857  0.00  0.00     0.117 A 
ATOM     15  O   UNL d   1      10.722   2.258 -16.748  0.00  0.00    -0.300 OA
BRANCH  14  16
ATOM     16  O   UNL d   1      12.162   1.729 -19.342  0.00  0.00    -0.326 OA
ATOM     17  C   UNL d   1      13.293   1.791 -18.480  0.00  0.00     0.181 C 
ENDBRANCH  14  16
ENDBRANCH   5   7
ENDBRANCH   3   4
ENDBRANCH   2   3
ENDBRANCH   1   2
BRANCH   1  18
ATOM     18  C   UNL d   1       9.533   6.595 -11.227  0.00  0.00     0.251 C 
BRANCH  18  19
ATOM     19  N   UNL d   1       9.508   7.475 -10.087  0.00  0.00     0.141 N 
ATOM     20  C   UNL d   1       8.993   6.766  -8.905  0.00  0.00     0.275 C 
ATOM     21  C   UNL d   1       8.909   7.739  -7.723  0.00  0.00     0.155 C 
ATOM     22  N   UNL d   1      10.219   8.287  -7.399  0.00  0.00    -0.179 N 
ATOM     23  C   UNL d   1      10.765   8.929  -8.587  0.00  0.00     0.155 C 
ATOM     24  C   UNL d   1      10.851   7.950  -9.762  0.00  0.00     0.275 C 
BRANCH  22  25
ATOM     25  C   UNL d   1      10.799   8.289  -6.153  0.00  0.00     0.727 A 
ATOM     26  N   UNL d   1      10.796   7.145  -5.468  0.00  0.00    -0.060 NA
ATOM     27  C   UNL d   1      11.463   7.398  -4.292  0.00  0.00     0.118 A 
ATOM     28  C   UNL d   1      11.794   8.783  -4.370  0.00  0.00     0.118 A 
ATOM     29  C   UNL d   1      11.798   6.624  -3.174  0.00  0.00     0.021 A 
ATOM     30  N   UNL d   1      11.390   9.329  -5.579  0.00  0.00    -0.060 NA
ATOM     31  C   UNL d   1      12.430   9.351  -3.253  0.00  0.00     0.021 A 
ATOM     32  C   UNL d   1      12.768   8.588  -2.127  0.00  0.00     0.002 A 
ATOM     33  C   UNL d   1      12.458   7.217  -2.095  0.00  0.00     0.002 A 
ENDBRANCH  22  25
ENDBRANCH  18  19
ENDBRANCH   1  18
TORSDOF 8
