REMARK  8 active torsions:
REMARK  status: ('A' for Active; 'I' for Inactive)
REMARK    1  A    between atoms: O_2  and  C_3 
REMARK    2  A    between atoms: C_8  and  N_9 
REMARK    3  A    between atoms: N_12  and  C_13 
REMARK    4  A    between atoms: C_13  and  C_14 
REMARK    5  A    between atoms: C_14  and  C_15 
REMARK    6  A    between atoms: C_15  and  O_16 
REMARK    7  A    between atoms: O_16  and  C_17 
REMARK    8  A    between atoms: C_20  and  C_21 
ROOT
ATOM      1  C   UNL d   1       7.519   1.621 -15.935  0.00  0.00     0.151 C 
ENDROOT
BRANCH   1   2
ATOM      2  C   UNL d   1       8.561   0.686 -15.261  0.00  0.00     0.068 C 
BRANCH   2   3
ATOM      3  C   UNL d   1       9.254  -0.225 -16.274  0.00  0.00     0.253 C 
BRANCH   3   4
ATOM      4  N   UNL d   1       9.969   0.533 -17.302  0.00  0.00     0.141 N 
ATOM      5  C   UNL d   1      11.207   1.129 -16.770  0.00  0.00     0.274 C 
ATOM      6  C   UNL d   1      11.950   1.909 -17.867  0.00  0.00     0.137 C 
ATOM      7  N   UNL d   1      12.191   1.036 -19.008  0.00  0.00    -0.343 N 
ATOM      8  C   UNL d   1      11.018   0.358 -19.535  0.00  0.00     0.137 C 
ATOM      9  C   UNL d   1      10.304  -0.387 -18.396  0.00  0.00     0.274 C 
BRANCH   7  10
ATOM     10  C   UNL d   1      13.456   0.890 -19.599  0.00  0.00     0.079 A 
ATOM     11  C   UNL d   1      14.278   2.021 -19.845  0.00  0.00     0.110 A 
ATOM     12  C   UNL d   1      15.551   1.824 -20.439  0.00  0.00     0.026 A 
ATOM     13  C   UNL d   1      16.001   0.534 -20.775  0.00  0.00     0.002 A 
ATOM     14  C   UNL d   1      15.176  -0.578 -20.537  0.00  0.00     0.002 A 
ATOM     15  C   UNL d   1      13.910  -0.399 -19.958  0.00  0.00     0.019 A 
BRANCH  11  16
ATOM     16  O   UNL d   1      13.779   3.265 -19.521  0.00  0.00    -0.327 OA
ATOM     17  C   UNL d   1      14.594   4.407 -19.723  0.00  0.00     0.181 C 
ENDBRANCH  11  16
ENDBRANCH   7  10
ENDBRANCH   3   4
ENDBRANCH   2   3
ENDBRANCH   1   2
BRANCH   1  18
ATOM     18  O   UNL d   1       6.697   2.263 -14.965  0.00  0.00    -0.331 OA
BRANCH  18  19
ATOM     19  C   UNL d   1       7.271   3.109 -14.044  0.00  0.00     0.094 A 
ATOM     20  C   UNL d   1       8.640   3.471 -14.048  0.00  0.00     0.024 A 
ATOM     21  C   UNL d   1       9.173   4.221 -12.993  0.00  0.00     0.004 A 
ATOM     22  C   UNL d   1       8.330   4.720 -11.975  0.00  0.00     0.019 A 
ATOM     23  C   UNL d   1       6.946   4.431 -12.016  0.00  0.00     0.004 A 
ATOM     24  C   UNL d   1       6.422   3.614 -13.031  0.00  0.00     0.024 A 
BRANCH  22  25
ATOM     25  C   UNL d   1       8.878   5.560 -10.914  0.00  0.00     0.101 A 
ATOM     26  N   UNL d   1       9.793   6.558 -11.221  0.00  0.00    -0.227 NA
ATOM     27  C   UNL d   1      10.119   7.148 -10.068  0.00  0.00     0.148 A 
ATOM     28  N   UNL d   1       9.382   6.569  -9.015  0.00  0.00    -0.288 N 
ATOM     29  C   UNL d   1      11.025   8.192  -9.741  0.00  0.00     0.037 A 
ATOM     30  C   UNL d   1       8.618   5.566  -9.572  0.00  0.00     0.101 A 
ATOM     31  C   UNL d   1       9.473   7.011  -7.727  0.00  0.00     0.077 A 
ATOM     32  C   UNL d   1      10.337   8.030  -7.421  0.00  0.00    -0.004 A 
ATOM     33  C   UNL d   1      10.443   8.511  -5.988  0.00  0.00     0.033 C 
ATOM     34  C   UNL d   1      11.126   8.625  -8.435  0.00  0.00     0.000 A 
ENDBRANCH  22  25
ENDBRANCH  18  19
ENDBRANCH   1  18
TORSDOF 8
