REMARK  7 active torsions:
REMARK  status: ('A' for Active; 'I' for Inactive)
REMARK    1  A    between atoms: C_2  and  C_3 
REMARK    2  A    between atoms: C_2  and  C_24 
REMARK    3  A    between atoms: C_3  and  C_4 
REMARK    4  A    between atoms: C_4  and  C_5 
REMARK    5  A    between atoms: C_5  and  C_6 
REMARK    6  A    between atoms: C_6  and  N_7 
REMARK    7  A    between atoms: C_10  and  N_11 
ROOT
ATOM      1  N   UNL d   1       7.145   4.347 -13.438  0.00  0.00     0.137 N 
ATOM      2  C   UNL d   1       8.033   3.753 -12.443  0.00  0.00     0.252 C 
ATOM      3  C   UNL d   1       8.973   4.772 -11.806  0.00  0.00     0.058 C 
ATOM      4  C   UNL d   1       8.159   5.871 -11.134  0.00  0.00     0.094 C 
ATOM      5  C   UNL d   1       7.103   6.390 -12.148  0.00  0.00     0.058 C 
ATOM      6  C   UNL d   1       6.249   5.266 -12.731  0.00  0.00     0.252 C 
ENDROOT
BRANCH   1   7
ATOM      7  C   UNL d   1       6.307   3.306 -14.031  0.00  0.00     0.250 C 
BRANCH   7   8
ATOM      8  C   UNL d   1       7.107   2.296 -14.880  0.00  0.00     0.036 C 
BRANCH   8   9
ATOM      9  C   UNL d   1       6.393   0.938 -14.977  0.00  0.00     0.010 C 
BRANCH   9  10
ATOM     10  C   UNL d   1       7.083   0.005 -15.978  0.00  0.00     0.071 C 
BRANCH  10  11
ATOM     11  C   UNL d   1       6.725   0.319 -17.438  0.00  0.00     0.197 C 
ATOM     12  O   UNL d   1       7.072   1.371 -17.973  0.00  0.00    -0.289 OA
BRANCH  11  13
ATOM     13  C   UNL d   1       5.967  -0.702 -18.204  0.00  0.00     0.145 A 
ATOM     14  S   UNL d   1       4.851  -1.773 -17.343  0.00  0.00    -0.064 SA
ATOM     15  C   UNL d   1       4.489  -2.547 -18.881  0.00  0.00     0.049 A 
ATOM     16  C   UNL d   1       5.231  -1.921 -19.925  0.00  0.00     0.088 A 
ATOM     17  C   UNL d   1       3.617  -3.617 -19.134  0.00  0.00     0.008 A 
ATOM     18  N   UNL d   1       6.051  -0.872 -19.530  0.00  0.00    -0.236 NA
ATOM     19  C   UNL d   1       5.062  -2.417 -21.237  0.00  0.00     0.020 A 
ATOM     20  C   UNL d   1       4.184  -3.488 -21.499  0.00  0.00     0.002 A 
ATOM     21  C   UNL d   1       3.459  -4.087 -20.450  0.00  0.00     0.001 A 
ENDBRANCH  11  13
ENDBRANCH  10  11
ENDBRANCH   9  10
ENDBRANCH   8   9
ENDBRANCH   7   8
ENDBRANCH   1   7
BRANCH   4  22
ATOM     22  N   UNL d   1       9.066   6.910 -10.623  0.00  0.00    -0.281 N 
ATOM     23  C   UNL d   1       9.534   7.042  -9.299  0.00  0.00     0.082 A 
ATOM     24  C   UNL d   1      10.356   8.150  -9.262  0.00  0.00     0.103 A 
ATOM     25  C   UNL d   1       9.258   6.315  -8.131  0.00  0.00     0.020 A 
ATOM     26  N   UNL d   1      10.383   8.666 -10.540  0.00  0.00    -0.191 NA
ATOM     27  C   UNL d   1      10.969   8.635  -8.108  0.00  0.00     0.032 A 
ATOM     28  C   UNL d   1       9.580   7.941 -11.333  0.00  0.00     0.350 A 
ATOM     29  O   UNL d   1       9.396   8.172 -12.514  0.00  0.00    -0.244 OA
ATOM     30  C   UNL d   1      10.702   7.927  -6.918  0.00  0.00     0.059 A 
ATOM     31 CL   UNL d   1      11.425   8.454  -5.442  0.00  0.00    -0.082 Cl
ATOM     32  C   UNL d   1       9.853   6.787  -6.933  0.00  0.00     0.013 A 
ENDBRANCH   4  22
TORSDOF 7
