REMARK  6 active torsions:
REMARK  status: ('A' for Active; 'I' for Inactive)
REMARK    1  A    between atoms: C_2  and  C_3 
REMARK    2  A    between atoms: C_2  and  C_19 
REMARK    3  A    between atoms: C_3  and  C_4 
REMARK    4  A    between atoms: C_4  and  C_5 
REMARK    5  A    between atoms: C_5  and  N_6 
REMARK    6  A    between atoms: C_9  and  C_11 
ROOT
ATOM      1  N   UNL d   1      10.060   6.931 -10.049  0.00  0.00     0.137 N 
ATOM      2  C   UNL d   1       9.239   6.339  -8.992  0.00  0.00     0.253 C 
ATOM      3  C   UNL d   1       9.927   6.454  -7.637  0.00  0.00     0.070 C 
ATOM      4  C   UNL d   1      10.269   7.899  -7.244  0.00  0.00     0.149 C 
ATOM      5  O   UNL d   1       9.059   8.601  -7.051  0.00  0.00    -0.221 OA
ATOM      6  C   UNL d   1      11.004   8.555  -8.439  0.00  0.00     0.070 C 
ATOM      7  C   UNL d   1      10.251   8.355  -9.771  0.00  0.00     0.253 C 
ENDROOT
BRANCH   1   8
ATOM      8  C   UNL d   1       9.371   6.802 -11.339  0.00  0.00     0.251 C 
BRANCH   8   9
ATOM      9  C   UNL d   1       9.243   5.343 -11.803  0.00  0.00     0.043 C 
BRANCH   9  10
ATOM     10  C   UNL d   1       8.714   5.262 -13.245  0.00  0.00     0.071 C 
BRANCH  10  11
ATOM     11  C   UNL d   1       7.880   4.005 -13.483  0.00  0.00     0.173 C 
ATOM     12  O   UNL d   1       6.700   4.010 -13.119  0.00  0.00    -0.291 OA
BRANCH  11  13
ATOM     13  C   UNL d   1       8.507   2.821 -14.135  0.00  0.00     0.035 A 
ATOM     14  C   UNL d   1       7.729   1.685 -14.449  0.00  0.00     0.005 A 
ATOM     15  C   UNL d   1       8.304   0.561 -15.086  0.00  0.00     0.030 A 
ATOM     16  C   UNL d   1       9.675   0.573 -15.419  0.00  0.00     0.140 A 
ATOM     17  C   UNL d   1      10.461   1.693 -15.099  0.00  0.00     0.030 A 
ATOM     18  F   UNL d   1      10.231  -0.495 -16.040  0.00  0.00    -0.204 F 
ATOM     19  C   UNL d   1       9.891   2.807 -14.447  0.00  0.00     0.005 A 
ENDBRANCH  11  13
ENDBRANCH  10  11
ENDBRANCH   9  10
ENDBRANCH   8   9
ENDBRANCH   1   8
BRANCH   4  20
ATOM     20  C   UNL d   1      11.097   7.964  -5.942  0.00  0.00     0.005 A 
ATOM     21  C   UNL d   1      11.854   9.106  -5.599  0.00  0.00    -0.002 A 
ATOM     22  C   UNL d   1      12.601   9.136  -4.406  0.00  0.00    -0.000 A 
ATOM     23  C   UNL d   1      12.588   8.045  -3.516  0.00  0.00    -0.000 A 
ATOM     24  C   UNL d   1      11.838   6.904  -3.834  0.00  0.00    -0.000 A 
ATOM     25  C   UNL d   1      11.091   6.872  -5.028  0.00  0.00    -0.002 A 
ENDBRANCH   4  20
TORSDOF 6
