REMARK  3 active torsions:
REMARK  status: ('A' for Active; 'I' for Inactive)
REMARK    1  A    between atoms: C_4  and  C_5 
REMARK    2  A    between atoms: C_5  and  N_6 
REMARK    3  A    between atoms: C_9  and  C_10 
ROOT
ATOM      1  N   UNL d   1       8.066   2.992 -14.454  0.00  0.00     0.137 N 
ATOM      2  C   UNL d   1       9.278   2.803 -13.652  0.00  0.00     0.251 C 
ATOM      3  C   UNL d   1       9.742   4.120 -13.023  0.00  0.00     0.041 C 
ATOM      4  C   UNL d   1       8.632   4.746 -12.160  0.00  0.00     0.047 C 
ATOM      5  C   UNL d   1       7.335   4.830 -12.978  0.00  0.00     0.041 C 
ATOM      6  C   UNL d   1       6.964   3.485 -13.618  0.00  0.00     0.251 C 
ENDROOT
BRANCH   1   7
ATOM      7  C   UNL d   1       7.695   1.726 -15.086  0.00  0.00     0.251 C 
BRANCH   7   8
ATOM      8  C   UNL d   1       8.533   1.479 -16.364  0.00  0.00     0.047 C 
ATOM      9  C   UNL d   1       8.894  -0.009 -16.521  0.00  0.00     0.072 C 
ATOM     10  C   UNL d   1       9.737  -0.287 -17.770  0.00  0.00     0.176 C 
ATOM     11  O   UNL d   1      10.588  -1.176 -17.749  0.00  0.00    -0.291 OA
ATOM     12  C   UNL d   1       9.437   0.545 -18.959  0.00  0.00     0.068 A 
ATOM     13  C   UNL d   1       8.533   1.626 -18.902  0.00  0.00     0.065 A 
ATOM     14  C   UNL d   1      10.048   0.317 -20.208  0.00  0.00     0.105 A 
ATOM     15  C   UNL d   1       7.823   2.012 -17.622  0.00  0.00     0.049 C 
ATOM     16  N   UNL d   1       8.260   2.386 -19.983  0.00  0.00    -0.228 NA
ATOM     17  C   UNL d   1       8.888   2.066 -21.114  0.00  0.00     0.199 A 
ATOM     18  N   UNL d   1       9.765   1.077 -21.285  0.00  0.00    -0.223 NA
ENDBRANCH   7   8
ENDBRANCH   1   7
BRANCH   4  19
ATOM     19  C   UNL d   1       9.039   6.098 -11.625  0.00  0.00     0.087 A 
ATOM     20  C   UNL d   1       9.504   6.485 -10.350  0.00  0.00     0.041 A 
ATOM     21  C   UNL d   1       9.808   7.849 -10.367  0.00  0.00     0.129 A 
ATOM     22  C   UNL d   1       9.681   5.752  -9.155  0.00  0.00     0.006 A 
ATOM     23  O   UNL d   1       9.505   8.273 -11.649  0.00  0.00    -0.211 OA
ATOM     24  C   UNL d   1      10.272   8.546  -9.247  0.00  0.00     0.057 A 
ATOM     25  N   UNL d   1       9.060   7.166 -12.425  0.00  0.00    -0.131 NA
ATOM     26  C   UNL d   1      10.442   7.819  -8.049  0.00  0.00     0.142 A 
ATOM     27  F   UNL d   1      10.874   8.454  -6.931  0.00  0.00    -0.204 F 
ATOM     28  C   UNL d   1      10.152   6.433  -8.007  0.00  0.00     0.030 A 
ENDBRANCH   4  19
TORSDOF 3
