REMARK  8 active torsions:
REMARK  status: ('A' for Active; 'I' for Inactive)
REMARK    1  A    between atoms: O_2  and  C_3 
REMARK    2  A    between atoms: C_7  and  C_8 
REMARK    3  A    between atoms: C_8  and  C_9 
REMARK    4  A    between atoms: C_9  and  N_10 
REMARK    5  A    between atoms: N_10  and  C_12 
REMARK    6  A    between atoms: C_12  and  C_13 
REMARK    7  A    between atoms: C_13  and  N_14 
REMARK    8  A    between atoms: N_17  and  C_18 
ROOT
ATOM      1  C   UNL d   1      10.480   7.125 -10.468  0.00  0.00     0.141 C 
ENDROOT
BRANCH   1   2
ATOM      2  C   UNL d   1       9.072   7.293 -10.955  0.00  0.00     0.274 C 
BRANCH   2   3
ATOM      3  N   UNL d   1       8.858   6.885 -12.333  0.00  0.00     0.141 N 
ATOM      4  C   UNL d   1       7.612   7.562 -12.692  0.00  0.00     0.285 C 
BRANCH   3   5
ATOM      5  C   UNL d   1       8.682   5.431 -12.334  0.00  0.00     0.255 C 
BRANCH   5   6
ATOM      6  C   UNL d   1       8.397   4.845 -13.752  0.00  0.00     0.062 C 
BRANCH   6   7
ATOM      7  C   UNL d   1       7.513   3.618 -13.714  0.00  0.00    -0.018 A 
ATOM      8  C   UNL d   1       6.364   3.566 -12.887  0.00  0.00    -0.004 A 
ATOM      9  C   UNL d   1       5.534   2.432 -12.907  0.00  0.00     0.002 A 
ATOM     10  C   UNL d   1       5.824   1.372 -13.796  0.00  0.00     0.024 A 
ATOM     11  C   UNL d   1       6.923   1.460 -14.692  0.00  0.00     0.094 A 
ATOM     12  C   UNL d   1       7.767   2.578 -14.625  0.00  0.00     0.020 A 
BRANCH  11  13
ATOM     13  O   UNL d   1       7.219   0.520 -15.655  0.00  0.00    -0.328 OA
ATOM     14  C   UNL d   1       6.293  -0.535 -15.842  0.00  0.00     0.181 C 
ENDBRANCH  11  13
ENDBRANCH   6   7
ENDBRANCH   5   6
ENDBRANCH   3   5
ENDBRANCH   2   3
ENDBRANCH   1   2
BRANCH   1  15
ATOM     15  N   UNL d   1      10.495   7.021  -9.028  0.00  0.00    -0.298 N 
ATOM     16  C   UNL d   1      10.852   8.023  -8.229  0.00  0.00     0.328 A 
ATOM     17  N   UNL d   1      10.828   7.597  -6.957  0.00  0.00    -0.280 N 
ATOM     18  O   UNL d   1      11.167   9.157  -8.622  0.00  0.00    -0.247 OA
ATOM     19  C   UNL d   1      10.504   6.187  -6.868  0.00  0.00     0.135 A 
ATOM     20  C   UNL d   1      10.252   5.772  -8.308  0.00  0.00     0.131 A 
BRANCH  17  21
ATOM     21  C   UNL d   1      11.070   8.355  -5.795  0.00  0.00     0.065 A 
ATOM     22  C   UNL d   1      11.607   7.777  -4.602  0.00  0.00     0.029 A 
ATOM     23  C   UNL d   1      11.853   8.599  -3.482  0.00  0.00     0.059 A 
ATOM     24  C   UNL d   1      11.562   9.959  -3.539  0.00  0.00     0.011 A 
ATOM     25 CL   UNL d   1      12.534   7.956  -2.043  0.00  0.00    -0.082 Cl
ATOM     26  C   UNL d   1      11.021  10.513  -4.709  0.00  0.00     0.002 A 
ATOM     27  C   UNL d   1      10.745   9.716  -5.816  0.00  0.00     0.017 A 
ENDBRANCH  17  21
ENDBRANCH   1  15
TORSDOF 8
