REMARK  7 active torsions:
REMARK  status: ('A' for Active; 'I' for Inactive)
REMARK    1  A    between atoms: S_2  and  C_5 
REMARK    2  A    between atoms: C_5  and  C_6 
REMARK       I    between atoms: C_6  and  N_8 
REMARK    3  A    between atoms: N_8  and  C_9 
REMARK    4  A    between atoms: C_12  and  C_13 
REMARK    5  A    between atoms: C_13  and  C_14 
REMARK    6  A    between atoms: C_14  and  N_15 
REMARK    7  A    between atoms: C_18  and  C_19 
ROOT
ATOM      1  C   UNL d   1       8.685   5.517 -10.504  0.00  0.00     0.250 C 
ENDROOT
BRANCH   1   2
ATOM      2  C   UNL d   1       9.430   5.715 -11.843  0.00  0.00     0.035 C 
BRANCH   2   3
ATOM      3  C   UNL d   1       9.536   4.435 -12.678  0.00  0.00     0.002 C 
ATOM      4  C   UNL d   1       8.183   4.104 -13.317  0.00  0.00     0.002 C 
ATOM      5  C   UNL d   1       8.284   2.891 -14.244  0.00  0.00     0.024 C 
ATOM      6  C   UNL d   1       9.388   3.081 -15.305  0.00  0.00     0.106 C 
ATOM      7  C   UNL d   1      10.745   3.385 -14.660  0.00  0.00     0.024 C 
ATOM      8  C   UNL d   1      10.636   4.596 -13.740  0.00  0.00     0.002 C 
BRANCH   6   9
ATOM      9  N   UNL d   1       9.524   1.882 -16.117  0.00  0.00    -0.239 NA
ATOM     10  C   UNL d   1       8.717   1.620 -17.160  0.00  0.00     0.268 C 
ATOM     11  O   UNL d   1       7.859   2.410 -17.532  0.00  0.00    -0.269 OA
BRANCH  10  12
ATOM     12  C   UNL d   1       8.905   0.285 -17.866  0.00  0.00     0.212 C 
BRANCH  12  13
ATOM     13  S   UNL d   1       7.401  -0.247 -18.812  0.00  0.00     0.180 S 
ATOM     14  C   UNL d   1       6.228  -0.627 -17.450  0.00  0.00     0.140 C 
ATOM     15  O   UNL d   1       7.731  -1.507 -19.495  0.00  0.00    -0.225 OA
ATOM     16  O   UNL d   1       6.849   0.874 -19.593  0.00  0.00    -0.225 OA
ENDBRANCH  12  13
ENDBRANCH  10  12
ENDBRANCH   6   9
ENDBRANCH   2   3
ENDBRANCH   1   2
BRANCH   1  17
ATOM     17  N   UNL d   1       9.166   6.368  -9.420  0.00  0.00     0.137 N 
ATOM     18  C   UNL d   1       8.608   5.862  -8.158  0.00  0.00     0.251 C 
ATOM     19  C   UNL d   1       8.978   6.793  -6.990  0.00  0.00     0.040 C 
ATOM     20  C   UNL d   1      10.502   6.958  -6.876  0.00  0.00     0.026 C 
ATOM     21  C   UNL d   1      11.081   7.361  -8.228  0.00  0.00     0.040 C 
ATOM     22  C   UNL d   1      10.625   6.413  -9.312  0.00  0.00     0.251 C 
BRANCH  20  23
ATOM     23  C   UNL d   1      10.885   7.970  -5.811  0.00  0.00    -0.024 A 
ATOM     24  C   UNL d   1      11.489   7.589  -4.598  0.00  0.00    -0.001 A 
ATOM     25  C   UNL d   1      11.840   8.501  -3.620  0.00  0.00     0.090 A 
ATOM     26  C   UNL d   1      11.826   6.230  -4.126  0.00  0.00     0.061 A 
ATOM     27  C   UNL d   1      11.582   9.864  -3.811  0.00  0.00     0.024 A 
ATOM     28  O   UNL d   1      12.381   7.927  -2.504  0.00  0.00    -0.331 OA
ATOM     29  C   UNL d   1      11.020  10.283  -5.034  0.00  0.00     0.002 A 
ATOM     30  C   UNL d   1      10.657   9.344  -6.022  0.00  0.00    -0.004 A 
ATOM     31  C   UNL d   1      12.426   6.509  -2.729  0.00  0.00     0.154 A 
ENDBRANCH  20  23
ENDBRANCH   1  17
TORSDOF 7
