REMARK  11 active torsions:
REMARK  status: ('A' for Active; 'I' for Inactive)
REMARK    1  A    between atoms: C_2  and  C_3 
REMARK    2  A    between atoms: C_3  and  N_4 
REMARK    3  A    between atoms: N_4  and  C_5 
REMARK    4  A    between atoms: N_4  and  C_22 
REMARK    5  A    between atoms: C_5  and  C_6 
REMARK    6  A    between atoms: C_6  and  C_7 
REMARK    7  A    between atoms: C_7  and  C_8 
REMARK    8  A    between atoms: C_8  and  N_9 
REMARK       I    between atoms: N_9  and  C_10 
REMARK    9  A    between atoms: C_10  and  C_12 
REMARK   10  A    between atoms: C_22  and  C_23 
REMARK   11  A    between atoms: C_25  and  C_26 
ROOT
ATOM      1  C   UNL d   1       8.737   3.672 -13.703  0.00  0.00     0.250 C 
ENDROOT
BRANCH   1   2
ATOM      2  N   UNL d   1       8.350   4.634 -12.668  0.00  0.00     0.137 N 
BRANCH   2   3
ATOM      3  C   UNL d   1       7.033   4.263 -12.149  0.00  0.00     0.250 C 
BRANCH   3   4
ATOM      4  C   UNL d   1       5.909   5.014 -12.832  0.00  0.00     0.035 C 
ATOM      5  C   UNL d   1       5.919   6.513 -12.472  0.00  0.00     0.002 C 
ENDBRANCH   3   4
ENDBRANCH   2   3
BRANCH   2   6
ATOM      6  C   UNL d   1       9.356   4.617 -11.602  0.00  0.00     0.251 C 
BRANCH   6   7
ATOM      7  C   UNL d   1       9.073   5.609 -10.495  0.00  0.00     0.038 A 
ATOM      8  C   UNL d   1       9.764   5.465  -9.156  0.00  0.00     0.024 A 
ATOM      9  C   UNL d   1       8.291   5.198  -9.265  0.00  0.00     0.007 A 
BRANCH   8  10
ATOM     10  C   UNL d   1      10.214   6.657  -8.390  0.00  0.00    -0.022 A 
ATOM     11  C   UNL d   1      10.963   7.663  -9.015  0.00  0.00    -0.003 A 
ATOM     12  C   UNL d   1      11.345   8.806  -8.290  0.00  0.00     0.011 A 
ATOM     13  C   UNL d   1      10.990   8.935  -6.929  0.00  0.00     0.058 A 
ATOM     14  C   UNL d   1      10.238   7.923  -6.301  0.00  0.00     0.011 A 
ATOM     15 CL   UNL d   1      11.459  10.328  -6.035  0.00  0.00    -0.082 Cl
ATOM     16  C   UNL d   1       9.845   6.792  -7.040  0.00  0.00    -0.003 A 
ENDBRANCH   8  10
ENDBRANCH   6   7
ENDBRANCH   2   6
ENDBRANCH   1   2
BRANCH   1  17
ATOM     17  C   UNL d   1       9.990   4.080 -14.487  0.00  0.00     0.037 C 
BRANCH  17  18
ATOM     18  C   UNL d   1      10.566   2.905 -15.293  0.00  0.00     0.029 C 
BRANCH  18  19
ATOM     19  C   UNL d   1      11.725   3.374 -16.196  0.00  0.00     0.129 C 
BRANCH  19  20
ATOM     20  N   UNL d   1      11.351   4.423 -17.144  0.00  0.00    -0.234 NA
ATOM     21  C   UNL d   1      10.303   4.433 -17.981  0.00  0.00     0.275 C 
ATOM     22  O   UNL d   1       9.429   3.559 -18.017  0.00  0.00    -0.266 OA
BRANCH  21  23
ATOM     23  C   UNL d   1      10.198   5.630 -18.874  0.00  0.00     0.058 A 
ATOM     24  C   UNL d   1       8.934   6.029 -19.352  0.00  0.00     0.005 A 
ATOM     25  C   UNL d   1       8.816   7.086 -20.274  0.00  0.00     0.000 A 
ATOM     26  C   UNL d   1       9.980   7.753 -20.712  0.00  0.00     0.000 A 
ATOM     27  C   UNL d   1       7.545   7.462 -20.761  0.00  0.00     0.000 A 
ATOM     28  C   UNL d   1      11.250   7.371 -20.232  0.00  0.00     0.000 A 
ATOM     29  C   UNL d   1       9.870   8.800 -21.647  0.00  0.00     0.000 A 
ATOM     30  C   UNL d   1      11.358   6.308 -19.318  0.00  0.00     0.005 A 
ATOM     31  C   UNL d   1       8.604   9.183 -22.127  0.00  0.00     0.000 A 
ATOM     32  C   UNL d   1       7.443   8.521 -21.686  0.00  0.00     0.000 A 
ENDBRANCH  21  23
ENDBRANCH  19  20
ENDBRANCH  18  19
ENDBRANCH  17  18
ENDBRANCH   1  17
TORSDOF 11
