REMARK  1 active torsions:
REMARK  status: ('A' for Active; 'I' for Inactive)
REMARK       I    between atoms: C_2  and  N_4 
REMARK    1  A    between atoms: N_4  and  C_5 
ROOT
ATOM      1  C   UNL d   1      10.277   7.757  -8.615  0.00  0.00     0.084 A 
ATOM      2  C   UNL d   1      10.661   6.514  -8.056  0.00  0.00     0.019 A 
ATOM      3  C   UNL d   1      11.159   6.463  -6.740  0.00  0.00     0.001 A 
ATOM      4  C   UNL d   1      11.184   7.615  -5.959  0.00  0.00    -0.004 A 
ATOM      5  C   UNL d   1      10.787   8.836  -6.490  0.00  0.00    -0.016 A 
ATOM      6  C   UNL d   1      10.330   8.926  -7.816  0.00  0.00     0.015 A 
ATOM      7  C   UNL d   1      10.982   9.949  -5.476  0.00  0.00     0.053 A 
ATOM      8  C   UNL d   1      11.522   9.157  -4.300  0.00  0.00    -0.018 A 
ATOM      9  C   UNL d   1      11.860   9.646  -3.034  0.00  0.00    -0.004 A 
ATOM     10  C   UNL d   1      12.337   8.737  -2.069  0.00  0.00    -0.000 A 
ATOM     11  C   UNL d   1      12.450   7.359  -2.366  0.00  0.00    -0.000 A 
ATOM     12  C   UNL d   1      12.099   6.874  -3.641  0.00  0.00    -0.000 A 
ATOM     13  C   UNL d   1      11.629   7.798  -4.594  0.00  0.00    -0.004 A 
ENDROOT
BRANCH   1  14
ATOM     14  N   UNL d   1       9.861   7.909  -9.963  0.00  0.00    -0.212 NA
ATOM     15  C   UNL d   1       9.466   6.977 -10.848  0.00  0.00     0.256 C 
ATOM     16  C   UNL d   1       8.920   7.513 -12.166  0.00  0.00     0.100 C 
ATOM     17  O   UNL d   1       9.524   5.759 -10.688  0.00  0.00    -0.270 OA
ENDBRANCH   1  14
TORSDOF 1
