REMARK  8 active torsions:
REMARK  status: ('A' for Active; 'I' for Inactive)
REMARK    1  A    between atoms: N_5  and  C_6 
REMARK    2  A    between atoms: C_6  and  C_7 
REMARK    3  A    between atoms: C_10  and  O_11 
REMARK    4  A    between atoms: O_11  and  C_12 
REMARK    5  A    between atoms: C_12  and  C_13 
REMARK    6  A    between atoms: C_13  and  C_14 
REMARK    7  A    between atoms: C_14  and  N_15 
REMARK    8  A    between atoms: C_18  and  C_19 
ROOT
ATOM      1  C   UNL d   1       8.524   1.361 -16.085  0.00  0.00     0.068 C 
ENDROOT
BRANCH   1   2
ATOM      2  C   UNL d   1       8.612   2.319 -17.288  0.00  0.00     0.151 C 
BRANCH   2   3
ATOM      3  O   UNL d   1       9.774   2.041 -18.059  0.00  0.00    -0.331 OA
BRANCH   3   4
ATOM      4  C   UNL d   1      10.955   2.713 -17.799  0.00  0.00     0.094 A 
ATOM      5  C   UNL d   1      12.076   2.347 -18.576  0.00  0.00     0.024 A 
ATOM      6  C   UNL d   1      13.308   3.019 -18.436  0.00  0.00    -0.000 A 
ATOM      7  C   UNL d   1      13.434   4.066 -17.501  0.00  0.00     0.011 A 
ATOM      8  C   UNL d   1      12.331   4.420 -16.702  0.00  0.00    -0.000 A 
ATOM      9  C   UNL d   1      11.102   3.750 -16.845  0.00  0.00     0.024 A 
BRANCH   7  10
ATOM     10  C   UNL d   1      14.757   4.795 -17.347  0.00  0.00     0.277 C 
BRANCH  10  11
ATOM     11  N   UNL d   1      14.832   6.030 -18.128  0.00  0.00     0.146 N 
ATOM     12  C   UNL d   1      14.118   7.136 -17.477  0.00  0.00     0.286 C 
ATOM     13  C   UNL d   1      14.195   8.436 -18.293  0.00  0.00     0.286 C 
ATOM     14  N   UNL d   1      15.579   8.841 -18.524  0.00  0.00     0.143 N 
ATOM     15  C   UNL d   1      15.644  10.071 -19.299  0.00  0.00     0.285 C 
ATOM     16  C   UNL d   1      16.289   7.748 -19.182  0.00  0.00     0.286 C 
ATOM     17  C   UNL d   1      16.216   6.447 -18.356  0.00  0.00     0.286 C 
ENDBRANCH  10  11
ENDBRANCH   7  10
ENDBRANCH   3   4
ENDBRANCH   2   3
ENDBRANCH   1   2
BRANCH   1  18
ATOM     18  C   UNL d   1       7.540   1.861 -15.010  0.00  0.00     0.253 C 
BRANCH  18  19
ATOM     19  N   UNL d   1       7.962   3.115 -14.375  0.00  0.00     0.137 N 
ATOM     20  C   UNL d   1       6.896   3.585 -13.478  0.00  0.00     0.251 C 
ATOM     21  C   UNL d   1       7.291   4.930 -12.837  0.00  0.00     0.041 C 
ATOM     22  C   UNL d   1       8.633   4.858 -12.099  0.00  0.00     0.047 C 
ATOM     23  C   UNL d   1       9.695   4.263 -13.032  0.00  0.00     0.041 C 
ATOM     24  C   UNL d   1       9.218   2.945 -13.639  0.00  0.00     0.251 C 
BRANCH  22  25
ATOM     25  C   UNL d   1       9.054   6.216 -11.583  0.00  0.00     0.087 A 
ATOM     26  C   UNL d   1       9.554   6.602 -10.326  0.00  0.00     0.041 A 
ATOM     27  C   UNL d   1       9.857   7.966 -10.353  0.00  0.00     0.129 A 
ATOM     28  C   UNL d   1       9.758   5.870  -9.134  0.00  0.00     0.006 A 
ATOM     29  O   UNL d   1       9.527   8.385 -11.633  0.00  0.00    -0.211 OA
ATOM     30  C   UNL d   1      10.358   8.659  -9.248  0.00  0.00     0.057 A 
ATOM     31  N   UNL d   1       9.055   7.278 -12.389  0.00  0.00    -0.131 NA
ATOM     32  C   UNL d   1      10.556   7.934  -8.052  0.00  0.00     0.142 A 
ATOM     33  F   UNL d   1      11.027   8.567  -6.950  0.00  0.00    -0.204 F 
ATOM     34  C   UNL d   1      10.260   6.547  -7.999  0.00  0.00     0.030 A 
ENDBRANCH  22  25
ENDBRANCH  18  19
ENDBRANCH   1  18
TORSDOF 8
