REMARK  2 active torsions:
REMARK  status: ('A' for Active; 'I' for Inactive)
REMARK    1  A    between atoms: C_6  and  C_7 
REMARK    2  A    between atoms: C_7  and  N_8 
ROOT
ATOM      1  N   UNL d   1       9.084   4.543 -13.563  0.00  0.00    -0.327 N 
ATOM      2  C   UNL d   1      10.098   4.351 -14.538  0.00  0.00     0.066 A 
ATOM      3  C   UNL d   1      11.044   5.377 -14.852  0.00  0.00     0.018 A 
ATOM      4  C   UNL d   1      12.042   5.187 -15.826  0.00  0.00     0.002 A 
ATOM      5  C   UNL d   1      12.145   3.976 -16.514  0.00  0.00     0.001 A 
ATOM      6  C   UNL d   1      11.222   2.943 -16.232  0.00  0.00     0.008 A 
ATOM      7  C   UNL d   1      10.207   3.126 -15.258  0.00  0.00     0.045 A 
ATOM      8  S   UNL d   1       9.083   1.786 -14.999  0.00  0.00    -0.084 SA
ATOM      9  C   UNL d   1       7.736   2.542 -14.136  0.00  0.00     0.045 A 
ATOM     10  C   UNL d   1       6.531   1.808 -14.017  0.00  0.00     0.008 A 
ATOM     11  C   UNL d   1       5.463   2.302 -13.249  0.00  0.00     0.001 A 
ATOM     12  C   UNL d   1       5.556   3.583 -12.682  0.00  0.00     0.002 A 
ATOM     13  C   UNL d   1       6.744   4.319 -12.804  0.00  0.00     0.018 A 
ATOM     14  C   UNL d   1       7.866   3.818 -13.515  0.00  0.00     0.066 A 
ENDROOT
BRANCH   1  15
ATOM     15  C   UNL d   1       9.561   4.969 -12.237  0.00  0.00     0.108 C 
BRANCH  15  16
ATOM     16  C   UNL d   1       9.631   6.514 -12.028  0.00  0.00     0.056 C 
ATOM     17  C   UNL d   1       8.273   7.194 -12.080  0.00  0.00     0.006 C 
ATOM     18  C   UNL d   1       8.447   8.701 -11.908  0.00  0.00     0.035 C 
ATOM     19  C   UNL d   1       9.192   8.949 -10.572  0.00  0.00     0.250 C 
ATOM     20  N   UNL d   1      10.511   8.354 -10.628  0.00  0.00     0.139 N 
ATOM     21  C   UNL d   1      11.291   8.680  -9.455  0.00  0.00     0.285 C 
ATOM     22  C   UNL d   1      10.351   6.894 -10.706  0.00  0.00     0.252 C 
ENDBRANCH  15  16
ENDBRANCH   1  15
TORSDOF 2
