REMARK  5 active torsions:
REMARK  status: ('A' for Active; 'I' for Inactive)
REMARK    1  A    between atoms: C_4  and  C_5 
REMARK    2  A    between atoms: C_5  and  C_6 
REMARK    3  A    between atoms: C_6  and  N_7 
REMARK    4  A    between atoms: C_11  and  C_12 
REMARK    5  A    between atoms: C_13  and  C_14 
ROOT
ATOM      1  C   UNL d   1       8.889   3.020 -14.519  0.00  0.00    -0.001 A 
ATOM      2  C   UNL d   1       8.390   1.942 -15.248  0.00  0.00     0.077 A 
ATOM      3  N   UNL d   1       9.319   1.664 -16.240  0.00  0.00    -0.246 NA
ATOM      4  C   UNL d   1      10.410   2.511 -16.181  0.00  0.00     0.081 A 
ATOM      5  C   UNL d   1      11.577   2.624 -16.962  0.00  0.00     0.019 A 
ATOM      6  C   UNL d   1      12.536   3.607 -16.650  0.00  0.00     0.002 A 
ATOM      7  C   UNL d   1      12.318   4.470 -15.567  0.00  0.00     0.000 A 
ATOM      8  C   UNL d   1      11.145   4.365 -14.818  0.00  0.00     0.001 A 
ATOM      9  C   UNL d   1      10.160   3.380 -15.093  0.00  0.00     0.015 A 
ENDROOT
BRANCH   1  10
ATOM     10  C   UNL d   1       8.246   3.718 -13.362  0.00  0.00     0.057 C 
ATOM     11  C   UNL d   1       7.300   4.800 -13.811  0.00  0.00     0.009 C 
ATOM     12  C   UNL d   1       6.660   5.484 -12.593  0.00  0.00     0.036 C 
ATOM     13  C   UNL d   1       7.740   5.897 -11.607  0.00  0.00     0.250 C 
ATOM     14  N   UNL d   1       8.447   4.710 -11.105  0.00  0.00     0.138 N 
ATOM     15  C   UNL d   1       9.186   4.124 -12.220  0.00  0.00     0.255 C 
BRANCH  14  16
ATOM     16  C   UNL d   1       9.457   5.088 -10.120  0.00  0.00     0.255 C 
BRANCH  16  17
ATOM     17  C   UNL d   1       8.881   5.723  -8.831  0.00  0.00     0.062 C 
BRANCH  17  18
ATOM     18  C   UNL d   1       9.817   6.719  -8.178  0.00  0.00    -0.020 A 
ATOM     19  C   UNL d   1       9.848   6.805  -6.775  0.00  0.00    -0.004 A 
ATOM     20  C   UNL d   1      10.681   7.748  -6.145  0.00  0.00    -0.000 A 
ATOM     21  C   UNL d   1      11.479   8.613  -6.918  0.00  0.00    -0.000 A 
ATOM     22  C   UNL d   1      11.434   8.549  -8.322  0.00  0.00    -0.000 A 
ATOM     23  C   UNL d   1      10.588   7.625  -8.950  0.00  0.00    -0.004 A 
ENDBRANCH  17  18
ENDBRANCH  16  17
ENDBRANCH  14  16
ENDBRANCH   1  10
BRANCH   2  24
ATOM     24  C   UNL d   1       7.151   1.123 -15.150  0.00  0.00     0.017 A 
ATOM     25  C   UNL d   1       6.811   0.211 -16.199  0.00  0.00     0.002 A 
ATOM     26  C   UNL d   1       5.640  -0.590 -16.121  0.00  0.00     0.000 A 
ATOM     27  C   UNL d   1       4.778  -0.514 -15.002  0.00  0.00     0.000 A 
ATOM     28  C   UNL d   1       5.107   0.374 -13.971  0.00  0.00     0.000 A 
ATOM     29  C   UNL d   1       6.248   1.160 -14.053  0.00  0.00     0.002 A 
ENDBRANCH   2  24
TORSDOF 5
