REMARK  8 active torsions:
REMARK  status: ('A' for Active; 'I' for Inactive)
REMARK    1  A    between atoms: C_3  and  S_4 
REMARK    2  A    between atoms: S_4  and  C_5 
REMARK    3  A    between atoms: C_5  and  C_6 
REMARK    4  A    between atoms: C_6  and  C_7 
REMARK    5  A    between atoms: C_7  and  N_8 
REMARK    6  A    between atoms: C_13  and  C_14 
REMARK    7  A    between atoms: C_17  and  C_18 
REMARK    8  A    between atoms: C_27  and  C_28 
ROOT
ATOM      1  N   UNL d   1       7.068   3.596 -12.773  0.00  0.00     0.137 N 
ATOM      2  C   UNL d   1       6.092   4.151 -11.836  0.00  0.00     0.250 C 
ATOM      3  C   UNL d   1       6.788   5.348 -11.243  0.00  0.00     0.038 C 
ATOM      4  C   UNL d   1       7.820   5.753 -12.249  0.00  0.00     0.037 A 
ATOM      5  C   UNL d   1       8.101   7.184 -12.591  0.00  0.00     0.007 A 
ATOM      6  C   UNL d   1       9.188   6.366 -11.953  0.00  0.00     0.024 A 
ATOM      7  C   UNL d   1       7.611   4.781 -13.385  0.00  0.00     0.251 C 
ENDROOT
BRANCH   1   8
ATOM      8  C   UNL d   1       6.498   2.658 -13.717  0.00  0.00     0.251 C 
BRANCH   8   9
ATOM      9  C   UNL d   1       7.545   2.170 -14.742  0.00  0.00     0.047 C 
BRANCH   9  10
ATOM     10  C   UNL d   1       8.697   1.381 -14.106  0.00  0.00     0.067 C 
BRANCH  10  11
ATOM     11  S   UNL d   1      10.069   1.073 -15.258  0.00  0.00    -0.075 SA
BRANCH  11  12
ATOM     12  C   UNL d   1      10.839   2.668 -15.307  0.00  0.00     0.193 A 
ATOM     13  N   UNL d   1      11.703   3.039 -16.276  0.00  0.00    -0.287 N 
ATOM     14  C   UNL d   1      12.186   2.257 -17.403  0.00  0.00     0.134 C 
ATOM     15  C   UNL d   1      11.999   4.315 -15.923  0.00  0.00     0.187 A 
ATOM     16  N   UNL d   1      11.361   4.706 -14.817  0.00  0.00    -0.127 NA
ATOM     17  N   UNL d   1      10.642   3.620 -14.400  0.00  0.00    -0.122 NA
BRANCH  15  18
ATOM     18  C   UNL d   1      12.922   5.240 -16.599  0.00  0.00     0.147 A 
ATOM     19  N   UNL d   1      13.757   4.814 -17.652  0.00  0.00    -0.137 NA
ATOM     20  N   UNL d   1      14.532   5.735 -18.151  0.00  0.00    -0.110 NA
ATOM     21  S   UNL d   1      14.273   7.209 -17.406  0.00  0.00     0.038 SA
ATOM     22  C   UNL d   1      13.093   6.572 -16.328  0.00  0.00     0.081 A 
ENDBRANCH  15  18
ENDBRANCH  11  12
ENDBRANCH  10  11
ENDBRANCH   9  10
ENDBRANCH   8   9
ENDBRANCH   1   8
BRANCH   6  23
ATOM     23  C   UNL d   1       9.622   6.612 -10.551  0.00  0.00    -0.022 A 
ATOM     24  C   UNL d   1       9.653   5.547  -9.626  0.00  0.00    -0.004 A 
ATOM     25  C   UNL d   1       9.950   5.791  -8.294  0.00  0.00     0.004 A 
ATOM     26  C   UNL d   1      10.326   7.086  -7.856  0.00  0.00     0.071 A 
ATOM     27  C   UNL d   1      10.338   8.151  -8.782  0.00  0.00     0.004 A 
ATOM     28  C   UNL d   1       9.984   7.913 -10.118  0.00  0.00    -0.004 A 
BRANCH  26  29
ATOM     29  C   UNL d   1      10.675   7.306  -6.394  0.00  0.00     0.419 C 
ATOM     30  F   UNL d   1      11.724   6.551  -6.083  0.00  0.00    -0.166 F 
ATOM     31  F   UNL d   1      10.968   8.581  -6.128  0.00  0.00    -0.166 F 
ATOM     32  F   UNL d   1       9.647   6.937  -5.647  0.00  0.00    -0.166 F 
ENDBRANCH  26  29
ENDBRANCH   6  23
TORSDOF 8
