REMARK  9 active torsions:
REMARK  status: ('A' for Active; 'I' for Inactive)
REMARK    1  A    between atoms: C_2  and  C_3 
REMARK    2  A    between atoms: C_8  and  C_9 
REMARK    3  A    between atoms: N_16  and  C_17 
REMARK    4  A    between atoms: C_17  and  C_18 
REMARK    5  A    between atoms: C_18  and  C_19 
REMARK    6  A    between atoms: C_19  and  C_20 
REMARK    7  A    between atoms: C_20  and  N_21 
REMARK    8  A    between atoms: N_21  and  C_22 
REMARK    9  A    between atoms: N_21  and  C_29 
ROOT
ATOM      1  C   UNL d   1       9.511   6.206 -11.782  0.00  0.00     0.250 C 
ENDROOT
BRANCH   1   2
ATOM      2  N   UNL d   1      10.036   6.598 -10.466  0.00  0.00     0.137 N 
ATOM      3  C   UNL d   1       9.047   6.238  -9.452  0.00  0.00     0.253 C 
ATOM      4  C   UNL d   1       9.514   6.633  -8.055  0.00  0.00     0.070 C 
ATOM      5  C   UNL d   1       9.882   8.129  -7.931  0.00  0.00     0.149 C 
ATOM      6  O   UNL d   1       8.685   8.898  -8.008  0.00  0.00    -0.221 OA
ATOM      7  C   UNL d   1      10.803   8.516  -9.091  0.00  0.00     0.070 C 
ATOM      8  C   UNL d   1      10.232   8.058 -10.446  0.00  0.00     0.253 C 
BRANCH   5   9
ATOM      9  C   UNL d   1      10.576   8.458  -6.598  0.00  0.00     0.005 A 
ATOM     10  C   UNL d   1      10.981   7.456  -5.682  0.00  0.00     0.003 A 
ATOM     11  C   UNL d   1      11.487   7.832  -4.417  0.00  0.00     0.082 A 
ATOM     12  C   UNL d   1      11.556   9.177  -4.021  0.00  0.00     0.062 A 
ATOM     13  C   UNL d   1      11.162  10.164  -4.935  0.00  0.00     0.011 A 
ATOM     14 CL   UNL d   1      12.054   9.597  -2.428  0.00  0.00    -0.082 Cl
ATOM     15  C   UNL d   1      10.727   9.812  -6.209  0.00  0.00    -0.001 A 
BRANCH  11  16
ATOM     16  C   UNL d   1      11.959   6.769  -3.472  0.00  0.00     0.420 C 
ATOM     17  F   UNL d   1      11.037   6.386  -2.587  0.00  0.00    -0.166 F 
ATOM     18  F   UNL d   1      12.259   5.783  -4.298  0.00  0.00    -0.166 F 
ATOM     19  F   UNL d   1      13.054   7.044  -2.812  0.00  0.00    -0.166 F 
ENDBRANCH  11  16
ENDBRANCH   5   9
ENDBRANCH   1   2
BRANCH   1  20
ATOM     20  C   UNL d   1       9.580   4.680 -12.044  0.00  0.00     0.037 C 
BRANCH  20  21
ATOM     21  C   UNL d   1       9.056   4.290 -13.412  0.00  0.00     0.027 C 
BRANCH  21  22
ATOM     22  C   UNL d   1       9.455   2.839 -13.749  0.00  0.00     0.106 C 
BRANCH  22  23
ATOM     23  N   UNL d   1       8.913   2.393 -15.037  0.00  0.00    -0.328 N 
BRANCH  23  24
ATOM     24  C   UNL d   1       7.731   1.613 -14.977  0.00  0.00     0.060 A 
ATOM     25  C   UNL d   1       7.558   0.539 -15.887  0.00  0.00     0.019 A 
ATOM     26  C   UNL d   1       6.385  -0.242 -15.872  0.00  0.00     0.031 A 
ATOM     27  C   UNL d   1       5.378   0.007 -14.927  0.00  0.00     0.140 A 
ATOM     28  C   UNL d   1       5.544   1.050 -13.997  0.00  0.00     0.031 A 
ATOM     29  F   UNL d   1       4.243  -0.731 -14.917  0.00  0.00    -0.204 F 
ATOM     30  C   UNL d   1       6.699   1.855 -14.048  0.00  0.00     0.019 A 
ENDBRANCH  23  24
BRANCH  23  31
ATOM     31  C   UNL d   1       9.551   2.838 -16.213  0.00  0.00     0.060 A 
ATOM     32  C   UNL d   1      10.935   3.161 -16.268  0.00  0.00     0.019 A 
ATOM     33  C   UNL d   1      11.517   3.631 -17.459  0.00  0.00     0.031 A 
ATOM     34  C   UNL d   1      10.741   3.792 -18.620  0.00  0.00     0.140 A 
ATOM     35  C   UNL d   1       9.372   3.473 -18.588  0.00  0.00     0.031 A 
ATOM     36  F   UNL d   1      11.308   4.244 -19.762  0.00  0.00    -0.204 F 
ATOM     37  C   UNL d   1       8.791   2.993 -17.401  0.00  0.00     0.019 A 
ENDBRANCH  23  31
ENDBRANCH  22  23
ENDBRANCH  21  22
ENDBRANCH  20  21
ENDBRANCH   1  20
TORSDOF 9
