REMARK  6 active torsions:
REMARK  status: ('A' for Active; 'I' for Inactive)
REMARK    1  A    between atoms: C_2  and  C_3 
REMARK       I    between atoms: C_3  and  N_5 
REMARK    2  A    between atoms: N_5  and  C_6 
REMARK    3  A    between atoms: C_9  and  C_10 
REMARK    4  A    between atoms: C_10  and  C_11 
REMARK    5  A    between atoms: C_11  and  N_12 
REMARK    6  A    between atoms: N_15  and  C_16 
ROOT
ATOM      1  C   UNL d   1       9.250   5.013 -11.429  0.00  0.00     0.250 C 
ENDROOT
BRANCH   1   2
ATOM      2  C   UNL d   1       8.920   6.392 -10.827  0.00  0.00     0.035 C 
BRANCH   2   3
ATOM      3  C   UNL d   1       9.883   6.801  -9.681  0.00  0.00     0.002 C 
ATOM      4  C   UNL d   1       9.610   8.240  -9.165  0.00  0.00     0.002 C 
ATOM      5  C   UNL d   1      10.486   8.693  -8.015  0.00  0.00     0.024 C 
ATOM      6  C   UNL d   1      10.342   7.691  -6.864  0.00  0.00     0.106 C 
ATOM      7  C   UNL d   1      10.653   6.298  -7.372  0.00  0.00     0.024 C 
ATOM      8  C   UNL d   1       9.744   5.843  -8.496  0.00  0.00     0.002 C 
BRANCH   6   9
ATOM      9  N   UNL d   1      11.264   8.100  -5.825  0.00  0.00    -0.240 NA
ATOM     10  C   UNL d   1      11.460   7.486  -4.651  0.00  0.00     0.255 C 
ATOM     11  O   UNL d   1      10.971   6.413  -4.372  0.00  0.00    -0.270 OA
BRANCH  10  12
ATOM     12  C   UNL d   1      12.237   8.253  -3.622  0.00  0.00     0.127 C 
ATOM     13  C   UNL d   1      12.937   9.485  -4.201  0.00  0.00     0.015 C 
ATOM     14  C   UNL d   1      11.553   8.445  -2.263  0.00  0.00     0.154 C 
ATOM     15  O   UNL d   1      12.725   7.947  -1.619  0.00  0.00    -0.353 OA
ATOM     16  C   UNL d   1      13.045   7.280  -2.829  0.00  0.00     0.154 C 
ENDBRANCH  10  12
ENDBRANCH   6   9
ENDBRANCH   2   3
ENDBRANCH   1   2
BRANCH   1  17
ATOM     17  N   UNL d   1       8.443   4.665 -12.579  0.00  0.00     0.141 N 
ATOM     18  C   UNL d   1       9.109   3.560 -13.294  0.00  0.00     0.274 C 
ATOM     19  C   UNL d   1       8.287   3.145 -14.523  0.00  0.00     0.137 C 
ATOM     20  N   UNL d   1       6.921   2.838 -14.120  0.00  0.00    -0.343 N 
ATOM     21  C   UNL d   1       6.252   3.882 -13.339  0.00  0.00     0.137 C 
ATOM     22  C   UNL d   1       7.106   4.256 -12.129  0.00  0.00     0.274 C 
BRANCH  20  23
ATOM     23  C   UNL d   1       6.309   1.593 -14.430  0.00  0.00     0.081 A 
ATOM     24  C   UNL d   1       6.561   0.891 -15.637  0.00  0.00     0.135 A 
ATOM     25  C   UNL d   1       5.871  -0.263 -15.969  0.00  0.00     0.121 A 
ATOM     26  O   UNL d   1       7.374   1.231 -16.680  0.00  0.00    -0.298 OA
ATOM     27  C   UNL d   1       4.889  -0.813 -15.135  0.00  0.00     0.026 A 
ATOM     28  O   UNL d   1       6.259  -0.699 -17.195  0.00  0.00    -0.299 OA
ATOM     29  C   UNL d   1       4.606  -0.125 -13.934  0.00  0.00     0.004 A 
ATOM     30  C   UNL d   1       5.335   1.021 -13.564  0.00  0.00     0.019 A 
ATOM     31  C   UNL d   1       7.230   0.207 -17.636  0.00  0.00     0.304 A 
ENDBRANCH  20  23
ENDBRANCH   1  17
TORSDOF 6
