REMARK  9 active torsions:
REMARK  status: ('A' for Active; 'I' for Inactive)
REMARK    1  A    between atoms: C_6  and  C_7 
REMARK    2  A    between atoms: C_10  and  S_11 
REMARK    3  A    between atoms: S_11  and  C_12 
REMARK    4  A    between atoms: C_12  and  C_13 
REMARK    5  A    between atoms: C_13  and  C_14 
REMARK    6  A    between atoms: C_14  and  C_15 
REMARK    7  A    between atoms: C_15  and  N_16 
REMARK    8  A    between atoms: C_20  and  C_21 
REMARK    9  A    between atoms: C_24  and  C_25 
ROOT
ATOM      1  C   UNL d   1       8.978   5.569 -10.364  0.00  0.00     0.251 C 
ENDROOT
BRANCH   1   2
ATOM      2  C   UNL d   1       7.931   5.638 -11.481  0.00  0.00     0.036 C 
BRANCH   2   3
ATOM      3  C   UNL d   1       7.392   4.236 -11.781  0.00  0.00     0.014 C 
BRANCH   3   4
ATOM      4  C   UNL d   1       6.287   4.252 -12.858  0.00  0.00     0.065 C 
BRANCH   4   5
ATOM      5  S   UNL d   1       5.941   2.605 -13.550  0.00  0.00    -0.076 SA
BRANCH   5   6
ATOM      6  C   UNL d   1       7.400   2.328 -14.506  0.00  0.00     0.193 A 
ATOM      7  N   UNL d   1       8.451   3.147 -14.487  0.00  0.00    -0.122 NA
ATOM      8  N   UNL d   1       9.403   2.526 -15.272  0.00  0.00    -0.126 NA
ATOM      9  C   UNL d   1       8.830   1.410 -15.739  0.00  0.00     0.191 A 
ATOM     10  N   UNL d   1       7.569   1.238 -15.297  0.00  0.00    -0.287 N 
ATOM     11  C   UNL d   1       6.612   0.178 -15.615  0.00  0.00     0.134 C 
BRANCH   9  12
ATOM     12  C   UNL d   1       9.562   0.562 -16.675  0.00  0.00     0.151 A 
ATOM     13  C   UNL d   1      10.847   0.625 -17.155  0.00  0.00     0.087 A 
ATOM     14  C   UNL d   1      11.950   1.603 -16.852  0.00  0.00     0.054 C 
ATOM     15  N   UNL d   1      11.031  -0.424 -18.045  0.00  0.00    -0.221 NA
ATOM     16  C   UNL d   1       9.849  -1.036 -18.070  0.00  0.00     0.225 A 
ATOM     17  O   UNL d   1       8.909  -0.479 -17.268  0.00  0.00    -0.282 OA
ENDBRANCH   9  12
ENDBRANCH   5   6
ENDBRANCH   4   5
ENDBRANCH   3   4
ENDBRANCH   2   3
ENDBRANCH   1   2
BRANCH   1  18
ATOM     18  N   UNL d   1       9.434   6.876  -9.897  0.00  0.00     0.143 N 
ATOM     19  C   UNL d   1       9.913   6.812  -8.538  0.00  0.00     0.284 C 
ATOM     20  C   UNL d   1      10.384   8.180  -7.992  0.00  0.00     0.171 C 
ATOM     21  O   UNL d   1      11.384   8.698  -8.862  0.00  0.00    -0.348 OA
ATOM     22  C   UNL d   1      10.918   8.827 -10.202  0.00  0.00     0.178 C 
ATOM     23  C   UNL d   1      10.439   7.470 -10.739  0.00  0.00     0.282 C 
BRANCH  20  24
ATOM     24  C   UNL d   1      10.919   8.101  -6.563  0.00  0.00     0.007 A 
ATOM     25  C   UNL d   1      10.883   6.886  -5.840  0.00  0.00    -0.002 A 
ATOM     26  C   UNL d   1      11.396   6.800  -4.551  0.00  0.00     0.004 A 
ATOM     27  C   UNL d   1      11.931   7.931  -3.926  0.00  0.00     0.071 A 
ATOM     28  C   UNL d   1      11.962   9.159  -4.621  0.00  0.00     0.004 A 
ATOM     29  C   UNL d   1      11.460   9.245  -5.937  0.00  0.00    -0.002 A 
BRANCH  27  30
ATOM     30  C   UNL d   1      12.446   7.772  -2.517  0.00  0.00     0.419 C 
ATOM     31  F   UNL d   1      13.277   8.762  -2.185  0.00  0.00    -0.166 F 
ATOM     32  F   UNL d   1      11.454   7.793  -1.633  0.00  0.00    -0.166 F 
ATOM     33  F   UNL d   1      13.059   6.582  -2.431  0.00  0.00    -0.166 F 
ENDBRANCH  27  30
ENDBRANCH  20  24
ENDBRANCH   1  18
TORSDOF 9
