REMARK  7 active torsions:
REMARK  status: ('A' for Active; 'I' for Inactive)
REMARK    1  A    between atoms: C_6  and  C_7 
REMARK    2  A    between atoms: C_10  and  S_11 
REMARK    3  A    between atoms: S_11  and  C_12 
REMARK    4  A    between atoms: C_12  and  C_13 
REMARK    5  A    between atoms: C_13  and  C_14 
REMARK    6  A    between atoms: C_14  and  N_15 
REMARK    7  A    between atoms: C_20  and  C_21 
ROOT
ATOM      1  C   UNL d   1       9.086   5.633 -12.295  0.00  0.00     0.047 C 
ENDROOT
BRANCH   1   2
ATOM      2  C   UNL d   1       8.427   4.597 -13.249  0.00  0.00     0.067 C 
BRANCH   2   3
ATOM      3  S   UNL d   1       9.487   3.175 -13.663  0.00  0.00    -0.075 SA
BRANCH   3   4
ATOM      4  C   UNL d   1      10.717   3.934 -14.664  0.00  0.00     0.193 A 
ATOM      5  N   UNL d   1      11.090   5.197 -14.527  0.00  0.00    -0.122 NA
ATOM      6  N   UNL d   1      12.091   5.367 -15.421  0.00  0.00    -0.126 NA
ATOM      7  C   UNL d   1      12.246   4.209 -16.083  0.00  0.00     0.191 A 
ATOM      8  N   UNL d   1      11.405   3.261 -15.618  0.00  0.00    -0.287 N 
ATOM      9  C   UNL d   1      11.265   1.859 -16.050  0.00  0.00     0.134 C 
BRANCH   7  10
ATOM     10  C   UNL d   1      13.213   4.072 -17.177  0.00  0.00     0.151 A 
ATOM     11  C   UNL d   1      14.201   4.906 -17.616  0.00  0.00     0.087 A 
ATOM     12  C   UNL d   1      14.640   6.256 -17.104  0.00  0.00     0.054 C 
ATOM     13  N   UNL d   1      14.818   4.301 -18.695  0.00  0.00    -0.221 NA
ATOM     14  C   UNL d   1      14.159   3.156 -18.847  0.00  0.00     0.225 A 
ATOM     15  O   UNL d   1      13.166   2.955 -17.952  0.00  0.00    -0.282 OA
ENDBRANCH   7  10
ENDBRANCH   3   4
ENDBRANCH   2   3
ENDBRANCH   1   2
BRANCH   1  16
ATOM     16  C   UNL d   1       9.173   5.100 -10.847  0.00  0.00     0.251 C 
BRANCH  16  17
ATOM     17  N   UNL d   1       9.213   6.220  -9.949  0.00  0.00     0.137 N 
ATOM     18  C   UNL d   1       9.101   5.791  -8.577  0.00  0.00     0.251 C 
ATOM     19  C   UNL d   1       9.446   7.033  -7.786  0.00  0.00     0.037 A 
ATOM     20  C   UNL d   1      10.334   7.835  -8.707  0.00  0.00     0.038 C 
ATOM     21  C   UNL d   1       9.620   7.011  -6.301  0.00  0.00     0.024 A 
ATOM     22  C   UNL d   1       8.398   7.671  -6.892  0.00  0.00     0.007 A 
ATOM     23  C   UNL d   1      10.438   7.003 -10.009  0.00  0.00     0.250 C 
BRANCH  21  24
ATOM     24  C   UNL d   1      10.678   7.821  -5.614  0.00  0.00    -0.022 A 
ATOM     25  C   UNL d   1      10.863   9.180  -5.945  0.00  0.00    -0.004 A 
ATOM     26  C   UNL d   1      11.857   9.933  -5.324  0.00  0.00    -0.000 A 
ATOM     27  C   UNL d   1      12.668   9.339  -4.343  0.00  0.00    -0.000 A 
ATOM     28  C   UNL d   1      12.495   7.992  -3.983  0.00  0.00    -0.000 A 
ATOM     29  C   UNL d   1      11.502   7.223  -4.621  0.00  0.00    -0.004 A 
ENDBRANCH  21  24
ENDBRANCH  16  17
ENDBRANCH   1  16
TORSDOF 7
