REMARK  6 active torsions:
REMARK  status: ('A' for Active; 'I' for Inactive)
REMARK    1  A    between atoms: C_2  and  C_3 
REMARK    2  A    between atoms: C_3  and  C_4 
REMARK    3  A    between atoms: C_4  and  C_5 
REMARK    4  A    between atoms: C_5  and  O_6 
REMARK    5  A    between atoms: O_6  and  C_7 
REMARK    6  A    between atoms: C_20  and  O_21 
ROOT
ATOM      1  C   UNL d   1       8.046   5.163 -12.470  0.00  0.00     0.117 C 
ATOM      2  C   UNL d   1       6.640   5.205 -12.360  0.00  0.00     0.153 C 
ATOM      3  O   UNL d   1       6.001   6.151 -11.630  0.00  0.00    -0.188 OA
ATOM      4  C   UNL d   1       5.838   4.266 -13.021  0.00  0.00     0.029 C 
ATOM      5  C   UNL d   1       6.421   3.339 -13.907  0.00  0.00    -0.002 C 
ATOM      6  C   UNL d   1       7.803   3.375 -14.127  0.00  0.00    -0.020 C 
ATOM      7  C   UNL d   1       8.621   4.270 -13.401  0.00  0.00     0.031 C 
ATOM      8  C   UNL d   1      10.113   4.273 -13.638  0.00  0.00     0.279 C 
ATOM      9  N   UNL d   1      10.499   3.696 -14.927  0.00  0.00     0.144 N 
ATOM     10  C   UNL d   1      11.951   3.667 -14.993  0.00  0.00     0.256 C 
ATOM     11  C   UNL d   1      12.370   3.270 -16.418  0.00  0.00     0.061 C 
ATOM     12  C   UNL d   1      11.704   1.978 -16.863  0.00  0.00    -0.020 A 
ATOM     13  C   UNL d   1      12.259   1.236 -17.918  0.00  0.00     0.022 A 
ATOM     14  C   UNL d   1      11.659   0.014 -18.337  0.00  0.00     0.119 A 
ATOM     15  C   UNL d   1      10.486  -0.432 -17.687  0.00  0.00     0.153 A 
ATOM     16  O   UNL d   1       9.871  -1.607 -18.066  0.00  0.00    -0.188 OA
ATOM     17  C   UNL d   1       9.943   0.314 -16.617  0.00  0.00     0.027 A 
ATOM     18  C   UNL d   1      10.538   1.532 -16.206  0.00  0.00     0.007 A 
ATOM     19  C   UNL d   1       9.953   2.331 -15.038  0.00  0.00     0.246 C 
ATOM     20  C   UNL d   1       8.423   2.476 -15.184  0.00  0.00     0.064 C 
ENDROOT
BRANCH   1  21
ATOM     21  O   UNL d   1       8.837   6.011 -11.739  0.00  0.00    -0.329 OA
BRANCH  21  22
ATOM     22  C   UNL d   1       8.995   5.623 -10.379  0.00  0.00     0.149 C 
BRANCH  22  23
ATOM     23  C   UNL d   1       9.835   6.691  -9.673  0.00  0.00     0.033 C 
BRANCH  23  24
ATOM     24  C   UNL d   1      10.114   6.339  -8.206  0.00  0.00     0.003 C 
BRANCH  24  25
ATOM     25  C   UNL d   1      10.931   7.420  -7.487  0.00  0.00     0.000 C 
ATOM     26  C   UNL d   1      11.236   7.053  -6.030  0.00  0.00     0.000 C 
ENDBRANCH  24  25
ENDBRANCH  23  24
ENDBRANCH  22  23
ENDBRANCH  21  22
ENDBRANCH   1  21
BRANCH  14  27
ATOM     27  O   UNL d   1      12.177  -0.786 -19.334  0.00  0.00    -0.326 OA
ATOM     28  C   UNL d   1      13.329  -0.339 -20.037  0.00  0.00     0.181 C 
ENDBRANCH  14  27
TORSDOF 6
