REMARK  4 active torsions:
REMARK  status: ('A' for Active; 'I' for Inactive)
REMARK    1  A    between atoms: C_4  and  C_5 
REMARK    2  A    between atoms: C_7  and  C_8 
REMARK    3  A    between atoms: C_8  and  N_9 
REMARK    4  A    between atoms: N_12  and  C_13 
ROOT
ATOM      1  N   UNL d   1      10.692   7.617  -8.886  0.00  0.00     0.147 N 
ATOM      2  C   UNL d   1      10.163   6.753  -7.818  0.00  0.00     0.275 C 
ATOM      3  C   UNL d   1      11.203   6.602  -6.741  0.00  0.00     0.138 C 
ATOM      4  N   UNL d   1      11.503   7.920  -6.211  0.00  0.00    -0.330 N 
ATOM      5  C   UNL d   1      12.030   8.815  -7.239  0.00  0.00     0.138 C 
ATOM      6  C   UNL d   1      10.967   8.949  -8.319  0.00  0.00     0.275 C 
ENDROOT
BRANCH   1   7
ATOM      7  C   UNL d   1       9.637   7.830  -9.851  0.00  0.00     0.297 C 
BRANCH   7   8
ATOM      8  C   UNL d   1       9.176   6.609 -10.591  0.00  0.00     0.113 A 
ATOM      9  N   UNL d   1       9.500   6.364 -11.906  0.00  0.00    -0.228 NA
ATOM     10  C   UNL d   1       8.997   5.181 -12.271  0.00  0.00     0.162 A 
ATOM     11  N   UNL d   1       8.246   4.681 -11.296  0.00  0.00    -0.224 NA
ATOM     12  C   UNL d   1       8.347   5.580 -10.236  0.00  0.00     0.117 A 
BRANCH  10  13
ATOM     13  C   UNL d   1       9.238   4.504 -13.542  0.00  0.00     0.036 A 
ATOM     14  C   UNL d   1      10.238   4.967 -14.426  0.00  0.00     0.003 A 
ATOM     15  C   UNL d   1      10.440   4.342 -15.672  0.00  0.00     0.000 A 
ATOM     16  C   UNL d   1       9.653   3.233 -16.040  0.00  0.00     0.000 A 
ATOM     17  C   UNL d   1       8.665   2.748 -15.153  0.00  0.00     0.000 A 
ATOM     18  C   UNL d   1       8.459   3.391 -13.913  0.00  0.00     0.003 A 
ENDBRANCH  10  13
ENDBRANCH   7   8
ENDBRANCH   1   7
BRANCH   4  19
ATOM     19  C   UNL d   1      11.724   8.113  -4.845  0.00  0.00     0.140 A 
ATOM     20  N   UNL d   1      11.825   7.026  -4.050  0.00  0.00    -0.227 NA
ATOM     21  C   UNL d   1      11.937   7.183  -2.714  0.00  0.00     0.101 A 
ATOM     22  C   UNL d   1      11.979   8.445  -2.116  0.00  0.00     0.021 A 
ATOM     23  C   UNL d   1      11.878   9.580  -2.930  0.00  0.00     0.005 A 
ATOM     24  C   UNL d   1      11.771   9.430  -4.319  0.00  0.00     0.037 A 
ENDBRANCH   4  19
TORSDOF 4
