REMARK  7 active torsions:
REMARK  status: ('A' for Active; 'I' for Inactive)
REMARK    1  A    between atoms: C_6  and  C_7 
REMARK    2  A    between atoms: C_10  and  S_11 
REMARK    3  A    between atoms: S_11  and  C_12 
REMARK    4  A    between atoms: C_12  and  C_13 
REMARK    5  A    between atoms: C_13  and  C_14 
REMARK    6  A    between atoms: C_14  and  N_15 
REMARK    7  A    between atoms: C_19  and  C_20 
ROOT
ATOM      1  C   UNL d   1       9.095   4.896 -10.635  0.00  0.00     0.047 C 
ENDROOT
BRANCH   1   2
ATOM      2  C   UNL d   1       7.616   5.224 -10.786  0.00  0.00     0.067 C 
BRANCH   2   3
ATOM      3  S   UNL d   1       7.230   5.895 -12.429  0.00  0.00    -0.075 SA
BRANCH   3   4
ATOM      4  C   UNL d   1       7.312   4.379 -13.313  0.00  0.00     0.193 A 
ATOM      5  N   UNL d   1       6.223   3.663 -13.585  0.00  0.00    -0.122 NA
ATOM      6  N   UNL d   1       6.669   2.569 -14.286  0.00  0.00    -0.126 NA
ATOM      7  C   UNL d   1       7.998   2.708 -14.383  0.00  0.00     0.191 A 
ATOM      8  N   UNL d   1       8.457   3.837 -13.798  0.00  0.00    -0.287 N 
ATOM      9  C   UNL d   1       9.831   4.328 -13.721  0.00  0.00     0.134 C 
BRANCH   7  10
ATOM     10  C   UNL d   1       8.830   1.719 -15.069  0.00  0.00     0.151 A 
ATOM     11  C   UNL d   1       8.519   0.632 -15.853  0.00  0.00     0.087 A 
ATOM     12  C   UNL d   1       7.182   0.104 -16.265  0.00  0.00     0.054 C 
ATOM     13  N   UNL d   1       9.702   0.038 -16.268  0.00  0.00    -0.221 NA
ATOM     14  C   UNL d   1      10.660   0.788 -15.729  0.00  0.00     0.225 A 
ATOM     15  O   UNL d   1      10.194   1.824 -14.990  0.00  0.00    -0.282 OA
ENDBRANCH   7  10
ENDBRANCH   3   4
ENDBRANCH   2   3
ENDBRANCH   1   2
BRANCH   1  16
ATOM     16  C   UNL d   1       9.533   4.666  -9.175  0.00  0.00     0.251 C 
BRANCH  16  17
ATOM     17  N   UNL d   1      10.172   5.809  -8.515  0.00  0.00     0.137 N 
ATOM     18  C   UNL d   1       9.314   6.477  -7.529  0.00  0.00     0.254 C 
ATOM     19  C   UNL d   1      10.029   7.805  -7.297  0.00  0.00     0.052 A 
ATOM     20  C   UNL d   1      10.912   8.015  -8.469  0.00  0.00     0.039 A 
ATOM     21  C   UNL d   1       9.774   8.968  -8.230  0.00  0.00     0.008 A 
ATOM     22  C   UNL d   1      10.693   6.878  -9.389  0.00  0.00     0.251 C 
BRANCH  19  23
ATOM     23  C   UNL d   1      10.649   8.008  -5.947  0.00  0.00    -0.021 A 
ATOM     24  C   UNL d   1      10.696   9.300  -5.391  0.00  0.00    -0.004 A 
ATOM     25  C   UNL d   1      11.324   9.530  -4.152  0.00  0.00     0.006 A 
ATOM     26  C   UNL d   1      11.885   8.450  -3.452  0.00  0.00     0.035 A 
ATOM     27  C   UNL d   1      11.861   7.153  -3.992  0.00  0.00     0.006 A 
ATOM     28 BR   UNL d   1      12.614   8.750  -1.732  0.00  0.00    -0.049 Br
ATOM     29  C   UNL d   1      11.254   6.931  -5.248  0.00  0.00    -0.004 A 
ENDBRANCH  19  23
ENDBRANCH  16  17
ENDBRANCH   1  16
TORSDOF 7
