REMARK  8 active torsions:
REMARK  status: ('A' for Active; 'I' for Inactive)
REMARK       I    between atoms: N_2  and  C_3 
REMARK    1  A    between atoms: C_3  and  C_5 
REMARK    2  A    between atoms: C_7  and  O_8 
REMARK    3  A    between atoms: O_8  and  C_9 
REMARK    4  A    between atoms: C_9  and  C_10 
REMARK    5  A    between atoms: C_10  and  C_11 
REMARK    6  A    between atoms: C_11  and  C_12 
REMARK    7  A    between atoms: C_12  and  N_13 
REMARK    8  A    between atoms: N_16  and  C_17 
ROOT
ATOM      1  N   UNL d   1      10.105   6.383  -9.995  0.00  0.00     0.141 N 
ATOM      2  C   UNL d   1       9.050   7.126  -9.360  0.00  0.00     0.274 C 
ATOM      3  C   UNL d   1       9.111   7.052  -7.835  0.00  0.00     0.138 C 
ATOM      4  N   UNL d   1      10.419   7.455  -7.360  0.00  0.00    -0.329 N 
ATOM      5  C   UNL d   1      11.516   6.850  -8.075  0.00  0.00     0.138 C 
ATOM      6  C   UNL d   1      11.348   7.009  -9.623  0.00  0.00     0.274 C 
ENDROOT
BRANCH   1   7
ATOM      7  C   UNL d   1       9.847   6.423 -11.427  0.00  0.00     0.251 C 
BRANCH   7   8
ATOM      8  C   UNL d   1       8.771   5.469 -11.960  0.00  0.00     0.038 C 
BRANCH   8   9
ATOM      9  C   UNL d   1       9.135   4.874 -13.356  0.00  0.00     0.035 C 
BRANCH   9  10
ATOM     10  C   UNL d   1      10.113   3.679 -13.272  0.00  0.00     0.149 C 
BRANCH  10  11
ATOM     11  O   UNL d   1      10.781   3.453 -14.514  0.00  0.00    -0.331 OA
BRANCH  11  12
ATOM     12  C   UNL d   1      10.117   2.815 -15.533  0.00  0.00     0.097 A 
ATOM     13  C   UNL d   1       8.846   2.212 -15.398  0.00  0.00     0.048 A 
ATOM     14  C   UNL d   1       8.278   1.547 -16.507  0.00  0.00     0.141 A 
ATOM     15  N   UNL d   1       8.883   1.510 -17.714  0.00  0.00    -0.239 NA
ATOM     16  C   UNL d   1      10.086   2.099 -17.848  0.00  0.00     0.101 A 
ATOM     17  C   UNL d   1      10.746   2.757 -16.794  0.00  0.00     0.045 A 
BRANCH  14  18
ATOM     18  C   UNL d   1       6.945   0.877 -16.370  0.00  0.00     0.293 C 
ATOM     19  N   UNL d   1       6.703   0.311 -15.177  0.00  0.00    -0.231 NA
ATOM     20  C   UNL d   1       5.536  -0.502 -14.871  0.00  0.00     0.155 C 
ATOM     21  O   UNL d   1       6.163   0.820 -17.322  0.00  0.00    -0.264 OA
ENDBRANCH  14  18
ENDBRANCH  11  12
ENDBRANCH  10  11
ENDBRANCH   9  10
ENDBRANCH   8   9
ENDBRANCH   7   8
ENDBRANCH   1   7
BRANCH   4  22
ATOM     22  C   UNL d   1      10.688   8.388  -6.428  0.00  0.00     0.148 A 
ATOM     23  C   UNL d   1      11.204   8.129  -5.088  0.00  0.00     0.042 A 
ATOM     24  C   UNL d   1      11.366   9.357  -4.399  0.00  0.00     0.050 A 
ATOM     25  C   UNL d   1      11.554   6.954  -4.415  0.00  0.00     0.004 A 
ATOM     26  S   UNL d   1      11.014  10.622  -5.479  0.00  0.00     0.015 SA
ATOM     27  C   UNL d   1      11.759   9.443  -3.082  0.00  0.00     0.008 A 
ATOM     28  N   UNL d   1      10.604   9.660  -6.767  0.00  0.00    -0.192 NA
ATOM     29  C   UNL d   1      12.098   8.269  -2.392  0.00  0.00     0.001 A 
ATOM     30  C   UNL d   1      12.006   7.023  -3.077  0.00  0.00     0.000 A 
ENDBRANCH   4  22
TORSDOF 8
