REMARK  5 active torsions:
REMARK  status: ('A' for Active; 'I' for Inactive)
REMARK    1  A    between atoms: O_2  and  C_3 
REMARK    2  A    between atoms: C_9  and  C_10 
REMARK    3  A    between atoms: C_12  and  C_13 
REMARK    4  A    between atoms: C_13  and  N_14 
REMARK    5  A    between atoms: N_17  and  C_18 
ROOT
ATOM      1  C   UNL d   1       9.298   3.982 -13.895  0.00  0.00     0.184 A 
ATOM      2  N   UNL d   1       9.646   4.890 -12.983  0.00  0.00    -0.222 NA
ATOM      3  C   UNL d   1       8.475   5.171 -12.291  0.00  0.00     0.119 A 
ATOM      4  C   UNL d   1       7.462   4.432 -12.843  0.00  0.00     0.141 A 
ATOM      5  O   UNL d   1       7.969   3.679 -13.866  0.00  0.00    -0.286 OA
ENDROOT
BRANCH   3   6
ATOM      6  C   UNL d   1       8.406   6.165 -11.176  0.00  0.00     0.298 C 
BRANCH   6   7
ATOM      7  N   UNL d   1       9.530   6.268 -10.243  0.00  0.00     0.147 N 
ATOM      8  C   UNL d   1       9.104   5.856  -8.903  0.00  0.00     0.275 C 
ATOM      9  C   UNL d   1      10.281   5.922  -7.916  0.00  0.00     0.137 C 
ATOM     10  N   UNL d   1      10.880   7.252  -7.920  0.00  0.00    -0.344 N 
ATOM     11  C   UNL d   1      11.225   7.769  -9.243  0.00  0.00     0.137 C 
ATOM     12  C   UNL d   1      10.009   7.653 -10.184  0.00  0.00     0.275 C 
BRANCH  10  13
ATOM     13  C   UNL d   1      11.069   7.975  -6.726  0.00  0.00     0.056 A 
ATOM     14  C   UNL d   1      11.285   7.296  -5.501  0.00  0.00     0.017 A 
ATOM     15  C   UNL d   1      11.485   8.013  -4.308  0.00  0.00     0.002 A 
ATOM     16  C   UNL d   1      11.463   9.418  -4.312  0.00  0.00     0.000 A 
ATOM     17  C   UNL d   1      11.252  10.104  -5.520  0.00  0.00     0.002 A 
ATOM     18  C   UNL d   1      11.059   9.391  -6.718  0.00  0.00     0.017 A 
ENDBRANCH  10  13
ENDBRANCH   6   7
ENDBRANCH   3   6
BRANCH   1  19
ATOM     19  C   UNL d   1      10.144   3.349 -14.902  0.00  0.00     0.064 A 
ATOM     20  C   UNL d   1       9.908   2.020 -15.343  0.00  0.00     0.098 A 
ATOM     21  C   UNL d   1      10.761   1.469 -16.335  0.00  0.00     0.025 A 
ATOM     22  C   UNL d   1      11.816   2.224 -16.877  0.00  0.00     0.009 A 
ATOM     23  C   UNL d   1      12.038   3.542 -16.441  0.00  0.00     0.035 A 
ATOM     24 BR   UNL d   1      13.453   4.567 -17.193  0.00  0.00    -0.049 Br
ATOM     25  C   UNL d   1      11.203   4.100 -15.458  0.00  0.00     0.012 A 
BRANCH  20  26
ATOM     26  O   UNL d   1       8.866   1.315 -14.777  0.00  0.00    -0.328 OA
ATOM     27  C   UNL d   1       8.604  -0.001 -15.238  0.00  0.00     0.181 C 
ENDBRANCH  20  26
ENDBRANCH   1  19
TORSDOF 5
