REMARK  4 active torsions:
REMARK  status: ('A' for Active; 'I' for Inactive)
REMARK    1  A    between atoms: O_2  and  C_3 
REMARK    2  A    between atoms: C_6  and  N_7 
REMARK    3  A    between atoms: N_10  and  C_11 
REMARK    4  A    between atoms: C_11  and  C_12 
ROOT
ATOM      1  N   UNL d   1      10.629   6.965  -8.731  0.00  0.00    -0.344 N 
ATOM      2  C   UNL d   1      11.016   7.587  -9.991  0.00  0.00     0.137 C 
ATOM      3  C   UNL d   1       9.800   7.664 -10.929  0.00  0.00     0.275 C 
ATOM      4  N   UNL d   1       9.241   6.323 -11.148  0.00  0.00     0.145 N 
ATOM      5  C   UNL d   1       8.783   5.761  -9.864  0.00  0.00     0.275 C 
ATOM      6  C   UNL d   1       9.957   5.665  -8.863  0.00  0.00     0.137 C 
ENDROOT
BRANCH   4   7
ATOM      7  C   UNL d   1       8.122   6.409 -12.087  0.00  0.00     0.277 C 
BRANCH   7   8
ATOM      8  C   UNL d   1       7.792   5.089 -12.752  0.00  0.00     0.013 A 
ATOM      9  C   UNL d   1       8.823   4.334 -13.347  0.00  0.00     0.019 A 
ATOM     10  C   UNL d   1       8.519   3.129 -14.007  0.00  0.00     0.106 A 
ATOM     11  C   UNL d   1       7.186   2.671 -14.069  0.00  0.00     0.112 A 
ATOM     12  N   UNL d   1       9.538   2.372 -14.620  0.00  0.00    -0.208 NA
ATOM     13  C   UNL d   1       6.156   3.434 -13.484  0.00  0.00     0.025 A 
ATOM     14  O   UNL d   1       6.890   1.489 -14.712  0.00  0.00    -0.319 OA
ATOM     15  C   UNL d   1       6.456   4.639 -12.820  0.00  0.00    -0.000 A 
ATOM     16  C   UNL d   1       7.943   0.515 -14.809  0.00  0.00     0.238 C 
ATOM     17  C   UNL d   1       9.327   1.134 -15.081  0.00  0.00     0.286 C 
ATOM     18  O   UNL d   1      10.201   0.493 -15.661  0.00  0.00    -0.267 OA
ENDBRANCH   7   8
ENDBRANCH   4   7
BRANCH   1  19
ATOM     19  C   UNL d   1      10.840   7.587  -7.487  0.00  0.00     0.056 A 
ATOM     20  C   UNL d   1      10.827   8.995  -7.357  0.00  0.00     0.019 A 
ATOM     21  C   UNL d   1      11.066   9.610  -6.114  0.00  0.00     0.026 A 
ATOM     22  C   UNL d   1      11.313   8.840  -4.965  0.00  0.00     0.094 A 
ATOM     23  C   UNL d   1      11.317   7.428  -5.084  0.00  0.00     0.026 A 
ATOM     24  C   UNL d   1      11.086   6.817  -6.331  0.00  0.00     0.019 A 
BRANCH  22  25
ATOM     25  O   UNL d   1      11.506   9.524  -3.786  0.00  0.00    -0.328 OA
ATOM     26  C   UNL d   1      11.952   8.790  -2.657  0.00  0.00     0.181 C 
ENDBRANCH  22  25
ENDBRANCH   1  19
TORSDOF 4
