REMARK  2 active torsions:
REMARK  status: ('A' for Active; 'I' for Inactive)
REMARK    1  A    between atoms: O_2  and  C_3 
REMARK    2  A    between atoms: C_8  and  O_9 
ROOT
ATOM      1  C   UNL d   1       8.682   6.107 -11.098  0.00  0.00     0.116 A 
ATOM      2  C   UNL d   1       8.306   5.152 -10.112  0.00  0.00     0.026 A 
ATOM      3  C   UNL d   1       8.812   5.276  -8.795  0.00  0.00    -0.002 A 
ATOM      4  C   UNL d   1       9.651   6.358  -8.451  0.00  0.00    -0.020 A 
ATOM      5  C   UNL d   1      10.013   7.306  -9.418  0.00  0.00     0.031 A 
ATOM      6  C   UNL d   1       9.528   7.212 -10.744  0.00  0.00     0.114 A 
ATOM      7  C   UNL d   1      10.968   8.439  -9.016  0.00  0.00     0.279 C 
ATOM      8  N   UNL d   1      11.064   8.711  -7.574  0.00  0.00     0.144 N 
ATOM      9  C   UNL d   1       9.887   9.316  -6.944  0.00  0.00     0.256 C 
ATOM     10  C   UNL d   1      10.425   9.973  -5.594  0.00  0.00     0.061 C 
ATOM     11  C   UNL d   1      11.142   8.972  -4.745  0.00  0.00    -0.020 A 
ATOM     12  C   UNL d   1      11.448   9.235  -3.397  0.00  0.00     0.025 A 
ATOM     13  C   UNL d   1      12.030   8.230  -2.599  0.00  0.00     0.156 A 
ATOM     14  O   UNL d   1      12.227   8.413  -1.269  0.00  0.00    -0.188 OA
ATOM     15  C   UNL d   1      12.319   6.964  -3.160  0.00  0.00     0.156 A 
ATOM     16  O   UNL d   1      12.971   6.027  -2.396  0.00  0.00    -0.188 OA
ATOM     17  C   UNL d   1      12.023   6.724  -4.506  0.00  0.00     0.027 A 
ATOM     18  C   UNL d   1      11.486   7.740  -5.327  0.00  0.00     0.007 A 
ATOM     19  C   UNL d   1      11.302   7.482  -6.821  0.00  0.00     0.246 C 
ATOM     20  C   UNL d   1      10.132   6.510  -7.022  0.00  0.00     0.064 C 
ENDROOT
BRANCH   1  21
ATOM     21  O   UNL d   1       8.237   6.046 -12.396  0.00  0.00    -0.326 OA
ATOM     22  C   UNL d   1       7.360   4.982 -12.745  0.00  0.00     0.181 C 
ENDBRANCH   1  21
BRANCH   6  23
ATOM     23  O   UNL d   1       9.800   8.196 -11.641  0.00  0.00    -0.326 OA
ATOM     24  C   UNL d   1       8.690   9.007 -12.047  0.00  0.00     0.181 C 
ENDBRANCH   6  23
TORSDOF 2
