REMARK  9 active torsions:
REMARK  status: ('A' for Active; 'I' for Inactive)
REMARK    1  A    between atoms: O_2  and  C_3 
REMARK    2  A    between atoms: C_6  and  C_7 
REMARK    3  A    between atoms: C_7  and  C_8 
REMARK    4  A    between atoms: C_8  and  N_10 
REMARK    5  A    between atoms: N_10  and  C_11 
REMARK    6  A    between atoms: C_11  and  C_12 
REMARK    7  A    between atoms: C_12  and  C_14 
REMARK    8  A    between atoms: C_19  and  N_20 
REMARK    9  A    between atoms: N_20  and  C_21 
ROOT
ATOM      1  C   UNL d   1       8.710   6.888 -11.306  0.00  0.00     0.157 C 
ENDROOT
BRANCH   1   2
ATOM      2  N   UNL d   1       8.991   5.957 -10.218  0.00  0.00    -0.294 NA
BRANCH   2   3
ATOM      3  C   UNL d   1       9.951   6.417  -9.226  0.00  0.00     0.102 C 
ATOM      4  C   UNL d   1      10.267   5.223  -8.324  0.00  0.00     0.026 C 
BRANCH   3   5
ATOM      5  C   UNL d   1       9.418   7.655  -8.439  0.00  0.00     0.050 C 
BRANCH   5   6
ATOM      6  C   UNL d   1      10.266   8.082  -7.251  0.00  0.00    -0.020 C 
ATOM      7  C   UNL d   1      10.226   7.316  -6.074  0.00  0.00    -0.002 C 
ATOM      8  C   UNL d   1      11.064   7.617  -5.001  0.00  0.00     0.024 C 
ATOM      9  C   UNL d   1      11.859   8.786  -5.001  0.00  0.00     0.094 C 
ATOM     10  C   UNL d   1      11.864   9.593  -6.162  0.00  0.00     0.024 C 
ATOM     11  C   UNL d   1      11.079   9.232  -7.291  0.00  0.00    -0.002 C 
BRANCH   9  12
ATOM     12  O   UNL d   1      12.634   9.171  -3.927  0.00  0.00    -0.328 OA
ATOM     13  C   UNL d   1      12.597   8.319  -2.777  0.00  0.00     0.181 C 
ENDBRANCH   9  12
ENDBRANCH   5   6
ENDBRANCH   3   5
ENDBRANCH   2   3
ENDBRANCH   1   2
BRANCH   1  14
ATOM     14  C   UNL d   1       7.392   6.488 -12.026  0.00  0.00     0.198 C 
ATOM     15  O   UNL d   1       6.982   7.572 -12.830  0.00  0.00    -0.216 OA
BRANCH  14  16
ATOM     16  C   UNL d   1       7.448   5.180 -12.798  0.00  0.00     0.011 A 
ATOM     17  C   UNL d   1       8.663   4.780 -13.396  0.00  0.00     0.020 A 
ATOM     18  C   UNL d   1       8.779   3.558 -14.095  0.00  0.00     0.110 A 
ATOM     19  C   UNL d   1       7.616   2.746 -14.228  0.00  0.00     0.149 A 
ATOM     20  C   UNL d   1       6.394   3.143 -13.646  0.00  0.00     0.029 A 
ATOM     21  O   UNL d   1       7.654   1.558 -14.909  0.00  0.00    -0.189 OA
ATOM     22  C   UNL d   1       6.307   4.357 -12.931  0.00  0.00     0.001 A 
BRANCH  18  23
ATOM     23  N   UNL d   1      10.014   3.140 -14.691  0.00  0.00    -0.202 NA
BRANCH  23  24
ATOM     24  C   UNL d   1      11.241   3.698 -14.647  0.00  0.00     0.337 C 
ATOM     25  O   UNL d   1      11.581   4.715 -14.044  0.00  0.00    -0.260 OA
ENDBRANCH  23  24
ENDBRANCH  18  23
ENDBRANCH  14  16
ENDBRANCH   1  14
TORSDOF 9
