REMARK  3 active torsions:
REMARK  status: ('A' for Active; 'I' for Inactive)
REMARK    1  A    between atoms: C_8  and  C_9 
REMARK    2  A    between atoms: C_9  and  N_10 
REMARK    3  A    between atoms: C_13  and  C_14 
ROOT
ATOM      1  N   UNL d   1       7.583   4.339 -13.405  0.00  0.00     0.137 N 
ATOM      2  C   UNL d   1       8.400   3.801 -12.323  0.00  0.00     0.251 C 
ATOM      3  C   UNL d   1       9.268   4.829 -11.614  0.00  0.00     0.041 C 
ATOM      4  C   UNL d   1       8.400   5.911 -11.016  0.00  0.00     0.047 C 
ATOM      5  C   UNL d   1       7.419   6.420 -12.102  0.00  0.00     0.041 C 
ATOM      6  C   UNL d   1       6.636   5.259 -12.755  0.00  0.00     0.251 C 
ENDROOT
BRANCH   1   7
ATOM      7  C   UNL d   1       6.819   3.259 -14.047  0.00  0.00     0.251 C 
BRANCH   7   8
ATOM      8  C   UNL d   1       7.646   2.448 -15.090  0.00  0.00     0.048 C 
ATOM      9  C   UNL d   1       6.758   1.780 -16.178  0.00  0.00     0.056 C 
ATOM     10  C   UNL d   1       7.562   0.788 -16.956  0.00  0.00     0.100 A 
ATOM     11  C   UNL d   1       8.760   0.237 -16.631  0.00  0.00     0.136 A 
ATOM     12  O   UNL d   1       7.137   0.282 -18.159  0.00  0.00    -0.296 OA
ATOM     13  N   UNL d   1       9.162  -0.598 -17.645  0.00  0.00    -0.221 NA
ATOM     14  C   UNL d   1       9.451   0.556 -15.415  0.00  0.00     0.192 C 
ATOM     15  C   UNL d   1       8.158  -0.555 -18.518  0.00  0.00     0.159 A 
ATOM     16  C   UNL d   1       8.082  -1.324 -19.792  0.00  0.00     0.080 C 
ATOM     17  C   UNL d   1       8.624   1.401 -14.435  0.00  0.00     0.073 C 
ATOM     18  O   UNL d   1      10.597   0.231 -15.116  0.00  0.00    -0.290 OA
ENDBRANCH   7   8
ENDBRANCH   1   7
BRANCH   4  19
ATOM     19  C   UNL d   1       9.264   6.992 -10.423  0.00  0.00     0.087 A 
ATOM     20  C   UNL d   1       9.579   7.284  -9.077  0.00  0.00     0.041 A 
ATOM     21  C   UNL d   1      10.389   8.425  -9.042  0.00  0.00     0.129 A 
ATOM     22  C   UNL d   1       9.170   6.686  -7.866  0.00  0.00     0.006 A 
ATOM     23  O   UNL d   1      10.568   8.789 -10.362  0.00  0.00    -0.211 OA
ATOM     24  C   UNL d   1      10.836   9.002  -7.850  0.00  0.00     0.057 A 
ATOM     25  N   UNL d   1       9.862   7.892 -11.204  0.00  0.00    -0.131 NA
ATOM     26  C   UNL d   1      10.437   8.404  -6.640  0.00  0.00     0.142 A 
ATOM     27  F   UNL d   1      10.849   8.929  -5.463  0.00  0.00    -0.204 F 
ATOM     28  C   UNL d   1       9.607   7.253  -6.648  0.00  0.00     0.030 A 
ENDBRANCH   4  19
TORSDOF 3
