REMARK  3 active torsions:
REMARK  status: ('A' for Active; 'I' for Inactive)
REMARK    1  A    between atoms: C_2  and  C_3 
REMARK    2  A    between atoms: C_3  and  N_4 
REMARK    3  A    between atoms: C_7  and  C_8 
ROOT
ATOM      1  N   UNL d   1       9.921   5.982  -8.892  0.00  0.00     0.137 N 
ATOM      2  C   UNL d   1       8.766   6.491  -8.166  0.00  0.00     0.251 C 
ATOM      3  C   UNL d   1       9.185   7.185  -6.876  0.00  0.00     0.041 C 
ATOM      4  C   UNL d   1      10.205   8.302  -7.163  0.00  0.00     0.046 C 
ATOM      5  C   UNL d   1      11.373   7.781  -8.001  0.00  0.00     0.041 C 
ATOM      6  C   UNL d   1      10.812   7.099  -9.258  0.00  0.00     0.251 C 
ENDROOT
BRANCH   4   7
ATOM      7  C   UNL d   1      10.722   8.906  -5.885  0.00  0.00     0.082 A 
ATOM      8  C   UNL d   1      11.339   8.202  -4.806  0.00  0.00     0.035 A 
ATOM      9  C   UNL d   1      11.607   9.191  -3.820  0.00  0.00     0.104 A 
ATOM     10  C   UNL d   1      11.678   6.868  -4.495  0.00  0.00     0.003 A 
ATOM     11  N   UNL d   1      11.121  10.352  -4.383  0.00  0.00    -0.148 NA
ATOM     12  C   UNL d   1      12.245   8.893  -2.601  0.00  0.00     0.021 A 
ATOM     13  N   UNL d   1      10.658  10.191  -5.645  0.00  0.00    -0.152 NA
ATOM     14  C   UNL d   1      12.556   7.559  -2.316  0.00  0.00     0.002 A 
ATOM     15  C   UNL d   1      12.263   6.564  -3.255  0.00  0.00     0.000 A 
ENDBRANCH   4   7
BRANCH   1  16
ATOM     16  C   UNL d   1       9.468   5.235 -10.070  0.00  0.00     0.250 C 
BRANCH  16  17
ATOM     17  C   UNL d   1       9.046   6.123 -11.273  0.00  0.00     0.035 C 
ATOM     18  C   UNL d   1       8.577   5.335 -12.500  0.00  0.00     0.002 C 
ENDBRANCH  16  17
ENDBRANCH   1  16
TORSDOF 3
