REMARK  0 active torsions:
REMARK  status: ('A' for Active; 'I' for Inactive)
ROOT
ATOM      1  C   UNL d   1      10.084   4.991 -16.547  0.00  0.00     0.031 C 
ATOM      2  C   UNL d   1      10.265   3.508 -16.282  0.00  0.00    -0.022 A 
ATOM      3  C   UNL d   1      11.269   2.855 -17.031  0.00  0.00    -0.004 A 
ATOM      4  C   UNL d   1      11.460   1.470 -16.937  0.00  0.00    -0.001 A 
ATOM      5  C   UNL d   1      10.615   0.714 -16.113  0.00  0.00    -0.004 A 
ATOM      6  C   UNL d   1       9.606   1.355 -15.369  0.00  0.00    -0.020 A 
ATOM      7  C   UNL d   1       9.447   2.759 -15.377  0.00  0.00    -0.008 A 
ATOM      8  C   UNL d   1       8.415   3.324 -14.464  0.00  0.00    -0.003 A 
ATOM      9  C   UNL d   1       8.496   4.621 -13.894  0.00  0.00    -0.000 A 
ATOM     10  C   UNL d   1       7.502   5.154 -13.048  0.00  0.00    -0.000 A 
ATOM     11  C   UNL d   1       6.362   4.400 -12.734  0.00  0.00    -0.004 A 
ATOM     12  C   UNL d   1       6.231   3.102 -13.245  0.00  0.00    -0.022 A 
ATOM     13  C   UNL d   1       7.271   2.576 -14.056  0.00  0.00     0.005 A 
ATOM     14  C   UNL d   1       7.213   1.110 -14.540  0.00  0.00     0.246 C 
ATOM     15  C   UNL d   1       8.634   0.500 -14.591  0.00  0.00     0.064 C 
ATOM     16  N   UNL d   1       6.313   0.243 -13.761  0.00  0.00     0.142 N 
ATOM     17  C   UNL d   1       6.096  -1.027 -14.413  0.00  0.00     0.286 C 
ATOM     18  C   UNL d   1       5.020   0.875 -13.714  0.00  0.00     0.255 C 
ATOM     19  C   UNL d   1       5.137   2.122 -12.840  0.00  0.00     0.061 C 
ENDROOT
TORSDOF 0
