REMARK  10 active torsions:
REMARK  status: ('A' for Active; 'I' for Inactive)
REMARK    1  A    between atoms: C_3  and  S_4 
REMARK    2  A    between atoms: S_4  and  C_5 
REMARK    3  A    between atoms: C_5  and  C_6 
REMARK    4  A    between atoms: C_6  and  C_7 
REMARK    5  A    between atoms: C_7  and  N_8 
REMARK    6  A    between atoms: C_13  and  C_14 
REMARK    7  A    between atoms: C_17  and  C_18 
REMARK    8  A    between atoms: C_27  and  C_28 
REMARK    9  A    between atoms: C_31  and  C_32 
REMARK   10  A    between atoms: C_32  and  C_33 
ROOT
ATOM      1  C   UNL d   1       8.491   5.147 -14.170  0.00  0.00     0.047 C 
ENDROOT
BRANCH   1   2
ATOM      2  C   UNL d   1       7.243   5.085 -13.256  0.00  0.00     0.067 C 
BRANCH   2   3
ATOM      3  S   UNL d   1       7.603   4.460 -11.605  0.00  0.00    -0.075 SA
BRANCH   3   4
ATOM      4  C   UNL d   1       8.608   5.757 -10.953  0.00  0.00     0.193 A 
ATOM      5  N   UNL d   1       9.067   5.722  -9.690  0.00  0.00    -0.289 N 
ATOM      6  C   UNL d   1       8.819   4.701  -8.687  0.00  0.00     0.134 C 
ATOM      7  C   UNL d   1       9.778   6.874  -9.617  0.00  0.00     0.167 A 
ATOM      8  N   UNL d   1       9.818   7.536 -10.778  0.00  0.00    -0.128 NA
ATOM      9  N   UNL d   1       9.022   6.827 -11.633  0.00  0.00    -0.122 NA
BRANCH   7  10
ATOM     10  C   UNL d   1      10.457   7.410  -8.444  0.00  0.00     0.036 A 
ATOM     11  C   UNL d   1      10.009   7.122  -7.135  0.00  0.00     0.003 A 
ATOM     12  C   UNL d   1      10.707   7.587  -6.020  0.00  0.00    -0.004 A 
ATOM     13  C   UNL d   1      11.804   8.456  -6.189  0.00  0.00    -0.013 A 
ATOM     14  C   UNL d   1      12.237   8.787  -7.489  0.00  0.00    -0.004 A 
ATOM     15  C   UNL d   1      11.573   8.271  -8.611  0.00  0.00     0.003 A 
BRANCH  13  16
ATOM     16  C   UNL d   1      12.533   8.983  -4.973  0.00  0.00     0.118 C 
BRANCH  16  17
ATOM     17  C   UNL d   1      11.573   9.689  -4.037  0.00  0.00     0.278 C 
ATOM     18  N   UNL d   1      11.806   9.562  -2.746  0.00  0.00    -0.107 N 
ATOM     19  O   UNL d   1      10.656  10.385  -4.475  0.00  0.00    -0.268 OA
ENDBRANCH  16  17
ENDBRANCH  13  16
ENDBRANCH   7  10
ENDBRANCH   3   4
ENDBRANCH   2   3
ENDBRANCH   1   2
BRANCH   1  20
ATOM     20  C   UNL d   1       9.013   3.775 -14.591  0.00  0.00     0.251 C 
BRANCH  20  21
ATOM     21  N   UNL d   1      10.270   3.951 -15.324  0.00  0.00     0.137 N 
ATOM     22  C   UNL d   1      10.172   4.747 -16.523  0.00  0.00     0.251 C 
ATOM     23  C   UNL d   1      11.443   4.433 -17.273  0.00  0.00     0.037 A 
ATOM     24  C   UNL d   1      11.851   3.062 -16.777  0.00  0.00     0.038 C 
ATOM     25  C   UNL d   1      11.708   4.905 -18.682  0.00  0.00     0.024 A 
ATOM     26  C   UNL d   1      12.498   5.480 -17.542  0.00  0.00     0.007 A 
ATOM     27  C   UNL d   1      10.779   2.662 -15.773  0.00  0.00     0.250 C 
BRANCH  25  28
ATOM     28  C   UNL d   1      10.694   5.730 -19.417  0.00  0.00    -0.022 A 
ATOM     29  C   UNL d   1       9.447   5.186 -19.786  0.00  0.00    -0.004 A 
ATOM     30  C   UNL d   1       8.483   5.986 -20.429  0.00  0.00     0.004 A 
ATOM     31  C   UNL d   1       8.755   7.340 -20.718  0.00  0.00     0.071 A 
ATOM     32  C   UNL d   1      10.011   7.881 -20.358  0.00  0.00     0.004 A 
ATOM     33  C   UNL d   1      10.967   7.084 -19.710  0.00  0.00    -0.004 A 
BRANCH  31  34
ATOM     34  C   UNL d   1       7.700   8.197 -21.396  0.00  0.00     0.419 C 
ATOM     35  F   UNL d   1       7.203   7.545 -22.446  0.00  0.00    -0.166 F 
ATOM     36  F   UNL d   1       6.709   8.457 -20.543  0.00  0.00    -0.166 F 
ATOM     37  F   UNL d   1       8.210   9.354 -21.822  0.00  0.00    -0.166 F 
ENDBRANCH  31  34
ENDBRANCH  25  28
ENDBRANCH  20  21
ENDBRANCH   1  20
TORSDOF 10
