REMARK  2 active torsions:
REMARK  status: ('A' for Active; 'I' for Inactive)
REMARK    1  A    between atoms: O_2  and  C_3 
REMARK    2  A    between atoms: C_8  and  O_9 
ROOT
ATOM      1  C   UNL d   1      10.769   2.726 -16.700  0.00  0.00     0.116 A 
ATOM      2  C   UNL d   1      10.041   1.570 -17.056  0.00  0.00     0.022 A 
ATOM      3  C   UNL d   1       8.867   1.236 -16.371  0.00  0.00    -0.020 A 
ATOM      4  C   UNL d   1       8.441   2.066 -15.304  0.00  0.00     0.007 A 
ATOM      5  C   UNL d   1       9.152   3.211 -14.858  0.00  0.00     0.022 A 
ATOM      6  C   UNL d   1      10.301   3.548 -15.641  0.00  0.00     0.116 A 
ATOM      7  C   UNL d   1       8.672   4.016 -13.698  0.00  0.00    -0.001 A 
ATOM      8  C   UNL d   1       9.518   4.839 -12.913  0.00  0.00     0.014 A 
ATOM      9  C   UNL d   1       9.016   5.604 -11.834  0.00  0.00     0.070 A 
ATOM     10  N   UNL d   1       9.855   6.386 -11.040  0.00  0.00    -0.101 NA
ATOM     11  C   UNL d   1       7.644   5.548 -11.536  0.00  0.00     0.014 A 
ATOM     12  C   UNL d   1       6.793   4.710 -12.270  0.00  0.00    -0.003 A 
ATOM     13  C   UNL d   1       7.309   3.933 -13.326  0.00  0.00    -0.020 A 
ATOM     14  C   UNL d   1       6.403   2.957 -14.031  0.00  0.00     0.064 C 
ATOM     15  C   UNL d   1       7.166   1.691 -14.514  0.00  0.00     0.246 C 
ATOM     16  N   UNL d   1       6.253   0.755 -15.184  0.00  0.00     0.142 N 
ATOM     17  C   UNL d   1       5.228   0.236 -14.281  0.00  0.00     0.286 C 
ATOM     18  C   UNL d   1       7.049  -0.392 -15.580  0.00  0.00     0.255 C 
ATOM     19  C   UNL d   1       7.980   0.050 -16.704  0.00  0.00     0.061 C 
ENDROOT
BRANCH   1  20
ATOM     20  O   UNL d   1      11.928   3.113 -17.341  0.00  0.00    -0.326 OA
ATOM     21  C   UNL d   1      12.382   2.357 -18.451  0.00  0.00     0.181 C 
ENDBRANCH   1  20
BRANCH   6  22
ATOM     22  O   UNL d   1      10.979   4.716 -15.395  0.00  0.00    -0.326 OA
ATOM     23  C   UNL d   1      10.784   5.722 -16.383  0.00  0.00     0.181 C 
ENDBRANCH   6  22
TORSDOF 2
