REMARK  2 active torsions:
REMARK  status: ('A' for Active; 'I' for Inactive)
REMARK    1  A    between atoms: N_14  and  C_15 
REMARK    2  A    between atoms: C_15  and  C_16 
ROOT
ATOM      1  O   UNL d   1      10.978   0.422 -15.852  0.00  0.00    -0.259 OA
ATOM      2  C   UNL d   1      10.027   0.269 -16.619  0.00  0.00     0.298 A 
ATOM      3  O   UNL d   1      10.224   0.025 -17.949  0.00  0.00    -0.273 OA
ATOM      4  C   UNL d   1       9.193  -0.113 -18.855  0.00  0.00     0.105 A 
ATOM      5  C   UNL d   1       9.512  -0.342 -20.210  0.00  0.00     0.052 A 
ATOM      6  C   UNL d   1       8.487  -0.484 -21.162  0.00  0.00     0.133 A 
ATOM      7  O   UNL d   1       8.802  -0.700 -22.471  0.00  0.00    -0.190 OA
ATOM      8  C   UNL d   1       7.138  -0.398 -20.763  0.00  0.00     0.028 A 
ATOM      9  C   UNL d   1       6.818  -0.168 -19.411  0.00  0.00     0.004 A 
ATOM     10  C   UNL d   1       7.848  -0.026 -18.448  0.00  0.00     0.019 A 
ATOM     11  C   UNL d   1       7.592   0.203 -17.019  0.00  0.00    -0.015 A 
ATOM     12  C   UNL d   1       8.620   0.343 -16.154  0.00  0.00     0.071 A 
ATOM     13  C   UNL d   1       8.414   0.584 -14.660  0.00  0.00     0.282 C 
ATOM     14  N   UNL d   1       7.084   1.133 -14.343  0.00  0.00     0.146 N 
ATOM     15  C   UNL d   1       6.065   0.290 -14.982  0.00  0.00     0.256 C 
ATOM     16  C   UNL d   1       6.152   0.293 -16.525  0.00  0.00     0.062 C 
ENDROOT
BRANCH  14  17
ATOM     17  C   UNL d   1       6.942   2.551 -14.693  0.00  0.00     0.277 C 
BRANCH  17  18
ATOM     18  C   UNL d   1       7.569   3.545 -13.717  0.00  0.00     0.011 A 
ATOM     19  C   UNL d   1       8.977   3.705 -13.646  0.00  0.00    -0.002 A 
ATOM     20  C   UNL d   1       9.538   4.547 -12.671  0.00  0.00     0.011 A 
ATOM     21  C   UNL d   1       8.711   5.321 -11.826  0.00  0.00     0.058 A 
ATOM     22  C   UNL d   1       7.316   5.227 -11.942  0.00  0.00     0.011 A 
ATOM     23 CL   UNL d   1       9.434   6.395 -10.685  0.00  0.00    -0.082 Cl
ATOM     24  C   UNL d   1       6.746   4.327 -12.872  0.00  0.00    -0.002 A 
ENDBRANCH  17  18
ENDBRANCH  14  17
TORSDOF 2
