REMARK  9 active torsions:
REMARK  status: ('A' for Active; 'I' for Inactive)
REMARK    1  A    between atoms: O_2  and  C_3 
REMARK    2  A    between atoms: C_8  and  N_9 
REMARK    3  A    between atoms: N_12  and  C_13 
REMARK    4  A    between atoms: C_13  and  C_14 
REMARK    5  A    between atoms: C_14  and  C_16 
REMARK    6  A    between atoms: C_16  and  C_17 
REMARK    7  A    between atoms: C_17  and  N_18 
REMARK       I    between atoms: N_18  and  C_19 
REMARK    8  A    between atoms: C_19  and  C_21 
REMARK    9  A    between atoms: C_24  and  C_25 
ROOT
ATOM      1  C   UNL d   1      10.879   3.630 -14.143  0.00  0.00     0.188 C 
ATOM      2  O   UNL d   1      12.262   3.829 -14.338  0.00  0.00    -0.221 OA
ENDROOT
BRANCH   1   3
ATOM      3  C   UNL d   1      10.515   2.230 -14.695  0.00  0.00     0.283 C 
BRANCH   3   4
ATOM      4  N   UNL d   1       9.084   1.935 -14.808  0.00  0.00     0.144 N 
ATOM      5  C   UNL d   1       8.805   0.503 -14.611  0.00  0.00     0.274 C 
ATOM      6  C   UNL d   1       7.300   0.185 -14.659  0.00  0.00     0.137 C 
ATOM      7  N   UNL d   1       6.752   0.683 -15.913  0.00  0.00    -0.343 N 
ATOM      8  C   UNL d   1       7.042   2.070 -16.233  0.00  0.00     0.137 C 
ATOM      9  C   UNL d   1       8.548   2.339 -16.123  0.00  0.00     0.274 C 
BRANCH   7  10
ATOM     10  C   UNL d   1       6.002  -0.119 -16.766  0.00  0.00     0.079 A 
ATOM     11  C   UNL d   1       4.842  -0.765 -16.285  0.00  0.00     0.110 A 
ATOM     12  C   UNL d   1       4.105  -1.593 -17.173  0.00  0.00     0.026 A 
ATOM     13  C   UNL d   1       4.519  -1.760 -18.505  0.00  0.00     0.002 A 
ATOM     14  C   UNL d   1       5.660  -1.096 -18.980  0.00  0.00     0.002 A 
ATOM     15  C   UNL d   1       6.398  -0.267 -18.113  0.00  0.00     0.019 A 
BRANCH  11  16
ATOM     16  O   UNL d   1       4.474  -0.522 -14.978  0.00  0.00    -0.327 OA
ATOM     17  C   UNL d   1       3.188  -0.932 -14.557  0.00  0.00     0.181 C 
ENDBRANCH  11  16
ENDBRANCH   7  10
ENDBRANCH   3   4
ENDBRANCH   1   3
BRANCH   1  18
ATOM     18  C   UNL d   1      10.174   4.828 -14.815  0.00  0.00     0.061 C 
BRANCH  18  19
ATOM     19  C   UNL d   1       8.847   5.176 -14.099  0.00  0.00     0.132 C 
BRANCH  19  20
ATOM     20  N   UNL d   1       9.102   5.791 -12.800  0.00  0.00    -0.234 NA
ATOM     21  C   UNL d   1       8.601   5.389 -11.628  0.00  0.00     0.275 C 
ATOM     22  O   UNL d   1       7.776   4.476 -11.520  0.00  0.00    -0.266 OA
BRANCH  21  23
ATOM     23  C   UNL d   1       9.191   6.044 -10.412  0.00  0.00     0.058 A 
ATOM     24  C   UNL d   1       9.862   7.297 -10.492  0.00  0.00     0.005 A 
ATOM     25  C   UNL d   1      10.373   7.911  -9.341  0.00  0.00     0.002 A 
ATOM     26  C   UNL d   1      10.232   7.319  -8.066  0.00  0.00     0.018 A 
ATOM     27  C   UNL d   1       9.562   6.076  -8.002  0.00  0.00     0.002 A 
ATOM     28  C   UNL d   1       9.058   5.442  -9.149  0.00  0.00     0.005 A 
BRANCH  26  29
ATOM     29  C   UNL d   1      10.762   7.970  -6.844  0.00  0.00     0.081 A 
ATOM     30  N   UNL d   1      10.978   9.306  -6.927  0.00  0.00    -0.244 NA
ATOM     31  C   UNL d   1      11.464   9.959  -5.853  0.00  0.00     0.099 A 
ATOM     32  C   UNL d   1      11.763   9.324  -4.633  0.00  0.00     0.021 A 
ATOM     33  C   UNL d   1      11.547   7.939  -4.538  0.00  0.00     0.003 A 
ATOM     34  C   UNL d   1      11.044   7.253  -5.657  0.00  0.00     0.019 A 
ENDBRANCH  26  29
ENDBRANCH  21  23
ENDBRANCH  19  20
ENDBRANCH  18  19
ENDBRANCH   1  18
TORSDOF 9
