REMARK  6 active torsions:
REMARK  status: ('A' for Active; 'I' for Inactive)
REMARK       I    between atoms: C_2  and  N_3 
REMARK    1  A    between atoms: C_2  and  C_27 
REMARK    2  A    between atoms: N_3  and  C_4 
REMARK    3  A    between atoms: C_7  and  C_8 
REMARK    4  A    between atoms: C_8  and  C_9 
REMARK    5  A    between atoms: C_9  and  N_10 
REMARK    6  A    between atoms: N_13  and  C_14 
ROOT
ATOM      1  C   UNL d   1       9.221   4.540 -10.755  0.00  0.00     0.250 C 
ENDROOT
BRANCH   1   2
ATOM      2  C   UNL d   1       9.694   4.888 -12.185  0.00  0.00     0.035 C 
BRANCH   2   3
ATOM      3  C   UNL d   1       9.991   3.659 -13.057  0.00  0.00     0.002 C 
ATOM      4  C   UNL d   1       8.758   3.296 -13.887  0.00  0.00     0.002 C 
ATOM      5  C   UNL d   1       9.043   2.116 -14.814  0.00  0.00     0.024 C 
ATOM      6  C   UNL d   1      10.245   2.410 -15.727  0.00  0.00     0.106 C 
ATOM      7  C   UNL d   1      11.492   2.764 -14.900  0.00  0.00     0.024 C 
ATOM      8  C   UNL d   1      11.213   3.934 -13.959  0.00  0.00     0.002 C 
BRANCH   6   9
ATOM      9  N   UNL d   1      10.501   1.241 -16.562  0.00  0.00    -0.240 NA
ATOM     10  C   UNL d   1      11.122   1.267 -17.749  0.00  0.00     0.256 C 
ATOM     11  O   UNL d   1      11.615   2.287 -18.229  0.00  0.00    -0.270 OA
BRANCH  10  12
ATOM     12  C   UNL d   1      11.139  -0.050 -18.452  0.00  0.00     0.147 A 
ATOM     13  C   UNL d   1      10.683  -0.078 -19.896  0.00  0.00     0.273 A 
ATOM     14  C   UNL d   1      12.146  -0.241 -19.576  0.00  0.00     0.082 A 
ATOM     15  F   UNL d   1       9.991  -1.197 -20.325  0.00  0.00    -0.204 F 
ATOM     16  F   UNL d   1      10.282   1.094 -20.516  0.00  0.00    -0.204 F 
ENDBRANCH  10  12
ENDBRANCH   6   9
ENDBRANCH   2   3
ENDBRANCH   1   2
BRANCH   1  17
ATOM     17  N   UNL d   1       9.112   5.711  -9.878  0.00  0.00     0.141 N 
ATOM     18  C   UNL d   1      10.407   6.393  -9.760  0.00  0.00     0.274 C 
ATOM     19  C   UNL d   1      10.390   7.602  -8.832  0.00  0.00     0.137 C 
ATOM     20  N   UNL d   1       9.883   7.153  -7.545  0.00  0.00    -0.343 N 
ATOM     21  C   UNL d   1       8.641   6.411  -7.562  0.00  0.00     0.137 C 
ATOM     22  C   UNL d   1       8.771   5.221  -8.529  0.00  0.00     0.274 C 
BRANCH  20  23
ATOM     23  C   UNL d   1      10.550   7.457  -6.367  0.00  0.00     0.081 A 
ATOM     24  C   UNL d   1      11.194   8.662  -6.166  0.00  0.00     0.135 A 
ATOM     25  C   UNL d   1      11.887   8.868  -4.994  0.00  0.00     0.121 A 
ATOM     26  O   UNL d   1      11.352   9.698  -7.030  0.00  0.00    -0.298 OA
ATOM     27  C   UNL d   1      11.942   8.024  -3.893  0.00  0.00     0.026 A 
ATOM     28  O   UNL d   1      12.629   9.980  -5.134  0.00  0.00    -0.299 OA
ATOM     29  C   UNL d   1      11.331   6.781  -4.068  0.00  0.00     0.004 A 
ATOM     30  C   UNL d   1      10.676   6.545  -5.295  0.00  0.00     0.019 A 
ATOM     31  C   UNL d   1      12.149  10.598  -6.290  0.00  0.00     0.304 C 
ENDBRANCH  20  23
ENDBRANCH   1  17
TORSDOF 6
