REMARK  4 active torsions:
REMARK  status: ('A' for Active; 'I' for Inactive)
REMARK    1  A    between atoms: C_3  and  O_4 
REMARK    2  A    between atoms: O_4  and  C_5 
REMARK    3  A    between atoms: C_6  and  O_7 
REMARK    4  A    between atoms: C_15  and  N_16 
REMARK       I    between atoms: N_16  and  C_17 
ROOT
ATOM      1  C   UNL d   1      12.388   4.006 -14.055  0.00  0.00     0.079 C 
ATOM      2  C   UNL d   1      11.622   3.133 -14.430  0.00  0.00    -0.121 C 
ATOM      3  C   UNL d   1      10.753   2.034 -14.873  0.00  0.00     0.212 C 
ENDROOT
BRANCH   3   4
ATOM      4  O   UNL d   1       9.643   2.585 -15.568  0.00  0.00    -0.316 OA
BRANCH   4   5
ATOM      5  C   UNL d   1       8.782   1.669 -16.117  0.00  0.00     0.117 A 
ATOM      6  C   UNL d   1       7.489   1.470 -15.545  0.00  0.00     0.022 A 
ATOM      7  C   UNL d   1       6.740   0.406 -16.123  0.00  0.00     0.007 A 
ATOM      8  C   UNL d   1       6.970   2.253 -14.394  0.00  0.00    -0.001 A 
ATOM      9  C   UNL d   1       7.173  -0.335 -17.252  0.00  0.00    -0.020 A 
ATOM     10  C   UNL d   1       5.370   0.080 -15.477  0.00  0.00     0.246 C 
ATOM     11  C   UNL d   1       8.423  -0.045 -17.811  0.00  0.00     0.022 A 
ATOM     12  C   UNL d   1       6.247  -1.445 -17.724  0.00  0.00     0.061 C 
ATOM     13  C   UNL d   1       9.237   0.960 -17.255  0.00  0.00     0.116 A 
ATOM     14  C   UNL d   1       4.793  -1.313 -17.270  0.00  0.00     0.255 C 
ATOM     15  N   UNL d   1       4.794  -1.222 -15.816  0.00  0.00     0.142 N 
ATOM     16  C   UNL d   1       3.406  -1.310 -15.371  0.00  0.00     0.286 C 
ATOM     17  C   UNL d   1       5.404   0.316 -13.946  0.00  0.00     0.064 C 
ATOM     18  C   UNL d   1       5.947   1.691 -13.591  0.00  0.00    -0.020 A 
ATOM     19  C   UNL d   1       5.456   2.409 -12.480  0.00  0.00    -0.003 A 
ATOM     20  C   UNL d   1       5.918   3.686 -12.155  0.00  0.00     0.019 A 
ATOM     21  C   UNL d   1       6.910   4.267 -12.949  0.00  0.00     0.084 A 
ATOM     22  C   UNL d   1       7.417   3.552 -14.059  0.00  0.00     0.019 A 
BRANCH  13  23
ATOM     23  O   UNL d   1      10.477   1.303 -17.758  0.00  0.00    -0.326 OA
ATOM     24  C   UNL d   1      11.020   0.517 -18.805  0.00  0.00     0.181 C 
ENDBRANCH  13  23
BRANCH  21  25
ATOM     25  N   UNL d   1       7.345   5.579 -12.636  0.00  0.00    -0.212 NA
ATOM     26  C   UNL d   1       8.618   6.002 -12.653  0.00  0.00     0.256 C 
ATOM     27  C   UNL d   1       8.872   7.432 -12.199  0.00  0.00     0.100 C 
ATOM     28  O   UNL d   1       9.574   5.305 -12.990  0.00  0.00    -0.270 OA
ENDBRANCH  21  25
ENDBRANCH   4   5
ENDBRANCH   3   4
TORSDOF 4
