REMARK  8 active torsions:
REMARK  status: ('A' for Active; 'I' for Inactive)
REMARK    1  A    between atoms: O_2  and  C_3 
REMARK    2  A    between atoms: C_6  and  O_7 
REMARK    3  A    between atoms: O_7  and  C_8 
REMARK    4  A    between atoms: C_11  and  C_12 
REMARK    5  A    between atoms: C_12  and  N_13 
REMARK    6  A    between atoms: C_16  and  C_17 
REMARK    7  A    between atoms: C_21  and  N_22 
REMARK       I    between atoms: N_22  and  C_23 
REMARK    8  A    between atoms: C_23  and  C_25 
ROOT
ATOM      1  N   UNL d   1       8.725   2.615 -16.017  0.00  0.00     0.141 N 
ATOM      2  C   UNL d   1       8.239   1.547 -15.135  0.00  0.00     0.251 C 
ATOM      3  C   UNL d   1       7.051   0.823 -15.782  0.00  0.00     0.040 C 
ATOM      4  C   UNL d   1       7.423   0.247 -17.153  0.00  0.00     0.026 C 
ATOM      5  C   UNL d   1       8.089   1.337 -18.009  0.00  0.00     0.040 C 
ATOM      6  C   UNL d   1       9.230   2.034 -17.262  0.00  0.00     0.251 C 
ENDROOT
BRANCH   1   7
ATOM      7  C   UNL d   1       9.808   3.366 -15.390  0.00  0.00     0.277 C 
BRANCH   7   8
ATOM      8  C   UNL d   1       9.418   4.053 -14.090  0.00  0.00     0.011 A 
ATOM      9  C   UNL d   1       9.856   3.525 -12.866  0.00  0.00    -0.000 A 
ATOM     10  C   UNL d   1       9.494   4.133 -11.654  0.00  0.00     0.024 A 
ATOM     11  C   UNL d   1       8.695   5.288 -11.645  0.00  0.00     0.100 A 
ATOM     12  C   UNL d   1       8.239   5.816 -12.865  0.00  0.00     0.024 A 
ATOM     13  C   UNL d   1       8.600   5.195 -14.081  0.00  0.00    -0.000 A 
BRANCH  11  14
ATOM     14  O   UNL d   1       8.377   5.879 -10.454  0.00  0.00    -0.307 OA
BRANCH  14  15
ATOM     15  C   UNL d   1       9.374   6.581  -9.825  0.00  0.00     0.100 A 
ATOM     16  C   UNL d   1       9.684   6.269  -8.491  0.00  0.00     0.027 A 
ATOM     17  C   UNL d   1      10.663   7.008  -7.806  0.00  0.00     0.026 A 
ATOM     18  C   UNL d   1      11.328   8.079  -8.444  0.00  0.00     0.094 A 
ATOM     19  C   UNL d   1      11.027   8.384  -9.788  0.00  0.00     0.026 A 
ATOM     20  C   UNL d   1      10.038   7.648 -10.467  0.00  0.00     0.027 A 
BRANCH  18  21
ATOM     21  O   UNL d   1      12.299   8.814  -7.815  0.00  0.00    -0.328 OA
ATOM     22  C   UNL d   1      12.024   9.209  -6.478  0.00  0.00     0.181 C 
ENDBRANCH  18  21
ENDBRANCH  14  15
ENDBRANCH  11  14
ENDBRANCH   7   8
ENDBRANCH   1   7
BRANCH   4  23
ATOM     23  C   UNL d   1       6.221  -0.388 -17.841  0.00  0.00    -0.021 A 
ATOM     24  C   UNL d   1       5.988  -1.767 -17.676  0.00  0.00     0.015 A 
ATOM     25  C   UNL d   1       4.882  -2.404 -18.276  0.00  0.00     0.084 A 
ATOM     26  C   UNL d   1       3.982  -1.647 -19.056  0.00  0.00     0.019 A 
ATOM     27  C   UNL d   1       4.214  -0.266 -19.237  0.00  0.00     0.001 A 
ATOM     28  C   UNL d   1       5.313   0.366 -18.623  0.00  0.00    -0.004 A 
BRANCH  25  29
ATOM     29  N   UNL d   1       4.633  -3.776 -18.035  0.00  0.00    -0.212 NA
ATOM     30  C   UNL d   1       5.537  -4.768 -18.057  0.00  0.00     0.255 C 
ATOM     31  O   UNL d   1       6.701  -4.623 -18.440  0.00  0.00    -0.270 OA
BRANCH  30  32
ATOM     32  C   UNL d   1       5.055  -6.146 -17.584  0.00  0.00     0.081 C 
ATOM     33  C   UNL d   1       5.884  -6.632 -16.382  0.00  0.00     0.010 C 
ATOM     34  C   UNL d   1       5.093  -7.164 -18.733  0.00  0.00     0.010 C 
ENDBRANCH  30  32
ENDBRANCH  25  29
ENDBRANCH   4  23
TORSDOF 8
