REMARK  8 active torsions:
REMARK  status: ('A' for Active; 'I' for Inactive)
REMARK    1  A    between atoms: O_2  and  C_3 
REMARK    2  A    between atoms: C_9  and  N_10 
REMARK    3  A    between atoms: N_13  and  C_14 
REMARK    4  A    between atoms: C_14  and  C_15 
REMARK    5  A    between atoms: C_15  and  C_16 
REMARK    6  A    between atoms: C_16  and  C_17 
REMARK    7  A    between atoms: C_17  and  N_18 
REMARK       I    between atoms: N_18  and  C_19 
REMARK    8  A    between atoms: C_19  and  C_21 
ROOT
ATOM      1  N   UNL d   1       6.904   3.048 -13.979  0.00  0.00    -0.328 N 
ATOM      2  C   UNL d   1       6.069   3.882 -13.128  0.00  0.00     0.138 C 
ATOM      3  C   UNL d   1       6.819   4.260 -11.838  0.00  0.00     0.274 C 
ATOM      4  N   UNL d   1       8.126   4.857 -12.146  0.00  0.00     0.141 N 
ATOM      5  C   UNL d   1       8.953   3.895 -12.886  0.00  0.00     0.274 C 
ATOM      6  C   UNL d   1       8.263   3.527 -14.209  0.00  0.00     0.138 C 
ENDROOT
BRANCH   4   7
ATOM      7  C   UNL d   1       8.773   5.219 -10.889  0.00  0.00     0.251 C 
BRANCH   7   8
ATOM      8  C   UNL d   1       9.799   6.350 -11.084  0.00  0.00     0.037 C 
BRANCH   8   9
ATOM      9  C   UNL d   1      10.436   6.822  -9.767  0.00  0.00     0.029 C 
BRANCH   9  10
ATOM     10  C   UNL d   1       9.437   7.479  -8.800  0.00  0.00     0.129 C 
BRANCH  10  11
ATOM     11  N   UNL d   1       9.992   7.617  -7.471  0.00  0.00    -0.234 NA
ATOM     12  C   UNL d   1      10.737   8.646  -7.062  0.00  0.00     0.275 C 
ATOM     13  O   UNL d   1      11.066   9.580  -7.782  0.00  0.00    -0.266 OA
BRANCH  12  14
ATOM     14  C   UNL d   1      11.104   8.615  -5.615  0.00  0.00     0.059 A 
ATOM     15  C   UNL d   1      11.448   7.397  -4.996  0.00  0.00     0.028 A 
ATOM     16  C   UNL d   1      11.864   7.399  -3.674  0.00  0.00     0.130 A 
ATOM     17  C   UNL d   1      11.930   8.623  -2.943  0.00  0.00     0.130 A 
ATOM     18  N   UNL d   1      12.258   6.391  -2.902  0.00  0.00    -0.102 NA
ATOM     19  C   UNL d   1      11.564   9.817  -3.544  0.00  0.00     0.023 A 
ATOM     20  N   UNL d   1      12.394   8.392  -1.718  0.00  0.00    -0.102 NA
ATOM     21  C   UNL d   1      11.165   9.823  -4.892  0.00  0.00     0.006 A 
ATOM     22  O   UNL d   1      12.621   7.011  -1.704  0.00  0.00    -0.106 OA
ENDBRANCH  12  14
ENDBRANCH  10  11
ENDBRANCH   9  10
ENDBRANCH   8   9
ENDBRANCH   7   8
ENDBRANCH   4   7
BRANCH   1  23
ATOM     23  C   UNL d   1       6.465   1.791 -14.432  0.00  0.00     0.169 A 
ATOM     24  N   UNL d   1       5.647   0.993 -13.745  0.00  0.00    -0.109 NA
ATOM     25  O   UNL d   1       5.398  -0.134 -14.582  0.00  0.00    -0.210 OA
ATOM     26  C   UNL d   1       6.080  -0.003 -15.785  0.00  0.00     0.128 A 
ATOM     27  C   UNL d   1       6.144  -0.811 -16.929  0.00  0.00     0.029 A 
ATOM     28  C   UNL d   1       6.757   1.215 -15.689  0.00  0.00     0.063 A 
ATOM     29  C   UNL d   1       6.924  -0.357 -18.015  0.00  0.00     0.026 A 
ATOM     30  C   UNL d   1       7.603   0.887 -17.961  0.00  0.00     0.094 A 
ATOM     31  C   UNL d   1       7.510   1.680 -16.789  0.00  0.00     0.029 A 
BRANCH  30  32
ATOM     32  O   UNL d   1       8.328   1.263 -19.072  0.00  0.00    -0.328 OA
ATOM     33  C   UNL d   1       9.073   2.475 -19.017  0.00  0.00     0.181 C 
ENDBRANCH  30  32
ENDBRANCH   1  23
TORSDOF 8
