REMARK  7 active torsions:
REMARK  status: ('A' for Active; 'I' for Inactive)
REMARK    1  A    between atoms: O_2  and  C_3 
REMARK    2  A    between atoms: C_8  and  N_9 
REMARK    3  A    between atoms: N_12  and  C_13 
REMARK    4  A    between atoms: C_13  and  C_14 
REMARK    5  A    between atoms: C_14  and  C_16 
REMARK    6  A    between atoms: C_16  and  N_17 
REMARK    7  A    between atoms: C_21  and  C_23 
ROOT
ATOM      1  N   UNL d   1       8.408   4.182 -13.808  0.00  0.00    -0.247 N 
ATOM      2  C   UNL d   1       7.284   3.731 -13.308  0.00  0.00     0.348 A 
ATOM      3  O   UNL d   1       6.736   2.684 -13.642  0.00  0.00    -0.245 OA
ATOM      4  N   UNL d   1       6.857   4.589 -12.387  0.00  0.00    -0.209 NA
ATOM      5  C   UNL d   1       7.798   5.670 -12.105  0.00  0.00     0.179 A 
ATOM      6  C   UNL d   1       7.093   7.025 -12.319  0.00  0.00     0.039 C 
ATOM      7  C   UNL d   1       8.752   5.303 -13.228  0.00  0.00     0.265 A 
ATOM      8  O   UNL d   1       9.788   5.940 -13.512  0.00  0.00    -0.269 OA
ENDROOT
BRANCH   1   9
ATOM      9  C   UNL d   1       9.145   3.465 -14.847  0.00  0.00     0.148 C 
BRANCH   9  10
ATOM     10  C   UNL d   1      10.498   2.879 -14.351  0.00  0.00     0.208 C 
ATOM     11  O   UNL d   1      10.167   1.548 -14.042  0.00  0.00    -0.219 OA
BRANCH  10  12
ATOM     12  C   UNL d   1      11.686   2.842 -15.359  0.00  0.00     0.285 C 
BRANCH  12  13
ATOM     13  N   UNL d   1      12.184   4.132 -15.848  0.00  0.00     0.144 N 
ATOM     14  C   UNL d   1      13.214   3.967 -16.857  0.00  0.00     0.274 C 
ATOM     15  C   UNL d   1      13.729   5.324 -17.373  0.00  0.00     0.137 C 
ATOM     16  N   UNL d   1      12.613   6.136 -17.873  0.00  0.00    -0.343 N 
ATOM     17  C   UNL d   1      11.502   6.274 -16.964  0.00  0.00     0.137 C 
ATOM     18  C   UNL d   1      11.134   4.904 -16.484  0.00  0.00     0.274 C 
BRANCH  16  19
ATOM     19  C   UNL d   1      12.553   6.679 -19.138  0.00  0.00     0.079 A 
ATOM     20  C   UNL d   1      11.391   6.525 -19.963  0.00  0.00     0.110 A 
ATOM     21  C   UNL d   1      11.381   7.095 -21.246  0.00  0.00     0.026 A 
ATOM     22  C   UNL d   1      12.484   7.830 -21.723  0.00  0.00     0.002 A 
ATOM     23  C   UNL d   1      13.618   7.997 -20.905  0.00  0.00     0.002 A 
ATOM     24  C   UNL d   1      13.655   7.423 -19.633  0.00  0.00     0.019 A 
BRANCH  20  25
ATOM     25  O   UNL d   1      10.340   5.782 -19.454  0.00  0.00    -0.327 OA
ATOM     26  C   UNL d   1       9.155   5.665 -20.217  0.00  0.00     0.181 C 
ENDBRANCH  20  25
ENDBRANCH  16  19
ENDBRANCH  12  13
ENDBRANCH  10  12
ENDBRANCH   9  10
ENDBRANCH   1   9
BRANCH   5  27
ATOM     27  C   UNL d   1       8.481   5.540 -10.721  0.00  0.00     0.006 A 
ATOM     28  C   UNL d   1       9.408   6.499 -10.201  0.00  0.00    -0.002 A 
ATOM     29  C   UNL d   1       9.913   6.353  -8.889  0.00  0.00    -0.000 A 
ATOM     30  C   UNL d   1       9.862   7.615 -10.925  0.00  0.00    -0.000 A 
ATOM     31  C   UNL d   1       9.537   5.288  -8.098  0.00  0.00    -0.000 A 
ATOM     32  C   UNL d   1      10.826   7.279  -8.342  0.00  0.00    -0.000 A 
ATOM     33  C   UNL d   1       8.668   4.288  -8.600  0.00  0.00    -0.000 A 
ATOM     34  C   UNL d   1       8.169   4.442  -9.885  0.00  0.00    -0.002 A 
ATOM     35  C   UNL d   1      11.241   8.383  -9.095  0.00  0.00    -0.000 A 
ATOM     36  C   UNL d   1      10.741   8.553 -10.383  0.00  0.00    -0.000 A 
ENDBRANCH   5  27
TORSDOF 7
