REMARK  7 active torsions:
REMARK  status: ('A' for Active; 'I' for Inactive)
REMARK    1  A    between atoms: C_2  and  C_4 
REMARK    2  A    between atoms: C_9  and  O_10 
REMARK    3  A    between atoms: O_10  and  C_11 
REMARK    4  A    between atoms: C_11  and  C_12 
REMARK    5  A    between atoms: C_12  and  N_13 
REMARK    6  A    between atoms: C_16  and  N_17 
REMARK       I    between atoms: N_17  and  C_18 
REMARK    7  A    between atoms: C_18  and  C_20 
ROOT
ATOM      1  N   UNL d   1       8.111   5.246 -11.989  0.00  0.00     0.142 N 
ATOM      2  C   UNL d   1       9.555   5.065 -11.964  0.00  0.00     0.253 C 
ATOM      3  C   UNL d   1      10.043   6.438 -11.596  0.00  0.00     0.062 C 
ATOM      4  C   UNL d   1       8.949   7.032 -10.778  0.00  0.00     0.142 C 
ATOM      5  C   UNL d   1       7.835   5.989 -10.772  0.00  0.00     0.275 C 
ENDROOT
BRANCH   4   6
ATOM      6  N   UNL d   1       9.399   7.441  -9.461  0.00  0.00    -0.233 NA
ATOM      7  C   UNL d   1      10.010   6.723  -8.518  0.00  0.00     0.293 C 
ATOM      8  O   UNL d   1      10.258   5.528  -8.634  0.00  0.00    -0.264 OA
BRANCH   7   9
ATOM      9  C   UNL d   1      10.385   7.499  -7.296  0.00  0.00     0.139 A 
ATOM     10  N   UNL d   1      10.902   6.789  -6.275  0.00  0.00    -0.241 NA
ATOM     11  C   UNL d   1      11.324   7.421  -5.167  0.00  0.00     0.082 A 
ATOM     12  C   UNL d   1      11.249   8.830  -5.038  0.00  0.00     0.018 A 
ATOM     13  C   UNL d   1      11.861   6.678  -4.095  0.00  0.00     0.019 A 
ATOM     14  C   UNL d   1      10.721   9.583  -6.101  0.00  0.00     0.003 A 
ATOM     15  C   UNL d   1      11.677   9.467  -3.861  0.00  0.00     0.002 A 
ATOM     16  C   UNL d   1      10.272   8.908  -7.249  0.00  0.00     0.024 A 
ATOM     17  C   UNL d   1      12.216   8.710  -2.805  0.00  0.00     0.000 A 
ATOM     18  C   UNL d   1      12.298   7.311  -2.917  0.00  0.00     0.002 A 
ENDBRANCH   7   9
ENDBRANCH   4   6
BRANCH   1  19
ATOM     19  C   UNL d   1       7.428   3.981 -11.950  0.00  0.00     0.283 C 
BRANCH  19  20
ATOM     20  C   UNL d   1       6.169   3.963 -12.839  0.00  0.00     0.184 C 
BRANCH  20  21
ATOM     21  O   UNL d   1       6.029   2.749 -13.578  0.00  0.00    -0.329 OA
BRANCH  21  22
ATOM     22  C   UNL d   1       7.078   2.307 -14.376  0.00  0.00     0.090 C 
ATOM     23  C   UNL d   1       6.954   1.050 -15.012  0.00  0.00    -0.000 C 
ATOM     24  C   UNL d   1       8.037   0.530 -15.762  0.00  0.00    -0.002 C 
ATOM     25  C   UNL d   1       9.232   1.246 -15.886  0.00  0.00    -0.000 C 
ATOM     26  C   UNL d   1       9.356   2.504 -15.282  0.00  0.00     0.002 C 
ATOM     27  C   UNL d   1       8.259   3.067 -14.596  0.00  0.00     0.024 C 
BRANCH  23  28
ATOM     28  C   UNL d   1       5.670   0.228 -14.873  0.00  0.00     0.024 C 
ATOM     29  C   UNL d   1       5.826  -0.881 -13.825  0.00  0.00     0.005 C 
ATOM     30  C   UNL d   1       5.178  -0.331 -16.221  0.00  0.00     0.005 C 
ENDBRANCH  23  28
ENDBRANCH  21  22
ENDBRANCH  20  21
ENDBRANCH  19  20
ENDBRANCH   1  19
TORSDOF 7
