REMARK  1 active torsions:
REMARK  status: ('A' for Active; 'I' for Inactive)
REMARK    1  A    between atoms: C_6  and  C_7 
ROOT
ATOM      1  O   UNL d   1      12.469   8.390  -8.062  0.00  0.00    -0.264 OA
ATOM      2  C   UNL d   1      11.309   7.991  -7.952  0.00  0.00     0.276 C 
ATOM      3  O   UNL d   1      10.682   7.141  -8.767  0.00  0.00    -0.301 OA
ATOM      4  C   UNL d   1       9.333   6.901  -8.409  0.00  0.00     0.153 C 
ATOM      5  C   UNL d   1       9.214   7.402  -6.971  0.00  0.00     0.047 C 
ATOM      6  C   UNL d   1      10.367   8.398  -6.822  0.00  0.00     0.111 C 
ENDROOT
BRANCH   6   7
ATOM      7  C   UNL d   1      11.034   8.389  -5.450  0.00  0.00    -0.013 A 
ATOM      8  C   UNL d   1      11.215   9.595  -4.738  0.00  0.00    -0.004 A 
ATOM      9  C   UNL d   1      11.820   9.582  -3.465  0.00  0.00    -0.000 A 
ATOM     10  C   UNL d   1      12.259   8.369  -2.900  0.00  0.00    -0.000 A 
ATOM     11  C   UNL d   1      12.074   7.166  -3.603  0.00  0.00    -0.000 A 
ATOM     12  C   UNL d   1      11.465   7.176  -4.870  0.00  0.00    -0.004 A 
ENDBRANCH   6   7
TORSDOF 1
