REMARK  9 active torsions:
REMARK  status: ('A' for Active; 'I' for Inactive)
REMARK    1  A    between atoms: C_2  and  C_3 
REMARK    2  A    between atoms: C_3  and  N_4 
REMARK    3  A    between atoms: N_4  and  C_5 
REMARK    4  A    between atoms: N_4  and  C_8 
REMARK    5  A    between atoms: C_5  and  C_6 
REMARK    6  A    between atoms: C_13  and  C_14 
REMARK    7  A    between atoms: C_14  and  C_15 
REMARK    8  A    between atoms: C_15  and  C_16 
REMARK    9  A    between atoms: C_19  and  O_20 
ROOT
ATOM      1  C   UNL d   1       9.913   3.969 -15.755  0.00  0.00     0.224 C 
ATOM      2  C   UNL d   1      10.433   2.773 -14.987  0.00  0.00     0.038 C 
ATOM      3  C   UNL d   1      10.789   3.170 -13.603  0.00  0.00     0.028 C 
ATOM      4  C   UNL d   1       9.729   3.990 -12.853  0.00  0.00    -0.026 A 
ATOM      5  C   UNL d   1       9.694   4.035 -11.473  0.00  0.00    -0.009 A 
ATOM      6  C   UNL d   1       8.810   4.851 -10.737  0.00  0.00    -0.022 A 
ATOM      7  C   UNL d   1       7.834   5.567 -11.440  0.00  0.00    -0.005 A 
ATOM      8  C   UNL d   1       7.772   5.475 -12.832  0.00  0.00    -0.005 A 
ATOM      9  C   UNL d   1       8.733   4.694 -13.547  0.00  0.00    -0.024 A 
ATOM     10  C   UNL d   1       8.623   4.474 -15.019  0.00  0.00     0.059 C 
ENDROOT
BRANCH   6  11
ATOM     11  C   UNL d   1       8.986   4.967  -9.213  0.00  0.00     0.031 C 
BRANCH  11  12
ATOM     12  C   UNL d   1       8.936   6.442  -8.748  0.00  0.00     0.031 C 
BRANCH  12  13
ATOM     13  C   UNL d   1       9.805   6.834  -7.561  0.00  0.00    -0.022 A 
ATOM     14  C   UNL d   1      10.959   6.081  -7.320  0.00  0.00    -0.002 A 
ATOM     15  C   UNL d   1      11.768   6.407  -6.190  0.00  0.00     0.024 A 
ATOM     16  C   UNL d   1      11.442   7.483  -5.350  0.00  0.00     0.094 A 
ATOM     17  C   UNL d   1      10.336   8.285  -5.666  0.00  0.00     0.024 A 
ATOM     18  C   UNL d   1       9.492   7.942  -6.758  0.00  0.00    -0.002 A 
BRANCH  16  19
ATOM     19  O   UNL d   1      12.256   7.676  -4.256  0.00  0.00    -0.328 OA
ATOM     20  C   UNL d   1      11.684   8.139  -3.050  0.00  0.00     0.181 C 
ENDBRANCH  16  19
ENDBRANCH  12  13
ENDBRANCH  11  12
ENDBRANCH   6  11
BRANCH   1  21
ATOM     21  N   UNL d   1       9.631   3.627 -17.163  0.00  0.00     0.135 N 
BRANCH  21  22
ATOM     22  C   UNL d   1      10.604   2.702 -17.775  0.00  0.00     0.250 C 
BRANCH  22  23
ATOM     23  C   UNL d   1      12.028   3.309 -17.852  0.00  0.00     0.035 C 
ATOM     24  C   UNL d   1      13.035   2.301 -18.395  0.00  0.00     0.002 C 
ENDBRANCH  22  23
ENDBRANCH  21  22
BRANCH  21  25
ATOM     25  C   UNL d   1       9.453   4.845 -17.961  0.00  0.00     0.250 C 
BRANCH  25  26
ATOM     26  C   UNL d   1       9.073   4.523 -19.418  0.00  0.00     0.035 C 
ATOM     27  C   UNL d   1       8.639   5.755 -20.206  0.00  0.00     0.002 C 
ENDBRANCH  25  26
ENDBRANCH  21  25
ENDBRANCH   1  21
TORSDOF 9
