REMARK  9 active torsions:
REMARK  status: ('A' for Active; 'I' for Inactive)
REMARK    1  A    between atoms: C_2  and  O_3 
REMARK    2  A    between atoms: O_3  and  C_4 
REMARK    3  A    between atoms: C_9  and  N_10 
REMARK    4  A    between atoms: N_13  and  C_14 
REMARK    5  A    between atoms: C_14  and  C_15 
REMARK    6  A    between atoms: C_15  and  C_16 
REMARK    7  A    between atoms: C_16  and  C_17 
REMARK    8  A    between atoms: C_17  and  C_18 
REMARK    9  A    between atoms: C_20  and  C_21 
ROOT
ATOM      1  N   UNL d   1       9.150   3.431 -15.332  0.00  0.00    -0.343 N 
ATOM      2  C   UNL d   1       7.999   3.112 -14.500  0.00  0.00     0.137 C 
ATOM      3  C   UNL d   1       8.307   3.459 -13.042  0.00  0.00     0.274 C 
ATOM      4  N   UNL d   1       8.740   4.843 -12.863  0.00  0.00     0.141 N 
ATOM      5  C   UNL d   1       9.965   5.023 -13.651  0.00  0.00     0.274 C 
ATOM      6  C   UNL d   1       9.700   4.762 -15.138  0.00  0.00     0.137 C 
ENDROOT
BRANCH   4   7
ATOM      7  C   UNL d   1       8.986   5.056 -11.435  0.00  0.00     0.250 C 
BRANCH   7   8
ATOM      8  C   UNL d   1       9.298   6.534 -11.127  0.00  0.00     0.036 C 
BRANCH   8   9
ATOM      9  C   UNL d   1       9.601   6.792  -9.648  0.00  0.00     0.009 C 
BRANCH   9  10
ATOM     10  C   UNL d   1      10.196   8.189  -9.409  0.00  0.00     0.054 C 
BRANCH  10  11
ATOM     11  C   UNL d   1      10.684   8.380  -8.017  0.00  0.00     0.104 A 
ATOM     12  O   UNL d   1      11.227   9.587  -7.720  0.00  0.00    -0.215 OA
ATOM     13  N   UNL d   1      11.617   9.583  -6.379  0.00  0.00    -0.126 NA
ATOM     14  C   UNL d   1      11.314   8.379  -5.919  0.00  0.00     0.116 A 
ATOM     15  C   UNL d   1      10.713   7.568  -6.916  0.00  0.00     0.044 A 
BRANCH  14  16
ATOM     16  C   UNL d   1      11.615   8.014  -4.544  0.00  0.00     0.049 A 
ATOM     17  S   UNL d   1      12.244   9.189  -3.420  0.00  0.00    -0.085 SA
ATOM     18  C   UNL d   1      12.274   8.018  -2.136  0.00  0.00     0.035 A 
ATOM     19  C   UNL d   1      11.860   6.786  -2.572  0.00  0.00     0.007 A 
ATOM     20  C   UNL d   1      11.474   6.787  -3.945  0.00  0.00     0.009 A 
ENDBRANCH  14  16
ENDBRANCH  10  11
ENDBRANCH   9  10
ENDBRANCH   8   9
ENDBRANCH   7   8
ENDBRANCH   4   7
BRANCH   1  21
ATOM     21  C   UNL d   1       9.683   2.527 -16.267  0.00  0.00     0.079 A 
ATOM     22  C   UNL d   1       8.832   1.775 -17.121  0.00  0.00     0.109 A 
ATOM     23  C   UNL d   1       9.417   0.854 -18.025  0.00  0.00     0.026 A 
ATOM     24  C   UNL d   1      10.810   0.695 -18.090  0.00  0.00     0.002 A 
ATOM     25  C   UNL d   1      11.647   1.450 -17.259  0.00  0.00     0.002 A 
ATOM     26  C   UNL d   1      11.087   2.361 -16.343  0.00  0.00     0.019 A 
BRANCH  22  27
ATOM     27  O   UNL d   1       7.468   1.997 -17.050  0.00  0.00    -0.329 OA
BRANCH  27  28
ATOM     28  C   UNL d   1       6.570   1.056 -17.630  0.00  0.00     0.149 C 
ATOM     29  C   UNL d   1       6.549  -0.245 -16.801  0.00  0.00     0.035 C 
ENDBRANCH  27  28
ENDBRANCH  22  27
ENDBRANCH   1  21
TORSDOF 9
