REMARK  8 active torsions:
REMARK  status: ('A' for Active; 'I' for Inactive)
REMARK    1  A    between atoms: O_2  and  C_3 
REMARK    2  A    between atoms: C_8  and  N_9 
REMARK    3  A    between atoms: N_12  and  C_13 
REMARK    4  A    between atoms: C_13  and  C_14 
REMARK    5  A    between atoms: C_14  and  C_15 
REMARK    6  A    between atoms: C_15  and  C_16 
REMARK    7  A    between atoms: C_16  and  N_17 
REMARK    8  A    between atoms: C_22  and  C_23 
ROOT
ATOM      1  C   UNL d   1       9.633   5.019 -12.821  0.00  0.00     0.026 C 
ENDROOT
BRANCH   1   2
ATOM      2  C   UNL d   1       9.058   4.621 -14.187  0.00  0.00     0.037 C 
BRANCH   2   3
ATOM      3  C   UNL d   1       9.631   3.279 -14.674  0.00  0.00     0.251 C 
BRANCH   3   4
ATOM      4  N   UNL d   1       9.060   2.924 -15.975  0.00  0.00     0.141 N 
ATOM      5  C   UNL d   1       9.976   3.357 -17.038  0.00  0.00     0.274 C 
ATOM      6  C   UNL d   1       9.373   3.061 -18.425  0.00  0.00     0.137 C 
ATOM      7  N   UNL d   1       9.034   1.647 -18.538  0.00  0.00    -0.343 N 
ATOM      8  C   UNL d   1       8.229   1.106 -17.451  0.00  0.00     0.137 C 
ATOM      9  C   UNL d   1       8.861   1.471 -16.087  0.00  0.00     0.274 C 
BRANCH   7  10
ATOM     10  C   UNL d   1       9.546   0.824 -19.560  0.00  0.00     0.079 A 
ATOM     11  C   UNL d   1      10.917   0.855 -19.927  0.00  0.00     0.110 A 
ATOM     12  C   UNL d   1      11.367   0.036 -20.997  0.00  0.00     0.026 A 
ATOM     13  C   UNL d   1      10.473  -0.810 -21.680  0.00  0.00     0.002 A 
ATOM     14  C   UNL d   1       9.124  -0.857 -21.299  0.00  0.00     0.002 A 
ATOM     15  C   UNL d   1       8.664  -0.048 -20.240  0.00  0.00     0.019 A 
BRANCH  11  16
ATOM     16  O   UNL d   1      11.763   1.675 -19.206  0.00  0.00    -0.327 OA
ATOM     17  C   UNL d   1      13.133   1.734 -19.565  0.00  0.00     0.181 C 
ENDBRANCH  11  16
ENDBRANCH   7  10
ENDBRANCH   3   4
ENDBRANCH   2   3
ENDBRANCH   1   2
BRANCH   1  18
ATOM     18  C   UNL d   1       8.797   6.095 -12.098  0.00  0.00     0.104 C 
BRANCH  18  19
ATOM     19  N   UNL d   1       9.301   6.332 -10.735  0.00  0.00    -0.316 N 
ATOM     20  C   UNL d   1       9.849   7.517 -10.385  0.00  0.00     0.257 C 
ATOM     21  C   UNL d   1      10.283   7.683  -8.953  0.00  0.00     0.052 A 
ATOM     22  O   UNL d   1       9.973   8.450 -11.179  0.00  0.00    -0.267 OA
ATOM     23  C   UNL d   1       9.819   6.802  -7.947  0.00  0.00    -0.016 A 
ATOM     24  C   UNL d   1      11.117   8.765  -8.586  0.00  0.00     0.004 A 
ATOM     25  C   UNL d   1       8.892   5.668  -8.325  0.00  0.00     0.051 C 
ATOM     26  C   UNL d   1      10.199   6.999  -6.604  0.00  0.00    -0.002 A 
ATOM     27  C   UNL d   1       9.100   5.224  -9.783  0.00  0.00     0.109 C 
ATOM     28  C   UNL d   1      11.047   8.070  -6.250  0.00  0.00     0.022 A 
ATOM     29  C   UNL d   1      11.497   8.958  -7.248  0.00  0.00     0.002 A 
BRANCH  28  30
ATOM     30  C   UNL d   1      11.460   8.259  -4.876  0.00  0.00     0.100 A 
ATOM     31  O   UNL d   1      11.466   9.537  -4.402  0.00  0.00    -0.305 OA
ATOM     32  C   UNL d   1      11.864   9.466  -3.105  0.00  0.00     0.123 A 
ATOM     33  C   UNL d   1      12.136   8.176  -2.750  0.00  0.00     0.029 A 
ATOM     34  C   UNL d   1      11.858   7.386  -3.898  0.00  0.00     0.027 A 
ENDBRANCH  28  30
ENDBRANCH  18  19
ENDBRANCH   1  18
TORSDOF 8
