REMARK  2 active torsions:
REMARK  status: ('A' for Active; 'I' for Inactive)
REMARK    1  A    between atoms: C_2  and  C_4 
REMARK    2  A    between atoms: C_10  and  O_11 
ROOT
ATOM      1  C   UNL d   1       9.815   7.583  -7.656  0.00  0.00     0.282 A 
ATOM      2  O   UNL d   1       8.678   8.036  -6.967  0.00  0.00    -0.183 OA
ATOM      3  O   UNL d   1      10.312   8.557  -8.530  0.00  0.00    -0.266 OA
ATOM      4  C   UNL d   1      10.209   8.132  -9.829  0.00  0.00     0.300 A 
ATOM      5  O   UNL d   1      10.545   8.776 -10.812  0.00  0.00    -0.259 OA
ATOM      6  C   UNL d   1       9.651   6.788  -9.858  0.00  0.00     0.093 A 
ATOM      7  C   UNL d   1       9.394   6.495  -8.591  0.00  0.00     0.135 A 
ENDROOT
BRANCH   1   8
ATOM      8  C   UNL d   1      10.910   7.141  -6.669  0.00  0.00     0.016 C 
ATOM      9  C   UNL d   1      11.610   5.996  -6.791  0.00  0.00    -0.004 C 
ATOM     10  C   UNL d   1      11.185   8.079  -5.508  0.00  0.00     0.032 C 
ENDBRANCH   1   8
BRANCH   7  11
ATOM     11  O   UNL d   1       8.860   5.356  -8.052  0.00  0.00    -0.327 OA
ATOM     12  C   UNL d   1       8.612   4.311  -8.965  0.00  0.00     0.181 C 
ENDBRANCH   7  11
TORSDOF 2
