REMARK  6 active torsions:
REMARK  status: ('A' for Active; 'I' for Inactive)
REMARK    1  A    between atoms: N_13  and  C_14 
REMARK    2  A    between atoms: C_14  and  C_15 
REMARK    3  A    between atoms: C_15  and  C_16 
REMARK    4  A    between atoms: C_16  and  C_17 
REMARK    5  A    between atoms: C_17  and  N_18 
REMARK    6  A    between atoms: N_21  and  C_22 
ROOT
ATOM      1  C   UNL d   1       8.292   5.943 -11.902  0.00  0.00     0.037 C 
ENDROOT
BRANCH   1   2
ATOM      2  C   UNL d   1       8.421   5.213 -13.232  0.00  0.00     0.027 C 
BRANCH   2   3
ATOM      3  C   UNL d   1       8.366   3.680 -13.117  0.00  0.00     0.112 C 
BRANCH   3   4
ATOM      4  N   UNL d   1       8.631   3.007 -14.387  0.00  0.00    -0.271 N 
ATOM      5  C   UNL d   1       9.761   3.153 -15.103  0.00  0.00     0.239 C 
ATOM      6  O   UNL d   1      10.697   3.924 -14.892  0.00  0.00    -0.272 OA
ATOM      7  C   UNL d   1       9.789   2.119 -16.198  0.00  0.00     0.091 C 
ATOM      8  C   UNL d   1       8.318   1.766 -16.324  0.00  0.00     0.091 C 
ATOM      9  C   UNL d   1      10.368   2.422 -17.581  0.00  0.00     0.045 C 
ATOM     10  C   UNL d   1       8.187   0.389 -16.974  0.00  0.00     0.045 C 
ATOM     11  C   UNL d   1       7.812   2.085 -14.934  0.00  0.00     0.239 C 
ATOM     12  C   UNL d   1       8.818   0.491 -18.394  0.00  0.00     0.183 C 
ATOM     13  C   UNL d   1      10.248   1.126 -18.422  0.00  0.00     0.183 C 
ATOM     14  O   UNL d   1       7.966   1.275 -19.213  0.00  0.00    -0.221 OA
ATOM     15  O   UNL d   1      11.179   0.182 -17.935  0.00  0.00    -0.221 OA
ATOM     16  O   UNL d   1       6.785   1.617 -14.449  0.00  0.00    -0.272 OA
ENDBRANCH   3   4
ENDBRANCH   2   3
ENDBRANCH   1   2
BRANCH   1  17
ATOM     17  C   UNL d   1       9.366   5.522 -10.898  0.00  0.00     0.251 C 
BRANCH  17  18
ATOM     18  N   UNL d   1       9.141   6.142  -9.607  0.00  0.00     0.141 N 
ATOM     19  C   UNL d   1       9.535   7.560  -9.674  0.00  0.00     0.274 C 
ATOM     20  C   UNL d   1       9.296   8.210  -8.299  0.00  0.00     0.137 C 
ATOM     21  N   UNL d   1      10.114   7.523  -7.299  0.00  0.00    -0.344 N 
ATOM     22  C   UNL d   1       9.917   6.083  -7.262  0.00  0.00     0.137 C 
ATOM     23  C   UNL d   1      10.048   5.484  -8.666  0.00  0.00     0.274 C 
BRANCH  21  24
ATOM     24  C   UNL d   1      10.960   8.180  -6.407  0.00  0.00     0.057 A 
ATOM     25  C   UNL d   1      11.327   7.675  -5.118  0.00  0.00     0.022 A 
ATOM     26  C   UNL d   1      12.227   8.425  -4.318  0.00  0.00     0.031 A 
ATOM     27  C   UNL d   1      10.940   6.500  -4.404  0.00  0.00     0.009 A 
ATOM     28  C   UNL d   1      12.787   9.589  -4.779  0.00  0.00     0.007 A 
ATOM     29  S   UNL d   1      12.484   7.750  -2.727  0.00  0.00    -0.086 SA
ATOM     30  C   UNL d   1      12.380  10.101  -6.011  0.00  0.00     0.002 A 
ATOM     31  C   UNL d   1      11.515   9.407  -6.839  0.00  0.00     0.017 A 
ATOM     32  C   UNL d   1      11.491   6.423  -3.152  0.00  0.00     0.035 A 
ENDBRANCH  21  24
ENDBRANCH  17  18
ENDBRANCH   1  17
TORSDOF 6
