REMARK  8 active torsions:
REMARK  status: ('A' for Active; 'I' for Inactive)
REMARK    1  A    between atoms: O_2  and  C_3 
REMARK    2  A    between atoms: C_8  and  N_9 
REMARK    3  A    between atoms: N_12  and  C_13 
REMARK    4  A    between atoms: C_13  and  C_14 
REMARK    5  A    between atoms: C_14  and  C_16 
REMARK    6  A    between atoms: C_16  and  C_17 
REMARK    7  A    between atoms: C_17  and  N_18 
REMARK       I    between atoms: N_18  and  C_19 
REMARK    8  A    between atoms: C_19  and  C_21 
ROOT
ATOM      1  C   UNL d   1       9.131   7.104 -11.864  0.00  0.00     0.188 C 
ATOM      2  O   UNL d   1       8.249   8.149 -12.213  0.00  0.00    -0.221 OA
ENDROOT
BRANCH   1   3
ATOM      3  C   UNL d   1       8.317   5.838 -11.542  0.00  0.00     0.283 C 
BRANCH   3   4
ATOM      4  N   UNL d   1       7.793   5.171 -12.711  0.00  0.00     0.144 N 
ATOM      5  C   UNL d   1       8.654   4.040 -13.074  0.00  0.00     0.274 C 
ATOM      6  C   UNL d   1       8.163   3.298 -14.308  0.00  0.00     0.137 C 
ATOM      7  N   UNL d   1       6.761   2.929 -14.119  0.00  0.00    -0.343 N 
ATOM      8  C   UNL d   1       5.847   3.976 -13.663  0.00  0.00     0.137 C 
ATOM      9  C   UNL d   1       6.439   4.690 -12.451  0.00  0.00     0.274 C 
BRANCH   7  10
ATOM     10  C   UNL d   1       6.298   1.614 -14.364  0.00  0.00     0.079 A 
ATOM     11  C   UNL d   1       6.785   0.855 -15.450  0.00  0.00     0.110 A 
ATOM     12  C   UNL d   1       6.258  -0.452 -15.662  0.00  0.00     0.026 A 
ATOM     13  C   UNL d   1       5.256  -0.968 -14.828  0.00  0.00     0.002 A 
ATOM     14  C   UNL d   1       4.748  -0.181 -13.789  0.00  0.00     0.002 A 
ATOM     15  C   UNL d   1       5.299   1.089 -13.529  0.00  0.00     0.019 A 
BRANCH  11  16
ATOM     16  O   UNL d   1       7.714   1.416 -16.301  0.00  0.00    -0.327 OA
ATOM     17  C   UNL d   1       8.326   0.608 -17.287  0.00  0.00     0.181 C 
ENDBRANCH  11  16
ENDBRANCH   7  10
ENDBRANCH   3   4
ENDBRANCH   1   3
BRANCH   1  18
ATOM     18  C   UNL d   1       9.831   7.650 -10.624  0.00  0.00     0.061 C 
BRANCH  18  19
ATOM     19  C   UNL d   1      10.601   6.668  -9.706  0.00  0.00     0.132 C 
BRANCH  19  20
ATOM     20  N   UNL d   1      10.839   7.079  -8.333  0.00  0.00    -0.234 NA
ATOM     21  C   UNL d   1      10.663   8.272  -7.777  0.00  0.00     0.275 C 
ATOM     22  O   UNL d   1      10.233   9.244  -8.377  0.00  0.00    -0.266 OA
BRANCH  21  23
ATOM     23  C   UNL d   1      11.061   8.427  -6.348  0.00  0.00     0.059 A 
ATOM     24  C   UNL d   1      11.445   7.315  -5.569  0.00  0.00     0.024 A 
ATOM     25  C   UNL d   1      11.861   7.499  -4.243  0.00  0.00     0.082 A 
ATOM     26  C   UNL d   1      11.843   8.810  -3.703  0.00  0.00     0.018 A 
ATOM     27  N   UNL d   1      12.231   6.432  -3.524  0.00  0.00    -0.244 NA
ATOM     28  C   UNL d   1      11.442   9.909  -4.463  0.00  0.00     0.002 A 
ATOM     29  C   UNL d   1      12.222   9.013  -2.374  0.00  0.00     0.003 A 
ATOM     30  C   UNL d   1      11.060   9.718  -5.792  0.00  0.00     0.005 A 
ATOM     31  C   UNL d   1      12.580   7.892  -1.639  0.00  0.00     0.021 A 
ATOM     32  C   UNL d   1      12.571   6.625  -2.248  0.00  0.00     0.099 A 
ENDBRANCH  21  23
ENDBRANCH  19  20
ENDBRANCH  18  19
ENDBRANCH   1  18
TORSDOF 8
