REMARK  9 active torsions:
REMARK  status: ('A' for Active; 'I' for Inactive)
REMARK       I    between atoms: C_2  and  N_3 
REMARK    1  A    between atoms: C_2  and  C_28 
REMARK    2  A    between atoms: N_3  and  C_4 
REMARK    3  A    between atoms: C_4  and  C_5 
REMARK    4  A    between atoms: C_5  and  C_6 
REMARK    5  A    between atoms: C_6  and  C_7 
REMARK    6  A    between atoms: C_7  and  N_8 
REMARK    7  A    between atoms: N_11  and  C_12 
REMARK    8  A    between atoms: C_12  and  C_13 
REMARK    9  A    between atoms: C_12  and  C_19 
ROOT
ATOM      1  N   UNL d   1       7.200   4.226 -12.822  0.00  0.00     0.141 N 
ATOM      2  C   UNL d   1       8.266   4.299 -13.818  0.00  0.00     0.285 C 
ATOM      3  C   UNL d   1       8.593   2.901 -14.393  0.00  0.00     0.286 C 
ATOM      4  N   UNL d   1       7.431   2.289 -15.033  0.00  0.00     0.147 N 
ATOM      5  C   UNL d   1       6.365   2.212 -14.030  0.00  0.00     0.286 C 
ATOM      6  C   UNL d   1       6.030   3.598 -13.426  0.00  0.00     0.285 C 
ENDROOT
BRANCH   4   7
ATOM      7  C   UNL d   1       7.766   0.967 -15.601  0.00  0.00     0.264 C 
BRANCH   7   8
ATOM      8  C   UNL d   1       6.557   0.264 -16.231  0.00  0.00     0.013 A 
ATOM      9  C   UNL d   1       5.892  -0.761 -15.520  0.00  0.00    -0.002 A 
ATOM     10  C   UNL d   1       4.800  -1.442 -16.101  0.00  0.00    -0.000 A 
ATOM     11  C   UNL d   1       4.364  -1.097 -17.393  0.00  0.00    -0.000 A 
ATOM     12  C   UNL d   1       5.009  -0.067 -18.102  0.00  0.00    -0.000 A 
ATOM     13  C   UNL d   1       6.095   0.617 -17.519  0.00  0.00    -0.002 A 
ENDBRANCH   7   8
BRANCH   7  14
ATOM     14  C   UNL d   1       8.917   1.019 -16.613  0.00  0.00     0.013 A 
ATOM     15  C   UNL d   1       9.866  -0.024 -16.642  0.00  0.00    -0.001 A 
ATOM     16  C   UNL d   1      10.909  -0.012 -17.593  0.00  0.00     0.011 A 
ATOM     17  C   UNL d   1      11.024   1.054 -18.503  0.00  0.00     0.058 A 
ATOM     18  C   UNL d   1      10.090   2.105 -18.478  0.00  0.00     0.011 A 
ATOM     19 CL   UNL d   1      12.314   1.058 -19.649  0.00  0.00    -0.082 Cl
ATOM     20  C   UNL d   1       9.040   2.087 -17.535  0.00  0.00    -0.001 A 
ENDBRANCH   7  14
ENDBRANCH   4   7
BRANCH   1  21
ATOM     21  C   UNL d   1       6.876   5.545 -12.269  0.00  0.00     0.251 C 
BRANCH  21  22
ATOM     22  C   UNL d   1       8.066   6.470 -11.956  0.00  0.00     0.037 C 
BRANCH  22  23
ATOM     23  C   UNL d   1       8.660   6.255 -10.562  0.00  0.00     0.029 C 
BRANCH  23  24
ATOM     24  C   UNL d   1       9.804   7.237 -10.278  0.00  0.00     0.129 C 
BRANCH  24  25
ATOM     25  N   UNL d   1      10.137   7.266  -8.863  0.00  0.00    -0.234 NA
ATOM     26  C   UNL d   1      10.753   8.281  -8.250  0.00  0.00     0.281 C 
ATOM     27  O   UNL d   1      11.063   9.319  -8.839  0.00  0.00    -0.265 OA
BRANCH  26  28
ATOM     28  C   UNL d   1      11.050   8.105  -6.810  0.00  0.00     0.087 A 
ATOM     29  S   UNL d   1      11.576   9.494  -5.884  0.00  0.00    -0.082 SA
ATOM     30  C   UNL d   1      11.770   8.518  -4.449  0.00  0.00     0.036 A 
ATOM     31  C   UNL d   1      11.460   7.204  -4.690  0.00  0.00     0.008 A 
ATOM     32  C   UNL d   1      11.040   6.973  -6.032  0.00  0.00     0.012 A 
ENDBRANCH  26  28
ENDBRANCH  24  25
ENDBRANCH  23  24
ENDBRANCH  22  23
ENDBRANCH  21  22
ENDBRANCH   1  21
TORSDOF 9
