REMARK  8 active torsions:
REMARK  status: ('A' for Active; 'I' for Inactive)
REMARK    1  A    between atoms: N_13  and  C_14 
REMARK    2  A    between atoms: C_14  and  C_15 
REMARK    3  A    between atoms: C_15  and  C_16 
REMARK    4  A    between atoms: C_16  and  C_17 
REMARK    5  A    between atoms: C_17  and  C_18 
REMARK    6  A    between atoms: C_18  and  C_19 
REMARK    7  A    between atoms: C_19  and  N_20 
REMARK    8  A    between atoms: N_23  and  C_24 
ROOT
ATOM      1  C   UNL d   1      11.745   8.388 -21.357  0.00  0.00     0.002 C 
ENDROOT
BRANCH   1   2
ATOM      2  C   UNL d   1      12.977   8.427 -20.428  0.00  0.00     0.025 C 
BRANCH   2   3
ATOM      3  C   UNL d   1      14.195   7.682 -20.998  0.00  0.00     0.109 C 
BRANCH   3   4
ATOM      4  N   UNL d   1      15.210   7.444 -19.975  0.00  0.00    -0.296 N 
ATOM      5  C   UNL d   1      15.205   6.449 -19.054  0.00  0.00     0.261 A 
ATOM      6  O   UNL d   1      14.370   5.559 -18.872  0.00  0.00    -0.267 OA
ATOM      7  C   UNL d   1      16.457   6.646 -18.275  0.00  0.00     0.058 A 
ATOM      8  C   UNL d   1      17.145   7.732 -18.773  0.00  0.00     0.021 A 
ATOM      9  C   UNL d   1      17.009   5.959 -17.185  0.00  0.00     0.005 A 
ATOM     10  C   UNL d   1      18.361   8.231 -18.310  0.00  0.00     0.002 A 
ATOM     11  C   UNL d   1      16.381   8.229 -19.813  0.00  0.00     0.063 A 
ATOM     12  C   UNL d   1      18.915   7.527 -17.216  0.00  0.00     0.000 A 
ATOM     13  C   UNL d   1      18.848   9.363 -18.987  0.00  0.00     0.000 A 
ATOM     14  C   UNL d   1      18.253   6.404 -16.662  0.00  0.00     0.000 A 
ATOM     15  C   UNL d   1      18.112   9.924 -20.067  0.00  0.00     0.002 A 
ATOM     16  C   UNL d   1      16.879   9.366 -20.487  0.00  0.00     0.017 A 
ENDBRANCH   3   4
ENDBRANCH   2   3
ENDBRANCH   1   2
BRANCH   1  17
ATOM     17  C   UNL d   1      10.466   8.278 -20.520  0.00  0.00     0.002 C 
BRANCH  17  18
ATOM     18  C   UNL d   1       9.218   7.926 -21.376  0.00  0.00     0.035 C 
BRANCH  18  19
ATOM     19  C   UNL d   1       8.505   6.589 -21.063  0.00  0.00     0.250 C 
BRANCH  19  20
ATOM     20  N   UNL d   1       9.308   5.692 -20.233  0.00  0.00     0.141 N 
ATOM     21  C   UNL d   1       9.133   6.028 -18.813  0.00  0.00     0.275 C 
ATOM     22  C   UNL d   1      10.085   5.161 -17.974  0.00  0.00     0.155 C 
ATOM     23  N   UNL d   1       9.785   3.746 -18.191  0.00  0.00    -0.179 N 
ATOM     24  C   UNL d   1       9.807   3.359 -19.603  0.00  0.00     0.155 C 
ATOM     25  C   UNL d   1       8.922   4.302 -20.437  0.00  0.00     0.275 C 
BRANCH  23  26
ATOM     26  C   UNL d   1       9.471   2.865 -17.156  0.00  0.00     0.727 A 
ATOM     27  N   UNL d   1       8.977   1.673 -17.502  0.00  0.00    -0.060 NA
ATOM     28  C   UNL d   1       8.679   0.809 -16.509  0.00  0.00     0.120 A 
ATOM     29  C   UNL d   1       8.873   1.142 -15.157  0.00  0.00     0.043 A 
ATOM     30  C   UNL d   1       9.392   2.424 -14.901  0.00  0.00     0.120 A 
ATOM     31  N   UNL d   1       9.686   3.278 -15.904  0.00  0.00    -0.060 NA
ENDBRANCH  23  26
ENDBRANCH  19  20
ENDBRANCH  18  19
ENDBRANCH  17  18
ENDBRANCH   1  17
TORSDOF 8
