REMARK  1 active torsions:
REMARK  status: ('A' for Active; 'I' for Inactive)
REMARK    1  A    between atoms: C_2  and  C_4 
ROOT
ATOM      1  C   UNL d   1      11.211   8.196  -6.268  0.00  0.00     0.035 C 
ATOM      2  C   UNL d   1      11.515   6.728  -6.755  0.00  0.00     0.002 C 
ATOM      3  C   UNL d   1      10.760   6.415  -8.059  0.00  0.00     0.000 C 
ATOM      4  C   UNL d   1       9.250   6.530  -7.834  0.00  0.00     0.000 C 
ATOM      5  C   UNL d   1       8.928   7.960  -7.397  0.00  0.00     0.000 C 
ATOM      6  C   UNL d   1       9.380   8.949  -8.472  0.00  0.00     0.000 C 
ATOM      7  C   UNL d   1      10.885   8.849  -8.706  0.00  0.00     0.000 C 
ATOM      8  C   UNL d   1      11.209   7.407  -9.151  0.00  0.00     0.000 C 
ATOM      9  C   UNL d   1      11.631   9.178  -7.401  0.00  0.00     0.002 C 
ATOM     10  C   UNL d   1       9.677   8.277  -6.097  0.00  0.00     0.002 C 
ENDROOT
BRANCH   1  11
ATOM     11  C   UNL d   1      11.947   8.594  -4.930  0.00  0.00     0.302 C 
ATOM     12  C   UNL d   1      11.403   9.831  -4.190  0.00  0.00     0.041 C 
ATOM     13  N   UNL d   1      11.937   7.494  -3.985  0.00  0.00     0.616 N 
ENDBRANCH   1  11
TORSDOF 1
