REMARK  2 active torsions:
REMARK  status: ('A' for Active; 'I' for Inactive)
REMARK    1  A    between atoms: N_5  and  C_6 
REMARK    2  A    between atoms: C_18  and  C_19 
ROOT
ATOM      1  C   UNL d   1       7.430   3.435 -14.043  0.00  0.00     0.246 C 
ATOM      2  C   UNL d   1       6.952   4.155 -12.742  0.00  0.00     0.065 C 
ATOM      3  C   UNL d   1       7.435   5.565 -12.548  0.00  0.00    -0.014 A 
ATOM      4  C   UNL d   1       6.547   6.652 -12.632  0.00  0.00    -0.004 A 
ATOM      5  C   UNL d   1       7.036   7.955 -12.450  0.00  0.00    -0.000 A 
ATOM      6  C   UNL d   1       8.392   8.172 -12.119  0.00  0.00     0.001 A 
ATOM      7  C   UNL d   1       9.258   7.077 -11.944  0.00  0.00     0.006 A 
ATOM      8  C   UNL d   1       8.771   5.779 -12.180  0.00  0.00     0.025 A 
ATOM      9  S   UNL d   1       9.811   4.389 -12.035  0.00  0.00    -0.087 SA
ATOM     10  C   UNL d   1       9.991   4.029 -13.738  0.00  0.00     0.027 A 
ATOM     11  C   UNL d   1      11.290   4.110 -14.278  0.00  0.00     0.006 A 
ATOM     12  C   UNL d   1      11.521   3.846 -15.635  0.00  0.00     0.001 A 
ATOM     13  C   UNL d   1      10.425   3.507 -16.470  0.00  0.00    -0.000 A 
ATOM     14  C   UNL d   1       9.139   3.444 -15.915  0.00  0.00    -0.002 A 
ATOM     15  C   UNL d   1       8.878   3.667 -14.550  0.00  0.00     0.015 A 
ENDROOT
BRANCH   1  16
ATOM     16  N   UNL d   1       7.117   1.988 -14.040  0.00  0.00     0.144 N 
ATOM     17  C   UNL d   1       7.051   1.392 -15.393  0.00  0.00     0.286 C 
ATOM     18  C   UNL d   1       6.733  -0.105 -15.324  0.00  0.00     0.286 C 
ATOM     19  N   UNL d   1       5.487  -0.378 -14.614  0.00  0.00     0.143 N 
ATOM     20  C   UNL d   1       5.228  -1.805 -14.563  0.00  0.00     0.285 C 
ATOM     21  C   UNL d   1       5.570   0.187 -13.271  0.00  0.00     0.286 C 
ATOM     22  C   UNL d   1       5.858   1.681 -13.340  0.00  0.00     0.286 C 
ENDBRANCH   1  16
BRANCH  13  23
ATOM     23  C   UNL d   1      10.632   3.186 -17.890  0.00  0.00    -0.000 A 
ATOM     24  C   UNL d   1      11.765   2.463 -18.320  0.00  0.00    -0.000 A 
ATOM     25  C   UNL d   1      11.958   2.171 -19.685  0.00  0.00    -0.000 A 
ATOM     26  C   UNL d   1      11.004   2.590 -20.634  0.00  0.00     0.000 A 
ATOM     27  C   UNL d   1       9.854   3.284 -20.216  0.00  0.00    -0.000 A 
ATOM     28  C   UNL d   1       9.671   3.577 -18.853  0.00  0.00    -0.000 A 
ENDBRANCH  13  23
TORSDOF 2
