REMARK  4 active torsions:
REMARK  status: ('A' for Active; 'I' for Inactive)
REMARK    1  A    between atoms: C_8  and  C_9 
REMARK    2  A    between atoms: C_9  and  C_10 
REMARK    3  A    between atoms: C_10  and  N_11 
REMARK    4  A    between atoms: N_14  and  C_15 
ROOT
ATOM      1  N   UNL d   1       9.076   6.267 -10.032  0.00  0.00     0.141 N 
ATOM      2  C   UNL d   1       9.110   5.854  -8.624  0.00  0.00     0.274 C 
ATOM      3  C   UNL d   1       8.827   7.069  -7.698  0.00  0.00     0.138 C 
ATOM      4  N   UNL d   1       9.853   8.075  -7.980  0.00  0.00    -0.330 N 
ATOM      5  C   UNL d   1       9.943   8.510  -9.375  0.00  0.00     0.138 C 
ATOM      6  C   UNL d   1      10.120   7.273 -10.279  0.00  0.00     0.274 C 
ENDROOT
BRANCH   1   7
ATOM      7  C   UNL d   1       9.219   5.126 -10.922  0.00  0.00     0.255 C 
BRANCH   7   8
ATOM      8  C   UNL d   1       8.792   5.474 -12.360  0.00  0.00     0.068 C 
BRANCH   8   9
ATOM      9  C   UNL d   1       8.809   4.276 -13.302  0.00  0.00     0.050 A 
ATOM     10  C   UNL d   1       7.694   3.568 -13.621  0.00  0.00     0.061 A 
ATOM     11  C   UNL d   1       6.325   3.860 -13.027  0.00  0.00     0.052 C 
ATOM     12  N   UNL d   1       7.742   2.501 -14.520  0.00  0.00    -0.234 NA
ATOM     13  C   UNL d   1       8.872   2.184 -15.065  0.00  0.00     0.153 A 
ATOM     14  C   UNL d   1       8.969   1.063 -16.104  0.00  0.00     0.208 C 
ATOM     15  N   UNL d   1      10.077   2.868 -14.785  0.00  0.00    -0.283 N 
ATOM     16  C   UNL d   1       9.841   1.422 -17.322  0.00  0.00     0.043 C 
ATOM     17  O   UNL d   1       9.467  -0.114 -15.502  0.00  0.00    -0.215 OA
ATOM     18  C   UNL d   1      11.114   2.209 -16.969  0.00  0.00     0.028 C 
ATOM     19  C   UNL d   1      11.307   2.396 -15.454  0.00  0.00     0.111 C 
ATOM     20  C   UNL d   1      10.105   3.916 -13.908  0.00  0.00     0.259 A 
ATOM     21  O   UNL d   1      11.146   4.522 -13.642  0.00  0.00    -0.267 OA
ENDBRANCH   8   9
ENDBRANCH   7   8
ENDBRANCH   1   7
BRANCH   4  22
ATOM     22  C   UNL d   1      10.682   8.624  -6.983  0.00  0.00     0.144 A 
ATOM     23  C   UNL d   1      11.079   7.987  -5.763  0.00  0.00     0.058 A 
ATOM     24  C   UNL d   1      11.892   8.766  -4.894  0.00  0.00     0.115 A 
ATOM     25  C   UNL d   1      10.882   6.682  -5.215  0.00  0.00     0.012 A 
ATOM     26  N   UNL d   1      12.352   9.982  -5.164  0.00  0.00    -0.217 NA
ATOM     27  S   UNL d   1      12.295   7.956  -3.393  0.00  0.00    -0.067 SA
ATOM     28  C   UNL d   1      11.935  10.437  -6.333  0.00  0.00     0.201 A 
ATOM     29  N   UNL d   1      11.157   9.854  -7.220  0.00  0.00    -0.207 NA
ATOM     30  C   UNL d   1      11.480   6.546  -3.980  0.00  0.00     0.037 A 
ENDBRANCH   4  22
TORSDOF 4
