REMARK  10 active torsions:
REMARK  status: ('A' for Active; 'I' for Inactive)
REMARK       I    between atoms: C_2  and  N_3 
REMARK    1  A    between atoms: C_2  and  C_26 
REMARK    2  A    between atoms: N_3  and  C_4 
REMARK    3  A    between atoms: C_4  and  C_5 
REMARK    4  A    between atoms: C_5  and  C_6 
REMARK    5  A    between atoms: C_6  and  C_7 
REMARK    6  A    between atoms: C_7  and  N_8 
REMARK    7  A    between atoms: C_14  and  O_15 
REMARK    8  A    between atoms: O_15  and  S_16 
REMARK    9  A    between atoms: S_16  and  C_19 
REMARK   10  A    between atoms: C_29  and  C_30 
ROOT
ATOM      1  C   UNL d   1       9.121   3.663 -13.574  0.00  0.00     0.251 C 
ENDROOT
BRANCH   1   2
ATOM      2  C   UNL d   1       9.063   5.189 -13.405  0.00  0.00     0.037 C 
BRANCH   2   3
ATOM      3  C   UNL d   1       9.258   5.628 -11.952  0.00  0.00     0.029 C 
BRANCH   3   4
ATOM      4  C   UNL d   1       9.147   7.147 -11.737  0.00  0.00     0.129 C 
BRANCH   4   5
ATOM      5  N   UNL d   1       9.477   7.441 -10.353  0.00  0.00    -0.234 NA
ATOM      6  C   UNL d   1      10.527   8.134  -9.901  0.00  0.00     0.275 C 
ATOM      7  O   UNL d   1      11.304   8.778 -10.593  0.00  0.00    -0.266 OA
BRANCH   6   8
ATOM      8  C   UNL d   1      10.749   8.116  -8.444  0.00  0.00     0.058 A 
ATOM      9  C   UNL d   1      11.225   9.267  -7.817  0.00  0.00     0.005 A 
ATOM     10  C   UNL d   1      11.568   9.280  -6.467  0.00  0.00     0.000 A 
ATOM     11  C   UNL d   1      11.427   8.093  -5.715  0.00  0.00     0.000 A 
ATOM     12  C   UNL d   1      10.961   6.923  -6.368  0.00  0.00     0.000 A 
ATOM     13  C   UNL d   1      10.634   6.923  -7.728  0.00  0.00     0.005 A 
BRANCH  11  14
ATOM     14  C   UNL d   1      11.814   8.053  -4.303  0.00  0.00     0.000 A 
ATOM     15  C   UNL d   1      12.138   6.827  -3.681  0.00  0.00     0.000 A 
ATOM     16  C   UNL d   1      12.526   6.785  -2.343  0.00  0.00     0.000 A 
ATOM     17  C   UNL d   1      12.629   7.983  -1.633  0.00  0.00     0.000 A 
ATOM     18  C   UNL d   1      12.256   9.194  -2.206  0.00  0.00     0.000 A 
ATOM     19  C   UNL d   1      11.840   9.248  -3.534  0.00  0.00     0.000 A 
ENDBRANCH  11  14
ENDBRANCH   6   8
ENDBRANCH   4   5
ENDBRANCH   3   4
ENDBRANCH   2   3
ENDBRANCH   1   2
BRANCH   1  20
ATOM     20  N   UNL d   1       8.741   3.280 -14.934  0.00  0.00     0.142 N 
ATOM     21  C   UNL d   1       8.354   1.868 -14.955  0.00  0.00     0.277 C 
ATOM     22  C   UNL d   1       8.030   1.331 -16.345  0.00  0.00     0.009 A 
ATOM     23  C   UNL d   1       8.545   1.980 -17.488  0.00  0.00    -0.022 A 
ATOM     24  C   UNL d   1       7.261   0.157 -16.494  0.00  0.00     0.023 A 
ATOM     25  C   UNL d   1       9.345   3.258 -17.324  0.00  0.00     0.061 C 
ATOM     26  C   UNL d   1       8.300   1.456 -18.772  0.00  0.00    -0.002 A 
ATOM     27  C   UNL d   1       9.841   3.476 -15.880  0.00  0.00     0.255 C 
ATOM     28  C   UNL d   1       7.536   0.284 -18.916  0.00  0.00     0.025 A 
ATOM     29  C   UNL d   1       7.004  -0.359 -17.783  0.00  0.00     0.113 A 
BRANCH  29  30
ATOM     30  O   UNL d   1       6.260  -1.490 -17.953  0.00  0.00    -0.224 OA
BRANCH  30  31
ATOM     31  S   UNL d   1       4.589  -1.287 -18.099  0.00  0.00     0.374 S 
ATOM     32  O   UNL d   1       4.032  -1.312 -16.744  0.00  0.00    -0.189 OA
ATOM     33  O   UNL d   1       4.358  -0.125 -18.986  0.00  0.00    -0.189 OA
BRANCH  31  34
ATOM     34  C   UNL d   1       4.192  -2.835 -19.042  0.00  0.00     0.524 C 
ATOM     35  F   UNL d   1       3.179  -3.468 -18.453  0.00  0.00    -0.155 F 
ATOM     36  F   UNL d   1       3.862  -2.512 -20.291  0.00  0.00    -0.155 F 
ATOM     37  F   UNL d   1       5.262  -3.630 -19.061  0.00  0.00    -0.155 F 
ENDBRANCH  31  34
ENDBRANCH  30  31
ENDBRANCH  29  30
ENDBRANCH   1  20
TORSDOF 10
