REMARK  4 active torsions:
REMARK  status: ('A' for Active; 'I' for Inactive)
REMARK    1  A    between atoms: O_2  and  C_3 
REMARK    2  A    between atoms: C_8  and  O_9 
REMARK    3  A    between atoms: O_9  and  C_10 
REMARK    4  A    between atoms: C_12  and  C_13 
ROOT
ATOM      1  C   UNL d   1       9.779  -0.545 -18.435  0.00  0.00     0.116 A 
ATOM      2  C   UNL d   1      10.972  -0.218 -17.772  0.00  0.00     0.026 A 
ATOM      3  C   UNL d   1      10.960   0.632 -16.651  0.00  0.00    -0.002 A 
ATOM      4  C   UNL d   1       9.734   1.151 -16.178  0.00  0.00    -0.020 A 
ATOM      5  C   UNL d   1       8.534   0.796 -16.822  0.00  0.00     0.031 A 
ATOM      6  C   UNL d   1       8.542  -0.066 -17.939  0.00  0.00     0.117 A 
ATOM      7  C   UNL d   1       7.240   1.395 -16.310  0.00  0.00     0.279 C 
ATOM      8  N   UNL d   1       7.346   1.857 -14.924  0.00  0.00     0.144 N 
ATOM      9  C   UNL d   1       6.064   2.404 -14.576  0.00  0.00     0.256 C 
ATOM     10  C   UNL d   1       5.963   2.820 -13.126  0.00  0.00     0.061 C 
ATOM     11  C   UNL d   1       7.139   3.697 -12.772  0.00  0.00    -0.020 A 
ATOM     12  C   UNL d   1       7.083   4.399 -11.561  0.00  0.00     0.022 A 
ATOM     13  C   UNL d   1       8.188   5.139 -11.143  0.00  0.00     0.119 A 
ATOM     14  C   UNL d   1       9.316   5.223 -11.922  0.00  0.00     0.119 A 
ATOM     15  C   UNL d   1       9.441   4.484 -13.118  0.00  0.00     0.024 A 
ATOM     16  C   UNL d   1       8.340   3.693 -13.534  0.00  0.00     0.007 A 
ATOM     17  C   UNL d   1       8.413   2.856 -14.811  0.00  0.00     0.246 C 
ATOM     18  C   UNL d   1       9.725   2.058 -14.952  0.00  0.00     0.064 C 
ATOM     19  O   UNL d   1      10.202   6.052 -11.314  0.00  0.00    -0.300 OA
ATOM     20  C   UNL d   1       9.627   6.431 -10.097  0.00  0.00     0.304 A 
ATOM     21  O   UNL d   1       8.374   5.819  -9.982  0.00  0.00    -0.300 OA
ENDROOT
BRANCH   6  22
ATOM     22  O   UNL d   1       7.358  -0.457 -18.549  0.00  0.00    -0.302 OA
BRANCH  22  23
ATOM     23  C   UNL d   1       6.793  -1.625 -18.027  0.00  0.00     0.274 C 
ATOM     24  C   UNL d   1       5.310  -1.636 -18.451  0.00  0.00     0.241 C 
ATOM     25  C   UNL d   1       4.681  -2.947 -17.934  0.00  0.00     0.220 C 
ATOM     26  O   UNL d   1       4.607  -0.607 -17.808  0.00  0.00    -0.215 OA
ATOM     27  C   UNL d   1       5.422  -4.167 -18.501  0.00  0.00     0.215 C 
ATOM     28  O   UNL d   1       3.359  -3.008 -18.415  0.00  0.00    -0.218 OA
ATOM     29  C   UNL d   1       6.905  -4.036 -18.113  0.00  0.00     0.184 C 
ATOM     30  O   UNL d   1       4.891  -5.359 -17.910  0.00  0.00    -0.218 OA
ATOM     31  O   UNL d   1       7.418  -2.765 -18.553  0.00  0.00    -0.326 OA
BRANCH  29  32
ATOM     32  C   UNL d   1       7.766  -5.157 -18.721  0.00  0.00     0.214 C 
ATOM     33  O   UNL d   1       7.508  -6.380 -18.084  0.00  0.00    -0.218 OA
ENDBRANCH  29  32
ENDBRANCH  22  23
ENDBRANCH   6  22
BRANCH   1  34
ATOM     34  O   UNL d   1       9.885  -1.367 -19.514  0.00  0.00    -0.326 OA
ATOM     35  C   UNL d   1       9.388  -0.848 -20.737  0.00  0.00     0.181 C 
ENDBRANCH   1  34
TORSDOF 4
