REMARK  8 active torsions:
REMARK  status: ('A' for Active; 'I' for Inactive)
REMARK    1  A    between atoms: O_2  and  C_3 
REMARK    2  A    between atoms: C_5  and  C_6 
REMARK    3  A    between atoms: C_7  and  C_8 
REMARK    4  A    between atoms: C_8  and  O_10 
REMARK    5  A    between atoms: O_10  and  C_11 
REMARK    6  A    between atoms: C_12  and  O_13 
REMARK    7  A    between atoms: C_36  and  O_37 
REMARK    8  A    between atoms: O_37  and  C_38 
ROOT
ATOM      1  C   UNL d   1       9.524   4.012 -15.016  0.00  0.00     0.123 A 
ATOM      2  C   UNL d   1      10.761   4.248 -15.652  0.00  0.00     0.117 A 
ATOM      3  C   UNL d   1      11.132   3.492 -16.784  0.00  0.00     0.026 A 
ATOM      4  C   UNL d   1      10.253   2.494 -17.270  0.00  0.00    -0.002 A 
ATOM      5  C   UNL d   1       9.029   2.240 -16.624  0.00  0.00    -0.020 A 
ATOM      6  C   UNL d   1       8.659   2.983 -15.474  0.00  0.00     0.032 A 
ATOM      7  C   UNL d   1       7.296   2.712 -14.783  0.00  0.00     0.279 C 
ATOM      8  N   UNL d   1       6.683   1.447 -15.135  0.00  0.00     0.144 N 
ATOM      9  C   UNL d   1       7.234   0.338 -14.383  0.00  0.00     0.256 C 
ATOM     10  C   UNL d   1       6.216  -0.809 -14.478  0.00  0.00     0.061 C 
ATOM     11  C   UNL d   1       5.726  -1.058 -15.909  0.00  0.00    -0.020 A 
ATOM     12  C   UNL d   1       5.109  -2.284 -16.232  0.00  0.00     0.022 A 
ATOM     13  C   UNL d   1       4.683  -2.478 -17.553  0.00  0.00     0.119 A 
ATOM     14  C   UNL d   1       4.783  -1.491 -18.512  0.00  0.00     0.119 A 
ATOM     15  C   UNL d   1       5.409  -0.268 -18.234  0.00  0.00     0.024 A 
ATOM     16  C   UNL d   1       5.905  -0.070 -16.918  0.00  0.00     0.007 A 
ATOM     17  C   UNL d   1       6.686   1.192 -16.588  0.00  0.00     0.246 C 
ATOM     18  C   UNL d   1       8.121   1.137 -17.162  0.00  0.00     0.064 C 
ATOM     19  O   UNL d   1       4.262  -1.948 -19.681  0.00  0.00    -0.300 OA
ATOM     20  C   UNL d   1       3.803  -3.252 -19.413  0.00  0.00     0.304 C 
ATOM     21  O   UNL d   1       4.171  -3.602 -18.113  0.00  0.00    -0.300 OA
ENDROOT
BRANCH   1  22
ATOM     22  O   UNL d   1       9.179   4.824 -13.958  0.00  0.00    -0.271 OA
BRANCH  22  23
ATOM     23  C   UNL d   1       9.510   4.417 -12.722  0.00  0.00     0.300 C 
ATOM     24  O   UNL d   1       9.863   3.280 -12.435  0.00  0.00    -0.259 OA
BRANCH  23  25
ATOM     25  C   UNL d   1       9.464   5.516 -11.740  0.00  0.00     0.069 C 
ATOM     26  C   UNL d   1       9.738   5.293 -10.437  0.00  0.00     0.005 C 
BRANCH  26  27
ATOM     27  C   UNL d   1       9.839   6.318  -9.392  0.00  0.00     0.002 A 
ATOM     28  C   UNL d   1       9.890   5.943  -8.040  0.00  0.00     0.026 A 
ATOM     29  C   UNL d   1      10.009   6.893  -7.010  0.00  0.00     0.117 A 
ATOM     30  C   UNL d   1      10.028   8.267  -7.334  0.00  0.00     0.125 A 
ATOM     31  C   UNL d   1       9.952   8.655  -8.704  0.00  0.00     0.027 A 
ATOM     32  C   UNL d   1       9.885   7.694  -9.723  0.00  0.00     0.002 A 
BRANCH  29  33
ATOM     33  O   UNL d   1       9.970   6.511  -5.690  0.00  0.00    -0.326 OA
ATOM     34  C   UNL d   1      11.174   6.547  -4.930  0.00  0.00     0.181 C 
ENDBRANCH  29  33
BRANCH  30  35
ATOM     35  O   UNL d   1      10.030   9.189  -6.334  0.00  0.00    -0.274 OA
BRANCH  35  36
ATOM     36  C   UNL d   1      11.157   9.794  -6.021  0.00  0.00     0.277 C 
ATOM     37  C   UNL d   1      10.986  10.699  -4.842  0.00  0.00     0.107 C 
ATOM     38  O   UNL d   1      12.248   9.677  -6.590  0.00  0.00    -0.264 OA
ENDBRANCH  35  36
ENDBRANCH  30  35
ENDBRANCH  26  27
ENDBRANCH  23  25
ENDBRANCH  22  23
ENDBRANCH   1  22
BRANCH   2  39
ATOM     39  O   UNL d   1      11.549   5.249 -15.116  0.00  0.00    -0.326 OA
ATOM     40  C   UNL d   1      12.724   5.631 -15.806  0.00  0.00     0.181 C 
ENDBRANCH   2  39
TORSDOF 8
