REMARK  3 active torsions:
REMARK  status: ('A' for Active; 'I' for Inactive)
REMARK    1  A    between atoms: C_7  and  N_8 
REMARK    2  A    between atoms: N_11  and  C_12 
REMARK    3  A    between atoms: C_12  and  C_13 
ROOT
ATOM      1  N   UNL d   1      10.200   7.583  -6.499  0.00  0.00    -0.344 N 
ATOM      2  C   UNL d   1       9.343   8.605  -7.084  0.00  0.00     0.137 C 
ATOM      3  C   UNL d   1       9.686   8.749  -8.584  0.00  0.00     0.275 C 
ATOM      4  N   UNL d   1       9.471   7.477  -9.269  0.00  0.00     0.149 N 
ATOM      5  C   UNL d   1      10.363   6.471  -8.714  0.00  0.00     0.275 C 
ATOM      6  C   UNL d   1      10.095   6.313  -7.212  0.00  0.00     0.137 C 
ENDROOT
BRANCH   4   7
ATOM      7  C   UNL d   1       9.713   7.632 -10.704  0.00  0.00     0.315 C 
BRANCH   7   8
ATOM      8  C   UNL d   1       9.146   6.512 -11.527  0.00  0.00     0.173 A 
ATOM      9  N   UNL d   1       7.815   6.387 -11.640  0.00  0.00    -0.227 NA
ATOM     10  C   UNL d   1       7.574   5.294 -12.456  0.00  0.00     0.100 A 
ATOM     11  C   UNL d   1       8.886   4.837 -12.797  0.00  0.00     0.100 A 
ATOM     12  C   UNL d   1       6.425   4.651 -12.950  0.00  0.00     0.021 A 
ATOM     13  N   UNL d   1       9.852   5.603 -12.189  0.00  0.00    -0.227 NA
ATOM     14  C   UNL d   1       9.018   3.735 -13.659  0.00  0.00     0.021 A 
ATOM     15  C   UNL d   1       7.871   3.089 -14.165  0.00  0.00     0.002 A 
ATOM     16  C   UNL d   1       6.581   3.546 -13.806  0.00  0.00     0.002 A 
ENDBRANCH   7   8
ENDBRANCH   4   7
BRANCH   1  17
ATOM     17  C   UNL d   1      11.071   7.788  -5.418  0.00  0.00     0.067 A 
ATOM     18  C   UNL d   1      11.857   8.945  -5.251  0.00  0.00     0.073 A 
ATOM     19 CL   UNL d   1      11.950  10.192  -6.430  0.00  0.00    -0.081 Cl
ATOM     20  C   UNL d   1      12.658   9.121  -4.096  0.00  0.00     0.013 A 
ATOM     21  C   UNL d   1      12.659   8.159  -3.063  0.00  0.00     0.001 A 
ATOM     22  C   UNL d   1      11.895   6.994  -3.219  0.00  0.00     0.002 A 
ATOM     23  C   UNL d   1      11.125   6.797  -4.399  0.00  0.00     0.018 A 
ENDBRANCH   1  17
TORSDOF 3
