REMARK  2 active torsions:
REMARK  status: ('A' for Active; 'I' for Inactive)
REMARK    1  A    between atoms: C_2  and  C_4 
REMARK    2  A    between atoms: C_8  and  C_9 
ROOT
ATOM      1  C   UNL d   1      11.076   8.115  -5.577  0.00  0.00     0.003 A 
ATOM      2  C   UNL d   1      10.261   6.969  -5.628  0.00  0.00    -0.002 A 
ATOM      3  C   UNL d   1       9.820   6.449  -6.852  0.00  0.00    -0.001 A 
ATOM      4  C   UNL d   1      10.269   6.996  -8.047  0.00  0.00    -0.002 A 
ATOM      5  C   UNL d   1      11.082   8.136  -8.028  0.00  0.00     0.003 A 
ATOM      6  C   UNL d   1      11.475   8.702  -6.796  0.00  0.00     0.123 A 
ATOM      7  O   UNL d   1      12.257   9.819  -6.768  0.00  0.00    -0.191 OA
ENDROOT
BRANCH   1   8
ATOM      8  C   UNL d   1      11.504   8.685  -4.216  0.00  0.00     0.024 C 
ATOM      9  C   UNL d   1      10.981  10.105  -3.986  0.00  0.00     0.005 C 
ATOM     10  C   UNL d   1      13.015   8.621  -3.973  0.00  0.00     0.005 C 
ENDBRANCH   1   8
BRANCH   5  11
ATOM     11  C   UNL d   1      11.484   8.742  -9.352  0.00  0.00     0.024 C 
ATOM     12  C   UNL d   1      10.275   8.879 -10.267  0.00  0.00     0.005 C 
ATOM     13  C   UNL d   1      12.629   7.963  -9.995  0.00  0.00     0.005 C 
ENDBRANCH   5  11
TORSDOF 2
