REMARK  7 active torsions:
REMARK  status: ('A' for Active; 'I' for Inactive)
REMARK    1  A    between atoms: C_3  and  O_4 
REMARK    2  A    between atoms: C_3  and  C_27 
REMARK    3  A    between atoms: O_4  and  C_5 
REMARK    4  A    between atoms: C_7  and  C_8 
REMARK    5  A    between atoms: C_8  and  O_9 
REMARK    6  A    between atoms: O_9  and  C_10 
REMARK    7  A    between atoms: C_12  and  C_13 
ROOT
ATOM      1  N   UNL d   1       7.592   2.025 -17.788  0.00  0.00    -0.193 NA
ATOM      2  C   UNL d   1       7.376   1.757 -16.682  0.00  0.00     0.108 C 
ATOM      3  C   UNL d   1       7.132   1.405 -15.267  0.00  0.00     0.230 C 
ENDROOT
BRANCH   3   4
ATOM      4  O   UNL d   1       8.314   0.878 -14.633  0.00  0.00    -0.312 OA
BRANCH   4   5
ATOM      5  C   UNL d   1       9.375   1.757 -14.384  0.00  0.00     0.271 C 
ATOM      6  C   UNL d   1      10.085   2.102 -15.717  0.00  0.00     0.241 C 
ATOM      7  C   UNL d   1      11.218   3.089 -15.473  0.00  0.00     0.220 C 
ATOM      8  O   UNL d   1      10.642   0.943 -16.286  0.00  0.00    -0.215 OA
ATOM      9  C   UNL d   1      10.635   4.315 -14.737  0.00  0.00     0.215 C 
ATOM     10  O   UNL d   1      11.631   3.549 -16.752  0.00  0.00    -0.218 OA
ATOM     11  C   UNL d   1       9.947   3.863 -13.431  0.00  0.00     0.180 C 
ATOM     12  O   UNL d   1      11.711   5.190 -14.455  0.00  0.00    -0.218 OA
ATOM     13  O   UNL d   1       8.918   2.931 -13.764  0.00  0.00    -0.326 OA
BRANCH  11  14
ATOM     14  C   UNL d   1       9.336   5.046 -12.648  0.00  0.00     0.177 C 
BRANCH  14  15
ATOM     15  O   UNL d   1       9.576   4.825 -11.257  0.00  0.00    -0.326 OA
BRANCH  15  16
ATOM     16  C   UNL d   1       9.478   5.963 -10.434  0.00  0.00     0.270 C 
ATOM     17  C   UNL d   1       9.368   5.521  -8.973  0.00  0.00     0.241 C 
ATOM     18  C   UNL d   1       9.206   6.765  -8.087  0.00  0.00     0.220 C 
ATOM     19  O   UNL d   1       8.252   4.649  -8.849  0.00  0.00    -0.215 OA
ATOM     20  C   UNL d   1      10.340   7.761  -8.343  0.00  0.00     0.215 C 
ATOM     21  O   UNL d   1       9.221   6.411  -6.718  0.00  0.00    -0.218 OA
ATOM     22  C   UNL d   1      10.445   8.076  -9.842  0.00  0.00     0.184 C 
ATOM     23  O   UNL d   1      10.137   8.955  -7.585  0.00  0.00    -0.218 OA
ATOM     24  O   UNL d   1      10.582   6.836 -10.546  0.00  0.00    -0.326 OA
BRANCH  22  25
ATOM     25  C   UNL d   1      11.670   8.954 -10.158  0.00  0.00     0.214 C 
ATOM     26  O   UNL d   1      12.884   8.381  -9.697  0.00  0.00    -0.218 OA
ENDBRANCH  22  25
ENDBRANCH  15  16
ENDBRANCH  14  15
ENDBRANCH  11  14
ENDBRANCH   4   5
ENDBRANCH   3   4
BRANCH   3  27
ATOM     27  C   UNL d   1       6.004   0.406 -15.267  0.00  0.00     0.019 A 
ATOM     28  C   UNL d   1       5.086   0.379 -14.204  0.00  0.00    -0.001 A 
ATOM     29  C   UNL d   1       3.975  -0.496 -14.256  0.00  0.00    -0.000 A 
ATOM     30  C   UNL d   1       3.807  -1.343 -15.368  0.00  0.00    -0.000 A 
ATOM     31  C   UNL d   1       4.727  -1.334 -16.427  0.00  0.00    -0.000 A 
ATOM     32  C   UNL d   1       5.825  -0.463 -16.374  0.00  0.00    -0.001 A 
ENDBRANCH   3  27
TORSDOF 7
