REMARK  4 active torsions:
REMARK  status: ('A' for Active; 'I' for Inactive)
REMARK    1  A    between atoms: C_5  and  SI_6 
REMARK    2  A    between atoms: SI_6  and  C_7 
REMARK    3  A    between atoms: C_16  and  N_17 
REMARK    4  A    between atoms: N_20  and  C_21 
ROOT
ATOM      1 SI   UNL d   1       8.802   4.415 -13.049  0.00  0.00     0.000 Si
ATOM      2  C   UNL d   1       8.249   6.141 -13.107  0.00  0.00     0.002 C 
ATOM      3  C   UNL d   1       8.185   6.653 -11.704  0.00  0.00     0.033 C 
ATOM      4  C   UNL d   1       9.353   6.060 -10.924  0.00  0.00     0.220 C 
ATOM      5  C   UNL d   1       9.307   4.546 -11.237  0.00  0.00     0.035 C 
ENDROOT
BRANCH   1   6
ATOM      6  C   UNL d   1       7.343   3.232 -13.345  0.00  0.00     0.000 A 
ATOM      7  C   UNL d   1       6.167   3.351 -12.560  0.00  0.00     0.002 A 
ATOM      8  C   UNL d   1       5.189   2.334 -12.649  0.00  0.00     0.030 A 
ATOM      9  C   UNL d   1       5.360   1.223 -13.492  0.00  0.00     0.140 A 
ATOM     10  F   UNL d   1       4.407   0.261 -13.595  0.00  0.00    -0.204 F 
ATOM     11  C   UNL d   1       6.529   1.097 -14.263  0.00  0.00     0.030 A 
ATOM     12  C   UNL d   1       7.526   2.074 -14.143  0.00  0.00     0.002 A 
ENDBRANCH   1   6
BRANCH   1  13
ATOM     13  C   UNL d   1      10.215   4.130 -14.255  0.00  0.00     0.000 A 
ATOM     14  C   UNL d   1      11.539   4.419 -13.882  0.00  0.00     0.002 A 
ATOM     15  C   UNL d   1      12.599   4.246 -14.794  0.00  0.00     0.030 A 
ATOM     16  C   UNL d   1      12.354   3.710 -16.069  0.00  0.00     0.140 A 
ATOM     17  C   UNL d   1      11.034   3.396 -16.438  0.00  0.00     0.030 A 
ATOM     18  F   UNL d   1      13.373   3.504 -16.941  0.00  0.00    -0.204 F 
ATOM     19  C   UNL d   1       9.969   3.673 -15.563  0.00  0.00     0.002 A 
ENDBRANCH   1  13
BRANCH   4  20
ATOM     20  N   UNL d   1       9.182   6.380  -9.491  0.00  0.00     0.143 N 
ATOM     21  C   UNL d   1      10.179   5.663  -8.734  0.00  0.00     0.295 C 
ATOM     22  C   UNL d   1      10.099   5.999  -7.254  0.00  0.00     0.084 C 
ATOM     23  N   UNL d   1      10.193   7.374  -6.977  0.00  0.00    -0.326 N 
ATOM     24  C   UNL d   1       9.281   8.162  -7.739  0.00  0.00     0.141 C 
ATOM     25  C   UNL d   1       9.525   7.799  -9.221  0.00  0.00     0.275 C 
BRANCH  23  26
ATOM     26  C   UNL d   1      11.044   7.800  -5.984  0.00  0.00     0.060 C 
ATOM     27  C   UNL d   1      11.338   7.021  -4.817  0.00  0.00     0.017 C 
ATOM     28  C   UNL d   1      12.167   7.576  -3.823  0.00  0.00     0.002 C 
ATOM     29  C   UNL d   1      12.692   8.877  -3.969  0.00  0.00     0.000 C 
ATOM     30  C   UNL d   1      12.496   9.539  -5.204  0.00  0.00     0.002 C 
ATOM     31  C   UNL d   1      11.671   9.027  -6.192  0.00  0.00     0.017 C 
ENDBRANCH  23  26
ENDBRANCH   4  20
TORSDOF 4
