REMARK  5 active torsions:
REMARK  status: ('A' for Active; 'I' for Inactive)
REMARK    1  A    between atoms: C_2  and  C_3 
REMARK       I    between atoms: C_2  and  N_12 
REMARK    2  A    between atoms: N_15  and  C_16 
REMARK    3  A    between atoms: C_16  and  C_17 
REMARK    4  A    between atoms: C_17  and  O_18 
REMARK    5  A    between atoms: O_18  and  C_19 
ROOT
ATOM      1  O   UNL d   1      10.774   9.530  -8.934  0.00  0.00    -0.266 OA
ATOM      2  C   UNL d   1      10.704   8.498  -8.275  0.00  0.00     0.275 C 
ATOM      3  N   UNL d   1      10.390   7.309  -8.862  0.00  0.00    -0.311 N 
ATOM      4  C   UNL d   1       9.889   6.100  -8.195  0.00  0.00     0.140 C 
ATOM      5  C   UNL d   1       8.669   5.553  -8.923  0.00  0.00     0.274 C 
ATOM      6  N   UNL d   1       8.991   5.257 -10.320  0.00  0.00     0.144 N 
ATOM      7  C   UNL d   1       9.390   6.504 -10.976  0.00  0.00     0.274 C 
ATOM      8  C   UNL d   1      10.626   7.099 -10.289  0.00  0.00     0.140 C 
ENDROOT
BRANCH   6   9
ATOM      9  C   UNL d   1       7.773   4.730 -10.931  0.00  0.00     0.283 C 
BRANCH   9  10
ATOM     10  C   UNL d   1       7.968   4.286 -12.392  0.00  0.00     0.184 C 
BRANCH  10  11
ATOM     11  O   UNL d   1       6.683   3.919 -12.875  0.00  0.00    -0.329 OA
BRANCH  11  12
ATOM     12  C   UNL d   1       6.630   2.781 -13.639  0.00  0.00     0.096 A 
ATOM     13  C   UNL d   1       5.627   1.833 -13.327  0.00  0.00     0.051 A 
ATOM     14  C   UNL d   1       5.596   0.644 -14.063  0.00  0.00     0.121 A 
ATOM     15  C   UNL d   1       6.496   0.407 -15.088  0.00  0.00     0.119 A 
ATOM     16  O   UNL d   1       4.742  -0.406 -13.952  0.00  0.00    -0.299 OA
ATOM     17  C   UNL d   1       7.496   1.331 -15.422  0.00  0.00     0.028 A 
ATOM     18  O   UNL d   1       6.219  -0.787 -15.657  0.00  0.00    -0.300 OA
ATOM     19  C   UNL d   1       7.555   2.533 -14.686  0.00  0.00     0.026 A 
ATOM     20  C   UNL d   1       5.141  -1.325 -14.935  0.00  0.00     0.304 A 
ENDBRANCH  11  12
ENDBRANCH  10  11
ENDBRANCH   9  10
ENDBRANCH   6   9
BRANCH   2  21
ATOM     21  C   UNL d   1      11.043   8.543  -6.828  0.00  0.00     0.137 A 
ATOM     22  N   UNL d   1      11.294   7.361  -6.154  0.00  0.00    -0.241 NA
ATOM     23  C   UNL d   1      11.587   7.578  -4.842  0.00  0.00     0.082 A 
ATOM     24  C   UNL d   1      11.577   8.989  -4.670  0.00  0.00     0.019 A 
ATOM     25  C   UNL d   1      11.870   6.694  -3.800  0.00  0.00     0.019 A 
ATOM     26  C   UNL d   1      11.226   9.584  -5.939  0.00  0.00     0.025 A 
ATOM     27  C   UNL d   1      11.864   9.464  -3.365  0.00  0.00     0.002 A 
ATOM     28  C   UNL d   1      12.171   8.578  -2.307  0.00  0.00     0.000 A 
ATOM     29  C   UNL d   1      12.157   7.184  -2.518  0.00  0.00     0.002 A 
ENDBRANCH   2  21
TORSDOF 5
