REMARK  5 active torsions:
REMARK  status: ('A' for Active; 'I' for Inactive)
REMARK    1  A    between atoms: C_2  and  N_3 
REMARK    2  A    between atoms: C_7  and  C_8 
REMARK    3  A    between atoms: C_8  and  N_9 
REMARK       I    between atoms: N_9  and  C_10 
REMARK    4  A    between atoms: C_10  and  C_12 
REMARK    5  A    between atoms: C_13  and  O_14 
ROOT
ATOM      1  N   UNL d   1       8.690   4.995 -11.259  0.00  0.00    -0.232 NA
ATOM      2  C   UNL d   1       9.072   5.210 -12.521  0.00  0.00     0.277 C 
ATOM      3  O   UNL d   1       9.464   6.306 -12.918  0.00  0.00    -0.266 OA
ENDROOT
BRANCH   2   4
ATOM      4  C   UNL d   1       9.004   4.029 -13.444  0.00  0.00     0.087 A 
ATOM      5  C   UNL d   1       7.778   3.347 -13.644  0.00  0.00     0.052 A 
ATOM      6  C   UNL d   1       7.750   2.194 -14.459  0.00  0.00     0.064 A 
ATOM      7 BR   UNL d   1       6.140   3.937 -12.847  0.00  0.00    -0.048 Br
ATOM      8  C   UNL d   1       8.919   1.755 -15.105  0.00  0.00     0.014 A 
ATOM      9 CL   UNL d   1       6.307   1.260 -14.638  0.00  0.00    -0.082 Cl
ATOM     10  C   UNL d   1      10.124   2.449 -14.936  0.00  0.00     0.025 A 
ATOM     11  C   UNL d   1      10.186   3.604 -14.110  0.00  0.00     0.099 A 
BRANCH  11  12
ATOM     12  O   UNL d   1      11.355   4.303 -13.902  0.00  0.00    -0.328 OA
ATOM     13  C   UNL d   1      12.387   4.188 -14.871  0.00  0.00     0.181 C 
ENDBRANCH  11  12
ENDBRANCH   2   4
BRANCH   1  14
ATOM     14  C   UNL d   1       8.556   6.100 -10.320  0.00  0.00     0.162 C 
BRANCH  14  15
ATOM     15  C   UNL d   1       9.852   6.329  -9.512  0.00  0.00     0.243 C 
ATOM     16  N   UNL d   1       9.861   7.573  -8.755  0.00  0.00     0.137 N 
ATOM     17  C   UNL d   1      10.923   7.427  -7.770  0.00  0.00     0.250 C 
ATOM     18  C   UNL d   1      10.748   6.002  -7.278  0.00  0.00     0.037 C 
ATOM     19  C   UNL d   1      10.050   5.266  -8.425  0.00  0.00     0.037 C 
BRANCH  16  20
ATOM     20  C   UNL d   1       9.988   8.796  -9.560  0.00  0.00     0.250 C 
ATOM     21  C   UNL d   1      11.391   8.977 -10.160  0.00  0.00     0.037 C 
ENDBRANCH  16  20
ENDBRANCH  14  15
ENDBRANCH   1  14
TORSDOF 5
