REMARK  7 active torsions:
REMARK  status: ('A' for Active; 'I' for Inactive)
REMARK       I    between atoms: C_2  and  N_3 
REMARK    1  A    between atoms: C_2  and  C_22 
REMARK    2  A    between atoms: N_3  and  C_4 
REMARK    3  A    between atoms: C_4  and  C_5 
REMARK    4  A    between atoms: C_5  and  C_6 
REMARK    5  A    between atoms: C_6  and  C_7 
REMARK    6  A    between atoms: C_7  and  N_8 
REMARK    7  A    between atoms: N_11  and  C_12 
ROOT
ATOM      1  C   UNL d   1       8.618   2.310 -14.902  0.00  0.00     0.129 C 
ENDROOT
BRANCH   1   2
ATOM      2  N   UNL d   1       8.452   1.117 -15.720  0.00  0.00    -0.237 NA
ATOM      3  C   UNL d   1       7.951   1.091 -16.965  0.00  0.00     0.259 C 
ATOM      4  O   UNL d   1       7.521   2.090 -17.546  0.00  0.00    -0.270 OA
BRANCH   3   5
ATOM      5  C   UNL d   1       7.944  -0.273 -17.663  0.00  0.00     0.125 A 
ATOM      6  C   UNL d   1       6.521  -0.779 -17.862  0.00  0.00    -0.009 A 
ATOM      7  C   UNL d   1       6.217  -0.932 -19.220  0.00  0.00    -0.004 A 
ATOM      8  C   UNL d   1       5.577  -1.091 -16.863  0.00  0.00    -0.004 A 
ATOM      9  C   UNL d   1       7.391  -0.549 -19.997  0.00  0.00    -0.004 A 
ATOM     10  C   UNL d   1       4.955  -1.399 -19.630  0.00  0.00    -0.000 A 
ATOM     11  C   UNL d   1       8.404  -0.164 -19.110  0.00  0.00    -0.009 A 
ATOM     12  C   UNL d   1       7.607  -0.530 -21.386  0.00  0.00    -0.000 A 
ATOM     13  C   UNL d   1       9.665   0.255 -19.575  0.00  0.00    -0.004 A 
ATOM     14  C   UNL d   1       9.889   0.280 -20.968  0.00  0.00    -0.000 A 
ATOM     15  C   UNL d   1       8.867  -0.111 -21.866  0.00  0.00    -0.000 A 
ATOM     16  C   UNL d   1       4.002  -1.717 -18.636  0.00  0.00    -0.000 A 
ATOM     17  C   UNL d   1       4.310  -1.568 -17.264  0.00  0.00    -0.000 A 
ENDBRANCH   3   5
ENDBRANCH   1   2
BRANCH   1  18
ATOM     18  C   UNL d   1       7.266   2.865 -14.389  0.00  0.00     0.029 C 
BRANCH  18  19
ATOM     19  C   UNL d   1       7.434   4.200 -13.644  0.00  0.00     0.037 C 
BRANCH  19  20
ATOM     20  C   UNL d   1       8.025   3.996 -12.257  0.00  0.00     0.251 C 
BRANCH  20  21
ATOM     21  N   UNL d   1       8.173   5.183 -11.454  0.00  0.00     0.141 N 
ATOM     22  C   UNL d   1       8.568   4.743 -10.109  0.00  0.00     0.274 C 
ATOM     23  C   UNL d   1       8.629   5.943  -9.180  0.00  0.00     0.137 C 
ATOM     24  N   UNL d   1       9.512   6.958  -9.744  0.00  0.00    -0.344 N 
ATOM     25  C   UNL d   1       9.301   7.306 -11.156  0.00  0.00     0.137 C 
ATOM     26  C   UNL d   1       9.211   6.045 -12.008  0.00  0.00     0.274 C 
BRANCH  24  27
ATOM     27  C   UNL d   1      10.490   7.626  -8.984  0.00  0.00     0.068 A 
ATOM     28  C   UNL d   1      10.317   8.088  -7.649  0.00  0.00     0.084 A 
ATOM     29  C   UNL d   1      11.410   8.664  -6.960  0.00  0.00     0.070 A 
ATOM     30 CL   UNL d   1       8.805   7.989  -6.832  0.00  0.00    -0.080 Cl
ATOM     31  C   UNL d   1      12.626   8.804  -7.622  0.00  0.00     0.012 A 
ATOM     32 CL   UNL d   1      11.285   9.201  -5.329  0.00  0.00    -0.081 Cl
ATOM     33  C   UNL d   1      12.816   8.370  -8.930  0.00  0.00     0.002 A 
ATOM     34  C   UNL d   1      11.736   7.804  -9.601  0.00  0.00     0.018 A 
ENDBRANCH  24  27
ENDBRANCH  20  21
ENDBRANCH  19  20
ENDBRANCH  18  19
ENDBRANCH   1  18
TORSDOF 7
