REMARK  10 active torsions:
REMARK  status: ('A' for Active; 'I' for Inactive)
REMARK    1  A    between atoms: C_8  and  O_9 
REMARK    2  A    between atoms: O_9  and  C_10 
REMARK    3  A    between atoms: C_10  and  C_11 
REMARK    4  A    between atoms: C_11  and  C_12 
REMARK    5  A    between atoms: C_12  and  C_13 
REMARK    6  A    between atoms: C_13  and  N_14 
REMARK    7  A    between atoms: N_17  and  C_18 
REMARK    8  A    between atoms: C_23  and  O_24 
REMARK    9  A    between atoms: O_24  and  C_25 
REMARK   10  A    between atoms: C_25  and  C_26 
ROOT
ATOM      1  N   UNL d   1       8.584   5.439 -12.279  0.00  0.00     0.141 N 
ATOM      2  C   UNL d   1       9.154   4.115 -12.044  0.00  0.00     0.274 C 
ATOM      3  C   UNL d   1       9.273   3.332 -13.347  0.00  0.00     0.137 C 
ATOM      4  N   UNL d   1       7.952   3.240 -13.944  0.00  0.00    -0.343 N 
ATOM      5  C   UNL d   1       7.244   4.494 -14.039  0.00  0.00     0.137 C 
ATOM      6  C   UNL d   1       7.197   5.259 -12.722  0.00  0.00     0.274 C 
ENDROOT
BRANCH   1   7
ATOM      7  C   UNL d   1       8.493   6.208 -11.047  0.00  0.00     0.251 C 
BRANCH   7   8
ATOM      8  C   UNL d   1       9.859   6.642 -10.517  0.00  0.00     0.038 C 
BRANCH   8   9
ATOM      9  C   UNL d   1       9.824   7.624  -9.360  0.00  0.00     0.035 C 
BRANCH   9  10
ATOM     10  C   UNL d   1      11.265   7.935  -8.896  0.00  0.00     0.149 C 
BRANCH  10  11
ATOM     11  O   UNL d   1      11.224   9.133  -8.136  0.00  0.00    -0.331 OA
BRANCH  11  12
ATOM     12  C   UNL d   1      11.223   9.058  -6.779  0.00  0.00     0.096 C 
ATOM     13  C   UNL d   1      11.003  10.254  -6.040  0.00  0.00     0.024 C 
ATOM     14  C   UNL d   1      11.105  10.282  -4.638  0.00  0.00    -0.001 C 
ATOM     15  C   UNL d   1      11.563   9.143  -3.983  0.00  0.00    -0.004 C 
ATOM     16  C   UNL d   1      11.749   9.125  -2.489  0.00  0.00     0.038 C 
ATOM     17  C   UNL d   1      11.750   7.944  -4.705  0.00  0.00     0.082 C 
ATOM     18  C   UNL d   1      12.788   8.140  -1.992  0.00  0.00     0.095 C 
ATOM     19  C   UNL d   1      12.637   6.820  -2.725  0.00  0.00     0.256 C 
ATOM     20  O   UNL d   1      13.037   5.830  -2.181  0.00  0.00    -0.270 OA
ATOM     21  N   UNL d   1      12.165   6.805  -3.989  0.00  0.00    -0.212 NA
ATOM     22  C   UNL d   1      11.549   7.887  -6.083  0.00  0.00     0.043 C 
ENDBRANCH  11  12
ENDBRANCH  10  11
ENDBRANCH   9  10
ENDBRANCH   8   9
ENDBRANCH   7   8
ENDBRANCH   1   7
BRANCH   4  23
ATOM     23  C   UNL d   1       7.347   2.026 -14.335  0.00  0.00     0.079 A 
ATOM     24  C   UNL d   1       7.934   1.176 -15.301  0.00  0.00     0.110 A 
ATOM     25  C   UNL d   1       7.247  -0.019 -15.635  0.00  0.00     0.026 A 
ATOM     26  C   UNL d   1       6.050  -0.377 -15.000  0.00  0.00     0.002 A 
ATOM     27  C   UNL d   1       5.483   0.461 -14.027  0.00  0.00     0.002 A 
ATOM     28  C   UNL d   1       6.127   1.674 -13.706  0.00  0.00     0.019 A 
BRANCH  24  29
ATOM     29  O   UNL d   1       9.155   1.503 -15.855  0.00  0.00    -0.326 OA
BRANCH  29  30
ATOM     30  C   UNL d   1       9.608   0.892 -17.064  0.00  0.00     0.187 C 
BRANCH  30  31
ATOM     31  C   UNL d   1       9.086   1.681 -18.282  0.00  0.00     0.226 C 
ATOM     32  F   UNL d   1       7.752   1.681 -18.366  0.00  0.00    -0.232 F 
ENDBRANCH  30  31
ENDBRANCH  29  30
ENDBRANCH  24  29
ENDBRANCH   4  23
TORSDOF 10
