REMARK  6 active torsions:
REMARK  status: ('A' for Active; 'I' for Inactive)
REMARK    1  A    between atoms: C_2  and  C_3 
REMARK    2  A    between atoms: C_3  and  N_4 
REMARK    3  A    between atoms: N_4  and  C_5 
REMARK    4  A    between atoms: N_4  and  C_12 
REMARK    5  A    between atoms: C_5  and  C_6 
REMARK    6  A    between atoms: C_6  and  C_7 
ROOT
ATOM      1  C   UNL d   1       8.555   6.118 -10.545  0.00  0.00     0.224 C 
ATOM      2  C   UNL d   1       9.288   4.953  -9.897  0.00  0.00     0.038 C 
ATOM      3  C   UNL d   1       9.509   5.214  -8.420  0.00  0.00     0.028 C 
ATOM      4  C   UNL d   1      10.066   6.574  -8.063  0.00  0.00    -0.026 A 
ATOM      5  C   UNL d   1      10.631   6.783  -6.784  0.00  0.00    -0.003 A 
ATOM      6  C   UNL d   1      11.104   8.044  -6.404  0.00  0.00     0.027 A 
ATOM      7  C   UNL d   1      11.019   9.114  -7.295  0.00  0.00     0.131 A 
ATOM      8  O   UNL d   1      11.457  10.331  -6.816  0.00  0.00    -0.190 OA
ATOM      9  C   UNL d   1      10.466   8.919  -8.581  0.00  0.00     0.023 A 
ATOM     10  C   UNL d   1      10.012   7.637  -8.982  0.00  0.00    -0.022 A 
ATOM     11  C   UNL d   1       9.462   7.400 -10.392  0.00  0.00     0.059 C 
ENDROOT
BRANCH   1  12
ATOM     12  N   UNL d   1       8.211   5.839 -11.951  0.00  0.00     0.136 N 
BRANCH  12  13
ATOM     13  C   UNL d   1       7.449   6.947 -12.547  0.00  0.00     0.250 C 
BRANCH  13  14
ATOM     14  C   UNL d   1       5.937   6.986 -12.176  0.00  0.00     0.035 C 
ATOM     15  C   UNL d   1       5.314   8.337 -12.528  0.00  0.00     0.002 C 
ENDBRANCH  13  14
ENDBRANCH  12  13
BRANCH  12  16
ATOM     16  C   UNL d   1       7.548   4.539 -12.138  0.00  0.00     0.255 C 
BRANCH  16  17
ATOM     17  C   UNL d   1       7.348   4.220 -13.617  0.00  0.00     0.068 C 
BRANCH  17  18
ATOM     18  C   UNL d   1       6.861   2.847 -13.845  0.00  0.00     0.009 A 
ATOM     19  S   UNL d   1       5.496   2.222 -12.968  0.00  0.00    -0.091 SA
ATOM     20  C   UNL d   1       5.601   0.715 -13.826  0.00  0.00     0.035 A 
ATOM     21  C   UNL d   1       6.661   0.697 -14.700  0.00  0.00     0.007 A 
ATOM     22  C   UNL d   1       7.382   1.923 -14.720  0.00  0.00     0.003 A 
ENDBRANCH  17  18
ENDBRANCH  16  17
ENDBRANCH  12  16
ENDBRANCH   1  12
TORSDOF 6
