REMARK  2 active torsions:
REMARK  status: ('A' for Active; 'I' for Inactive)
REMARK    1  A    between atoms: N_2  and  C_4 
REMARK    2  A    between atoms: C_4  and  C_5 
ROOT
ATOM      1  C   UNL d   1       7.165   0.194 -15.772  0.00  0.00     0.149 C 
ATOM      2  C   UNL d   1       6.608   1.166 -14.725  0.00  0.00     0.039 C 
ATOM      3  C   UNL d   1       7.852   1.946 -14.354  0.00  0.00     0.058 C 
ATOM      4  C   UNL d   1       7.687   3.288 -13.658  0.00  0.00     0.003 A 
ATOM      5  C   UNL d   1       6.434   3.889 -13.410  0.00  0.00    -0.002 A 
ATOM      6  C   UNL d   1       6.373   5.146 -12.775  0.00  0.00    -0.000 A 
ATOM      7  C   UNL d   1       7.555   5.804 -12.387  0.00  0.00     0.002 A 
ATOM      8  C   UNL d   1       8.805   5.199 -12.620  0.00  0.00     0.024 A 
ATOM      9  C   UNL d   1       8.866   3.945 -13.256  0.00  0.00     0.096 A 
ATOM     10  O   UNL d   1      10.074   3.322 -13.423  0.00  0.00    -0.308 OA
ATOM     11  C   UNL d   1      10.598   3.216 -14.686  0.00  0.00     0.098 A 
ATOM     12  C   UNL d   1      11.907   3.702 -14.856  0.00  0.00     0.025 A 
ATOM     13  C   UNL d   1      12.549   3.611 -16.106  0.00  0.00     0.009 A 
ATOM     14  C   UNL d   1      11.890   3.014 -17.190  0.00  0.00     0.035 A 
ATOM     15 BR   UNL d   1      12.770   2.864 -18.869  0.00  0.00    -0.049 Br
ATOM     16  C   UNL d   1      10.583   2.520 -17.032  0.00  0.00     0.007 A 
ATOM     17  C   UNL d   1       9.925   2.611 -15.786  0.00  0.00     0.028 A 
ATOM     18  C   UNL d   1       8.491   2.099 -15.726  0.00  0.00     0.143 C 
ATOM     19  O   UNL d   1       8.301   0.837 -16.348  0.00  0.00    -0.352 OA
ENDROOT
BRANCH   1  20
ATOM     20  C   UNL d   1       6.160  -0.194 -16.878  0.00  0.00     0.280 C 
BRANCH  20  21
ATOM     21  N   UNL d   1       4.959  -0.899 -16.420  0.00  0.00     0.144 N 
ATOM     22  C   UNL d   1       4.069  -1.195 -17.540  0.00  0.00     0.286 C 
ATOM     23  C   UNL d   1       5.264  -2.137 -15.717  0.00  0.00     0.286 C 
ENDBRANCH  20  21
ENDBRANCH   1  20
TORSDOF 2
