REMARK  3 active torsions:
REMARK  status: ('A' for Active; 'I' for Inactive)
REMARK    1  A    between atoms: C_2  and  C_3 
REMARK    2  A    between atoms: C_3  and  N_4 
REMARK    3  A    between atoms: C_8  and  C_9 
ROOT
ATOM      1  N   UNL d   1       9.923   6.795  -8.370  0.00  0.00     0.137 N 
ATOM      2  C   UNL d   1       9.610   8.099  -8.983  0.00  0.00     0.250 C 
ATOM      3  C   UNL d   1      10.849   9.004  -8.841  0.00  0.00     0.036 C 
ATOM      4  C   UNL d   1      11.169   9.222  -7.370  0.00  0.00     0.008 C 
ATOM      5  C   UNL d   1      11.323   7.885  -6.633  0.00  0.00     0.056 C 
ATOM      6  C   UNL d   1      10.116   6.973  -6.930  0.00  0.00     0.255 C 
ENDROOT
BRANCH   5   7
ATOM      7  C   UNL d   1      11.541   8.076  -5.137  0.00  0.00    -0.021 A 
ATOM      8  C   UNL d   1      11.675   6.948  -4.279  0.00  0.00    -0.004 A 
ATOM      9  C   UNL d   1      11.883   7.110  -2.899  0.00  0.00    -0.000 A 
ATOM     10  C   UNL d   1      11.988   8.400  -2.350  0.00  0.00    -0.000 A 
ATOM     11  C   UNL d   1      11.867   9.527  -3.190  0.00  0.00    -0.000 A 
ATOM     12  C   UNL d   1      11.659   9.373  -4.550  0.00  0.00    -0.004 A 
ENDBRANCH   5   7
BRANCH   1  13
ATOM     13  C   UNL d   1       8.813   5.867  -8.596  0.00  0.00     0.250 C 
BRANCH  13  14
ATOM     14  C   UNL d   1       8.957   5.066  -9.899  0.00  0.00     0.035 C 
ATOM     15  C   UNL d   1       8.848   5.872 -11.206  0.00  0.00     0.002 C 
ENDBRANCH  13  14
ENDBRANCH   1  13
TORSDOF 3
