REMARK  7 active torsions:
REMARK  status: ('A' for Active; 'I' for Inactive)
REMARK    1  A    between atoms: C_7  and  N_8 
REMARK    2  A    between atoms: N_11  and  C_12 
REMARK    3  A    between atoms: C_12  and  C_13 
REMARK    4  A    between atoms: C_13  and  C_14 
REMARK    5  A    between atoms: C_14  and  C_15 
REMARK    6  A    between atoms: C_15  and  O_16 
REMARK    7  A    between atoms: O_16  and  C_17 
ROOT
ATOM      1  C   UNL d   1       8.599   6.314 -10.549  0.00  0.00     0.038 C 
ENDROOT
BRANCH   1   2
ATOM      2  C   UNL d   1       9.718   6.295  -9.522  0.00  0.00     0.251 C 
BRANCH   2   3
ATOM      3  N   UNL d   1      10.114   7.647  -9.134  0.00  0.00     0.141 N 
ATOM      4  C   UNL d   1       9.296   8.242  -8.062  0.00  0.00     0.274 C 
ATOM      5  C   UNL d   1       9.406   7.467  -6.716  0.00  0.00     0.137 C 
ATOM      6  N   UNL d   1      10.818   7.290  -6.389  0.00  0.00    -0.344 N 
ATOM      7  C   UNL d   1      11.662   6.785  -7.459  0.00  0.00     0.137 C 
ATOM      8  C   UNL d   1      11.513   7.665  -8.733  0.00  0.00     0.274 C 
BRANCH   6   9
ATOM      9  C   UNL d   1      11.354   7.620  -5.144  0.00  0.00     0.052 A 
ATOM     10  C   UNL d   1      11.357   8.959  -4.651  0.00  0.00    -0.006 A 
ATOM     11  C   UNL d   1      10.822  10.091  -5.487  0.00  0.00     0.033 C 
ATOM     12  C   UNL d   1      11.801   9.229  -3.337  0.00  0.00    -0.003 A 
ATOM     13  C   UNL d   1      12.268   8.190  -2.520  0.00  0.00    -0.000 A 
ATOM     14  C   UNL d   1      12.312   6.872  -3.022  0.00  0.00     0.002 A 
ATOM     15  C   UNL d   1      11.861   6.591  -4.331  0.00  0.00     0.017 A 
ENDBRANCH   6   9
ENDBRANCH   2   3
ENDBRANCH   1   2
BRANCH   1  16
ATOM     16  C   UNL d   1       8.571   5.001 -11.312  0.00  0.00     0.035 C 
BRANCH  16  17
ATOM     17  C   UNL d   1       7.502   4.985 -12.428  0.00  0.00     0.149 C 
BRANCH  17  18
ATOM     18  O   UNL d   1       7.601   3.790 -13.205  0.00  0.00    -0.331 OA
BRANCH  18  19
ATOM     19  C   UNL d   1       8.693   3.606 -14.027  0.00  0.00     0.096 A 
ATOM     20  C   UNL d   1       8.850   2.341 -14.634  0.00  0.00     0.043 A 
ATOM     21  C   UNL d   1       9.931   2.095 -15.506  0.00  0.00     0.082 A 
ATOM     22  C   UNL d   1      10.875   3.120 -15.751  0.00  0.00    -0.004 A 
ATOM     23  N   UNL d   1      10.082   0.840 -16.142  0.00  0.00    -0.212 NA
ATOM     24  C   UNL d   1      10.739   4.369 -15.140  0.00  0.00    -0.001 A 
ATOM     25  C   UNL d   1      12.050   2.848 -16.662  0.00  0.00     0.038 C 
ATOM     26  C   UNL d   1       9.653   4.621 -14.290  0.00  0.00     0.024 A 
ATOM     27  C   UNL d   1      11.688   1.823 -17.744  0.00  0.00     0.095 C 
ATOM     28  C   UNL d   1      10.914   0.618 -17.178  0.00  0.00     0.256 C 
ATOM     29  O   UNL d   1      11.047  -0.489 -17.682  0.00  0.00    -0.270 OA
ENDBRANCH  18  19
ENDBRANCH  17  18
ENDBRANCH  16  17
ENDBRANCH   1  16
TORSDOF 7
