REMARK  1 active torsions:
REMARK  status: ('A' for Active; 'I' for Inactive)
REMARK    1  A    between atoms: O_2  and  C_3 
ROOT
ATOM      1  C   UNL d   1      10.269   0.384 -17.880  0.00  0.00     0.094 A 
ATOM      2  C   UNL d   1      10.667   0.358 -16.526  0.00  0.00     0.024 A 
ATOM      3  C   UNL d   1       9.710   0.348 -15.499  0.00  0.00     0.003 A 
ATOM      4  C   UNL d   1       8.330   0.390 -15.792  0.00  0.00     0.006 A 
ATOM      5  C   UNL d   1       7.922   0.456 -17.149  0.00  0.00    -0.019 A 
ATOM      6  C   UNL d   1       8.897   0.447 -18.173  0.00  0.00     0.020 A 
ATOM      7  C   UNL d   1       6.468   0.528 -17.555  0.00  0.00     0.028 C 
ATOM      8  C   UNL d   1       5.638  -0.597 -16.941  0.00  0.00     0.022 C 
ATOM      9  C   UNL d   1       5.165  -0.244 -15.538  0.00  0.00     0.077 C 
ATOM     10  N   UNL d   1       6.184  -0.462 -14.506  0.00  0.00    -0.248 NA
ATOM     11  C   UNL d   1       5.572   0.054 -13.265  0.00  0.00     0.103 C 
ATOM     12  C   UNL d   1       5.845   1.535 -13.299  0.00  0.00    -0.005 A 
ATOM     13  C   UNL d   1       5.216   2.580 -12.616  0.00  0.00    -0.003 A 
ATOM     14  C   UNL d   1       5.728   3.887 -12.784  0.00  0.00    -0.000 A 
ATOM     15  C   UNL d   1       6.852   4.108 -13.612  0.00  0.00     0.000 A 
ATOM     16  C   UNL d   1       7.465   3.037 -14.306  0.00  0.00     0.001 A 
ATOM     17  C   UNL d   1       6.922   1.756 -14.126  0.00  0.00     0.008 A 
ATOM     18  C   UNL d   1       7.379   0.410 -14.595  0.00  0.00     0.036 C 
ENDROOT
BRANCH   1  19
ATOM     19  O   UNL d   1      11.143   0.353 -18.947  0.00  0.00    -0.328 OA
ATOM     20  C   UNL d   1      12.535   0.263 -18.675  0.00  0.00     0.181 C 
ENDBRANCH   1  19
TORSDOF 1
