REMARK  4 active torsions:
REMARK  status: ('A' for Active; 'I' for Inactive)
REMARK    1  A    between atoms: C_4  and  C_5 
REMARK    2  A    between atoms: C_5  and  N_6 
REMARK    3  A    between atoms: C_9  and  C_10 
REMARK    4  A    between atoms: C_25  and  C_26 
ROOT
ATOM      1  O   UNL d   1      10.795  -0.848 -17.849  0.00  0.00    -0.291 OA
ATOM      2  C   UNL d   1      10.798   0.377 -17.852  0.00  0.00     0.173 C 
ATOM      3  C   UNL d   1      11.559   1.124 -18.955  0.00  0.00     0.071 C 
ATOM      4  C   UNL d   1      12.099   2.494 -18.515  0.00  0.00     0.045 C 
ATOM      5  C   UNL d   1      10.968   3.359 -17.928  0.00  0.00     0.029 C 
ATOM      6  C   UNL d   1      10.147   2.628 -16.885  0.00  0.00    -0.019 A 
ATOM      7  C   UNL d   1       9.459   3.394 -15.925  0.00  0.00    -0.004 A 
ATOM      8  C   UNL d   1       8.669   2.774 -14.937  0.00  0.00    -0.000 A 
ATOM      9  C   UNL d   1       8.584   1.367 -14.920  0.00  0.00     0.000 A 
ATOM     10  C   UNL d   1       9.278   0.592 -15.870  0.00  0.00     0.003 A 
ATOM     11  C   UNL d   1      10.066   1.216 -16.862  0.00  0.00     0.031 A 
ENDROOT
BRANCH   4  12
ATOM     12  C   UNL d   1      12.770   3.203 -19.711  0.00  0.00     0.251 C 
BRANCH  12  13
ATOM     13  N   UNL d   1      13.965   3.958 -19.338  0.00  0.00     0.137 N 
ATOM     14  C   UNL d   1      14.639   4.390 -20.565  0.00  0.00     0.251 C 
ATOM     15  C   UNL d   1      15.953   5.104 -20.226  0.00  0.00     0.041 C 
ATOM     16  C   UNL d   1      15.712   6.307 -19.300  0.00  0.00     0.047 C 
ATOM     17  C   UNL d   1      14.871   5.888 -18.095  0.00  0.00     0.041 C 
ATOM     18  C   UNL d   1      13.618   5.132 -18.530  0.00  0.00     0.251 C 
BRANCH  16  19
ATOM     19  C   UNL d   1      17.021   6.935 -18.846  0.00  0.00     0.087 A 
ATOM     20  C   UNL d   1      17.716   8.061 -19.324  0.00  0.00     0.041 A 
ATOM     21  C   UNL d   1      18.888   8.224 -18.578  0.00  0.00     0.129 A 
ATOM     22  C   UNL d   1      17.432   8.956 -20.379  0.00  0.00     0.006 A 
ATOM     23  O   UNL d   1      18.892   7.189 -17.663  0.00  0.00    -0.211 OA
ATOM     24  C   UNL d   1      19.806   9.251 -18.811  0.00  0.00     0.057 A 
ATOM     25  N   UNL d   1      17.735   6.385 -17.863  0.00  0.00    -0.131 NA
ATOM     26  C   UNL d   1      19.529  10.144 -19.866  0.00  0.00     0.142 A 
ATOM     27  F   UNL d   1      20.387  11.158 -20.127  0.00  0.00    -0.204 F 
ATOM     28  C   UNL d   1      18.356   9.991 -20.647  0.00  0.00     0.030 A 
ENDBRANCH  16  19
ENDBRANCH  12  13
ENDBRANCH   4  12
BRANCH   8  29
ATOM     29  C   UNL d   1       7.944   3.587 -13.951  0.00  0.00    -0.000 A 
ATOM     30  C   UNL d   1       8.573   4.676 -13.300  0.00  0.00    -0.000 A 
ATOM     31  C   UNL d   1       7.881   5.449 -12.349  0.00  0.00    -0.000 A 
ATOM     32  C   UNL d   1       6.542   5.147 -12.042  0.00  0.00     0.000 A 
ATOM     33  C   UNL d   1       5.899   4.069 -12.683  0.00  0.00    -0.000 A 
ATOM     34  C   UNL d   1       6.596   3.302 -13.634  0.00  0.00    -0.000 A 
ENDBRANCH   8  29
TORSDOF 4
