REMARK  3 active torsions:
REMARK  status: ('A' for Active; 'I' for Inactive)
REMARK    1  A    between atoms: N_5  and  C_6 
REMARK    2  A    between atoms: N_15  and  N_16 
REMARK       I    between atoms: N_16  and  C_17 
REMARK    3  A    between atoms: C_17  and  C_19 
ROOT
ATOM      1  C   UNL d   1       9.079   2.594 -16.462  0.00  0.00     0.142 C 
ATOM      2  N   UNL d   1       8.303   1.597 -16.766  0.00  0.00    -0.227 NA
ATOM      3  C   UNL d   1       8.034   1.112 -18.060  0.00  0.00     0.101 A 
ATOM      4  C   UNL d   1       6.739   0.563 -18.256  0.00  0.00     0.032 A 
ATOM      5  C   UNL d   1       6.380  -0.034 -19.480  0.00  0.00     0.059 A 
ATOM      6 CL   UNL d   1       4.797  -0.684 -19.706  0.00  0.00    -0.082 Cl
ATOM      7  C   UNL d   1       7.326  -0.111 -20.520  0.00  0.00     0.013 A 
ATOM      8  C   UNL d   1       8.618   0.414 -20.339  0.00  0.00     0.022 A 
ATOM      9  C   UNL d   1       8.983   1.041 -19.125  0.00  0.00     0.101 A 
ATOM     10  N   UNL d   1      10.253   1.642 -19.032  0.00  0.00    -0.225 N 
ATOM     11  C   UNL d   1      10.403   2.983 -18.638  0.00  0.00     0.086 A 
ATOM     12  C   UNL d   1      11.155   3.877 -19.442  0.00  0.00     0.019 A 
ATOM     13  C   UNL d   1      11.245   5.243 -19.131  0.00  0.00     0.002 A 
ATOM     14  C   UNL d   1      10.555   5.742 -18.016  0.00  0.00     0.000 A 
ATOM     15  C   UNL d   1       9.794   4.876 -17.215  0.00  0.00     0.004 A 
ATOM     16  C   UNL d   1       9.753   3.483 -17.477  0.00  0.00     0.051 A 
ENDROOT
BRANCH  10  17
ATOM     17  N   UNL d   1      11.392   0.909 -19.403  0.00  0.00    -0.123 NA
ATOM     18  C   UNL d   1      11.905   0.913 -20.645  0.00  0.00     0.298 C 
ATOM     19  O   UNL d   1      11.375   1.444 -21.619  0.00  0.00    -0.264 OA
BRANCH  18  20
ATOM     20  C   UNL d   1      13.214   0.205 -20.799  0.00  0.00     0.089 A 
ATOM     21  C   UNL d   1      14.274   0.436 -19.897  0.00  0.00     0.172 A 
ATOM     22  C   UNL d   1      15.523  -0.175 -20.112  0.00  0.00     0.168 A 
ATOM     23  F   UNL d   1      14.120   1.267 -18.836  0.00  0.00    -0.202 F 
ATOM     24  C   UNL d   1      15.711  -1.006 -21.236  0.00  0.00     0.032 A 
ATOM     25  F   UNL d   1      16.547   0.049 -19.253  0.00  0.00    -0.202 F 
ATOM     26  C   UNL d   1      14.660  -1.234 -22.144  0.00  0.00     0.003 A 
ATOM     27  C   UNL d   1      13.413  -0.622 -21.927  0.00  0.00     0.007 A 
ENDBRANCH  18  20
ENDBRANCH  10  17
BRANCH   1  28
ATOM     28  N   UNL d   1       9.353   2.939 -15.140  0.00  0.00    -0.330 N 
ATOM     29  C   UNL d   1      10.656   3.385 -14.640  0.00  0.00     0.138 C 
ATOM     30  C   UNL d   1      10.499   4.690 -13.841  0.00  0.00     0.274 C 
ATOM     31  N   UNL d   1       9.572   4.487 -12.727  0.00  0.00     0.143 N 
ATOM     32  C   UNL d   1       9.424   5.732 -11.982  0.00  0.00     0.286 C 
ATOM     33  C   UNL d   1       8.264   4.087 -13.252  0.00  0.00     0.274 C 
ATOM     34  C   UNL d   1       8.391   2.775 -14.051  0.00  0.00     0.138 C 
ENDBRANCH   1  28
TORSDOF 3
