REMARK  9 active torsions:
REMARK  status: ('A' for Active; 'I' for Inactive)
REMARK    1  A    between atoms: C_2  and  C_5 
REMARK    2  A    between atoms: C_7  and  N_8 
REMARK    3  A    between atoms: N_11  and  C_12 
REMARK    4  A    between atoms: C_12  and  C_13 
REMARK    5  A    between atoms: C_13  and  C_14 
REMARK    6  A    between atoms: C_14  and  C_15 
REMARK    7  A    between atoms: C_15  and  N_16 
REMARK       I    between atoms: N_16  and  C_17 
REMARK       I    between atoms: C_17  and  N_19 
REMARK    8  A    between atoms: N_19  and  C_20 
REMARK    9  A    between atoms: C_29  and  C_30 
ROOT
ATOM      1  N   UNL d   1       8.600   1.385 -16.815  0.00  0.00    -0.330 N 
ATOM      2  C   UNL d   1       8.084   1.141 -15.472  0.00  0.00     0.138 C 
ATOM      3  C   UNL d   1       8.033   2.459 -14.678  0.00  0.00     0.274 C 
ATOM      4  N   UNL d   1       9.354   3.107 -14.657  0.00  0.00     0.141 N 
ATOM      5  C   UNL d   1       9.771   3.396 -16.034  0.00  0.00     0.274 C 
ATOM      6  C   UNL d   1       9.877   2.093 -16.848  0.00  0.00     0.138 C 
ENDROOT
BRANCH   1   7
ATOM      7  C   UNL d   1       7.902   0.979 -17.976  0.00  0.00     0.143 A 
ATOM      8  N   UNL d   1       6.950   0.029 -17.844  0.00  0.00    -0.214 NA
ATOM      9  C   UNL d   1       6.280  -0.366 -18.931  0.00  0.00     0.140 A 
ATOM     10  N   UNL d   1       6.525   0.067 -20.171  0.00  0.00    -0.227 NA
ATOM     11  C   UNL d   1       7.459   1.024 -20.332  0.00  0.00     0.157 A 
ATOM     12  C   UNL d   1       8.180   1.536 -19.236  0.00  0.00     0.060 A 
BRANCH   9  13
ATOM     13  C   UNL d   1       5.311  -1.553 -18.793  0.00  0.00     0.052 C 
ATOM     14  C   UNL d   1       4.683  -1.604 -17.382  0.00  0.00     0.008 C 
ATOM     15  C   UNL d   1       6.069  -2.864 -19.066  0.00  0.00     0.008 C 
ATOM     16  C   UNL d   1       4.135  -1.413 -19.785  0.00  0.00     0.008 C 
ENDBRANCH   9  13
BRANCH  11  17
ATOM     17  C   UNL d   1       7.710   1.529 -21.747  0.00  0.00     0.435 C 
ATOM     18  F   UNL d   1       8.600   2.520 -21.750  0.00  0.00    -0.165 F 
ATOM     19  F   UNL d   1       8.180   0.544 -22.511  0.00  0.00    -0.165 F 
ATOM     20  F   UNL d   1       6.574   1.987 -22.271  0.00  0.00    -0.165 F 
ENDBRANCH  11  17
ENDBRANCH   1   7
BRANCH   4  21
ATOM     21  C   UNL d   1       9.320   4.360 -13.906  0.00  0.00     0.251 C 
BRANCH  21  22
ATOM     22  C   UNL d   1       9.075   4.127 -12.407  0.00  0.00     0.037 C 
BRANCH  22  23
ATOM     23  C   UNL d   1       9.187   5.417 -11.593  0.00  0.00     0.029 C 
BRANCH  23  24
ATOM     24  C   UNL d   1       8.796   5.190 -10.131  0.00  0.00     0.131 C 
BRANCH  24  25
ATOM     25  N   UNL d   1       9.021   6.396  -9.356  0.00  0.00    -0.217 NA
ATOM     26  C   UNL d   1       9.876   6.510  -8.339  0.00  0.00     0.364 C 
ATOM     27  O   UNL d   1      10.655   5.621  -8.023  0.00  0.00    -0.243 OA
ATOM     28  N   UNL d   1       9.779   7.692  -7.714  0.00  0.00    -0.191 NA
BRANCH  28  29
ATOM     29  C   UNL d   1      10.497   8.127  -6.568  0.00  0.00     0.086 A 
ATOM     30  C   UNL d   1      11.011   7.267  -5.567  0.00  0.00     0.019 A 
ATOM     31  C   UNL d   1      11.684   7.798  -4.444  0.00  0.00     0.002 A 
ATOM     32  C   UNL d   1      11.852   9.192  -4.316  0.00  0.00     0.000 A 
ATOM     33  C   UNL d   1      11.336  10.045  -5.311  0.00  0.00     0.002 A 
ATOM     34  C   UNL d   1      10.666   9.514  -6.423  0.00  0.00     0.019 A 
ENDBRANCH  28  29
ENDBRANCH  24  25
ENDBRANCH  23  24
ENDBRANCH  22  23
ENDBRANCH  21  22
ENDBRANCH   4  21
TORSDOF 9
