REMARK  4 active torsions:
REMARK  status: ('A' for Active; 'I' for Inactive)
REMARK    1  A    between atoms: N_6  and  C_7 
REMARK    2  A    between atoms: C_7  and  C_8 
REMARK    3  A    between atoms: C_8  and  N_9 
REMARK    4  A    between atoms: N_12  and  C_13 
ROOT
ATOM      1  N   UNL d   1       7.832   5.714 -12.207  0.00  0.00    -0.298 N 
ATOM      2  C   UNL d   1       6.393   5.891 -12.246  0.00  0.00     0.131 A 
ATOM      3  C   UNL d   1       5.934   4.650 -13.014  0.00  0.00     0.135 A 
ATOM      4  N   UNL d   1       7.188   3.977 -13.344  0.00  0.00    -0.280 N 
ATOM      5  C   UNL d   1       8.254   4.603 -12.807  0.00  0.00     0.328 A 
ATOM      6  O   UNL d   1       9.430   4.232 -12.860  0.00  0.00    -0.247 OA
ENDROOT
BRANCH   1   7
ATOM      7  C   UNL d   1       8.717   6.660 -11.546  0.00  0.00     0.141 C 
BRANCH   7   8
ATOM      8  C   UNL d   1       9.128   6.130 -10.156  0.00  0.00     0.274 C 
BRANCH   8   9
ATOM      9  N   UNL d   1       9.782   7.155  -9.348  0.00  0.00     0.139 N 
ATOM     10  C   UNL d   1      11.033   7.616  -9.948  0.00  0.00     0.250 C 
ATOM     11  C   UNL d   1      11.605   8.769  -9.123  0.00  0.00     0.035 C 
ATOM     12  C   UNL d   1      11.849   8.342  -7.675  0.00  0.00     0.004 C 
ATOM     13  C   UNL d   1      10.569   7.733  -7.079  0.00  0.00     0.033 C 
ATOM     14  C   UNL d   1      10.825   7.187  -5.670  0.00  0.00     0.002 C 
ATOM     15  C   UNL d   1      10.014   6.629  -8.002  0.00  0.00     0.250 C 
ENDBRANCH   8   9
ENDBRANCH   7   8
ENDBRANCH   1   7
BRANCH   4  16
ATOM     16  C   UNL d   1       7.252   2.772 -14.099  0.00  0.00     0.065 A 
ATOM     17  C   UNL d   1       6.253   1.781 -13.962  0.00  0.00     0.029 A 
ATOM     18  C   UNL d   1       6.327   0.576 -14.691  0.00  0.00     0.059 A 
ATOM     19  C   UNL d   1       7.401   0.353 -15.573  0.00  0.00     0.011 A 
ATOM     20 CL   UNL d   1       5.114  -0.637 -14.475  0.00  0.00    -0.082 Cl
ATOM     21  C   UNL d   1       8.395   1.336 -15.728  0.00  0.00     0.002 A 
ATOM     22  C   UNL d   1       8.315   2.538 -15.004  0.00  0.00     0.017 A 
ENDBRANCH   4  16
TORSDOF 4
