REMARK  4 active torsions:
REMARK  status: ('A' for Active; 'I' for Inactive)
REMARK    1  A    between atoms: C_5  and  N_6 
REMARK    2  A    between atoms: N_9  and  C_10 
REMARK    3  A    between atoms: C_10  and  C_11 
REMARK    4  A    between atoms: C_13  and  C_14 
ROOT
ATOM      1  N   UNL d   1       8.417   4.199 -13.774  0.00  0.00    -0.344 N 
ATOM      2  C   UNL d   1       9.032   5.486 -14.055  0.00  0.00     0.137 C 
ATOM      3  C   UNL d   1       9.633   6.058 -12.776  0.00  0.00     0.274 C 
ATOM      4  N   UNL d   1       8.612   6.135 -11.742  0.00  0.00     0.141 N 
ATOM      5  C   UNL d   1       8.119   4.798 -11.441  0.00  0.00     0.274 C 
ATOM      6  C   UNL d   1       7.478   4.185 -12.671  0.00  0.00     0.137 C 
ENDROOT
BRANCH   4   7
ATOM      7  C   UNL d   1       9.192   6.606 -10.503  0.00  0.00     0.251 C 
BRANCH   7   8
ATOM      8  C   UNL d   1       9.580   8.077 -10.611  0.00  0.00     0.038 A 
ATOM      9  C   UNL d   1      10.065   8.876  -9.409  0.00  0.00     0.024 A 
ATOM     10  C   UNL d   1      11.035   8.454 -10.475  0.00  0.00     0.007 A 
BRANCH   9  11
ATOM     11  C   UNL d   1      10.186   8.310  -8.037  0.00  0.00    -0.022 C 
ATOM     12  C   UNL d   1      11.335   8.510  -7.237  0.00  0.00    -0.004 C 
ATOM     13  C   UNL d   1      11.434   7.885  -5.975  0.00  0.00    -0.000 C 
ATOM     14  C   UNL d   1      10.425   6.995  -5.549  0.00  0.00    -0.000 C 
ATOM     15  C   UNL d   1       9.278   6.837  -6.344  0.00  0.00    -0.000 C 
ATOM     16  C   UNL d   1       9.127   7.544  -7.524  0.00  0.00    -0.004 C 
ENDBRANCH   9  11
ENDBRANCH   7   8
ENDBRANCH   4   7
BRANCH   1  17
ATOM     17  C   UNL d   1       8.700   3.045 -14.542  0.00  0.00     0.052 A 
ATOM     18  C   UNL d   1      10.027   2.851 -14.983  0.00  0.00     0.016 A 
ATOM     19  C   UNL d   1      10.371   1.712 -15.751  0.00  0.00    -0.003 A 
ATOM     20  C   UNL d   1       9.377   0.788 -16.087  0.00  0.00    -0.022 A 
ATOM     21  C   UNL d   1       9.729  -0.433 -16.918  0.00  0.00     0.031 C 
ATOM     22  C   UNL d   1       8.056   0.974 -15.655  0.00  0.00    -0.007 A 
ATOM     23  C   UNL d   1       7.693   2.108 -14.879  0.00  0.00    -0.007 A 
ATOM     24  C   UNL d   1       6.214   2.243 -14.525  0.00  0.00     0.033 C 
ENDBRANCH   1  17
TORSDOF 4
